# generated using pymatgen
data_CoTeO3
_symmetry_space_group_name_H-M   'P 1'
_cell_length_a   5.39719742
_cell_length_b   6.06695934
_cell_length_c   7.56783223
_cell_angle_alpha   90.00000000
_cell_angle_beta   90.00000000
_cell_angle_gamma   90.00000000
_symmetry_Int_Tables_number   1
_chemical_formula_structural   CoTeO3
_chemical_formula_sum   'Co4 Te4 O12'
_cell_volume   247.80546729
_cell_formula_units_Z   4
loop_
 _symmetry_equiv_pos_site_id
 _symmetry_equiv_pos_as_xyz
  1  'x, y, z'
loop_
 _atom_site_type_symbol
 _atom_site_label
 _atom_site_symmetry_multiplicity
 _atom_site_fract_x
 _atom_site_fract_y
 _atom_site_fract_z
 _atom_site_occupancy
  Co  Co0  1  0.00000000  0.50000000  0.00000000  1
  Co  Co1  1  0.50000000  0.00000000  0.00000000  1
  Co  Co2  1  0.50000000  0.00000000  0.50000000  1
  Co  Co3  1  0.00000000  0.50000000  0.50000000  1
  Te  Te4  1  0.51228400  0.48622900  0.25000000  1
  Te  Te5  1  0.01228400  0.01377100  0.75000000  1
  Te  Te6  1  0.98771600  0.98622900  0.25000000  1
  Te  Te7  1  0.48771600  0.51377100  0.75000000  1
  O  O8  1  0.83928700  0.44754700  0.75000000  1
  O  O9  1  0.86380000  0.18239400  0.43570300  1
  O  O10  1  0.86380000  0.18239400  0.06429700  1
  O  O11  1  0.16071300  0.55245300  0.25000000  1
  O  O12  1  0.63620000  0.68239400  0.43570300  1
  O  O13  1  0.13620000  0.81760600  0.93570300  1
  O  O14  1  0.33928700  0.05245300  0.25000000  1
  O  O15  1  0.63620000  0.68239400  0.06429700  1
  O  O16  1  0.36380000  0.31760600  0.56429700  1
  O  O17  1  0.13620000  0.81760600  0.56429700  1
  O  O18  1  0.66071300  0.94754700  0.75000000  1
  O  O19  1  0.36380000  0.31760600  0.93570300  1
