# generated using pymatgen
data_BW
_symmetry_space_group_name_H-M   'P 1'
_cell_length_a   3.18286200
_cell_length_b   8.52704800
_cell_length_c   3.10984900
_cell_angle_alpha   90.00000000
_cell_angle_beta   90.00000000
_cell_angle_gamma   90.00000000
_symmetry_Int_Tables_number   1
_chemical_formula_structural   BW
_chemical_formula_sum   'B4 W4'
_cell_volume   84.40259883
_cell_formula_units_Z   4
loop_
 _symmetry_equiv_pos_site_id
 _symmetry_equiv_pos_as_xyz
  1  'x, y, z'
loop_
 _atom_site_type_symbol
 _atom_site_label
 _atom_site_symmetry_multiplicity
 _atom_site_fract_x
 _atom_site_fract_y
 _atom_site_fract_z
 _atom_site_occupancy
  B  B0  1  0.00000000  0.43940000  0.25000000  1
  B  B1  1  0.50000000  0.06060000  0.75000000  1
  B  B2  1  0.50000000  0.93940000  0.25000000  1
  B  B3  1  0.00000000  0.56060000  0.75000000  1
  W  W4  1  0.00000000  0.14471100  0.25000000  1
  W  W5  1  0.50000000  0.35528900  0.75000000  1
  W  W6  1  0.50000000  0.64471100  0.25000000  1
  W  W7  1  0.00000000  0.85528900  0.75000000  1
