# generated using pymatgen
data_Na2ZnGe
_symmetry_space_group_name_H-M   'P 1'
_cell_length_a   7.44011000
_cell_length_b   9.25592800
_cell_length_c   5.53304100
_cell_angle_alpha   90.00000000
_cell_angle_beta   90.00000000
_cell_angle_gamma   90.00000000
_symmetry_Int_Tables_number   1
_chemical_formula_structural   Na2ZnGe
_chemical_formula_sum   'Na8 Zn4 Ge4'
_cell_volume   381.03354611
_cell_formula_units_Z   4
loop_
 _symmetry_equiv_pos_site_id
 _symmetry_equiv_pos_as_xyz
  1  'x, y, z'
loop_
 _atom_site_type_symbol
 _atom_site_label
 _atom_site_symmetry_multiplicity
 _atom_site_fract_x
 _atom_site_fract_y
 _atom_site_fract_z
 _atom_site_occupancy
  Na  Na0  1  0.35781850  0.32376850  0.75000000  1
  Na  Na1  1  0.64218150  0.67623150  0.25000000  1
  Na  Na2  1  0.64218150  0.32376850  0.25000000  1
  Na  Na3  1  0.35781850  0.67623150  0.75000000  1
  Na  Na4  1  0.85781850  0.82376850  0.75000000  1
  Na  Na5  1  0.14218150  0.17623150  0.25000000  1
  Na  Na6  1  0.14218150  0.82376850  0.25000000  1
  Na  Na7  1  0.85781850  0.17623150  0.75000000  1
  Zn  Zn8  1  0.50000000  0.00000000  0.00000000  1
  Zn  Zn9  1  0.50000000  0.00000000  0.50000000  1
  Zn  Zn10  1  0.00000000  0.50000000  0.00000000  1
  Zn  Zn11  1  0.00000000  0.50000000  0.50000000  1
  Ge  Ge12  1  0.22807100  0.00000000  0.75000000  1
  Ge  Ge13  1  0.77192900  0.00000000  0.25000000  1
  Ge  Ge14  1  0.72807100  0.50000000  0.75000000  1
  Ge  Ge15  1  0.27192900  0.50000000  0.25000000  1
