# generated using pymatgen
data_Tm
_symmetry_space_group_name_H-M   'P 1'
_cell_length_a   3.51163422
_cell_length_b   3.51163422
_cell_length_c   25.25012560
_cell_angle_alpha   90.00000000
_cell_angle_beta   90.00000000
_cell_angle_gamma   120.00000000
_symmetry_Int_Tables_number   1
_chemical_formula_structural   Tm
_chemical_formula_sum   Tm9
_cell_volume   269.65763430
_cell_formula_units_Z   9
loop_
 _symmetry_equiv_pos_site_id
 _symmetry_equiv_pos_as_xyz
  1  'x, y, z'
loop_
 _atom_site_type_symbol
 _atom_site_label
 _atom_site_symmetry_multiplicity
 _atom_site_fract_x
 _atom_site_fract_y
 _atom_site_fract_z
 _atom_site_occupancy
  Tm  Tm0  1  0.00000000  0.00000000  0.00000000  1
  Tm  Tm1  1  0.00000000  0.00000000  0.22199000  1
  Tm  Tm2  1  0.66666667  0.33333333  0.11134333  1
  Tm  Tm3  1  0.66666667  0.33333333  0.33333333  1
  Tm  Tm4  1  0.66666667  0.33333333  0.55532333  1
  Tm  Tm5  1  0.33333333  0.66666667  0.44467667  1
  Tm  Tm6  1  0.33333333  0.66666667  0.66666667  1
  Tm  Tm7  1  0.33333333  0.66666667  0.88865667  1
  Tm  Tm8  1  0.00000000  0.00000000  0.77801000  1
