# generated using pymatgen
data_CaSn2Ir
_symmetry_space_group_name_H-M   'P 1'
_cell_length_a   4.35009600
_cell_length_b   10.93339800
_cell_length_c   7.66668000
_cell_angle_alpha   90.00000000
_cell_angle_beta   90.00000000
_cell_angle_gamma   90.00000000
_symmetry_Int_Tables_number   1
_chemical_formula_structural   CaSn2Ir
_chemical_formula_sum   'Ca4 Sn8 Ir4'
_cell_volume   364.63750443
_cell_formula_units_Z   4
loop_
 _symmetry_equiv_pos_site_id
 _symmetry_equiv_pos_as_xyz
  1  'x, y, z'
loop_
 _atom_site_type_symbol
 _atom_site_label
 _atom_site_symmetry_multiplicity
 _atom_site_fract_x
 _atom_site_fract_y
 _atom_site_fract_z
 _atom_site_occupancy
  Ca  Ca0  1  0.00000000  0.06777200  0.25000000  1
  Ca  Ca1  1  0.50000000  0.43222800  0.75000000  1
  Ca  Ca2  1  0.50000000  0.56777200  0.25000000  1
  Ca  Ca3  1  0.00000000  0.93222800  0.75000000  1
  Sn  Sn4  1  0.00000000  0.35575300  0.45346000  1
  Sn  Sn5  1  0.00000000  0.35575300  0.04654000  1
  Sn  Sn6  1  0.50000000  0.14424700  0.54654000  1
  Sn  Sn7  1  0.50000000  0.14424700  0.95346000  1
  Sn  Sn8  1  0.50000000  0.85575300  0.45346000  1
  Sn  Sn9  1  0.50000000  0.85575300  0.04654000  1
  Sn  Sn10  1  0.00000000  0.64424700  0.54654000  1
  Sn  Sn11  1  0.00000000  0.64424700  0.95346000  1
  Ir  Ir12  1  0.50000000  0.28772600  0.25000000  1
  Ir  Ir13  1  0.00000000  0.21227400  0.75000000  1
  Ir  Ir14  1  0.00000000  0.78772600  0.25000000  1
  Ir  Ir15  1  0.50000000  0.71227400  0.75000000  1
