# generated using pymatgen
data_Hf3(CuSi)4
_symmetry_space_group_name_H-M   'P 1'
_cell_length_a   3.91901000
_cell_length_b   6.37316400
_cell_length_c   13.01820400
_cell_angle_alpha   90.00000000
_cell_angle_beta   90.00000000
_cell_angle_gamma   90.00000000
_symmetry_Int_Tables_number   1
_chemical_formula_structural   Hf3(CuSi)4
_chemical_formula_sum   'Hf6 Cu8 Si8'
_cell_volume   325.14908691
_cell_formula_units_Z   2
loop_
 _symmetry_equiv_pos_site_id
 _symmetry_equiv_pos_as_xyz
  1  'x, y, z'
loop_
 _atom_site_type_symbol
 _atom_site_label
 _atom_site_symmetry_multiplicity
 _atom_site_fract_x
 _atom_site_fract_y
 _atom_site_fract_z
 _atom_site_occupancy
  Hf  Hf0  1  0.00000000  0.00000000  0.87661700  1
  Hf  Hf1  1  0.50000000  0.50000000  0.62338300  1
  Hf  Hf2  1  0.00000000  0.50000000  0.00000000  1
  Hf  Hf3  1  0.50000000  0.50000000  0.37661700  1
  Hf  Hf4  1  0.00000000  0.00000000  0.12338300  1
  Hf  Hf5  1  0.50000000  0.00000000  0.50000000  1
  Cu  Cu6  1  0.50000000  0.69352300  0.82977400  1
  Cu  Cu7  1  0.00000000  0.19352300  0.67022600  1
  Cu  Cu8  1  0.50000000  0.30647700  0.82977400  1
  Cu  Cu9  1  0.00000000  0.80647700  0.67022600  1
  Cu  Cu10  1  0.00000000  0.19352300  0.32977400  1
  Cu  Cu11  1  0.50000000  0.69352300  0.17022600  1
  Cu  Cu12  1  0.00000000  0.80647700  0.32977400  1
  Cu  Cu13  1  0.50000000  0.30647700  0.17022600  1
  Si  Si14  1  0.50000000  0.80822500  0.00000000  1
  Si  Si15  1  0.50000000  0.19177500  0.00000000  1
  Si  Si16  1  0.00000000  0.50000000  0.78419800  1
  Si  Si17  1  0.50000000  0.00000000  0.71580200  1
  Si  Si18  1  0.00000000  0.30822500  0.50000000  1
  Si  Si19  1  0.00000000  0.69177500  0.50000000  1
  Si  Si20  1  0.50000000  0.00000000  0.28419800  1
  Si  Si21  1  0.00000000  0.50000000  0.21580200  1
