# generated using pymatgen
data_Ca(ZnGe)2
_symmetry_space_group_name_H-M   'P 1'
_cell_length_a   4.32428200
_cell_length_b   4.32428200
_cell_length_c   10.68496600
_cell_angle_alpha   90.00000000
_cell_angle_beta   90.00000000
_cell_angle_gamma   90.00000000
_symmetry_Int_Tables_number   1
_chemical_formula_structural   Ca(ZnGe)2
_chemical_formula_sum   'Ca2 Zn4 Ge4'
_cell_volume   199.80261152
_cell_formula_units_Z   2
loop_
 _symmetry_equiv_pos_site_id
 _symmetry_equiv_pos_as_xyz
  1  'x, y, z'
loop_
 _atom_site_type_symbol
 _atom_site_label
 _atom_site_symmetry_multiplicity
 _atom_site_fract_x
 _atom_site_fract_y
 _atom_site_fract_z
 _atom_site_occupancy
  Ca  Ca0  1  0.00000000  0.00000000  0.00000000  1
  Ca  Ca1  1  0.50000000  0.50000000  0.50000000  1
  Zn  Zn2  1  0.50000000  0.00000000  0.25000000  1
  Zn  Zn3  1  0.00000000  0.50000000  0.25000000  1
  Zn  Zn4  1  0.00000000  0.50000000  0.75000000  1
  Zn  Zn5  1  0.50000000  0.00000000  0.75000000  1
  Ge  Ge6  1  0.00000000  0.00000000  0.38240600  1
  Ge  Ge7  1  0.50000000  0.50000000  0.11759400  1
  Ge  Ge8  1  0.50000000  0.50000000  0.88240600  1
  Ge  Ge9  1  0.00000000  0.00000000  0.61759400  1
