# generated using pymatgen
data_NbTe2
_symmetry_space_group_name_H-M   'P 1'
_cell_length_a   14.95242600
_cell_length_b   3.67141200
_cell_length_c   9.54795853
_cell_angle_alpha   90.00000000
_cell_angle_beta   111.14044667
_cell_angle_gamma   90.00000000
_symmetry_Int_Tables_number   1
_chemical_formula_structural   NbTe2
_chemical_formula_sum   'Nb6 Te12'
_cell_volume   488.87395357
_cell_formula_units_Z   6
loop_
 _symmetry_equiv_pos_site_id
 _symmetry_equiv_pos_as_xyz
  1  'x, y, z'
loop_
 _atom_site_type_symbol
 _atom_site_label
 _atom_site_symmetry_multiplicity
 _atom_site_fract_x
 _atom_site_fract_y
 _atom_site_fract_z
 _atom_site_occupancy
  Nb  Nb0  1  0.00000000  0.00000000  0.00000000  1
  Nb  Nb1  1  0.13771800  0.50000000  0.28802200  1
  Nb  Nb2  1  0.36228200  0.00000000  0.71197800  1
  Nb  Nb3  1  0.50000000  0.50000000  0.00000000  1
  Nb  Nb4  1  0.63771800  0.00000000  0.28802200  1
  Nb  Nb5  1  0.86228200  0.50000000  0.71197800  1
  Te  Te6  1  0.14802600  0.50000000  0.01098200  1
  Te  Te7  1  0.35197400  0.00000000  0.98901800  1
  Te  Te8  1  0.29561200  0.00000000  0.38229400  1
  Te  Te9  1  0.20438800  0.50000000  0.61770600  1
  Te  Te10  1  0.49484500  0.50000000  0.69181200  1
  Te  Te11  1  0.00515500  0.00000000  0.30818800  1
  Te  Te12  1  0.64802600  0.00000000  0.01098200  1
  Te  Te13  1  0.85197400  0.50000000  0.98901800  1
  Te  Te14  1  0.79561200  0.50000000  0.38229400  1
  Te  Te15  1  0.70438800  0.00000000  0.61770600  1
  Te  Te16  1  0.99484500  0.00000000  0.69181200  1
  Te  Te17  1  0.50515500  0.50000000  0.30818800  1
