# generated using pymatgen
data_Hf5Te4
_symmetry_space_group_name_H-M   'P 1'
_cell_length_a   10.76841600
_cell_length_b   10.76841600
_cell_length_c   3.78323800
_cell_angle_alpha   90.00000000
_cell_angle_beta   90.00000000
_cell_angle_gamma   90.00000000
_symmetry_Int_Tables_number   1
_chemical_formula_structural   Hf5Te4
_chemical_formula_sum   'Hf10 Te8'
_cell_volume   438.69967484
_cell_formula_units_Z   2
loop_
 _symmetry_equiv_pos_site_id
 _symmetry_equiv_pos_as_xyz
  1  'x, y, z'
loop_
 _atom_site_type_symbol
 _atom_site_label
 _atom_site_symmetry_multiplicity
 _atom_site_fract_x
 _atom_site_fract_y
 _atom_site_fract_z
 _atom_site_occupancy
  Hf  Hf0  1  0.18938100  0.86852900  0.50000000  1
  Hf  Hf1  1  0.36852900  0.31061900  0.00000000  1
  Hf  Hf2  1  0.63147100  0.68938100  0.00000000  1
  Hf  Hf3  1  0.81061900  0.13147100  0.50000000  1
  Hf  Hf4  1  0.00000000  0.00000000  0.00000000  1
  Hf  Hf5  1  0.68938100  0.36852900  0.00000000  1
  Hf  Hf6  1  0.86852900  0.81061900  0.50000000  1
  Hf  Hf7  1  0.13147100  0.18938100  0.50000000  1
  Hf  Hf8  1  0.31061900  0.63147100  0.00000000  1
  Hf  Hf9  1  0.50000000  0.50000000  0.50000000  1
  Te  Te10  1  0.44812550  0.78559050  0.50000000  1
  Te  Te11  1  0.28559050  0.05187450  0.00000000  1
  Te  Te12  1  0.71440950  0.94812550  0.00000000  1
  Te  Te13  1  0.55187450  0.21440950  0.50000000  1
  Te  Te14  1  0.94812550  0.28559050  0.00000000  1
  Te  Te15  1  0.78559050  0.55187450  0.50000000  1
  Te  Te16  1  0.21440950  0.44812550  0.50000000  1
  Te  Te17  1  0.05187450  0.71440950  0.00000000  1
