# generated using pymatgen
data_Be12Pd
_symmetry_space_group_name_H-M   'P 1'
_cell_length_a   7.27315400
_cell_length_b   7.27315400
_cell_length_c   4.18220800
_cell_angle_alpha   90.00000000
_cell_angle_beta   90.00000000
_cell_angle_gamma   90.00000000
_symmetry_Int_Tables_number   1
_chemical_formula_structural   Be12Pd
_chemical_formula_sum   'Be24 Pd2'
_cell_volume   221.23365535
_cell_formula_units_Z   2
loop_
 _symmetry_equiv_pos_site_id
 _symmetry_equiv_pos_as_xyz
  1  'x, y, z'
loop_
 _atom_site_type_symbol
 _atom_site_label
 _atom_site_symmetry_multiplicity
 _atom_site_fract_x
 _atom_site_fract_y
 _atom_site_fract_z
 _atom_site_occupancy
  Be  Be0  1  0.75000000  0.75000000  0.25000000  1
  Be  Be1  1  0.75000000  0.25000000  0.75000000  1
  Be  Be2  1  0.75000000  0.25000000  0.25000000  1
  Be  Be3  1  0.75000000  0.75000000  0.75000000  1
  Be  Be4  1  0.65176300  0.00000000  0.00000000  1
  Be  Be5  1  0.50000000  0.15176300  0.50000000  1
  Be  Be6  1  0.50000000  0.84823700  0.50000000  1
  Be  Be7  1  0.34823700  0.00000000  0.00000000  1
  Be  Be8  1  0.22552400  0.00000000  0.50000000  1
  Be  Be9  1  0.50000000  0.72552400  0.00000000  1
  Be  Be10  1  0.50000000  0.27447600  0.00000000  1
  Be  Be11  1  0.77447600  0.00000000  0.50000000  1
  Be  Be12  1  0.25000000  0.25000000  0.75000000  1
  Be  Be13  1  0.25000000  0.75000000  0.25000000  1
  Be  Be14  1  0.25000000  0.75000000  0.75000000  1
  Be  Be15  1  0.25000000  0.25000000  0.25000000  1
  Be  Be16  1  0.15176300  0.50000000  0.50000000  1
  Be  Be17  1  0.00000000  0.65176300  0.00000000  1
  Be  Be18  1  0.00000000  0.34823700  0.00000000  1
  Be  Be19  1  0.84823700  0.50000000  0.50000000  1
  Be  Be20  1  0.72552400  0.50000000  0.00000000  1
  Be  Be21  1  0.00000000  0.22552400  0.50000000  1
  Be  Be22  1  0.00000000  0.77447600  0.50000000  1
  Be  Be23  1  0.27447600  0.50000000  0.00000000  1
  Pd  Pd24  1  0.00000000  0.00000000  0.00000000  1
  Pd  Pd25  1  0.50000000  0.50000000  0.50000000  1
