# generated using pymatgen
data_Y2C
_symmetry_space_group_name_H-M   'P 1'
_cell_length_a   3.61581820
_cell_length_b   3.61581820
_cell_length_c   18.41273822
_cell_angle_alpha   90.00000000
_cell_angle_beta   90.00000000
_cell_angle_gamma   120.00000000
_symmetry_Int_Tables_number   1
_chemical_formula_structural   Y2C
_chemical_formula_sum   'Y6 C3'
_cell_volume   208.47893695
_cell_formula_units_Z   3
loop_
 _symmetry_equiv_pos_site_id
 _symmetry_equiv_pos_as_xyz
  1  'x, y, z'
loop_
 _atom_site_type_symbol
 _atom_site_label
 _atom_site_symmetry_multiplicity
 _atom_site_fract_x
 _atom_site_fract_y
 _atom_site_fract_z
 _atom_site_occupancy
  Y  Y0  1  0.00000000  0.00000000  0.26012700  1
  Y  Y1  1  0.66666667  0.33333333  0.07320633  1
  Y  Y2  1  0.66666667  0.33333333  0.59346033  1
  Y  Y3  1  0.33333333  0.66666667  0.40653967  1
  Y  Y4  1  0.33333333  0.66666667  0.92679367  1
  Y  Y5  1  0.00000000  0.00000000  0.73987300  1
  C  C6  1  0.00000000  0.00000000  0.00000000  1
  C  C7  1  0.66666667  0.33333333  0.33333333  1
  C  C8  1  0.33333333  0.66666667  0.66666667  1
