# generated using pymatgen
data_Ti3ZnN
_symmetry_space_group_name_H-M   'P 1'
_cell_length_a   3.08006800
_cell_length_b   10.71481000
_cell_length_c   8.34463700
_cell_angle_alpha   90.00000000
_cell_angle_beta   90.00000000
_cell_angle_gamma   90.00000000
_symmetry_Int_Tables_number   1
_chemical_formula_structural   Ti3ZnN
_chemical_formula_sum   'Ti12 Zn4 N4'
_cell_volume   275.39257588
_cell_formula_units_Z   4
loop_
 _symmetry_equiv_pos_site_id
 _symmetry_equiv_pos_as_xyz
  1  'x, y, z'
loop_
 _atom_site_type_symbol
 _atom_site_label
 _atom_site_symmetry_multiplicity
 _atom_site_fract_x
 _atom_site_fract_y
 _atom_site_fract_z
 _atom_site_occupancy
  Ti  Ti0  1  0.00000000  0.37556300  0.04188800  1
  Ti  Ti1  1  0.50000000  0.12443700  0.54188800  1
  Ti  Ti2  1  0.50000000  0.12443700  0.95811200  1
  Ti  Ti3  1  0.00000000  0.37556300  0.45811200  1
  Ti  Ti4  1  0.00000000  0.03788500  0.25000000  1
  Ti  Ti5  1  0.50000000  0.46211500  0.75000000  1
  Ti  Ti6  1  0.50000000  0.87556300  0.04188800  1
  Ti  Ti7  1  0.00000000  0.62443700  0.54188800  1
  Ti  Ti8  1  0.00000000  0.62443700  0.95811200  1
  Ti  Ti9  1  0.50000000  0.87556300  0.45811200  1
  Ti  Ti10  1  0.50000000  0.53788500  0.25000000  1
  Ti  Ti11  1  0.00000000  0.96211500  0.75000000  1
  Zn  Zn12  1  0.50000000  0.24559900  0.25000000  1
  Zn  Zn13  1  0.00000000  0.25440100  0.75000000  1
  Zn  Zn14  1  0.00000000  0.74559900  0.25000000  1
  Zn  Zn15  1  0.50000000  0.75440100  0.75000000  1
  N  N16  1  0.00000000  0.00000000  0.00000000  1
  N  N17  1  0.00000000  0.00000000  0.50000000  1
  N  N18  1  0.50000000  0.50000000  0.00000000  1
  N  N19  1  0.50000000  0.50000000  0.50000000  1
