# generated using pymatgen
data_HoCd3
_symmetry_space_group_name_H-M   'P 1'
_cell_length_a   7.19076800
_cell_length_b   10.86810200
_cell_length_c   4.88082700
_cell_angle_alpha   90.00000000
_cell_angle_beta   90.00000000
_cell_angle_gamma   90.00000000
_symmetry_Int_Tables_number   1
_chemical_formula_structural   HoCd3
_chemical_formula_sum   'Ho4 Cd12'
_cell_volume   381.43663045
_cell_formula_units_Z   4
loop_
 _symmetry_equiv_pos_site_id
 _symmetry_equiv_pos_as_xyz
  1  'x, y, z'
loop_
 _atom_site_type_symbol
 _atom_site_label
 _atom_site_symmetry_multiplicity
 _atom_site_fract_x
 _atom_site_fract_y
 _atom_site_fract_z
 _atom_site_occupancy
  Ho  Ho0  1  0.50000000  0.86683600  0.75000000  1
  Ho  Ho1  1  0.50000000  0.13316400  0.25000000  1
  Ho  Ho2  1  0.00000000  0.36683600  0.75000000  1
  Ho  Ho3  1  0.00000000  0.63316400  0.25000000  1
  Cd  Cd4  1  0.50000000  0.32316100  0.75000000  1
  Cd  Cd5  1  0.50000000  0.67683900  0.25000000  1
  Cd  Cd6  1  0.78482550  0.09569250  0.75000000  1
  Cd  Cd7  1  0.21517450  0.90430750  0.25000000  1
  Cd  Cd8  1  0.78482550  0.90430750  0.25000000  1
  Cd  Cd9  1  0.21517450  0.09569250  0.75000000  1
  Cd  Cd10  1  0.00000000  0.82316100  0.75000000  1
  Cd  Cd11  1  0.00000000  0.17683900  0.25000000  1
  Cd  Cd12  1  0.28482550  0.59569250  0.75000000  1
  Cd  Cd13  1  0.71517450  0.40430750  0.25000000  1
  Cd  Cd14  1  0.28482550  0.40430750  0.25000000  1
  Cd  Cd15  1  0.71517450  0.59569250  0.75000000  1
