# generated using pymatgen
data_Ni4Mo
_symmetry_space_group_name_H-M   'P 1'
_cell_length_a   5.72090050
_cell_length_b   5.72090050
_cell_length_c   3.55566200
_cell_angle_alpha   90.00000000
_cell_angle_beta   90.00000000
_cell_angle_gamma   90.00000000
_symmetry_Int_Tables_number   1
_chemical_formula_structural   Ni4Mo
_chemical_formula_sum   'Ni8 Mo2'
_cell_volume   116.37220390
_cell_formula_units_Z   2
loop_
 _symmetry_equiv_pos_site_id
 _symmetry_equiv_pos_as_xyz
  1  'x, y, z'
loop_
 _atom_site_type_symbol
 _atom_site_label
 _atom_site_symmetry_multiplicity
 _atom_site_fract_x
 _atom_site_fract_y
 _atom_site_fract_z
 _atom_site_occupancy
  Ni  Ni0  1  0.40066250  0.80158950  0.00000000  1
  Ni  Ni1  1  0.59933750  0.19841050  0.00000000  1
  Ni  Ni2  1  0.30158950  0.09933750  0.50000000  1
  Ni  Ni3  1  0.69841050  0.90066250  0.50000000  1
  Ni  Ni4  1  0.90066250  0.30158950  0.50000000  1
  Ni  Ni5  1  0.09933750  0.69841050  0.50000000  1
  Ni  Ni6  1  0.80158950  0.59933750  0.00000000  1
  Ni  Ni7  1  0.19841050  0.40066250  0.00000000  1
  Mo  Mo8  1  0.00000000  0.00000000  0.00000000  1
  Mo  Mo9  1  0.50000000  0.50000000  0.50000000  1
