# generated using pymatgen
data_Yb2(NiB2)3
_symmetry_space_group_name_H-M   'P 1'
_cell_length_a   7.67993600
_cell_length_b   8.57474000
_cell_length_c   3.47112400
_cell_angle_alpha   90.00000000
_cell_angle_beta   90.00000000
_cell_angle_gamma   90.00000000
_symmetry_Int_Tables_number   1
_chemical_formula_structural   Yb2(NiB2)3
_chemical_formula_sum   'Yb4 Ni6 B12'
_cell_volume   228.58550611
_cell_formula_units_Z   2
loop_
 _symmetry_equiv_pos_site_id
 _symmetry_equiv_pos_as_xyz
  1  'x, y, z'
loop_
 _atom_site_type_symbol
 _atom_site_label
 _atom_site_symmetry_multiplicity
 _atom_site_fract_x
 _atom_site_fract_y
 _atom_site_fract_z
 _atom_site_occupancy
  Yb  Yb0  1  0.50000000  0.22723100  0.00000000  1
  Yb  Yb1  1  0.50000000  0.77276900  0.00000000  1
  Yb  Yb2  1  0.00000000  0.72723100  0.00000000  1
  Yb  Yb3  1  0.00000000  0.27276900  0.00000000  1
  Ni  Ni4  1  0.77312800  0.00000000  0.00000000  1
  Ni  Ni5  1  0.22687200  0.00000000  0.00000000  1
  Ni  Ni6  1  0.00000000  0.00000000  0.50000000  1
  Ni  Ni7  1  0.27312800  0.50000000  0.00000000  1
  Ni  Ni8  1  0.72687200  0.50000000  0.00000000  1
  Ni  Ni9  1  0.50000000  0.50000000  0.50000000  1
  B  B10  1  0.61305400  0.00000000  0.50000000  1
  B  B11  1  0.38694600  0.00000000  0.50000000  1
  B  B12  1  0.76038500  0.15016800  0.50000000  1
  B  B13  1  0.23961500  0.84983200  0.50000000  1
  B  B14  1  0.76038500  0.84983200  0.50000000  1
  B  B15  1  0.23961500  0.15016800  0.50000000  1
  B  B16  1  0.11305400  0.50000000  0.50000000  1
  B  B17  1  0.88694600  0.50000000  0.50000000  1
  B  B18  1  0.26038500  0.65016800  0.50000000  1
  B  B19  1  0.73961500  0.34983200  0.50000000  1
  B  B20  1  0.26038500  0.34983200  0.50000000  1
  B  B21  1  0.73961500  0.65016800  0.50000000  1
