# generated using pymatgen
data_Ca3MnN3
_symmetry_space_group_name_H-M   'P 1'
_cell_length_a   8.39484200
_cell_length_b   10.26925400
_cell_length_c   5.03677500
_cell_angle_alpha   90.00000000
_cell_angle_beta   90.00000000
_cell_angle_gamma   90.00000000
_symmetry_Int_Tables_number   1
_chemical_formula_structural   Ca3MnN3
_chemical_formula_sum   'Ca12 Mn4 N12'
_cell_volume   434.21415126
_cell_formula_units_Z   4
loop_
 _symmetry_equiv_pos_site_id
 _symmetry_equiv_pos_as_xyz
  1  'x, y, z'
loop_
 _atom_site_type_symbol
 _atom_site_label
 _atom_site_symmetry_multiplicity
 _atom_site_fract_x
 _atom_site_fract_y
 _atom_site_fract_z
 _atom_site_occupancy
  Ca  Ca0  1  0.78789500  0.11642900  0.75000000  1
  Ca  Ca1  1  0.50000000  0.10752400  0.25000000  1
  Ca  Ca2  1  0.78789500  0.88357100  0.25000000  1
  Ca  Ca3  1  0.50000000  0.89247600  0.75000000  1
  Ca  Ca4  1  0.21210500  0.88357100  0.25000000  1
  Ca  Ca5  1  0.21210500  0.11642900  0.75000000  1
  Ca  Ca6  1  0.28789500  0.61642900  0.75000000  1
  Ca  Ca7  1  0.00000000  0.60752400  0.25000000  1
  Ca  Ca8  1  0.28789500  0.38357100  0.25000000  1
  Ca  Ca9  1  0.00000000  0.39247600  0.75000000  1
  Ca  Ca10  1  0.71210500  0.38357100  0.25000000  1
  Ca  Ca11  1  0.71210500  0.61642900  0.75000000  1
  Mn  Mn12  1  0.50000000  0.69935500  0.25000000  1
  Mn  Mn13  1  0.50000000  0.30064500  0.75000000  1
  Mn  Mn14  1  0.00000000  0.19935500  0.25000000  1
  Mn  Mn15  1  0.00000000  0.80064500  0.75000000  1
  N  N16  1  0.80765400  0.12573100  0.25000000  1
  N  N17  1  0.50000000  0.12574400  0.75000000  1
  N  N18  1  0.50000000  0.87425600  0.25000000  1
  N  N19  1  0.80765400  0.87426900  0.75000000  1
  N  N20  1  0.19234600  0.87426900  0.75000000  1
  N  N21  1  0.19234600  0.12573100  0.25000000  1
  N  N22  1  0.30765400  0.62573100  0.25000000  1
  N  N23  1  0.00000000  0.62574400  0.75000000  1
  N  N24  1  0.00000000  0.37425600  0.25000000  1
  N  N25  1  0.30765400  0.37426900  0.75000000  1
  N  N26  1  0.69234600  0.37426900  0.75000000  1
  N  N27  1  0.69234600  0.62573100  0.25000000  1
