# generated using pymatgen
data_Cr5B3
_symmetry_space_group_name_H-M   'P 1'
_cell_length_a   5.44068200
_cell_length_b   5.44068200
_cell_length_c   9.96065800
_cell_angle_alpha   90.00000000
_cell_angle_beta   90.00000000
_cell_angle_gamma   90.00000000
_symmetry_Int_Tables_number   1
_chemical_formula_structural   Cr5B3
_chemical_formula_sum   'Cr20 B12'
_cell_volume   294.84564290
_cell_formula_units_Z   4
loop_
 _symmetry_equiv_pos_site_id
 _symmetry_equiv_pos_as_xyz
  1  'x, y, z'
loop_
 _atom_site_type_symbol
 _atom_site_label
 _atom_site_symmetry_multiplicity
 _atom_site_fract_x
 _atom_site_fract_y
 _atom_site_fract_z
 _atom_site_occupancy
  Cr  Cr0  1  0.82885900  0.32885900  0.35400800  1
  Cr  Cr1  1  0.32885900  0.82885900  0.14599200  1
  Cr  Cr2  1  0.50000000  0.50000000  0.00000000  1
  Cr  Cr3  1  0.00000000  0.00000000  0.00000000  1
  Cr  Cr4  1  0.17114100  0.67114100  0.35400800  1
  Cr  Cr5  1  0.32885900  0.17114100  0.35400800  1
  Cr  Cr6  1  0.67114100  0.82885900  0.35400800  1
  Cr  Cr7  1  0.17114100  0.32885900  0.14599200  1
  Cr  Cr8  1  0.82885900  0.67114100  0.14599200  1
  Cr  Cr9  1  0.67114100  0.17114100  0.14599200  1
  Cr  Cr10  1  0.32885900  0.82885900  0.85400800  1
  Cr  Cr11  1  0.82885900  0.32885900  0.64599200  1
  Cr  Cr12  1  0.00000000  0.00000000  0.50000000  1
  Cr  Cr13  1  0.50000000  0.50000000  0.50000000  1
  Cr  Cr14  1  0.67114100  0.17114100  0.85400800  1
  Cr  Cr15  1  0.82885900  0.67114100  0.85400800  1
  Cr  Cr16  1  0.17114100  0.32885900  0.85400800  1
  Cr  Cr17  1  0.67114100  0.82885900  0.64599200  1
  Cr  Cr18  1  0.32885900  0.17114100  0.64599200  1
  Cr  Cr19  1  0.17114100  0.67114100  0.64599200  1
  B  B20  1  0.88218200  0.38218200  0.00000000  1
  B  B21  1  0.61781800  0.88218200  0.00000000  1
  B  B22  1  0.38218200  0.11781800  0.00000000  1
  B  B23  1  0.11781800  0.61781800  0.00000000  1
  B  B24  1  0.00000000  0.00000000  0.25000000  1
  B  B25  1  0.50000000  0.50000000  0.25000000  1
  B  B26  1  0.38218200  0.88218200  0.50000000  1
  B  B27  1  0.11781800  0.38218200  0.50000000  1
  B  B28  1  0.88218200  0.61781800  0.50000000  1
  B  B29  1  0.61781800  0.11781800  0.50000000  1
  B  B30  1  0.50000000  0.50000000  0.75000000  1
  B  B31  1  0.00000000  0.00000000  0.75000000  1
