# generated using pymatgen
data_Sr2Mn3(AsO)2
_symmetry_space_group_name_H-M   'P 1'
_cell_length_a   4.24379554
_cell_length_b   4.24379554
_cell_length_c   19.34547253
_cell_angle_alpha   90.00000000
_cell_angle_beta   90.00000000
_cell_angle_gamma   90.00000000
_symmetry_Int_Tables_number   1
_chemical_formula_structural   Sr2Mn3(AsO)2
_chemical_formula_sum   'Sr4 Mn6 As4 O4'
_cell_volume   348.40810318
_cell_formula_units_Z   2
loop_
 _symmetry_equiv_pos_site_id
 _symmetry_equiv_pos_as_xyz
  1  'x, y, z'
loop_
 _atom_site_type_symbol
 _atom_site_label
 _atom_site_symmetry_multiplicity
 _atom_site_fract_x
 _atom_site_fract_y
 _atom_site_fract_z
 _atom_site_occupancy
  Sr  Sr0  1  0.50000000  0.50000000  0.08458170  1
  Sr  Sr1  1  0.00000000  0.00000000  0.41541830  1
  Sr  Sr2  1  0.00000000  0.00000000  0.58458170  1
  Sr  Sr3  1  0.50000000  0.50000000  0.91541830  1
  Mn  Mn4  1  0.00000000  0.00000000  0.00000000  1
  Mn  Mn5  1  0.50000000  0.00000000  0.25000000  1
  Mn  Mn6  1  0.00000000  0.50000000  0.25000000  1
  Mn  Mn7  1  0.50000000  0.50000000  0.50000000  1
  Mn  Mn8  1  0.00000000  0.50000000  0.75000000  1
  Mn  Mn9  1  0.50000000  0.00000000  0.75000000  1
  As  As10  1  0.00000000  0.00000000  0.16504069  1
  As  As11  1  0.50000000  0.50000000  0.33495931  1
  As  As12  1  0.50000000  0.50000000  0.66504069  1
  As  As13  1  0.00000000  0.00000000  0.83495931  1
  O  O14  1  0.00000000  0.50000000  0.00000000  1
  O  O15  1  0.50000000  0.00000000  0.00000000  1
  O  O16  1  0.50000000  0.00000000  0.50000000  1
  O  O17  1  0.00000000  0.50000000  0.50000000  1
