# generated using pymatgen
data_YSn2
_symmetry_space_group_name_H-M   'P 1'
_cell_length_a   4.43987200
_cell_length_b   16.42572400
_cell_length_c   4.37381000
_cell_angle_alpha   90.00000000
_cell_angle_beta   90.00000000
_cell_angle_gamma   90.00000000
_symmetry_Int_Tables_number   1
_chemical_formula_structural   YSn2
_chemical_formula_sum   'Y4 Sn8'
_cell_volume   318.97370584
_cell_formula_units_Z   4
loop_
 _symmetry_equiv_pos_site_id
 _symmetry_equiv_pos_as_xyz
  1  'x, y, z'
loop_
 _atom_site_type_symbol
 _atom_site_label
 _atom_site_symmetry_multiplicity
 _atom_site_fract_x
 _atom_site_fract_y
 _atom_site_fract_z
 _atom_site_occupancy
  Y  Y0  1  0.00000000  0.09894100  0.25000000  1
  Y  Y1  1  0.50000000  0.40105900  0.75000000  1
  Y  Y2  1  0.50000000  0.59894100  0.25000000  1
  Y  Y3  1  0.00000000  0.90105900  0.75000000  1
  Sn  Sn4  1  0.00000000  0.43662550  0.25000000  1
  Sn  Sn5  1  0.50000000  0.06337450  0.75000000  1
  Sn  Sn6  1  0.50000000  0.24889850  0.25000000  1
  Sn  Sn7  1  0.00000000  0.25110150  0.75000000  1
  Sn  Sn8  1  0.50000000  0.93662550  0.25000000  1
  Sn  Sn9  1  0.00000000  0.56337450  0.75000000  1
  Sn  Sn10  1  0.00000000  0.74889850  0.25000000  1
  Sn  Sn11  1  0.50000000  0.75110150  0.75000000  1
