# generated using pymatgen
data_LaAl
_symmetry_space_group_name_H-M   'P 1'
_cell_length_a   7.76344000
_cell_length_b   9.47497000
_cell_length_c   5.77126700
_cell_angle_alpha   90.00000000
_cell_angle_beta   90.00000000
_cell_angle_gamma   90.00000000
_symmetry_Int_Tables_number   1
_chemical_formula_structural   LaAl
_chemical_formula_sum   'La8 Al8'
_cell_volume   424.52494197
_cell_formula_units_Z   8
loop_
 _symmetry_equiv_pos_site_id
 _symmetry_equiv_pos_as_xyz
  1  'x, y, z'
loop_
 _atom_site_type_symbol
 _atom_site_label
 _atom_site_symmetry_multiplicity
 _atom_site_fract_x
 _atom_site_fract_y
 _atom_site_fract_z
 _atom_site_occupancy
  La  La0  1  0.66393250  0.17795350  0.25000000  1
  La  La1  1  0.33606750  0.82204650  0.75000000  1
  La  La2  1  0.66393250  0.82204650  0.25000000  1
  La  La3  1  0.33606750  0.17795350  0.75000000  1
  La  La4  1  0.16393250  0.67795350  0.25000000  1
  La  La5  1  0.83606750  0.32204650  0.75000000  1
  La  La6  1  0.16393250  0.32204650  0.25000000  1
  La  La7  1  0.83606750  0.67795350  0.75000000  1
  Al  Al8  1  0.30352900  0.00000000  0.25000000  1
  Al  Al9  1  0.69647100  0.00000000  0.75000000  1
  Al  Al10  1  0.00000000  0.00000000  0.50000000  1
  Al  Al11  1  0.00000000  0.00000000  0.00000000  1
  Al  Al12  1  0.80352900  0.50000000  0.25000000  1
  Al  Al13  1  0.19647100  0.50000000  0.75000000  1
  Al  Al14  1  0.50000000  0.50000000  0.50000000  1
  Al  Al15  1  0.50000000  0.50000000  0.00000000  1
