# generated using pymatgen
data_Y2C3
_symmetry_space_group_name_H-M   'P 1'
_cell_length_a   8.26434200
_cell_length_b   8.26434200
_cell_length_c   8.26434200
_cell_angle_alpha   90.00000000
_cell_angle_beta   90.00000000
_cell_angle_gamma   90.00000000
_symmetry_Int_Tables_number   1
_chemical_formula_structural   Y2C3
_chemical_formula_sum   'Y16 C24'
_cell_volume   564.44917598
_cell_formula_units_Z   8
loop_
 _symmetry_equiv_pos_site_id
 _symmetry_equiv_pos_as_xyz
  1  'x, y, z'
loop_
 _atom_site_type_symbol
 _atom_site_label
 _atom_site_symmetry_multiplicity
 _atom_site_fract_x
 _atom_site_fract_y
 _atom_site_fract_z
 _atom_site_occupancy
  Y  Y0  1  0.05066150  0.55066150  0.94933850  1
  Y  Y1  1  0.19933850  0.80066150  0.30066150  1
  Y  Y2  1  0.19933850  0.19933850  0.19933850  1
  Y  Y3  1  0.30066150  0.19933850  0.80066150  1
  Y  Y4  1  0.44933850  0.44933850  0.44933850  1
  Y  Y5  1  0.55066150  0.94933850  0.05066150  1
  Y  Y6  1  0.94933850  0.05066150  0.55066150  1
  Y  Y7  1  0.80066150  0.30066150  0.19933850  1
  Y  Y8  1  0.55066150  0.05066150  0.44933850  1
  Y  Y9  1  0.69933850  0.30066150  0.80066150  1
  Y  Y10  1  0.69933850  0.69933850  0.69933850  1
  Y  Y11  1  0.80066150  0.69933850  0.30066150  1
  Y  Y12  1  0.94933850  0.94933850  0.94933850  1
  Y  Y13  1  0.05066150  0.44933850  0.55066150  1
  Y  Y14  1  0.44933850  0.55066150  0.05066150  1
  Y  Y15  1  0.30066150  0.80066150  0.69933850  1
  C  C16  1  0.75000000  0.29409100  0.50000000  1
  C  C17  1  0.75000000  0.45590900  0.50000000  1
  C  C18  1  0.04409100  0.50000000  0.25000000  1
  C  C19  1  0.50000000  0.75000000  0.45590900  1
  C  C20  1  0.45590900  0.50000000  0.75000000  1
  C  C21  1  0.50000000  0.25000000  0.04409100  1
  C  C22  1  0.25000000  0.20590900  0.50000000  1
  C  C23  1  0.50000000  0.75000000  0.29409100  1
  C  C24  1  0.25000000  0.04409100  0.50000000  1
  C  C25  1  0.20590900  0.50000000  0.25000000  1
  C  C26  1  0.29409100  0.50000000  0.75000000  1
  C  C27  1  0.50000000  0.25000000  0.20590900  1
  C  C28  1  0.25000000  0.79409100  0.00000000  1
  C  C29  1  0.25000000  0.95590900  0.00000000  1
  C  C30  1  0.54409100  0.00000000  0.75000000  1
  C  C31  1  0.00000000  0.25000000  0.95590900  1
  C  C32  1  0.95590900  0.00000000  0.25000000  1
  C  C33  1  0.00000000  0.75000000  0.54409100  1
  C  C34  1  0.75000000  0.70590900  0.00000000  1
  C  C35  1  0.00000000  0.25000000  0.79409100  1
  C  C36  1  0.75000000  0.54409100  0.00000000  1
  C  C37  1  0.70590900  0.00000000  0.75000000  1
  C  C38  1  0.79409100  0.00000000  0.25000000  1
  C  C39  1  0.00000000  0.75000000  0.70590900  1
