# generated using pymatgen
data_Sr2As
_symmetry_space_group_name_H-M   'P 1'
_cell_length_a   4.86265800
_cell_length_b   4.86265800
_cell_length_c   16.95100000
_cell_angle_alpha   90.00000000
_cell_angle_beta   90.00000000
_cell_angle_gamma   90.00000000
_symmetry_Int_Tables_number   1
_chemical_formula_structural   Sr2As
_chemical_formula_sum   'Sr8 As4'
_cell_volume   400.81390133
_cell_formula_units_Z   4
loop_
 _symmetry_equiv_pos_site_id
 _symmetry_equiv_pos_as_xyz
  1  'x, y, z'
loop_
 _atom_site_type_symbol
 _atom_site_label
 _atom_site_symmetry_multiplicity
 _atom_site_fract_x
 _atom_site_fract_y
 _atom_site_fract_z
 _atom_site_occupancy
  Sr  Sr0  1  0.00000000  0.00000000  0.31858000  1
  Sr  Sr1  1  0.50000000  0.50000000  0.18142000  1
  Sr  Sr2  1  0.00000000  0.50000000  0.00000000  1
  Sr  Sr3  1  0.50000000  0.00000000  0.00000000  1
  Sr  Sr4  1  0.50000000  0.50000000  0.81858000  1
  Sr  Sr5  1  0.00000000  0.00000000  0.68142000  1
  Sr  Sr6  1  0.50000000  0.00000000  0.50000000  1
  Sr  Sr7  1  0.00000000  0.50000000  0.50000000  1
  As  As8  1  0.50000000  0.50000000  0.36656900  1
  As  As9  1  0.00000000  0.00000000  0.13343100  1
  As  As10  1  0.00000000  0.00000000  0.86656900  1
  As  As11  1  0.50000000  0.50000000  0.63343100  1
