# generated using pymatgen
data_Ca3(AlGe)2
_symmetry_space_group_name_H-M   'P 1'
_cell_length_a   4.12674600
_cell_length_b   4.56400800
_cell_length_c   18.66540400
_cell_angle_alpha   90.00000000
_cell_angle_beta   90.00000000
_cell_angle_gamma   90.00000000
_symmetry_Int_Tables_number   1
_chemical_formula_structural   Ca3(AlGe)2
_chemical_formula_sum   'Ca6 Al4 Ge4'
_cell_volume   351.55358445
_cell_formula_units_Z   2
loop_
 _symmetry_equiv_pos_site_id
 _symmetry_equiv_pos_as_xyz
  1  'x, y, z'
loop_
 _atom_site_type_symbol
 _atom_site_label
 _atom_site_symmetry_multiplicity
 _atom_site_fract_x
 _atom_site_fract_y
 _atom_site_fract_z
 _atom_site_occupancy
  Ca  Ca0  1  0.00000000  0.00000000  0.00000000  1
  Ca  Ca1  1  0.00000000  0.50000000  0.68567300  1
  Ca  Ca2  1  0.50000000  0.00000000  0.81432700  1
  Ca  Ca3  1  0.50000000  0.50000000  0.50000000  1
  Ca  Ca4  1  0.50000000  0.00000000  0.18567300  1
  Ca  Ca5  1  0.00000000  0.50000000  0.31432700  1
  Al  Al6  1  0.50000000  0.50000000  0.93188600  1
  Al  Al7  1  0.00000000  0.00000000  0.56811400  1
  Al  Al8  1  0.00000000  0.00000000  0.43188600  1
  Al  Al9  1  0.50000000  0.50000000  0.06811400  1
  Ge  Ge10  1  0.00000000  0.50000000  0.85390600  1
  Ge  Ge11  1  0.50000000  0.00000000  0.64609400  1
  Ge  Ge12  1  0.50000000  0.00000000  0.35390600  1
  Ge  Ge13  1  0.00000000  0.50000000  0.14609400  1
