# generated using pymatgen
data_CeSi2Ir3
_symmetry_space_group_name_H-M   'P 1'
_cell_length_a   5.62468600
_cell_length_b   7.25425800
_cell_length_c   9.75583800
_cell_angle_alpha   90.00000000
_cell_angle_beta   90.00000000
_cell_angle_gamma   90.00000000
_symmetry_Int_Tables_number   1
_chemical_formula_structural   CeSi2Ir3
_chemical_formula_sum   'Ce4 Si8 Ir12'
_cell_volume   398.06671074
_cell_formula_units_Z   4
loop_
 _symmetry_equiv_pos_site_id
 _symmetry_equiv_pos_as_xyz
  1  'x, y, z'
loop_
 _atom_site_type_symbol
 _atom_site_label
 _atom_site_symmetry_multiplicity
 _atom_site_fract_x
 _atom_site_fract_y
 _atom_site_fract_z
 _atom_site_occupancy
  Ce  Ce0  1  0.78229900  0.50000000  0.75000000  1
  Ce  Ce1  1  0.21770100  0.50000000  0.25000000  1
  Ce  Ce2  1  0.28229900  0.00000000  0.25000000  1
  Ce  Ce3  1  0.71770100  0.00000000  0.75000000  1
  Si  Si4  1  0.30120850  0.50000000  0.91980150  1
  Si  Si5  1  0.69879150  0.50000000  0.41980150  1
  Si  Si6  1  0.69879150  0.50000000  0.08019850  1
  Si  Si7  1  0.30120850  0.50000000  0.58019850  1
  Si  Si8  1  0.80120850  0.00000000  0.41980150  1
  Si  Si9  1  0.19879150  0.00000000  0.91980150  1
  Si  Si10  1  0.19879150  0.00000000  0.58019850  1
  Si  Si11  1  0.80120850  0.00000000  0.08019850  1
  Ir  Ir12  1  0.50000000  0.21810200  0.00000000  1
  Ir  Ir13  1  0.25000000  0.25000000  0.75000000  1
  Ir  Ir14  1  0.00000000  0.28189800  0.00000000  1
  Ir  Ir15  1  0.50000000  0.78189800  0.00000000  1
  Ir  Ir16  1  0.00000000  0.71810200  0.00000000  1
  Ir  Ir17  1  0.75000000  0.25000000  0.25000000  1
  Ir  Ir18  1  0.00000000  0.71810200  0.50000000  1
  Ir  Ir19  1  0.75000000  0.75000000  0.25000000  1
  Ir  Ir20  1  0.50000000  0.78189800  0.50000000  1
  Ir  Ir21  1  0.00000000  0.28189800  0.50000000  1
  Ir  Ir22  1  0.50000000  0.21810200  0.50000000  1
  Ir  Ir23  1  0.25000000  0.75000000  0.75000000  1
