# generated using pymatgen
data_Cu6Sn5
_symmetry_space_group_name_H-M   'P 1'
_cell_length_a   11.09336200
_cell_length_b   7.43213600
_cell_length_c   9.85955785
_cell_angle_alpha   90.00000000
_cell_angle_beta   98.83820289
_cell_angle_gamma   90.00000000
_symmetry_Int_Tables_number   1
_chemical_formula_structural   Cu6Sn5
_chemical_formula_sum   'Cu24 Sn20'
_cell_volume   803.24247991
_cell_formula_units_Z   4
loop_
 _symmetry_equiv_pos_site_id
 _symmetry_equiv_pos_as_xyz
  1  'x, y, z'
loop_
 _atom_site_type_symbol
 _atom_site_label
 _atom_site_symmetry_multiplicity
 _atom_site_fract_x
 _atom_site_fract_y
 _atom_site_fract_z
 _atom_site_occupancy
  Cu  Cu0  1  0.60106050  0.02746050  0.70239400  1
  Cu  Cu1  1  0.39893950  0.02746050  0.79760600  1
  Cu  Cu2  1  0.39893950  0.97253950  0.29760600  1
  Cu  Cu3  1  0.60106050  0.97253950  0.20239400  1
  Cu  Cu4  1  0.80645700  0.99553900  0.11007200  1
  Cu  Cu5  1  0.19354300  0.99553900  0.38992800  1
  Cu  Cu6  1  0.19354300  0.00446100  0.88992800  1
  Cu  Cu7  1  0.80645700  0.00446100  0.61007200  1
  Cu  Cu8  1  0.00000000  0.00000000  0.50000000  1
  Cu  Cu9  1  0.00000000  0.00000000  0.00000000  1
  Cu  Cu10  1  0.50000000  0.34034400  0.75000000  1
  Cu  Cu11  1  0.50000000  0.65965600  0.25000000  1
  Cu  Cu12  1  0.10106050  0.52746050  0.70239400  1
  Cu  Cu13  1  0.89893950  0.52746050  0.79760600  1
  Cu  Cu14  1  0.89893950  0.47253950  0.29760600  1
  Cu  Cu15  1  0.10106050  0.47253950  0.20239400  1
  Cu  Cu16  1  0.30645700  0.49553900  0.11007200  1
  Cu  Cu17  1  0.69354300  0.49553900  0.38992800  1
  Cu  Cu18  1  0.69354300  0.50446100  0.88992800  1
  Cu  Cu19  1  0.30645700  0.50446100  0.61007200  1
  Cu  Cu20  1  0.50000000  0.50000000  0.50000000  1
  Cu  Cu21  1  0.50000000  0.50000000  0.00000000  1
  Cu  Cu22  1  0.00000000  0.84034400  0.75000000  1
  Cu  Cu23  1  0.00000000  0.15965600  0.25000000  1
  Sn  Sn24  1  0.39095350  0.83734350  0.02955900  1
  Sn  Sn25  1  0.60904650  0.83734350  0.47044100  1
  Sn  Sn26  1  0.60904650  0.16265650  0.97044100  1
  Sn  Sn27  1  0.39095350  0.16265650  0.52955900  1
  Sn  Sn28  1  0.78619200  0.84500800  0.85780800  1
  Sn  Sn29  1  0.21380800  0.84500800  0.64219200  1
  Sn  Sn30  1  0.21380800  0.15499200  0.14219200  1
  Sn  Sn31  1  0.78619200  0.15499200  0.35780800  1
  Sn  Sn32  1  0.50000000  0.70032400  0.75000000  1
  Sn  Sn33  1  0.50000000  0.29967600  0.25000000  1
  Sn  Sn34  1  0.89095350  0.33734350  0.02955900  1
  Sn  Sn35  1  0.10904650  0.33734350  0.47044100  1
  Sn  Sn36  1  0.10904650  0.66265650  0.97044100  1
  Sn  Sn37  1  0.89095350  0.66265650  0.52955900  1
  Sn  Sn38  1  0.28619200  0.34500800  0.85780800  1
  Sn  Sn39  1  0.71380800  0.34500800  0.64219200  1
  Sn  Sn40  1  0.71380800  0.65499200  0.14219200  1
  Sn  Sn41  1  0.28619200  0.65499200  0.35780800  1
  Sn  Sn42  1  0.00000000  0.20032400  0.75000000  1
  Sn  Sn43  1  0.00000000  0.79967600  0.25000000  1
