# generated using pymatgen
data_TaAs2
_symmetry_space_group_name_H-M   'P 1'
_cell_length_a   9.43985200
_cell_length_b   3.42593800
_cell_length_c   7.84777342
_cell_angle_alpha   90.00000000
_cell_angle_beta   119.70161069
_cell_angle_gamma   90.00000000
_symmetry_Int_Tables_number   1
_chemical_formula_structural   TaAs2
_chemical_formula_sum   'Ta4 As8'
_cell_volume   220.45490080
_cell_formula_units_Z   4
loop_
 _symmetry_equiv_pos_site_id
 _symmetry_equiv_pos_as_xyz
  1  'x, y, z'
loop_
 _atom_site_type_symbol
 _atom_site_label
 _atom_site_symmetry_multiplicity
 _atom_site_fract_x
 _atom_site_fract_y
 _atom_site_fract_z
 _atom_site_occupancy
  Ta  Ta0  1  0.65691100  0.50000000  0.19538000  1
  Ta  Ta1  1  0.34308900  0.50000000  0.80462000  1
  Ta  Ta2  1  0.15691100  0.00000000  0.19538000  1
  Ta  Ta3  1  0.84308900  0.00000000  0.80462000  1
  As  As4  1  0.85937800  0.00000000  0.47233700  1
  As  As5  1  0.14062200  0.00000000  0.52766300  1
  As  As6  1  0.90567700  0.50000000  0.10765500  1
  As  As7  1  0.09432300  0.50000000  0.89234500  1
  As  As8  1  0.35937800  0.50000000  0.47233700  1
  As  As9  1  0.64062200  0.50000000  0.52766300  1
  As  As10  1  0.40567700  0.00000000  0.10765500  1
  As  As11  1  0.59432300  0.00000000  0.89234500  1
