# generated using pymatgen
data_Li
_symmetry_space_group_name_H-M   'P 1'
_cell_length_a   3.06376567
_cell_length_b   3.06376567
_cell_length_c   22.26617429
_cell_angle_alpha   90.00000000
_cell_angle_beta   90.00000000
_cell_angle_gamma   120.00000000
_symmetry_Int_Tables_number   1
_chemical_formula_structural   Li
_chemical_formula_sum   Li9
_cell_volume   181.00364715
_cell_formula_units_Z   9
loop_
 _symmetry_equiv_pos_site_id
 _symmetry_equiv_pos_as_xyz
  1  'x, y, z'
loop_
 _atom_site_type_symbol
 _atom_site_label
 _atom_site_symmetry_multiplicity
 _atom_site_fract_x
 _atom_site_fract_y
 _atom_site_fract_z
 _atom_site_occupancy
  Li  Li0  1  0.66666667  0.33333333  0.11127933  1
  Li  Li1  1  0.00000000  0.00000000  0.22205400  1
  Li  Li2  1  0.00000000  0.00000000  0.00000000  1
  Li  Li3  1  0.33333333  0.66666667  0.44461267  1
  Li  Li4  1  0.66666667  0.33333333  0.55538733  1
  Li  Li5  1  0.66666667  0.33333333  0.33333333  1
  Li  Li6  1  0.00000000  0.00000000  0.77794600  1
  Li  Li7  1  0.33333333  0.66666667  0.88872067  1
  Li  Li8  1  0.33333333  0.66666667  0.66666667  1
