# generated using pymatgen
data_Ce2Mo2C3
_symmetry_space_group_name_H-M   'P 1'
_cell_length_a   12.16060600
_cell_length_b   3.35628200
_cell_length_c   5.78714582
_cell_angle_alpha   90.00000000
_cell_angle_beta   114.93144350
_cell_angle_gamma   90.00000000
_symmetry_Int_Tables_number   1
_chemical_formula_structural   Ce2Mo2C3
_chemical_formula_sum   'Ce4 Mo4 C6'
_cell_volume   214.18829640
_cell_formula_units_Z   2
loop_
 _symmetry_equiv_pos_site_id
 _symmetry_equiv_pos_as_xyz
  1  'x, y, z'
loop_
 _atom_site_type_symbol
 _atom_site_label
 _atom_site_symmetry_multiplicity
 _atom_site_fract_x
 _atom_site_fract_y
 _atom_site_fract_z
 _atom_site_occupancy
  Ce  Ce0  1  0.39584400  0.00000000  0.19337700  1
  Ce  Ce1  1  0.10415600  0.50000000  0.80662300  1
  Ce  Ce2  1  0.89584400  0.50000000  0.19337700  1
  Ce  Ce3  1  0.60415600  0.00000000  0.80662300  1
  Mo  Mo4  1  0.15893500  0.00000000  0.32461200  1
  Mo  Mo5  1  0.34106500  0.50000000  0.67538800  1
  Mo  Mo6  1  0.65893500  0.50000000  0.32461200  1
  Mo  Mo7  1  0.84106500  0.00000000  0.67538800  1
  C  C8  1  0.00000000  0.00000000  0.00000000  1
  C  C9  1  0.25150700  0.00000000  0.73858100  1
  C  C10  1  0.24849300  0.50000000  0.26141900  1
  C  C11  1  0.50000000  0.50000000  0.00000000  1
  C  C12  1  0.75150700  0.50000000  0.73858100  1
  C  C13  1  0.74849300  0.00000000  0.26141900  1
