# generated using pymatgen
data_Fe7W6
_symmetry_space_group_name_H-M   'P 1'
_cell_length_a   4.77161585
_cell_length_b   4.77161585
_cell_length_c   25.92735824
_cell_angle_alpha   90.00000000
_cell_angle_beta   90.00000000
_cell_angle_gamma   120.00000000
_symmetry_Int_Tables_number   1
_chemical_formula_structural   Fe7W6
_chemical_formula_sum   'Fe21 W18'
_cell_volume   511.23413640
_cell_formula_units_Z   3
loop_
 _symmetry_equiv_pos_site_id
 _symmetry_equiv_pos_as_xyz
  1  'x, y, z'
loop_
 _atom_site_type_symbol
 _atom_site_label
 _atom_site_symmetry_multiplicity
 _atom_site_fract_x
 _atom_site_fract_y
 _atom_site_fract_z
 _atom_site_occupancy
  Fe  Fe0  1  0.00000000  0.00000000  0.00000000  1
  Fe  Fe1  1  0.83385367  0.66770733  0.25692833  1
  Fe  Fe2  1  0.83385367  0.16614633  0.25692833  1
  Fe  Fe3  1  0.33229267  0.16614633  0.25692833  1
  Fe  Fe4  1  0.33437400  0.16718700  0.07640500  1
  Fe  Fe5  1  0.83281300  0.66562600  0.07640500  1
  Fe  Fe6  1  0.83281300  0.16718700  0.07640500  1
  Fe  Fe7  1  0.66666667  0.33333333  0.33333333  1
  Fe  Fe8  1  0.50052033  0.00104067  0.59026167  1
  Fe  Fe9  1  0.50052033  0.49947967  0.59026167  1
  Fe  Fe10  1  0.99895933  0.49947967  0.59026167  1
  Fe  Fe11  1  0.00104067  0.50052033  0.40973833  1
  Fe  Fe12  1  0.49947967  0.99895933  0.40973833  1
  Fe  Fe13  1  0.49947967  0.50052033  0.40973833  1
  Fe  Fe14  1  0.33333333  0.66666667  0.66666667  1
  Fe  Fe15  1  0.16718700  0.33437400  0.92359500  1
  Fe  Fe16  1  0.16718700  0.83281300  0.92359500  1
  Fe  Fe17  1  0.66562600  0.83281300  0.92359500  1
  Fe  Fe18  1  0.66770733  0.83385367  0.74307167  1
  Fe  Fe19  1  0.16614633  0.33229267  0.74307167  1
  Fe  Fe20  1  0.16614633  0.83385367  0.74307167  1
  W  W21  1  0.00000000  0.00000000  0.16610000  1
  W  W22  1  0.66666667  0.33333333  0.16723333  1
  W  W23  1  0.33333333  0.66666667  0.01410367  1
  W  W24  1  0.33333333  0.66666667  0.31922967  1
  W  W25  1  0.33333333  0.66666667  0.11703667  1
  W  W26  1  0.33333333  0.66666667  0.21629667  1
  W  W27  1  0.66666667  0.33333333  0.49943333  1
  W  W28  1  0.33333333  0.66666667  0.50056667  1
  W  W29  1  0.00000000  0.00000000  0.34743700  1
  W  W30  1  0.00000000  0.00000000  0.65256300  1
  W  W31  1  0.00000000  0.00000000  0.45037000  1
  W  W32  1  0.00000000  0.00000000  0.54963000  1
  W  W33  1  0.33333333  0.66666667  0.83276667  1
  W  W34  1  0.00000000  0.00000000  0.83390000  1
  W  W35  1  0.66666667  0.33333333  0.68077033  1
  W  W36  1  0.66666667  0.33333333  0.98589633  1
  W  W37  1  0.66666667  0.33333333  0.78370333  1
  W  W38  1  0.66666667  0.33333333  0.88296333  1
