# generated using pymatgen
data_Ti2Be17
_symmetry_space_group_name_H-M   'P 1'
_cell_length_a   7.33637211
_cell_length_b   7.33637211
_cell_length_c   10.73300486
_cell_angle_alpha   90.00000000
_cell_angle_beta   90.00000000
_cell_angle_gamma   120.00000000
_symmetry_Int_Tables_number   1
_chemical_formula_structural   Ti2Be17
_chemical_formula_sum   'Ti6 Be51'
_cell_volume   500.28174959
_cell_formula_units_Z   3
loop_
 _symmetry_equiv_pos_site_id
 _symmetry_equiv_pos_as_xyz
  1  'x, y, z'
loop_
 _atom_site_type_symbol
 _atom_site_label
 _atom_site_symmetry_multiplicity
 _atom_site_fract_x
 _atom_site_fract_y
 _atom_site_fract_z
 _atom_site_occupancy
  Ti  Ti0  1  0.33333333  0.66666667  0.83050567  1
  Ti  Ti1  1  0.33333333  0.66666667  0.50282767  1
  Ti  Ti2  1  0.00000000  0.00000000  0.16383900  1
  Ti  Ti3  1  0.00000000  0.00000000  0.83616100  1
  Ti  Ti4  1  0.66666667  0.33333333  0.49717233  1
  Ti  Ti5  1  0.66666667  0.33333333  0.16949433  1
  Be  Be6  1  0.33333333  0.66666667  0.06767967  1
  Be  Be7  1  0.33333333  0.66666667  0.26565367  1
  Be  Be8  1  0.16666667  0.83333333  0.33333333  1
  Be  Be9  1  0.00000000  0.50000000  0.00000000  1
  Be  Be10  1  0.50000000  0.00000000  0.00000000  1
  Be  Be11  1  0.62852733  0.66666667  0.16666667  1
  Be  Be12  1  0.03813933  0.37147267  0.16666667  1
  Be  Be13  1  0.33333333  0.96186067  0.16666667  1
  Be  Be14  1  0.03813933  0.66666667  0.16666667  1
  Be  Be15  1  0.62852733  0.96186067  0.16666667  1
  Be  Be16  1  0.33333333  0.37147267  0.16666667  1
  Be  Be17  1  0.16447000  0.32894000  0.98912100  1
  Be  Be18  1  0.16447000  0.83553000  0.98912100  1
  Be  Be19  1  0.67106000  0.83553000  0.98912100  1
  Be  Be20  1  0.99560667  0.49780333  0.34421233  1
  Be  Be21  1  0.50219667  0.00439333  0.34421233  1
  Be  Be22  1  0.50219667  0.49780333  0.34421233  1
  Be  Be23  1  0.00000000  0.00000000  0.40101300  1
  Be  Be24  1  0.00000000  0.00000000  0.59898700  1
  Be  Be25  1  0.83333333  0.16666667  0.66666667  1
  Be  Be26  1  0.66666667  0.83333333  0.33333333  1
  Be  Be27  1  0.16666667  0.33333333  0.33333333  1
  Be  Be28  1  0.29519400  0.00000000  0.50000000  1
  Be  Be29  1  0.70480600  0.70480600  0.50000000  1
  Be  Be30  1  0.00000000  0.29519400  0.50000000  1
  Be  Be31  1  0.70480600  0.00000000  0.50000000  1
  Be  Be32  1  0.29519400  0.29519400  0.50000000  1
  Be  Be33  1  0.00000000  0.70480600  0.50000000  1
  Be  Be34  1  0.83113667  0.66227333  0.32245433  1
  Be  Be35  1  0.83113667  0.16886333  0.32245433  1
  Be  Be36  1  0.33772667  0.16886333  0.32245433  1
  Be  Be37  1  0.66227333  0.83113667  0.67754567  1
  Be  Be38  1  0.16886333  0.33772667  0.67754567  1
  Be  Be39  1  0.16886333  0.83113667  0.67754567  1
  Be  Be40  1  0.66666667  0.33333333  0.73434633  1
  Be  Be41  1  0.66666667  0.33333333  0.93232033  1
  Be  Be42  1  0.50000000  0.50000000  0.00000000  1
  Be  Be43  1  0.33333333  0.16666667  0.66666667  1
  Be  Be44  1  0.83333333  0.66666667  0.66666667  1
  Be  Be45  1  0.96186067  0.33333333  0.83333333  1
  Be  Be46  1  0.37147267  0.03813933  0.83333333  1
  Be  Be47  1  0.66666667  0.62852733  0.83333333  1
  Be  Be48  1  0.37147267  0.33333333  0.83333333  1
  Be  Be49  1  0.96186067  0.62852733  0.83333333  1
  Be  Be50  1  0.66666667  0.03813933  0.83333333  1
  Be  Be51  1  0.49780333  0.99560667  0.65578767  1
  Be  Be52  1  0.49780333  0.50219667  0.65578767  1
  Be  Be53  1  0.00439333  0.50219667  0.65578767  1
  Be  Be54  1  0.32894000  0.16447000  0.01087900  1
  Be  Be55  1  0.83553000  0.67106000  0.01087900  1
  Be  Be56  1  0.83553000  0.16447000  0.01087900  1
