# generated using pymatgen
data_ScGe2
_symmetry_space_group_name_H-M   'P 1'
_cell_length_a   3.91986200
_cell_length_b   14.84583400
_cell_length_c   3.84777000
_cell_angle_alpha   90.00000000
_cell_angle_beta   90.00000000
_cell_angle_gamma   90.00000000
_symmetry_Int_Tables_number   1
_chemical_formula_structural   ScGe2
_chemical_formula_sum   'Sc4 Ge8'
_cell_volume   223.91566736
_cell_formula_units_Z   4
loop_
 _symmetry_equiv_pos_site_id
 _symmetry_equiv_pos_as_xyz
  1  'x, y, z'
loop_
 _atom_site_type_symbol
 _atom_site_label
 _atom_site_symmetry_multiplicity
 _atom_site_fract_x
 _atom_site_fract_y
 _atom_site_fract_z
 _atom_site_occupancy
  Sc  Sc0  1  0.00000000  0.10052400  0.25000000  1
  Sc  Sc1  1  0.50000000  0.39947600  0.75000000  1
  Sc  Sc2  1  0.50000000  0.60052400  0.25000000  1
  Sc  Sc3  1  0.00000000  0.89947600  0.75000000  1
  Ge  Ge4  1  0.00000000  0.44030800  0.25000000  1
  Ge  Ge5  1  0.50000000  0.05969200  0.75000000  1
  Ge  Ge6  1  0.50000000  0.24873900  0.25000000  1
  Ge  Ge7  1  0.00000000  0.25126100  0.75000000  1
  Ge  Ge8  1  0.50000000  0.94030800  0.25000000  1
  Ge  Ge9  1  0.00000000  0.55969200  0.75000000  1
  Ge  Ge10  1  0.00000000  0.74873900  0.25000000  1
  Ge  Ge11  1  0.50000000  0.75126100  0.75000000  1
