# generated using pymatgen
data_TaB
_symmetry_space_group_name_H-M   'P 1'
_cell_length_a   3.29452800
_cell_length_b   8.71787400
_cell_length_c   3.17194000
_cell_angle_alpha   90.00000000
_cell_angle_beta   90.00000000
_cell_angle_gamma   90.00000000
_symmetry_Int_Tables_number   1
_chemical_formula_structural   TaB
_chemical_formula_sum   'Ta4 B4'
_cell_volume   91.10217686
_cell_formula_units_Z   4
loop_
 _symmetry_equiv_pos_site_id
 _symmetry_equiv_pos_as_xyz
  1  'x, y, z'
loop_
 _atom_site_type_symbol
 _atom_site_label
 _atom_site_symmetry_multiplicity
 _atom_site_fract_x
 _atom_site_fract_y
 _atom_site_fract_z
 _atom_site_occupancy
  Ta  Ta0  1  0.00000000  0.14543700  0.25000000  1
  Ta  Ta1  1  0.50000000  0.35456300  0.75000000  1
  Ta  Ta2  1  0.50000000  0.64543700  0.25000000  1
  Ta  Ta3  1  0.00000000  0.85456300  0.75000000  1
  B  B4  1  0.00000000  0.44038700  0.25000000  1
  B  B5  1  0.50000000  0.05961300  0.75000000  1
  B  B6  1  0.50000000  0.94038700  0.25000000  1
  B  B7  1  0.00000000  0.55961300  0.75000000  1
