# generated using pymatgen
data_Y2GeRh3
_symmetry_space_group_name_H-M   'P 1'
_cell_length_a   5.61932825
_cell_length_b   5.61932825
_cell_length_c   11.95664747
_cell_angle_alpha   90.00000000
_cell_angle_beta   90.00000000
_cell_angle_gamma   120.00000000
_symmetry_Int_Tables_number   1
_chemical_formula_structural   Y2GeRh3
_chemical_formula_sum   'Y6 Ge3 Rh9'
_cell_volume   326.97071781
_cell_formula_units_Z   3
loop_
 _symmetry_equiv_pos_site_id
 _symmetry_equiv_pos_as_xyz
  1  'x, y, z'
loop_
 _atom_site_type_symbol
 _atom_site_label
 _atom_site_symmetry_multiplicity
 _atom_site_fract_x
 _atom_site_fract_y
 _atom_site_fract_z
 _atom_site_occupancy
  Y  Y0  1  0.33333333  0.66666667  0.29593567  1
  Y  Y1  1  0.33333333  0.66666667  0.03739767  1
  Y  Y2  1  0.00000000  0.00000000  0.62926900  1
  Y  Y3  1  0.00000000  0.00000000  0.37073100  1
  Y  Y4  1  0.66666667  0.33333333  0.96260233  1
  Y  Y5  1  0.66666667  0.33333333  0.70406433  1
  Ge  Ge6  1  0.00000000  0.00000000  0.00000000  1
  Ge  Ge7  1  0.66666667  0.33333333  0.33333333  1
  Ge  Ge8  1  0.33333333  0.66666667  0.66666667  1
  Rh  Rh9  1  0.16666667  0.33333333  0.83333333  1
  Rh  Rh10  1  0.33333333  0.16666667  0.16666667  1
  Rh  Rh11  1  0.83333333  0.16666667  0.16666667  1
  Rh  Rh12  1  0.83333333  0.66666667  0.16666667  1
  Rh  Rh13  1  0.00000000  0.50000000  0.50000000  1
  Rh  Rh14  1  0.50000000  0.50000000  0.50000000  1
  Rh  Rh15  1  0.50000000  0.00000000  0.50000000  1
  Rh  Rh16  1  0.66666667  0.83333333  0.83333333  1
  Rh  Rh17  1  0.16666667  0.83333333  0.83333333  1
