# generated using pymatgen
data_Zr3Te
_symmetry_space_group_name_H-M   'P 1'
_cell_length_a   11.40905600
_cell_length_b   11.40905600
_cell_length_c   5.68373800
_cell_angle_alpha   90.00000000
_cell_angle_beta   90.00000000
_cell_angle_gamma   90.00000000
_symmetry_Int_Tables_number   1
_chemical_formula_structural   Zr3Te
_chemical_formula_sum   'Zr24 Te8'
_cell_volume   739.83261664
_cell_formula_units_Z   8
loop_
 _symmetry_equiv_pos_site_id
 _symmetry_equiv_pos_as_xyz
  1  'x, y, z'
loop_
 _atom_site_type_symbol
 _atom_site_label
 _atom_site_symmetry_multiplicity
 _atom_site_fract_x
 _atom_site_fract_y
 _atom_site_fract_z
 _atom_site_occupancy
  Zr  Zr0  1  0.91784750  0.89681300  0.21071325  1
  Zr  Zr1  1  0.39681300  0.58215250  0.28928675  1
  Zr  Zr2  1  0.60318700  0.41784750  0.28928675  1
  Zr  Zr3  1  0.08215250  0.10318700  0.21071325  1
  Zr  Zr4  1  0.14198800  0.48131450  0.47652775  1
  Zr  Zr5  1  0.98131450  0.35801200  0.02347225  1
  Zr  Zr6  1  0.01868550  0.64198800  0.02347225  1
  Zr  Zr7  1  0.85801200  0.51868550  0.47652775  1
  Zr  Zr8  1  0.81337050  0.78287100  0.76466925  1
  Zr  Zr9  1  0.28287100  0.68662950  0.73533075  1
  Zr  Zr10  1  0.71712900  0.31337050  0.73533075  1
  Zr  Zr11  1  0.18662950  0.21712900  0.76466925  1
  Zr  Zr12  1  0.41784750  0.39681300  0.71071325  1
  Zr  Zr13  1  0.89681300  0.08215250  0.78928675  1
  Zr  Zr14  1  0.10318700  0.91784750  0.78928675  1
  Zr  Zr15  1  0.58215250  0.60318700  0.71071325  1
  Zr  Zr16  1  0.64198800  0.98131450  0.97652775  1
  Zr  Zr17  1  0.48131450  0.85801200  0.52347225  1
  Zr  Zr18  1  0.51868550  0.14198800  0.52347225  1
  Zr  Zr19  1  0.35801200  0.01868550  0.97652775  1
  Zr  Zr20  1  0.31337050  0.28287100  0.26466925  1
  Zr  Zr21  1  0.78287100  0.18662950  0.23533075  1
  Zr  Zr22  1  0.21712900  0.81337050  0.23533075  1
  Zr  Zr23  1  0.68662950  0.71712900  0.26466925  1
  Te  Te24  1  0.21169350  0.46820200  0.97626325  1
  Te  Te25  1  0.96820200  0.28830650  0.52373675  1
  Te  Te26  1  0.03179800  0.71169350  0.52373675  1
  Te  Te27  1  0.78830650  0.53179800  0.97626325  1
  Te  Te28  1  0.71169350  0.96820200  0.47626325  1
  Te  Te29  1  0.46820200  0.78830650  0.02373675  1
  Te  Te30  1  0.53179800  0.21169350  0.02373675  1
  Te  Te31  1  0.28830650  0.03179800  0.47626325  1
