# generated using pymatgen
data_Ta3B4
_symmetry_space_group_name_H-M   'P 1'
_cell_length_a   3.14599600
_cell_length_b   3.31016200
_cell_length_c   14.06999200
_cell_angle_alpha   90.00000000
_cell_angle_beta   90.00000000
_cell_angle_gamma   90.00000000
_symmetry_Int_Tables_number   1
_chemical_formula_structural   Ta3B4
_chemical_formula_sum   'Ta6 B8'
_cell_volume   146.52146940
_cell_formula_units_Z   2
loop_
 _symmetry_equiv_pos_site_id
 _symmetry_equiv_pos_as_xyz
  1  'x, y, z'
loop_
 _atom_site_type_symbol
 _atom_site_label
 _atom_site_symmetry_multiplicity
 _atom_site_fract_x
 _atom_site_fract_y
 _atom_site_fract_z
 _atom_site_occupancy
  Ta  Ta0  1  0.50000000  0.00000000  0.00000000  1
  Ta  Ta1  1  0.50000000  0.50000000  0.68526200  1
  Ta  Ta2  1  0.00000000  0.00000000  0.81473800  1
  Ta  Ta3  1  0.00000000  0.50000000  0.50000000  1
  Ta  Ta4  1  0.00000000  0.00000000  0.18526200  1
  Ta  Ta5  1  0.50000000  0.50000000  0.31473800  1
  B  B6  1  0.50000000  0.50000000  0.86652300  1
  B  B7  1  0.00000000  0.00000000  0.63347700  1
  B  B8  1  0.00000000  0.50000000  0.93575900  1
  B  B9  1  0.50000000  0.00000000  0.56424100  1
  B  B10  1  0.00000000  0.00000000  0.36652300  1
  B  B11  1  0.50000000  0.50000000  0.13347700  1
  B  B12  1  0.50000000  0.00000000  0.43575900  1
  B  B13  1  0.00000000  0.50000000  0.06424100  1
