# generated using pymatgen
data_SbPt7
_symmetry_space_group_name_H-M   'P 1'
_cell_length_a   8.06014800
_cell_length_b   8.06014800
_cell_length_c   8.06014800
_cell_angle_alpha   90.00000000
_cell_angle_beta   90.00000000
_cell_angle_gamma   90.00000000
_symmetry_Int_Tables_number   1
_chemical_formula_structural   SbPt7
_chemical_formula_sum   'Sb4 Pt28'
_cell_volume   523.63546037
_cell_formula_units_Z   4
loop_
 _symmetry_equiv_pos_site_id
 _symmetry_equiv_pos_as_xyz
  1  'x, y, z'
loop_
 _atom_site_type_symbol
 _atom_site_label
 _atom_site_symmetry_multiplicity
 _atom_site_fract_x
 _atom_site_fract_y
 _atom_site_fract_z
 _atom_site_occupancy
  Sb  Sb0  1  0.00000000  0.00000000  0.00000000  1
  Sb  Sb1  1  0.00000000  0.50000000  0.50000000  1
  Sb  Sb2  1  0.50000000  0.00000000  0.50000000  1
  Sb  Sb3  1  0.50000000  0.50000000  0.00000000  1
  Pt  Pt4  1  0.50000000  0.00000000  0.00000000  1
  Pt  Pt5  1  0.25000000  0.75000000  0.00000000  1
  Pt  Pt6  1  0.00000000  0.25000000  0.75000000  1
  Pt  Pt7  1  0.00000000  0.75000000  0.75000000  1
  Pt  Pt8  1  0.25000000  0.25000000  0.00000000  1
  Pt  Pt9  1  0.75000000  0.00000000  0.75000000  1
  Pt  Pt10  1  0.25000000  0.00000000  0.75000000  1
  Pt  Pt11  1  0.50000000  0.50000000  0.50000000  1
  Pt  Pt12  1  0.25000000  0.25000000  0.50000000  1
  Pt  Pt13  1  0.00000000  0.75000000  0.25000000  1
  Pt  Pt14  1  0.00000000  0.25000000  0.25000000  1
  Pt  Pt15  1  0.25000000  0.75000000  0.50000000  1
  Pt  Pt16  1  0.75000000  0.50000000  0.25000000  1
  Pt  Pt17  1  0.25000000  0.50000000  0.25000000  1
  Pt  Pt18  1  0.00000000  0.00000000  0.50000000  1
  Pt  Pt19  1  0.75000000  0.75000000  0.50000000  1
  Pt  Pt20  1  0.50000000  0.25000000  0.25000000  1
  Pt  Pt21  1  0.50000000  0.75000000  0.25000000  1
  Pt  Pt22  1  0.75000000  0.25000000  0.50000000  1
  Pt  Pt23  1  0.25000000  0.00000000  0.25000000  1
  Pt  Pt24  1  0.75000000  0.00000000  0.25000000  1
  Pt  Pt25  1  0.00000000  0.50000000  0.00000000  1
  Pt  Pt26  1  0.75000000  0.25000000  0.00000000  1
  Pt  Pt27  1  0.50000000  0.75000000  0.75000000  1
  Pt  Pt28  1  0.50000000  0.25000000  0.75000000  1
  Pt  Pt29  1  0.75000000  0.75000000  0.00000000  1
  Pt  Pt30  1  0.25000000  0.50000000  0.75000000  1
  Pt  Pt31  1  0.75000000  0.50000000  0.75000000  1
