# generated using pymatgen
data_Tm2Al3Si2
_symmetry_space_group_name_H-M   'P 1'
_cell_length_a   10.08880000
_cell_length_b   4.00097000
_cell_length_c   6.57891801
_cell_angle_alpha   90.00000000
_cell_angle_beta   100.74591931
_cell_angle_gamma   90.00000000
_symmetry_Int_Tables_number   1
_chemical_formula_structural   Tm2Al3Si2
_chemical_formula_sum   'Tm4 Al6 Si4'
_cell_volume   260.90102541
_cell_formula_units_Z   2
loop_
 _symmetry_equiv_pos_site_id
 _symmetry_equiv_pos_as_xyz
  1  'x, y, z'
loop_
 _atom_site_type_symbol
 _atom_site_label
 _atom_site_symmetry_multiplicity
 _atom_site_fract_x
 _atom_site_fract_y
 _atom_site_fract_z
 _atom_site_occupancy
  Tm  Tm0  1  0.61933400  0.00000000  0.32292400  1
  Tm  Tm1  1  0.88066600  0.50000000  0.67707600  1
  Tm  Tm2  1  0.11933400  0.50000000  0.32292400  1
  Tm  Tm3  1  0.38066600  0.00000000  0.67707600  1
  Al  Al4  1  0.80511000  0.50000000  0.13313400  1
  Al  Al5  1  0.00000000  0.00000000  0.00000000  1
  Al  Al6  1  0.69489000  0.00000000  0.86686600  1
  Al  Al7  1  0.30511000  0.00000000  0.13313400  1
  Al  Al8  1  0.50000000  0.50000000  0.00000000  1
  Al  Al9  1  0.19489000  0.50000000  0.86686600  1
  Si  Si10  1  0.59389400  0.50000000  0.63922900  1
  Si  Si11  1  0.90610600  0.00000000  0.36077100  1
  Si  Si12  1  0.09389400  0.00000000  0.63922900  1
  Si  Si13  1  0.40610600  0.50000000  0.36077100  1
