# generated using pymatgen
data_Al21Pt8
_symmetry_space_group_name_H-M   'P 1'
_cell_length_a   13.04823000
_cell_length_b   13.04823000
_cell_length_c   10.76521800
_cell_angle_alpha   90.00000000
_cell_angle_beta   90.00000000
_cell_angle_gamma   90.00000000
_symmetry_Int_Tables_number   1
_chemical_formula_structural   Al21Pt8
_chemical_formula_sum   'Al84 Pt32'
_cell_volume   1832.84625140
_cell_formula_units_Z   4
loop_
 _symmetry_equiv_pos_site_id
 _symmetry_equiv_pos_as_xyz
  1  'x, y, z'
loop_
 _atom_site_type_symbol
 _atom_site_label
 _atom_site_symmetry_multiplicity
 _atom_site_fract_x
 _atom_site_fract_y
 _atom_site_fract_z
 _atom_site_occupancy
  Al  Al0  1  0.50000000  0.00000000  0.75000000  1
  Al  Al1  1  0.00000000  0.00000000  0.50000000  1
  Al  Al2  1  0.58972850  0.94693850  0.34968950  1
  Al  Al3  1  0.44693850  0.41027150  0.59968950  1
  Al  Al4  1  0.55306150  0.58972850  0.59968950  1
  Al  Al5  1  0.91027150  0.55306150  0.84968950  1
  Al  Al6  1  0.41027150  0.55306150  0.40031050  1
  Al  Al7  1  0.55306150  0.08972850  0.15031050  1
  Al  Al8  1  0.94693850  0.41027150  0.65031050  1
  Al  Al9  1  0.58972850  0.44693850  0.40031050  1
  Al  Al10  1  0.58859600  0.25187300  0.30177600  1
  Al  Al11  1  0.75187300  0.41140400  0.55177600  1
  Al  Al12  1  0.24812700  0.58859600  0.55177600  1
  Al  Al13  1  0.91140400  0.24812700  0.80177600  1
  Al  Al14  1  0.41140400  0.24812700  0.44822400  1
  Al  Al15  1  0.24812700  0.08859600  0.19822400  1
  Al  Al16  1  0.25187300  0.41140400  0.69822400  1
  Al  Al17  1  0.58859600  0.75187300  0.44822400  1
  Al  Al18  1  0.79074450  0.28128050  0.22445150  1
  Al  Al19  1  0.78128050  0.20925550  0.47445150  1
  Al  Al20  1  0.21871950  0.79074450  0.47445150  1
  Al  Al21  1  0.70925550  0.21871950  0.72445150  1
  Al  Al22  1  0.20925550  0.21871950  0.52554850  1
  Al  Al23  1  0.71871950  0.79074450  0.77554850  1
  Al  Al24  1  0.78128050  0.70925550  0.27554850  1
  Al  Al25  1  0.79074450  0.78128050  0.52554850  1
  Al  Al26  1  0.00966900  0.28170400  0.22949100  1
  Al  Al27  1  0.78170400  0.99033100  0.47949100  1
  Al  Al28  1  0.21829600  0.00966900  0.47949100  1
  Al  Al29  1  0.49033100  0.21829600  0.72949100  1
  Al  Al30  1  0.99033100  0.21829600  0.52050900  1
  Al  Al31  1  0.71829600  0.00966900  0.77050900  1
  Al  Al32  1  0.78170400  0.49033100  0.27050900  1
  Al  Al33  1  0.00966900  0.78170400  0.52050900  1
  Al  Al34  1  0.93009750  0.40771350  0.02260450  1
  Al  Al35  1  0.90771350  0.06990250  0.27260450  1
  Al  Al36  1  0.59228650  0.43009750  0.77260450  1
  Al  Al37  1  0.56990250  0.09228650  0.52260450  1
  Al  Al38  1  0.56990250  0.59228650  0.22739550  1
  Al  Al39  1  0.59228650  0.93009750  0.97739550  1
  Al  Al40  1  0.90771350  0.56990250  0.47739550  1
  Al  Al41  1  0.93009750  0.90771350  0.72739550  1
  Al  Al42  1  0.00000000  0.50000000  0.25000000  1
  Al  Al43  1  0.50000000  0.50000000  0.00000000  1
  Al  Al44  1  0.08972850  0.44693850  0.84968950  1
  Al  Al45  1  0.94693850  0.91027150  0.09968950  1
  Al  Al46  1  0.05306150  0.08972850  0.09968950  1
  Al  Al47  1  0.41027150  0.05306150  0.34968950  1
  Al  Al48  1  0.91027150  0.05306150  0.90031050  1
  Al  Al49  1  0.05306150  0.58972850  0.65031050  1
  Al  Al50  1  0.44693850  0.91027150  0.15031050  1
  Al  Al51  1  0.08972850  0.94693850  0.90031050  1
  Al  Al52  1  0.08859600  0.75187300  0.80177600  1
  Al  Al53  1  0.25187300  0.91140400  0.05177600  1
  Al  Al54  1  0.74812700  0.08859600  0.05177600  1
  Al  Al55  1  0.41140400  0.74812700  0.30177600  1
  Al  Al56  1  0.91140400  0.74812700  0.94822400  1
  Al  Al57  1  0.74812700  0.58859600  0.69822400  1
  Al  Al58  1  0.75187300  0.91140400  0.19822400  1
  Al  Al59  1  0.08859600  0.25187300  0.94822400  1
  Al  Al60  1  0.29074450  0.78128050  0.72445150  1
  Al  Al61  1  0.28128050  0.70925550  0.97445150  1
  Al  Al62  1  0.71871950  0.29074450  0.97445150  1
  Al  Al63  1  0.20925550  0.71871950  0.22445150  1
  Al  Al64  1  0.70925550  0.71871950  0.02554850  1
  Al  Al65  1  0.21871950  0.29074450  0.27554850  1
  Al  Al66  1  0.28128050  0.20925550  0.77554850  1
  Al  Al67  1  0.29074450  0.28128050  0.02554850  1
  Al  Al68  1  0.50966900  0.78170400  0.72949100  1
  Al  Al69  1  0.28170400  0.49033100  0.97949100  1
  Al  Al70  1  0.71829600  0.50966900  0.97949100  1
  Al  Al71  1  0.99033100  0.71829600  0.22949100  1
  Al  Al72  1  0.49033100  0.71829600  0.02050900  1
  Al  Al73  1  0.21829600  0.50966900  0.27050900  1
  Al  Al74  1  0.28170400  0.99033100  0.77050900  1
  Al  Al75  1  0.50966900  0.28170400  0.02050900  1
  Al  Al76  1  0.43009750  0.90771350  0.52260450  1
  Al  Al77  1  0.40771350  0.56990250  0.77260450  1
  Al  Al78  1  0.09228650  0.93009750  0.27260450  1
  Al  Al79  1  0.06990250  0.59228650  0.02260450  1
  Al  Al80  1  0.06990250  0.09228650  0.72739550  1
  Al  Al81  1  0.09228650  0.43009750  0.47739550  1
  Al  Al82  1  0.40771350  0.06990250  0.97739550  1
  Al  Al83  1  0.43009750  0.40771350  0.22739550  1
  Pt  Pt84  1  0.63051850  0.40710050  0.15456650  1
  Pt  Pt85  1  0.90710050  0.36948150  0.40456650  1
  Pt  Pt86  1  0.59289950  0.13051850  0.90456650  1
  Pt  Pt87  1  0.86948150  0.09289950  0.65456650  1
  Pt  Pt88  1  0.86948150  0.59289950  0.09543350  1
  Pt  Pt89  1  0.09289950  0.13051850  0.34543350  1
  Pt  Pt90  1  0.40710050  0.36948150  0.84543350  1
  Pt  Pt91  1  0.63051850  0.90710050  0.59543350  1
  Pt  Pt92  1  0.78518350  0.90159450  0.95830550  1
  Pt  Pt93  1  0.90159450  0.71481650  0.70830550  1
  Pt  Pt94  1  0.59840550  0.78518350  0.20830550  1
  Pt  Pt95  1  0.71481650  0.59840550  0.45830550  1
  Pt  Pt96  1  0.71481650  0.09840550  0.29169450  1
  Pt  Pt97  1  0.59840550  0.28518350  0.54169450  1
  Pt  Pt98  1  0.90159450  0.21481650  0.04169450  1
  Pt  Pt99  1  0.78518350  0.40159450  0.79169450  1
  Pt  Pt100  1  0.13051850  0.90710050  0.65456650  1
  Pt  Pt101  1  0.40710050  0.86948150  0.90456650  1
  Pt  Pt102  1  0.09289950  0.63051850  0.40456650  1
  Pt  Pt103  1  0.36948150  0.59289950  0.15456650  1
  Pt  Pt104  1  0.36948150  0.09289950  0.59543350  1
  Pt  Pt105  1  0.59289950  0.63051850  0.84543350  1
  Pt  Pt106  1  0.90710050  0.86948150  0.34543350  1
  Pt  Pt107  1  0.13051850  0.40710050  0.09543350  1
  Pt  Pt108  1  0.28518350  0.40159450  0.45830550  1
  Pt  Pt109  1  0.40159450  0.21481650  0.20830550  1
  Pt  Pt110  1  0.09840550  0.28518350  0.70830550  1
  Pt  Pt111  1  0.21481650  0.09840550  0.95830550  1
  Pt  Pt112  1  0.21481650  0.59840550  0.79169450  1
  Pt  Pt113  1  0.09840550  0.78518350  0.04169450  1
  Pt  Pt114  1  0.40159450  0.71481650  0.54169450  1
  Pt  Pt115  1  0.28518350  0.90159450  0.29169450  1
