# generated using pymatgen
data_Sn3Pd
_symmetry_space_group_name_H-M   'P 1'
_cell_length_a   6.57207800
_cell_length_b   17.47947800
_cell_length_c   6.59959000
_cell_angle_alpha   90.00000000
_cell_angle_beta   90.00000000
_cell_angle_gamma   90.00000000
_symmetry_Int_Tables_number   1
_chemical_formula_structural   Sn3Pd
_chemical_formula_sum   'Sn24 Pd8'
_cell_volume   758.13775322
_cell_formula_units_Z   8
loop_
 _symmetry_equiv_pos_site_id
 _symmetry_equiv_pos_as_xyz
  1  'x, y, z'
loop_
 _atom_site_type_symbol
 _atom_site_label
 _atom_site_symmetry_multiplicity
 _atom_site_fract_x
 _atom_site_fract_y
 _atom_site_fract_z
 _atom_site_occupancy
  Sn  Sn0  1  0.16018400  0.00000000  0.66214300  1
  Sn  Sn1  1  0.66018400  0.00000000  0.83785700  1
  Sn  Sn2  1  0.33981600  0.00000000  0.16214300  1
  Sn  Sn3  1  0.83981600  0.00000000  0.33785700  1
  Sn  Sn4  1  0.82942600  0.66770100  0.82973800  1
  Sn  Sn5  1  0.82942600  0.83229900  0.67026200  1
  Sn  Sn6  1  0.17057400  0.83229900  0.32973800  1
  Sn  Sn7  1  0.17057400  0.66770100  0.17026200  1
  Sn  Sn8  1  0.67057400  0.83229900  0.17026200  1
  Sn  Sn9  1  0.67057400  0.66770100  0.32973800  1
  Sn  Sn10  1  0.32942600  0.66770100  0.67026200  1
  Sn  Sn11  1  0.32942600  0.83229900  0.82973800  1
  Sn  Sn12  1  0.66018400  0.50000000  0.66214300  1
  Sn  Sn13  1  0.16018400  0.50000000  0.83785700  1
  Sn  Sn14  1  0.83981600  0.50000000  0.16214300  1
  Sn  Sn15  1  0.33981600  0.50000000  0.33785700  1
  Sn  Sn16  1  0.32942600  0.16770100  0.82973800  1
  Sn  Sn17  1  0.32942600  0.33229900  0.67026200  1
  Sn  Sn18  1  0.67057400  0.33229900  0.32973800  1
  Sn  Sn19  1  0.67057400  0.16770100  0.17026200  1
  Sn  Sn20  1  0.17057400  0.33229900  0.17026200  1
  Sn  Sn21  1  0.17057400  0.16770100  0.32973800  1
  Sn  Sn22  1  0.82942600  0.16770100  0.67026200  1
  Sn  Sn23  1  0.82942600  0.33229900  0.82973800  1
  Pd  Pd24  1  0.50000000  0.58516400  0.00000000  1
  Pd  Pd25  1  0.50000000  0.91483600  0.50000000  1
  Pd  Pd26  1  0.00000000  0.91483600  0.00000000  1
  Pd  Pd27  1  0.00000000  0.58516400  0.50000000  1
  Pd  Pd28  1  0.00000000  0.08516400  0.00000000  1
  Pd  Pd29  1  0.00000000  0.41483600  0.50000000  1
  Pd  Pd30  1  0.50000000  0.41483600  0.00000000  1
  Pd  Pd31  1  0.50000000  0.08516400  0.50000000  1
