# generated using pymatgen
data_Zr2Fe
_symmetry_space_group_name_H-M   'P 1'
_cell_length_a   6.27760400
_cell_length_b   6.27760400
_cell_length_c   5.73655800
_cell_angle_alpha   90.00000000
_cell_angle_beta   90.00000000
_cell_angle_gamma   90.00000000
_symmetry_Int_Tables_number   1
_chemical_formula_structural   Zr2Fe
_chemical_formula_sum   'Zr8 Fe4'
_cell_volume   226.06806736
_cell_formula_units_Z   4
loop_
 _symmetry_equiv_pos_site_id
 _symmetry_equiv_pos_as_xyz
  1  'x, y, z'
loop_
 _atom_site_type_symbol
 _atom_site_label
 _atom_site_symmetry_multiplicity
 _atom_site_fract_x
 _atom_site_fract_y
 _atom_site_fract_z
 _atom_site_occupancy
  Zr  Zr0  1  0.67828350  0.17828350  0.00000000  1
  Zr  Zr1  1  0.82171650  0.32171650  0.50000000  1
  Zr  Zr2  1  0.32171650  0.17828350  0.50000000  1
  Zr  Zr3  1  0.17828350  0.32171650  0.00000000  1
  Zr  Zr4  1  0.17828350  0.67828350  0.50000000  1
  Zr  Zr5  1  0.32171650  0.82171650  0.00000000  1
  Zr  Zr6  1  0.82171650  0.67828350  0.00000000  1
  Zr  Zr7  1  0.67828350  0.82171650  0.50000000  1
  Fe  Fe8  1  0.00000000  0.00000000  0.75000000  1
  Fe  Fe9  1  0.00000000  0.00000000  0.25000000  1
  Fe  Fe10  1  0.50000000  0.50000000  0.25000000  1
  Fe  Fe11  1  0.50000000  0.50000000  0.75000000  1
