# generated using pymatgen
data_Er2Al3Si2
_symmetry_space_group_name_H-M   'P 1'
_cell_length_a   10.14044600
_cell_length_b   4.00946200
_cell_length_c   6.60111968
_cell_angle_alpha   90.00000000
_cell_angle_beta   100.95275115
_cell_angle_gamma   90.00000000
_symmetry_Int_Tables_number   1
_chemical_formula_structural   Er2Al3Si2
_chemical_formula_sum   'Er4 Al6 Si4'
_cell_volume   263.49768471
_cell_formula_units_Z   2
loop_
 _symmetry_equiv_pos_site_id
 _symmetry_equiv_pos_as_xyz
  1  'x, y, z'
loop_
 _atom_site_type_symbol
 _atom_site_label
 _atom_site_symmetry_multiplicity
 _atom_site_fract_x
 _atom_site_fract_y
 _atom_site_fract_z
 _atom_site_occupancy
  Er  Er0  1  0.61942300  0.00000000  0.32274900  1
  Er  Er1  1  0.88057700  0.50000000  0.67725100  1
  Er  Er2  1  0.11942300  0.50000000  0.32274900  1
  Er  Er3  1  0.38057700  0.00000000  0.67725100  1
  Al  Al4  1  0.80523200  0.50000000  0.13330200  1
  Al  Al5  1  0.00000000  0.00000000  0.00000000  1
  Al  Al6  1  0.69476800  0.00000000  0.86669800  1
  Al  Al7  1  0.30523200  0.00000000  0.13330200  1
  Al  Al8  1  0.50000000  0.50000000  0.00000000  1
  Al  Al9  1  0.19476800  0.50000000  0.86669800  1
  Si  Si10  1  0.59351400  0.50000000  0.63957300  1
  Si  Si11  1  0.90648600  0.00000000  0.36042700  1
  Si  Si12  1  0.09351400  0.00000000  0.63957300  1
  Si  Si13  1  0.40648600  0.50000000  0.36042700  1
