# generated using pymatgen
data_Lu7(NiTe)2
_symmetry_space_group_name_H-M   'P 1'
_cell_length_a   3.79262600
_cell_length_b   9.41324600
_cell_length_c   15.21758600
_cell_angle_alpha   90.00000000
_cell_angle_beta   90.00000000
_cell_angle_gamma   90.00000000
_symmetry_Int_Tables_number   1
_chemical_formula_structural   Lu7(NiTe)2
_chemical_formula_sum   'Lu14 Ni4 Te4'
_cell_volume   543.28184357
_cell_formula_units_Z   2
loop_
 _symmetry_equiv_pos_site_id
 _symmetry_equiv_pos_as_xyz
  1  'x, y, z'
loop_
 _atom_site_type_symbol
 _atom_site_label
 _atom_site_symmetry_multiplicity
 _atom_site_fract_x
 _atom_site_fract_y
 _atom_site_fract_z
 _atom_site_occupancy
  Lu  Lu0  1  0.00000000  0.37708700  0.31454700  1
  Lu  Lu1  1  0.00000000  0.37708700  0.68545300  1
  Lu  Lu2  1  0.00000000  0.00064000  0.00000000  1
  Lu  Lu3  1  0.00000000  0.58208200  0.86489200  1
  Lu  Lu4  1  0.00000000  0.58208200  0.13510800  1
  Lu  Lu5  1  0.50000000  0.22736300  0.14646700  1
  Lu  Lu6  1  0.50000000  0.22736300  0.85353300  1
  Lu  Lu7  1  0.50000000  0.87708700  0.81454700  1
  Lu  Lu8  1  0.50000000  0.87708700  0.18545300  1
  Lu  Lu9  1  0.50000000  0.50064000  0.50000000  1
  Lu  Lu10  1  0.50000000  0.08208200  0.36489200  1
  Lu  Lu11  1  0.50000000  0.08208200  0.63510800  1
  Lu  Lu12  1  0.00000000  0.72736300  0.64646700  1
  Lu  Lu13  1  0.00000000  0.72736300  0.35353300  1
  Ni  Ni14  1  0.50000000  0.57067200  0.26362500  1
  Ni  Ni15  1  0.50000000  0.57067200  0.73637500  1
  Ni  Ni16  1  0.00000000  0.07067200  0.76362500  1
  Ni  Ni17  1  0.00000000  0.07067200  0.23637500  1
  Te  Te18  1  0.00000000  0.33933300  0.00000000  1
  Te  Te19  1  0.50000000  0.73382000  0.00000000  1
  Te  Te20  1  0.50000000  0.83933300  0.50000000  1
  Te  Te21  1  0.00000000  0.23382000  0.50000000  1
