# generated using pymatgen
data_Te2Ir
_symmetry_space_group_name_H-M   'P 1'
_cell_length_a   20.17446000
_cell_length_b   4.06576000
_cell_length_c   5.41228916
_cell_angle_alpha   90.00000000
_cell_angle_beta   90.38652764
_cell_angle_gamma   90.00000000
_symmetry_Int_Tables_number   1
_chemical_formula_structural   Te2Ir
_chemical_formula_sum   'Te12 Ir6'
_cell_volume   443.93027766
_cell_formula_units_Z   6
loop_
 _symmetry_equiv_pos_site_id
 _symmetry_equiv_pos_as_xyz
  1  'x, y, z'
loop_
 _atom_site_type_symbol
 _atom_site_label
 _atom_site_symmetry_multiplicity
 _atom_site_fract_x
 _atom_site_fract_y
 _atom_site_fract_z
 _atom_site_occupancy
  Te  Te0  1  0.62123900  0.50000000  0.71289600  1
  Te  Te1  1  0.87876100  0.00000000  0.28710400  1
  Te  Te2  1  0.71925600  0.50000000  0.23828300  1
  Te  Te3  1  0.95572200  0.50000000  0.77725800  1
  Te  Te4  1  0.54427800  0.00000000  0.22274200  1
  Te  Te5  1  0.78074400  0.00000000  0.76171700  1
  Te  Te6  1  0.12123900  0.00000000  0.71289600  1
  Te  Te7  1  0.37876100  0.50000000  0.28710400  1
  Te  Te8  1  0.21925600  0.00000000  0.23828300  1
  Te  Te9  1  0.45572200  0.00000000  0.77725800  1
  Te  Te10  1  0.04427800  0.50000000  0.22274200  1
  Te  Te11  1  0.28074400  0.50000000  0.76171700  1
  Ir  Ir12  1  0.00000000  0.00000000  0.50000000  1
  Ir  Ir13  1  0.65940100  0.00000000  0.99736000  1
  Ir  Ir14  1  0.84059900  0.50000000  0.00264000  1
  Ir  Ir15  1  0.50000000  0.50000000  0.50000000  1
  Ir  Ir16  1  0.15940100  0.50000000  0.99736000  1
  Ir  Ir17  1  0.34059900  0.00000000  0.00264000  1
