# generated using pymatgen
data_CaCd2
_symmetry_space_group_name_H-M   'P 1'
_cell_length_a   5.03088000
_cell_length_b   7.33525200
_cell_length_c   8.69250200
_cell_angle_alpha   90.00000000
_cell_angle_beta   90.00000000
_cell_angle_gamma   90.00000000
_symmetry_Int_Tables_number   1
_chemical_formula_structural   CaCd2
_chemical_formula_sum   'Ca4 Cd8'
_cell_volume   320.77742447
_cell_formula_units_Z   4
loop_
 _symmetry_equiv_pos_site_id
 _symmetry_equiv_pos_as_xyz
  1  'x, y, z'
loop_
 _atom_site_type_symbol
 _atom_site_label
 _atom_site_symmetry_multiplicity
 _atom_site_fract_x
 _atom_site_fract_y
 _atom_site_fract_z
 _atom_site_occupancy
  Ca  Ca0  1  0.00000000  0.25000000  0.52529200  1
  Ca  Ca1  1  0.00000000  0.75000000  0.47470800  1
  Ca  Ca2  1  0.50000000  0.75000000  0.02529200  1
  Ca  Ca3  1  0.50000000  0.25000000  0.97470800  1
  Cd  Cd4  1  0.50000000  0.97015500  0.66578400  1
  Cd  Cd5  1  0.50000000  0.02984500  0.33421600  1
  Cd  Cd6  1  0.00000000  0.97015500  0.83421600  1
  Cd  Cd7  1  0.00000000  0.02984500  0.16578400  1
  Cd  Cd8  1  0.00000000  0.47015500  0.16578400  1
  Cd  Cd9  1  0.00000000  0.52984500  0.83421600  1
  Cd  Cd10  1  0.50000000  0.47015500  0.33421600  1
  Cd  Cd11  1  0.50000000  0.52984500  0.66578400  1
