# generated using pymatgen
data_SrNiGe2
_symmetry_space_group_name_H-M   'P 1'
_cell_length_a   4.43483200
_cell_length_b   17.35417000
_cell_length_c   4.20605600
_cell_angle_alpha   90.00000000
_cell_angle_beta   90.00000000
_cell_angle_gamma   90.00000000
_symmetry_Int_Tables_number   1
_chemical_formula_structural   SrNiGe2
_chemical_formula_sum   'Sr4 Ni4 Ge8'
_cell_volume   323.70996638
_cell_formula_units_Z   4
loop_
 _symmetry_equiv_pos_site_id
 _symmetry_equiv_pos_as_xyz
  1  'x, y, z'
loop_
 _atom_site_type_symbol
 _atom_site_label
 _atom_site_symmetry_multiplicity
 _atom_site_fract_x
 _atom_site_fract_y
 _atom_site_fract_z
 _atom_site_occupancy
  Sr  Sr0  1  0.00000000  0.10789800  0.25000000  1
  Sr  Sr1  1  0.50000000  0.39210200  0.75000000  1
  Sr  Sr2  1  0.50000000  0.60789800  0.25000000  1
  Sr  Sr3  1  0.00000000  0.89210200  0.75000000  1
  Ni  Ni4  1  0.00000000  0.31868400  0.25000000  1
  Ni  Ni5  1  0.50000000  0.18131600  0.75000000  1
  Ni  Ni6  1  0.50000000  0.81868400  0.25000000  1
  Ni  Ni7  1  0.00000000  0.68131600  0.75000000  1
  Ge  Ge8  1  0.00000000  0.45638300  0.25000000  1
  Ge  Ge9  1  0.50000000  0.04361700  0.75000000  1
  Ge  Ge10  1  0.50000000  0.24959900  0.25000000  1
  Ge  Ge11  1  0.00000000  0.25040100  0.75000000  1
  Ge  Ge12  1  0.50000000  0.95638300  0.25000000  1
  Ge  Ge13  1  0.00000000  0.54361700  0.75000000  1
  Ge  Ge14  1  0.00000000  0.74959900  0.25000000  1
  Ge  Ge15  1  0.50000000  0.75040100  0.75000000  1
