# generated using pymatgen
data_NbSn2
_symmetry_space_group_name_H-M   'P 1'
_cell_length_a   5.72502200
_cell_length_b   9.94186600
_cell_length_c   19.31591000
_cell_angle_alpha   90.00000000
_cell_angle_beta   90.00000000
_cell_angle_gamma   90.00000000
_symmetry_Int_Tables_number   1
_chemical_formula_structural   NbSn2
_chemical_formula_sum   'Nb16 Sn32'
_cell_volume   1099.41140618
_cell_formula_units_Z   16
loop_
 _symmetry_equiv_pos_site_id
 _symmetry_equiv_pos_as_xyz
  1  'x, y, z'
loop_
 _atom_site_type_symbol
 _atom_site_label
 _atom_site_symmetry_multiplicity
 _atom_site_fract_x
 _atom_site_fract_y
 _atom_site_fract_z
 _atom_site_occupancy
  Nb  Nb0  1  0.75000000  0.75000000  0.62302500  1
  Nb  Nb1  1  0.75000000  0.75000000  0.87697500  1
  Nb  Nb2  1  0.00000000  0.00000000  0.62697500  1
  Nb  Nb3  1  0.50000000  0.00000000  0.87302500  1
  Nb  Nb4  1  0.75000000  0.25000000  0.12302500  1
  Nb  Nb5  1  0.75000000  0.25000000  0.37697500  1
  Nb  Nb6  1  0.00000000  0.50000000  0.12697500  1
  Nb  Nb7  1  0.50000000  0.50000000  0.37302500  1
  Nb  Nb8  1  0.25000000  0.75000000  0.12302500  1
  Nb  Nb9  1  0.25000000  0.75000000  0.37697500  1
  Nb  Nb10  1  0.50000000  0.00000000  0.12697500  1
  Nb  Nb11  1  0.00000000  0.00000000  0.37302500  1
  Nb  Nb12  1  0.25000000  0.25000000  0.62302500  1
  Nb  Nb13  1  0.25000000  0.25000000  0.87697500  1
  Nb  Nb14  1  0.50000000  0.50000000  0.62697500  1
  Nb  Nb15  1  0.00000000  0.50000000  0.87302500  1
  Sn  Sn16  1  0.75000000  0.58118800  0.75000000  1
  Sn  Sn17  1  0.75000000  0.91881200  0.75000000  1
  Sn  Sn18  1  0.00000000  0.66881200  0.00000000  1
  Sn  Sn19  1  0.50000000  0.83118800  0.00000000  1
  Sn  Sn20  1  0.25000000  0.75000000  0.83283200  1
  Sn  Sn21  1  0.25000000  0.75000000  0.66716800  1
  Sn  Sn22  1  0.00000000  0.00000000  0.91716800  1
  Sn  Sn23  1  0.50000000  0.00000000  0.58283200  1
  Sn  Sn24  1  0.75000000  0.08118800  0.25000000  1
  Sn  Sn25  1  0.75000000  0.41881200  0.25000000  1
  Sn  Sn26  1  0.00000000  0.16881200  0.50000000  1
  Sn  Sn27  1  0.50000000  0.33118800  0.50000000  1
  Sn  Sn28  1  0.25000000  0.25000000  0.33283200  1
  Sn  Sn29  1  0.25000000  0.25000000  0.16716800  1
  Sn  Sn30  1  0.00000000  0.50000000  0.41716800  1
  Sn  Sn31  1  0.50000000  0.50000000  0.08283200  1
  Sn  Sn32  1  0.25000000  0.58118800  0.25000000  1
  Sn  Sn33  1  0.25000000  0.91881200  0.25000000  1
  Sn  Sn34  1  0.50000000  0.66881200  0.50000000  1
  Sn  Sn35  1  0.00000000  0.83118800  0.50000000  1
  Sn  Sn36  1  0.75000000  0.75000000  0.33283200  1
  Sn  Sn37  1  0.75000000  0.75000000  0.16716800  1
  Sn  Sn38  1  0.50000000  0.00000000  0.41716800  1
  Sn  Sn39  1  0.00000000  0.00000000  0.08283200  1
  Sn  Sn40  1  0.25000000  0.08118800  0.75000000  1
  Sn  Sn41  1  0.25000000  0.41881200  0.75000000  1
  Sn  Sn42  1  0.50000000  0.16881200  0.00000000  1
  Sn  Sn43  1  0.00000000  0.33118800  0.00000000  1
  Sn  Sn44  1  0.75000000  0.25000000  0.83283200  1
  Sn  Sn45  1  0.75000000  0.25000000  0.66716800  1
  Sn  Sn46  1  0.50000000  0.50000000  0.91716800  1
  Sn  Sn47  1  0.00000000  0.50000000  0.58283200  1
