# generated using pymatgen
data_LaAlGe
_symmetry_space_group_name_H-M   'P 1'
_cell_length_a   4.37076000
_cell_length_b   4.37076000
_cell_length_c   14.84890600
_cell_angle_alpha   90.00000000
_cell_angle_beta   90.00000000
_cell_angle_gamma   90.00000000
_symmetry_Int_Tables_number   1
_chemical_formula_structural   LaAlGe
_chemical_formula_sum   'La4 Al4 Ge4'
_cell_volume   283.66671394
_cell_formula_units_Z   4
loop_
 _symmetry_equiv_pos_site_id
 _symmetry_equiv_pos_as_xyz
  1  'x, y, z'
loop_
 _atom_site_type_symbol
 _atom_site_label
 _atom_site_symmetry_multiplicity
 _atom_site_fract_x
 _atom_site_fract_y
 _atom_site_fract_z
 _atom_site_occupancy
  La  La0  1  0.00000000  0.50000000  0.75055400  1
  La  La1  1  0.50000000  0.50000000  0.00055400  1
  La  La2  1  0.50000000  0.00000000  0.25055400  1
  La  La3  1  0.00000000  0.00000000  0.50055400  1
  Al  Al4  1  0.00000000  0.50000000  0.16719400  1
  Al  Al5  1  0.00000000  0.00000000  0.91719400  1
  Al  Al6  1  0.50000000  0.00000000  0.66719400  1
  Al  Al7  1  0.50000000  0.50000000  0.41719400  1
  Ge  Ge8  1  0.50000000  0.00000000  0.83395200  1
  Ge  Ge9  1  0.00000000  0.00000000  0.08395200  1
  Ge  Ge10  1  0.00000000  0.50000000  0.33395200  1
  Ge  Ge11  1  0.50000000  0.50000000  0.58395200  1
