# generated using pymatgen
data_Hf2Ga3
_symmetry_space_group_name_H-M   'P 1'
_cell_length_a   5.51594800
_cell_length_b   9.44844200
_cell_length_c   13.65625400
_cell_angle_alpha   90.00000000
_cell_angle_beta   90.00000000
_cell_angle_gamma   90.00000000
_symmetry_Int_Tables_number   1
_chemical_formula_structural   Hf2Ga3
_chemical_formula_sum   'Hf16 Ga24'
_cell_volume   711.72455681
_cell_formula_units_Z   8
loop_
 _symmetry_equiv_pos_site_id
 _symmetry_equiv_pos_as_xyz
  1  'x, y, z'
loop_
 _atom_site_type_symbol
 _atom_site_label
 _atom_site_symmetry_multiplicity
 _atom_site_fract_x
 _atom_site_fract_y
 _atom_site_fract_z
 _atom_site_occupancy
  Hf  Hf0  1  0.25409850  0.93240750  0.69769000  1
  Hf  Hf1  1  0.25409850  0.56759250  0.80231000  1
  Hf  Hf2  1  0.50409850  0.31759250  0.94769000  1
  Hf  Hf3  1  0.00409850  0.68240750  0.55231000  1
  Hf  Hf4  1  0.75409850  0.93240750  0.19769000  1
  Hf  Hf5  1  0.75409850  0.56759250  0.30231000  1
  Hf  Hf6  1  0.00409850  0.31759250  0.44769000  1
  Hf  Hf7  1  0.50409850  0.68240750  0.05231000  1
  Hf  Hf8  1  0.75409850  0.43240750  0.69769000  1
  Hf  Hf9  1  0.75409850  0.06759250  0.80231000  1
  Hf  Hf10  1  0.00409850  0.81759250  0.94769000  1
  Hf  Hf11  1  0.50409850  0.18240750  0.55231000  1
  Hf  Hf12  1  0.25409850  0.43240750  0.19769000  1
  Hf  Hf13  1  0.25409850  0.06759250  0.30231000  1
  Hf  Hf14  1  0.50409850  0.81759250  0.44769000  1
  Hf  Hf15  1  0.00409850  0.18240750  0.05231000  1
  Ga  Ga16  1  0.37689200  0.25000000  0.75000000  1
  Ga  Ga17  1  0.12689200  0.00000000  0.50000000  1
  Ga  Ga18  1  0.74245550  0.93084950  0.61463700  1
  Ga  Ga19  1  0.24245550  0.06915050  0.88536300  1
  Ga  Ga20  1  0.49245550  0.81915050  0.86463700  1
  Ga  Ga21  1  0.99245550  0.18084950  0.63536300  1
  Ga  Ga22  1  0.87689200  0.25000000  0.25000000  1
  Ga  Ga23  1  0.62689200  0.00000000  0.00000000  1
  Ga  Ga24  1  0.24245550  0.93084950  0.11463700  1
  Ga  Ga25  1  0.74245550  0.06915050  0.38536300  1
  Ga  Ga26  1  0.99245550  0.81915050  0.36463700  1
  Ga  Ga27  1  0.49245550  0.18084950  0.13536300  1
  Ga  Ga28  1  0.87689200  0.75000000  0.75000000  1
  Ga  Ga29  1  0.62689200  0.50000000  0.50000000  1
  Ga  Ga30  1  0.24245550  0.43084950  0.61463700  1
  Ga  Ga31  1  0.74245550  0.56915050  0.88536300  1
  Ga  Ga32  1  0.99245550  0.31915050  0.86463700  1
  Ga  Ga33  1  0.49245550  0.68084950  0.63536300  1
  Ga  Ga34  1  0.37689200  0.75000000  0.25000000  1
  Ga  Ga35  1  0.12689200  0.50000000  0.00000000  1
  Ga  Ga36  1  0.74245550  0.43084950  0.11463700  1
  Ga  Ga37  1  0.24245550  0.56915050  0.38536300  1
  Ga  Ga38  1  0.49245550  0.31915050  0.36463700  1
  Ga  Ga39  1  0.99245550  0.68084950  0.13536300  1
