# generated using pymatgen
data_Li2Ca
_symmetry_space_group_name_H-M   'P 1'
_cell_length_a   8.73064800
_cell_length_b   8.73064800
_cell_length_c   8.73064800
_cell_angle_alpha   90.00000000
_cell_angle_beta   90.00000000
_cell_angle_gamma   90.00000000
_symmetry_Int_Tables_number   1
_chemical_formula_structural   Li2Ca
_chemical_formula_sum   'Li16 Ca8'
_cell_volume   665.48678588
_cell_formula_units_Z   8
loop_
 _symmetry_equiv_pos_site_id
 _symmetry_equiv_pos_as_xyz
  1  'x, y, z'
loop_
 _atom_site_type_symbol
 _atom_site_label
 _atom_site_symmetry_multiplicity
 _atom_site_fract_x
 _atom_site_fract_y
 _atom_site_fract_z
 _atom_site_occupancy
  Li  Li0  1  0.37500000  0.87500000  0.12500000  1
  Li  Li1  1  0.37500000  0.62500000  0.37500000  1
  Li  Li2  1  0.12500000  0.62500000  0.12500000  1
  Li  Li3  1  0.12500000  0.87500000  0.37500000  1
  Li  Li4  1  0.37500000  0.37500000  0.62500000  1
  Li  Li5  1  0.37500000  0.12500000  0.87500000  1
  Li  Li6  1  0.12500000  0.12500000  0.62500000  1
  Li  Li7  1  0.12500000  0.37500000  0.87500000  1
  Li  Li8  1  0.87500000  0.87500000  0.62500000  1
  Li  Li9  1  0.87500000  0.62500000  0.87500000  1
  Li  Li10  1  0.62500000  0.62500000  0.62500000  1
  Li  Li11  1  0.62500000  0.87500000  0.87500000  1
  Li  Li12  1  0.87500000  0.37500000  0.12500000  1
  Li  Li13  1  0.87500000  0.12500000  0.37500000  1
  Li  Li14  1  0.62500000  0.12500000  0.12500000  1
  Li  Li15  1  0.62500000  0.37500000  0.37500000  1
  Ca  Ca16  1  0.25000000  0.25000000  0.25000000  1
  Ca  Ca17  1  0.50000000  0.00000000  0.50000000  1
  Ca  Ca18  1  0.25000000  0.75000000  0.75000000  1
  Ca  Ca19  1  0.50000000  0.50000000  0.00000000  1
  Ca  Ca20  1  0.75000000  0.25000000  0.75000000  1
  Ca  Ca21  1  0.00000000  0.00000000  0.00000000  1
  Ca  Ca22  1  0.75000000  0.75000000  0.25000000  1
  Ca  Ca23  1  0.00000000  0.50000000  0.50000000  1
