# generated using pymatgen
data_Hf3Sb
_symmetry_space_group_name_H-M   'P 1'
_cell_length_a   11.24152200
_cell_length_b   11.24152200
_cell_length_c   5.69511400
_cell_angle_alpha   90.00000000
_cell_angle_beta   90.00000000
_cell_angle_gamma   90.00000000
_symmetry_Int_Tables_number   1
_chemical_formula_structural   Hf3Sb
_chemical_formula_sum   'Hf24 Sb8'
_cell_volume   719.70190350
_cell_formula_units_Z   8
loop_
 _symmetry_equiv_pos_site_id
 _symmetry_equiv_pos_as_xyz
  1  'x, y, z'
loop_
 _atom_site_type_symbol
 _atom_site_label
 _atom_site_symmetry_multiplicity
 _atom_site_fract_x
 _atom_site_fract_y
 _atom_site_fract_z
 _atom_site_occupancy
  Hf  Hf0  1  0.60503950  0.41723000  0.29634175  1
  Hf  Hf1  1  0.39496050  0.58277000  0.29634175  1
  Hf  Hf2  1  0.08277000  0.10503950  0.20365825  1
  Hf  Hf3  1  0.91723000  0.89496050  0.20365825  1
  Hf  Hf4  1  0.02334500  0.64650450  0.02149925  1
  Hf  Hf5  1  0.97665500  0.35349550  0.02149925  1
  Hf  Hf6  1  0.85349550  0.52334500  0.47850075  1
  Hf  Hf7  1  0.14650450  0.47665500  0.47850075  1
  Hf  Hf8  1  0.71535900  0.31341650  0.73607725  1
  Hf  Hf9  1  0.28464100  0.68658350  0.73607725  1
  Hf  Hf10  1  0.18658350  0.21535900  0.76392275  1
  Hf  Hf11  1  0.81341650  0.78464100  0.76392275  1
  Hf  Hf12  1  0.10503950  0.91723000  0.79634175  1
  Hf  Hf13  1  0.89496050  0.08277000  0.79634175  1
  Hf  Hf14  1  0.58277000  0.60503950  0.70365825  1
  Hf  Hf15  1  0.41723000  0.39496050  0.70365825  1
  Hf  Hf16  1  0.52334500  0.14650450  0.52149925  1
  Hf  Hf17  1  0.47665500  0.85349550  0.52149925  1
  Hf  Hf18  1  0.35349550  0.02334500  0.97850075  1
  Hf  Hf19  1  0.64650450  0.97665500  0.97850075  1
  Hf  Hf20  1  0.21535900  0.81341650  0.23607725  1
  Hf  Hf21  1  0.78464100  0.18658350  0.23607725  1
  Hf  Hf22  1  0.68658350  0.71535900  0.26392275  1
  Hf  Hf23  1  0.31341650  0.28464100  0.26392275  1
  Sb  Sb24  1  0.03227200  0.70970350  0.52319325  1
  Sb  Sb25  1  0.96772800  0.29029650  0.52319325  1
  Sb  Sb26  1  0.79029650  0.53227200  0.97680675  1
  Sb  Sb27  1  0.20970350  0.46772800  0.97680675  1
  Sb  Sb28  1  0.53227200  0.20970350  0.02319325  1
  Sb  Sb29  1  0.46772800  0.79029650  0.02319325  1
  Sb  Sb30  1  0.29029650  0.03227200  0.47680675  1
  Sb  Sb31  1  0.70970350  0.96772800  0.47680675  1
