# generated using pymatgen
data_Mn3Sn
_symmetry_space_group_name_H-M   'P 1'
_cell_length_a   6.12099200
_cell_length_b   6.12099200
_cell_length_c   6.12099200
_cell_angle_alpha   90.00000000
_cell_angle_beta   90.00000000
_cell_angle_gamma   90.00000000
_symmetry_Int_Tables_number   1
_chemical_formula_structural   Mn3Sn
_chemical_formula_sum   'Mn12 Sn4'
_cell_volume   229.33241036
_cell_formula_units_Z   4
loop_
 _symmetry_equiv_pos_site_id
 _symmetry_equiv_pos_as_xyz
  1  'x, y, z'
loop_
 _atom_site_type_symbol
 _atom_site_label
 _atom_site_symmetry_multiplicity
 _atom_site_fract_x
 _atom_site_fract_y
 _atom_site_fract_z
 _atom_site_occupancy
  Mn  Mn0  1  0.25000000  0.25000000  0.75000000  1
  Mn  Mn1  1  0.25000000  0.75000000  0.75000000  1
  Mn  Mn2  1  0.50000000  0.00000000  0.00000000  1
  Mn  Mn3  1  0.25000000  0.75000000  0.25000000  1
  Mn  Mn4  1  0.25000000  0.25000000  0.25000000  1
  Mn  Mn5  1  0.50000000  0.50000000  0.50000000  1
  Mn  Mn6  1  0.75000000  0.25000000  0.25000000  1
  Mn  Mn7  1  0.75000000  0.75000000  0.25000000  1
  Mn  Mn8  1  0.00000000  0.00000000  0.50000000  1
  Mn  Mn9  1  0.75000000  0.75000000  0.75000000  1
  Mn  Mn10  1  0.75000000  0.25000000  0.75000000  1
  Mn  Mn11  1  0.00000000  0.50000000  0.00000000  1
  Sn  Sn12  1  0.00000000  0.00000000  0.00000000  1
  Sn  Sn13  1  0.00000000  0.50000000  0.50000000  1
  Sn  Sn14  1  0.50000000  0.00000000  0.50000000  1
  Sn  Sn15  1  0.50000000  0.50000000  0.00000000  1
