# generated using pymatgen
data_Tc2P3
_symmetry_space_group_name_H-M   'P 1'
_cell_length_a   12.40946600
_cell_length_b   3.11468200
_cell_length_c   9.04489134
_cell_angle_alpha   90.00000000
_cell_angle_beta   123.86181903
_cell_angle_gamma   90.00000000
_symmetry_Int_Tables_number   1
_chemical_formula_structural   Tc2P3
_chemical_formula_sum   'Tc8 P12'
_cell_volume   290.30132253
_cell_formula_units_Z   4
loop_
 _symmetry_equiv_pos_site_id
 _symmetry_equiv_pos_as_xyz
  1  'x, y, z'
loop_
 _atom_site_type_symbol
 _atom_site_label
 _atom_site_symmetry_multiplicity
 _atom_site_fract_x
 _atom_site_fract_y
 _atom_site_fract_z
 _atom_site_occupancy
  Tc  Tc0  1  0.86552100  0.50000000  0.14456000  1
  Tc  Tc1  1  0.13447900  0.50000000  0.85544000  1
  Tc  Tc2  1  0.75007100  0.50000000  0.36329000  1
  Tc  Tc3  1  0.24992900  0.50000000  0.63671000  1
  Tc  Tc4  1  0.36552100  0.00000000  0.14456000  1
  Tc  Tc5  1  0.63447900  0.00000000  0.85544000  1
  Tc  Tc6  1  0.25007100  0.00000000  0.36329000  1
  Tc  Tc7  1  0.74992900  0.00000000  0.63671000  1
  P  P8  1  0.09774300  0.00000000  0.62859800  1
  P  P9  1  0.90225700  0.00000000  0.37140200  1
  P  P10  1  0.91134700  0.50000000  0.67793700  1
  P  P11  1  0.08865300  0.50000000  0.32206300  1
  P  P12  1  0.38964200  0.50000000  0.95985200  1
  P  P13  1  0.61035800  0.50000000  0.04014800  1
  P  P14  1  0.59774300  0.50000000  0.62859800  1
  P  P15  1  0.40225700  0.50000000  0.37140200  1
  P  P16  1  0.41134700  0.00000000  0.67793700  1
  P  P17  1  0.58865300  0.00000000  0.32206300  1
  P  P18  1  0.88964200  0.00000000  0.95985200  1
  P  P19  1  0.11035800  0.00000000  0.04014800  1
