# generated using pymatgen
data_Mg13Ir3
_symmetry_space_group_name_H-M   'P 1'
_cell_length_a   16.10217991
_cell_length_b   16.10217991
_cell_length_c   8.49415159
_cell_angle_alpha   90.00000000
_cell_angle_beta   90.00000000
_cell_angle_gamma   120.00000000
_symmetry_Int_Tables_number   1
_chemical_formula_structural   Mg13Ir3
_chemical_formula_sum   'Mg78 Ir18'
_cell_volume   1907.30430212
_cell_formula_units_Z   6
loop_
 _symmetry_equiv_pos_site_id
 _symmetry_equiv_pos_as_xyz
  1  'x, y, z'
loop_
 _atom_site_type_symbol
 _atom_site_label
 _atom_site_symmetry_multiplicity
 _atom_site_fract_x
 _atom_site_fract_y
 _atom_site_fract_z
 _atom_site_occupancy
  Mg  Mg0  1  0.16666667  0.33333333  0.83333333  1
  Mg  Mg1  1  0.33333333  0.16666667  0.16666667  1
  Mg  Mg2  1  0.16666667  0.83333333  0.83333333  1
  Mg  Mg3  1  0.16666667  0.33333333  0.33333333  1
  Mg  Mg4  1  0.33333333  0.16666667  0.66666667  1
  Mg  Mg5  1  0.16666667  0.83333333  0.33333333  1
  Mg  Mg6  1  0.29781767  0.96448433  0.58333333  1
  Mg  Mg7  1  0.33333333  0.03551567  0.91666667  1
  Mg  Mg8  1  0.36884900  0.00000000  0.25000000  1
  Mg  Mg9  1  0.36884900  0.36884900  0.75000000  1
  Mg  Mg10  1  0.33333333  0.29781767  0.41666667  1
  Mg  Mg11  1  0.29781767  0.33333333  0.08333333  1
  Mg  Mg12  1  0.00000000  0.00000000  0.25000000  1
  Mg  Mg13  1  0.00000000  0.00000000  0.75000000  1
  Mg  Mg14  1  0.49123367  0.30164533  0.91176833  1
  Mg  Mg15  1  0.14374500  0.17543300  0.57843500  1
  Mg  Mg16  1  0.36502133  0.52292167  0.24510167  1
  Mg  Mg17  1  0.30164533  0.49123367  0.58823167  1
  Mg  Mg18  1  0.52292167  0.36502133  0.25489833  1
  Mg  Mg19  1  0.17543300  0.14374500  0.92156500  1
  Mg  Mg20  1  0.17543300  0.03168800  0.42156500  1
  Mg  Mg21  1  0.52292167  0.15790033  0.75489833  1
  Mg  Mg22  1  0.30164533  0.81041167  0.08823167  1
  Mg  Mg23  1  0.36502133  0.84209967  0.74510167  1
  Mg  Mg24  1  0.14374500  0.96831200  0.07843500  1
  Mg  Mg25  1  0.49123367  0.18958833  0.41176833  1
  Mg  Mg26  1  0.83333333  0.66666667  0.16666667  1
  Mg  Mg27  1  0.00000000  0.50000000  0.50000000  1
  Mg  Mg28  1  0.83333333  0.16666667  0.16666667  1
  Mg  Mg29  1  0.83333333  0.66666667  0.66666667  1
  Mg  Mg30  1  0.00000000  0.50000000  0.00000000  1
  Mg  Mg31  1  0.83333333  0.16666667  0.66666667  1
  Mg  Mg32  1  0.96448433  0.29781767  0.91666667  1
  Mg  Mg33  1  0.00000000  0.36884900  0.25000000  1
  Mg  Mg34  1  0.03551567  0.33333333  0.58333333  1
  Mg  Mg35  1  0.03551567  0.70218233  0.08333333  1
  Mg  Mg36  1  0.00000000  0.63115100  0.75000000  1
  Mg  Mg37  1  0.96448433  0.66666667  0.41666667  1
  Mg  Mg38  1  0.66666667  0.33333333  0.58333333  1
  Mg  Mg39  1  0.66666667  0.33333333  0.08333333  1
  Mg  Mg40  1  0.15790033  0.63497867  0.24510167  1
  Mg  Mg41  1  0.81041167  0.50876633  0.91176833  1
  Mg  Mg42  1  0.03168800  0.85625500  0.57843500  1
  Mg  Mg43  1  0.96831200  0.82456700  0.92156500  1
  Mg  Mg44  1  0.18958833  0.69835467  0.58823167  1
  Mg  Mg45  1  0.84209967  0.47707833  0.25489833  1
  Mg  Mg46  1  0.84209967  0.36502133  0.75489833  1
  Mg  Mg47  1  0.18958833  0.49123367  0.08823167  1
  Mg  Mg48  1  0.96831200  0.14374500  0.42156500  1
  Mg  Mg49  1  0.03168800  0.17543300  0.07843500  1
  Mg  Mg50  1  0.81041167  0.30164533  0.41176833  1
  Mg  Mg51  1  0.15790033  0.52292167  0.74510167  1
  Mg  Mg52  1  0.50000000  0.00000000  0.50000000  1
  Mg  Mg53  1  0.66666667  0.83333333  0.83333333  1
  Mg  Mg54  1  0.50000000  0.50000000  0.50000000  1
  Mg  Mg55  1  0.50000000  0.00000000  1.00000000  1
  Mg  Mg56  1  0.66666667  0.83333333  0.33333333  1
  Mg  Mg57  1  0.50000000  0.50000000  1.00000000  1
  Mg  Mg58  1  0.63115100  0.63115100  0.25000000  1
  Mg  Mg59  1  0.66666667  0.70218233  0.58333333  1
  Mg  Mg60  1  0.70218233  0.66666667  0.91666667  1
  Mg  Mg61  1  0.70218233  0.03551567  0.41666667  1
  Mg  Mg62  1  0.66666667  0.96448433  0.08333333  1
  Mg  Mg63  1  0.63115100  0.00000000  0.75000000  1
  Mg  Mg64  1  0.33333333  0.66666667  0.91666667  1
  Mg  Mg65  1  0.33333333  0.66666667  0.41666667  1
  Mg  Mg66  1  0.82456700  0.96831200  0.57843500  1
  Mg  Mg67  1  0.47707833  0.84209967  0.24510167  1
  Mg  Mg68  1  0.69835467  0.18958833  0.91176833  1
  Mg  Mg69  1  0.63497867  0.15790033  0.25489833  1
  Mg  Mg70  1  0.85625500  0.03168800  0.92156500  1
  Mg  Mg71  1  0.50876633  0.81041167  0.58823167  1
  Mg  Mg72  1  0.50876633  0.69835467  0.08823167  1
  Mg  Mg73  1  0.85625500  0.82456700  0.42156500  1
  Mg  Mg74  1  0.63497867  0.47707833  0.75489833  1
  Mg  Mg75  1  0.69835467  0.50876633  0.41176833  1
  Mg  Mg76  1  0.47707833  0.63497867  0.74510167  1
  Mg  Mg77  1  0.82456700  0.85625500  0.07843500  1
  Ir  Ir78  1  0.17227100  0.00000000  0.75000000  1
  Ir  Ir79  1  0.33333333  0.83893767  0.41666667  1
  Ir  Ir80  1  0.49439567  0.16106233  0.08333333  1
  Ir  Ir81  1  0.49439567  0.33333333  0.58333333  1
  Ir  Ir82  1  0.33333333  0.49439567  0.91666667  1
  Ir  Ir83  1  0.17227100  0.17227100  0.25000000  1
  Ir  Ir84  1  0.83893767  0.33333333  0.08333333  1
  Ir  Ir85  1  0.00000000  0.17227100  0.75000000  1
  Ir  Ir86  1  0.16106233  0.49439567  0.41666667  1
  Ir  Ir87  1  0.16106233  0.66666667  0.91666667  1
  Ir  Ir88  1  0.00000000  0.82772900  0.25000000  1
  Ir  Ir89  1  0.83893767  0.50560433  0.58333333  1
  Ir  Ir90  1  0.50560433  0.66666667  0.41666667  1
  Ir  Ir91  1  0.66666667  0.50560433  0.08333333  1
  Ir  Ir92  1  0.82772900  0.82772900  0.75000000  1
  Ir  Ir93  1  0.82772900  0.00000000  0.25000000  1
  Ir  Ir94  1  0.66666667  0.16106233  0.58333333  1
  Ir  Ir95  1  0.50560433  0.83893767  0.91666667  1
