# generated using pymatgen
data_Ta5Si3
_symmetry_space_group_name_H-M   'P 1'
_cell_length_a   6.56125200
_cell_length_b   6.56125200
_cell_length_c   11.93292800
_cell_angle_alpha   90.00000000
_cell_angle_beta   90.00000000
_cell_angle_gamma   90.00000000
_symmetry_Int_Tables_number   1
_chemical_formula_structural   Ta5Si3
_chemical_formula_sum   'Ta20 Si12'
_cell_volume   513.71288222
_cell_formula_units_Z   4
loop_
 _symmetry_equiv_pos_site_id
 _symmetry_equiv_pos_as_xyz
  1  'x, y, z'
loop_
 _atom_site_type_symbol
 _atom_site_label
 _atom_site_symmetry_multiplicity
 _atom_site_fract_x
 _atom_site_fract_y
 _atom_site_fract_z
 _atom_site_occupancy
  Ta  Ta0  1  0.83509650  0.66490350  0.34990150  1
  Ta  Ta1  1  0.16490350  0.33509650  0.34990150  1
  Ta  Ta2  1  0.66490350  0.16490350  0.34990150  1
  Ta  Ta3  1  0.33509650  0.83509650  0.34990150  1
  Ta  Ta4  1  0.66490350  0.83509650  0.15009850  1
  Ta  Ta5  1  0.33509650  0.16490350  0.15009850  1
  Ta  Ta6  1  0.83509650  0.33509650  0.15009850  1
  Ta  Ta7  1  0.16490350  0.66490350  0.15009850  1
  Ta  Ta8  1  0.00000000  0.00000000  0.00000000  1
  Ta  Ta9  1  0.50000000  0.50000000  0.00000000  1
  Ta  Ta10  1  0.33509650  0.16490350  0.84990150  1
  Ta  Ta11  1  0.66490350  0.83509650  0.84990150  1
  Ta  Ta12  1  0.16490350  0.66490350  0.84990150  1
  Ta  Ta13  1  0.83509650  0.33509650  0.84990150  1
  Ta  Ta14  1  0.16490350  0.33509650  0.65009850  1
  Ta  Ta15  1  0.83509650  0.66490350  0.65009850  1
  Ta  Ta16  1  0.33509650  0.83509650  0.65009850  1
  Ta  Ta17  1  0.66490350  0.16490350  0.65009850  1
  Ta  Ta18  1  0.50000000  0.50000000  0.50000000  1
  Ta  Ta19  1  0.00000000  0.00000000  0.50000000  1
  Si  Si20  1  0.50000000  0.50000000  0.25000000  1
  Si  Si21  1  0.00000000  0.00000000  0.25000000  1
  Si  Si22  1  0.13004500  0.36995500  0.00000000  1
  Si  Si23  1  0.86995500  0.63004500  0.00000000  1
  Si  Si24  1  0.36995500  0.86995500  0.00000000  1
  Si  Si25  1  0.63004500  0.13004500  0.00000000  1
  Si  Si26  1  0.00000000  0.00000000  0.75000000  1
  Si  Si27  1  0.50000000  0.50000000  0.75000000  1
  Si  Si28  1  0.63004500  0.86995500  0.50000000  1
  Si  Si29  1  0.36995500  0.13004500  0.50000000  1
  Si  Si30  1  0.86995500  0.36995500  0.50000000  1
  Si  Si31  1  0.13004500  0.63004500  0.50000000  1
