# generated using pymatgen
data_NdSn2
_symmetry_space_group_name_H-M   'P 1'
_cell_length_a   4.52373800
_cell_length_b   16.21117400
_cell_length_c   4.60504800
_cell_angle_alpha   90.00000000
_cell_angle_beta   90.00000000
_cell_angle_gamma   90.00000000
_symmetry_Int_Tables_number   1
_chemical_formula_structural   NdSn2
_chemical_formula_sum   'Nd4 Sn8'
_cell_volume   337.71167331
_cell_formula_units_Z   4
loop_
 _symmetry_equiv_pos_site_id
 _symmetry_equiv_pos_as_xyz
  1  'x, y, z'
loop_
 _atom_site_type_symbol
 _atom_site_label
 _atom_site_symmetry_multiplicity
 _atom_site_fract_x
 _atom_site_fract_y
 _atom_site_fract_z
 _atom_site_occupancy
  Nd  Nd0  1  0.50000000  0.64472700  0.00000000  1
  Nd  Nd1  1  0.00000000  0.85527300  0.00000000  1
  Nd  Nd2  1  0.00000000  0.14472700  0.00000000  1
  Nd  Nd3  1  0.50000000  0.35527300  0.00000000  1
  Sn  Sn4  1  0.50000000  0.00000000  0.00000000  1
  Sn  Sn5  1  0.00000000  0.00000000  0.50000000  1
  Sn  Sn6  1  0.50000000  0.81488900  0.50000000  1
  Sn  Sn7  1  0.00000000  0.68511100  0.50000000  1
  Sn  Sn8  1  0.00000000  0.50000000  0.00000000  1
  Sn  Sn9  1  0.50000000  0.50000000  0.50000000  1
  Sn  Sn10  1  0.00000000  0.31488900  0.50000000  1
  Sn  Sn11  1  0.50000000  0.18511100  0.50000000  1
