# generated using pymatgen
data_Ni3TeO6
_symmetry_space_group_name_H-M   'P 1'
_cell_length_a   5.16640632
_cell_length_b   5.16640632
_cell_length_c   13.94315451
_cell_angle_alpha   90.00000000
_cell_angle_beta   90.00000000
_cell_angle_gamma   120.00000000
_symmetry_Int_Tables_number   1
_chemical_formula_structural   Ni3TeO6
_chemical_formula_sum   'Ni9 Te3 O18'
_cell_volume   322.30629674
_cell_formula_units_Z   3
loop_
 _symmetry_equiv_pos_site_id
 _symmetry_equiv_pos_as_xyz
  1  'x, y, z'
loop_
 _atom_site_type_symbol
 _atom_site_label
 _atom_site_symmetry_multiplicity
 _atom_site_fract_x
 _atom_site_fract_y
 _atom_site_fract_z
 _atom_site_occupancy
  Ni  Ni0  1  0.33333333  0.66666667  0.17428983  1
  Ni  Ni1  1  0.00000000  0.00000000  0.21778017  1
  Ni  Ni2  1  0.00000000  0.00000000  0.01405700  1
  Ni  Ni3  1  0.00000000  0.00000000  0.50762317  1
  Ni  Ni4  1  0.66666667  0.33333333  0.55111350  1
  Ni  Ni5  1  0.66666667  0.33333333  0.34739033  1
  Ni  Ni6  1  0.66666667  0.33333333  0.84095650  1
  Ni  Ni7  1  0.33333333  0.66666667  0.88444683  1
  Ni  Ni8  1  0.33333333  0.66666667  0.68072367  1
  Te  Te9  1  0.66666667  0.33333333  0.04159833  1
  Te  Te10  1  0.33333333  0.66666667  0.37493167  1
  Te  Te11  1  0.00000000  0.00000000  0.70826500  1
  O  O12  1  0.62887633  0.66940617  0.28337517  1
  O  O13  1  0.33059383  0.95947017  0.28337517  1
  O  O14  1  0.04052983  0.37112367  0.28337517  1
  O  O15  1  0.32565017  0.30234733  0.11144333  1
  O  O16  1  0.69765267  0.02330283  0.11144333  1
  O  O17  1  0.97669717  0.67434983  0.11144333  1
  O  O18  1  0.29554300  0.00273950  0.61670850  1
  O  O19  1  0.99726050  0.29280350  0.61670850  1
  O  O20  1  0.70719650  0.70445700  0.61670850  1
  O  O21  1  0.99231683  0.63568067  0.44477667  1
  O  O22  1  0.36431933  0.35663617  0.44477667  1
  O  O23  1  0.64336383  0.00768317  0.44477667  1
  O  O24  1  0.96220967  0.33607283  0.95004183  1
  O  O25  1  0.66392717  0.62613683  0.95004183  1
  O  O26  1  0.37386317  0.03779033  0.95004183  1
  O  O27  1  0.65898350  0.96901400  0.77811000  1
  O  O28  1  0.03098600  0.68996950  0.77811000  1
  O  O29  1  0.31003050  0.34101650  0.77811000  1
