# generated using pymatgen
data_YTiGe
_symmetry_space_group_name_H-M   'P 1'
_cell_length_a   4.06041000
_cell_length_b   4.06041000
_cell_length_c   15.47454600
_cell_angle_alpha   90.00000000
_cell_angle_beta   90.00000000
_cell_angle_gamma   90.00000000
_symmetry_Int_Tables_number   1
_chemical_formula_structural   YTiGe
_chemical_formula_sum   'Y4 Ti4 Ge4'
_cell_volume   255.12774691
_cell_formula_units_Z   4
loop_
 _symmetry_equiv_pos_site_id
 _symmetry_equiv_pos_as_xyz
  1  'x, y, z'
loop_
 _atom_site_type_symbol
 _atom_site_label
 _atom_site_symmetry_multiplicity
 _atom_site_fract_x
 _atom_site_fract_y
 _atom_site_fract_z
 _atom_site_occupancy
  Y  Y0  1  0.50000000  0.50000000  0.17413900  1
  Y  Y1  1  0.00000000  0.00000000  0.32586100  1
  Y  Y2  1  0.00000000  0.00000000  0.67413900  1
  Y  Y3  1  0.50000000  0.50000000  0.82586100  1
  Ti  Ti4  1  0.00000000  0.50000000  0.00000000  1
  Ti  Ti5  1  0.50000000  0.00000000  0.00000000  1
  Ti  Ti6  1  0.50000000  0.00000000  0.50000000  1
  Ti  Ti7  1  0.00000000  0.50000000  0.50000000  1
  Ge  Ge8  1  0.00000000  0.00000000  0.12242100  1
  Ge  Ge9  1  0.50000000  0.50000000  0.37757900  1
  Ge  Ge10  1  0.50000000  0.50000000  0.62242100  1
  Ge  Ge11  1  0.00000000  0.00000000  0.87757900  1
