# generated using pymatgen
data_VS2
_symmetry_space_group_name_H-M   'P 1'
_cell_length_a   3.19364598
_cell_length_b   3.19364598
_cell_length_c   19.29011436
_cell_angle_alpha   90.00000000
_cell_angle_beta   90.00000000
_cell_angle_gamma   120.00000000
_symmetry_Int_Tables_number   1
_chemical_formula_structural   VS2
_chemical_formula_sum   'V3 S6'
_cell_volume   170.38799014
_cell_formula_units_Z   3
loop_
 _symmetry_equiv_pos_site_id
 _symmetry_equiv_pos_as_xyz
  1  'x, y, z'
loop_
 _atom_site_type_symbol
 _atom_site_label
 _atom_site_symmetry_multiplicity
 _atom_site_fract_x
 _atom_site_fract_y
 _atom_site_fract_z
 _atom_site_occupancy
  V  V0  1  0.00000000  0.00000000  0.00000000  1
  V  V1  1  0.66666667  0.33333333  0.33333333  1
  V  V2  1  0.33333333  0.66666667  0.66666667  1
  S  S3  1  0.66666667  0.33333333  0.07595133  1
  S  S4  1  0.00000000  0.00000000  0.25738200  1
  S  S5  1  0.33333333  0.66666667  0.40928467  1
  S  S6  1  0.66666667  0.33333333  0.59071533  1
  S  S7  1  0.00000000  0.00000000  0.74261800  1
  S  S8  1  0.33333333  0.66666667  0.92404867  1
