# generated using pymatgen
data_ThGe
_symmetry_space_group_name_H-M   'P 1'
_cell_length_a   6.08702800
_cell_length_b   6.08702800
_cell_length_c   6.08702800
_cell_angle_alpha   90.00000000
_cell_angle_beta   90.00000000
_cell_angle_gamma   90.00000000
_symmetry_Int_Tables_number   1
_chemical_formula_structural   ThGe
_chemical_formula_sum   'Th4 Ge4'
_cell_volume   225.53601285
_cell_formula_units_Z   4
loop_
 _symmetry_equiv_pos_site_id
 _symmetry_equiv_pos_as_xyz
  1  'x, y, z'
loop_
 _atom_site_type_symbol
 _atom_site_label
 _atom_site_symmetry_multiplicity
 _atom_site_fract_x
 _atom_site_fract_y
 _atom_site_fract_z
 _atom_site_occupancy
  Th  Th0  1  0.50000000  0.00000000  0.00000000  1
  Th  Th1  1  0.50000000  0.50000000  0.50000000  1
  Th  Th2  1  0.00000000  0.00000000  0.50000000  1
  Th  Th3  1  0.00000000  0.50000000  0.00000000  1
  Ge  Ge4  1  0.00000000  0.00000000  0.00000000  1
  Ge  Ge5  1  0.00000000  0.50000000  0.50000000  1
  Ge  Ge6  1  0.50000000  0.00000000  0.50000000  1
  Ge  Ge7  1  0.50000000  0.50000000  0.00000000  1
