# generated using pymatgen
data_Al12W
_symmetry_space_group_name_H-M   'P 1'
_cell_length_a   7.58854400
_cell_length_b   7.58854400
_cell_length_c   7.58854400
_cell_angle_alpha   90.00000000
_cell_angle_beta   90.00000000
_cell_angle_gamma   90.00000000
_symmetry_Int_Tables_number   1
_chemical_formula_structural   Al12W
_chemical_formula_sum   'Al24 W2'
_cell_volume   436.99389509
_cell_formula_units_Z   2
loop_
 _symmetry_equiv_pos_site_id
 _symmetry_equiv_pos_as_xyz
  1  'x, y, z'
loop_
 _atom_site_type_symbol
 _atom_site_label
 _atom_site_symmetry_multiplicity
 _atom_site_fract_x
 _atom_site_fract_y
 _atom_site_fract_z
 _atom_site_occupancy
  Al  Al0  1  0.18641500  0.00000000  0.69146700  1
  Al  Al1  1  0.80853300  0.31358500  0.50000000  1
  Al  Al2  1  0.50000000  0.19146700  0.31358500  1
  Al  Al3  1  0.19146700  0.31358500  0.50000000  1
  Al  Al4  1  0.00000000  0.30853300  0.18641500  1
  Al  Al5  1  0.69146700  0.18641500  0.00000000  1
  Al  Al6  1  0.00000000  0.69146700  0.18641500  1
  Al  Al7  1  0.50000000  0.80853300  0.31358500  1
  Al  Al8  1  0.30853300  0.18641500  0.00000000  1
  Al  Al9  1  0.31358500  0.50000000  0.19146700  1
  Al  Al10  1  0.18641500  0.00000000  0.30853300  1
  Al  Al11  1  0.31358500  0.50000000  0.80853300  1
  Al  Al12  1  0.68641500  0.50000000  0.19146700  1
  Al  Al13  1  0.30853300  0.81358500  0.00000000  1
  Al  Al14  1  0.00000000  0.69146700  0.81358500  1
  Al  Al15  1  0.69146700  0.81358500  0.00000000  1
  Al  Al16  1  0.50000000  0.80853300  0.68641500  1
  Al  Al17  1  0.19146700  0.68641500  0.50000000  1
  Al  Al18  1  0.50000000  0.19146700  0.68641500  1
  Al  Al19  1  0.00000000  0.30853300  0.81358500  1
  Al  Al20  1  0.80853300  0.68641500  0.50000000  1
  Al  Al21  1  0.81358500  0.00000000  0.69146700  1
  Al  Al22  1  0.68641500  0.50000000  0.80853300  1
  Al  Al23  1  0.81358500  0.00000000  0.30853300  1
  W  W24  1  0.00000000  0.00000000  0.00000000  1
  W  W25  1  0.50000000  0.50000000  0.50000000  1
