# generated using pymatgen
data_BaSn3Pd
_symmetry_space_group_name_H-M   'P 1'
_cell_length_a   4.96768600
_cell_length_b   4.96768600
_cell_length_c   11.36780200
_cell_angle_alpha   90.00000000
_cell_angle_beta   90.00000000
_cell_angle_gamma   90.00000000
_symmetry_Int_Tables_number   1
_chemical_formula_structural   BaSn3Pd
_chemical_formula_sum   'Ba2 Sn6 Pd2'
_cell_volume   280.53352866
_cell_formula_units_Z   2
loop_
 _symmetry_equiv_pos_site_id
 _symmetry_equiv_pos_as_xyz
  1  'x, y, z'
loop_
 _atom_site_type_symbol
 _atom_site_label
 _atom_site_symmetry_multiplicity
 _atom_site_fract_x
 _atom_site_fract_y
 _atom_site_fract_z
 _atom_site_occupancy
  Ba  Ba0  1  0.00000000  0.00000000  0.00026500  1
  Ba  Ba1  1  0.50000000  0.50000000  0.50026500  1
  Sn  Sn2  1  0.50000000  0.00000000  0.25003200  1
  Sn  Sn3  1  0.00000000  0.00000000  0.41253900  1
  Sn  Sn4  1  0.00000000  0.50000000  0.25003200  1
  Sn  Sn5  1  0.00000000  0.50000000  0.75003200  1
  Sn  Sn6  1  0.50000000  0.50000000  0.91253900  1
  Sn  Sn7  1  0.50000000  0.00000000  0.75003200  1
  Pd  Pd8  1  0.50000000  0.50000000  0.14913300  1
  Pd  Pd9  1  0.00000000  0.00000000  0.64913300  1
