# generated using pymatgen
data_NiTe
_symmetry_space_group_name_H-M   'P 1'
_cell_length_a   3.85673021
_cell_length_b   3.85673021
_cell_length_c   20.09303742
_cell_angle_alpha   90.00000000
_cell_angle_beta   90.00000000
_cell_angle_gamma   120.00000000
_symmetry_Int_Tables_number   1
_chemical_formula_structural   NiTe
_chemical_formula_sum   'Ni6 Te6'
_cell_volume   258.83007808
_cell_formula_units_Z   6
loop_
 _symmetry_equiv_pos_site_id
 _symmetry_equiv_pos_as_xyz
  1  'x, y, z'
loop_
 _atom_site_type_symbol
 _atom_site_label
 _atom_site_symmetry_multiplicity
 _atom_site_fract_x
 _atom_site_fract_y
 _atom_site_fract_z
 _atom_site_occupancy
  Ni  Ni0  1  0.66666667  0.33333333  0.20167933  1
  Ni  Ni1  1  0.00000000  0.00000000  0.13165400  1
  Ni  Ni2  1  0.33333333  0.66666667  0.53501267  1
  Ni  Ni3  1  0.66666667  0.33333333  0.46498733  1
  Ni  Ni4  1  0.00000000  0.00000000  0.86834600  1
  Ni  Ni5  1  0.33333333  0.66666667  0.79832067  1
  Te  Te6  1  0.66666667  0.33333333  0.07512133  1
  Te  Te7  1  0.00000000  0.00000000  0.25821200  1
  Te  Te8  1  0.33333333  0.66666667  0.40845467  1
  Te  Te9  1  0.66666667  0.33333333  0.59154533  1
  Te  Te10  1  0.00000000  0.00000000  0.74178800  1
  Te  Te11  1  0.33333333  0.66666667  0.92487867  1
