# generated using pymatgen
data_Ti5Se4
_symmetry_space_group_name_H-M   'P 1'
_cell_length_a   9.73416200
_cell_length_b   9.73416200
_cell_length_c   3.49239200
_cell_angle_alpha   90.00000000
_cell_angle_beta   90.00000000
_cell_angle_gamma   90.00000000
_symmetry_Int_Tables_number   1
_chemical_formula_structural   Ti5Se4
_chemical_formula_sum   'Ti10 Se8'
_cell_volume   330.91779670
_cell_formula_units_Z   2
loop_
 _symmetry_equiv_pos_site_id
 _symmetry_equiv_pos_as_xyz
  1  'x, y, z'
loop_
 _atom_site_type_symbol
 _atom_site_label
 _atom_site_symmetry_multiplicity
 _atom_site_fract_x
 _atom_site_fract_y
 _atom_site_fract_z
 _atom_site_occupancy
  Ti  Ti0  1  0.00000000  0.00000000  0.00000000  1
  Ti  Ti1  1  0.62750750  0.30664950  0.00000000  1
  Ti  Ti2  1  0.19335050  0.12750750  0.50000000  1
  Ti  Ti3  1  0.80664950  0.87249250  0.50000000  1
  Ti  Ti4  1  0.37249250  0.69335050  0.00000000  1
  Ti  Ti5  1  0.50000000  0.50000000  0.50000000  1
  Ti  Ti6  1  0.12750750  0.80664950  0.50000000  1
  Ti  Ti7  1  0.69335050  0.62750750  0.00000000  1
  Ti  Ti8  1  0.30664950  0.37249250  0.00000000  1
  Ti  Ti9  1  0.87249250  0.19335050  0.50000000  1
  Se  Se10  1  0.72788550  0.05791750  0.00000000  1
  Se  Se11  1  0.44208250  0.22788550  0.50000000  1
  Se  Se12  1  0.55791750  0.77211450  0.50000000  1
  Se  Se13  1  0.27211450  0.94208250  0.00000000  1
  Se  Se14  1  0.22788550  0.55791750  0.50000000  1
  Se  Se15  1  0.94208250  0.72788550  0.00000000  1
  Se  Se16  1  0.05791750  0.27211450  0.00000000  1
  Se  Se17  1  0.77211450  0.44208250  0.50000000  1
