# generated using pymatgen
data_Er(TiGa2)2
_symmetry_space_group_name_H-M   'P 1'
_cell_length_a   6.74331000
_cell_length_b   6.74331000
_cell_length_c   5.45521200
_cell_angle_alpha   90.00000000
_cell_angle_beta   90.00000000
_cell_angle_gamma   90.00000000
_symmetry_Int_Tables_number   1
_chemical_formula_structural   Er(TiGa2)2
_chemical_formula_sum   'Er2 Ti4 Ga8'
_cell_volume   248.06065343
_cell_formula_units_Z   2
loop_
 _symmetry_equiv_pos_site_id
 _symmetry_equiv_pos_as_xyz
  1  'x, y, z'
loop_
 _atom_site_type_symbol
 _atom_site_label
 _atom_site_symmetry_multiplicity
 _atom_site_fract_x
 _atom_site_fract_y
 _atom_site_fract_z
 _atom_site_occupancy
  Er  Er0  1  0.00000000  0.00000000  0.00000000  1
  Er  Er1  1  0.50000000  0.50000000  0.50000000  1
  Ti  Ti2  1  0.50000000  0.00000000  0.75000000  1
  Ti  Ti3  1  0.50000000  0.00000000  0.25000000  1
  Ti  Ti4  1  0.00000000  0.50000000  0.25000000  1
  Ti  Ti5  1  0.00000000  0.50000000  0.75000000  1
  Ga  Ga6  1  0.80123000  0.80123000  0.50000000  1
  Ga  Ga7  1  0.69877000  0.69877000  0.00000000  1
  Ga  Ga8  1  0.69877000  0.30123000  0.00000000  1
  Ga  Ga9  1  0.80123000  0.19877000  0.50000000  1
  Ga  Ga10  1  0.30123000  0.30123000  0.00000000  1
  Ga  Ga11  1  0.19877000  0.19877000  0.50000000  1
  Ga  Ga12  1  0.19877000  0.80123000  0.50000000  1
  Ga  Ga13  1  0.30123000  0.69877000  0.00000000  1
