# generated using pymatgen
data_Co9S8
_symmetry_space_group_name_H-M   'P 1'
_cell_length_a   9.80450400
_cell_length_b   9.80450400
_cell_length_c   9.80450400
_cell_angle_alpha   90.00000000
_cell_angle_beta   90.00000000
_cell_angle_gamma   90.00000000
_symmetry_Int_Tables_number   1
_chemical_formula_structural   Co9S8
_chemical_formula_sum   'Co36 S32'
_cell_volume   942.49028898
_cell_formula_units_Z   4
loop_
 _symmetry_equiv_pos_site_id
 _symmetry_equiv_pos_as_xyz
  1  'x, y, z'
loop_
 _atom_site_type_symbol
 _atom_site_label
 _atom_site_symmetry_multiplicity
 _atom_site_fract_x
 _atom_site_fract_y
 _atom_site_fract_z
 _atom_site_occupancy
  Co  Co0  1  0.12652767  0.87347233  0.87347233  1
  Co  Co1  1  0.12652767  0.62652767  0.62652767  1
  Co  Co2  1  0.37347233  0.37347233  0.87347233  1
  Co  Co3  1  0.37347233  0.12652767  0.62652767  1
  Co  Co4  1  0.12652767  0.37347233  0.62652767  1
  Co  Co5  1  0.50000000  0.00000000  0.00000000  1
  Co  Co6  1  0.12652767  0.12652767  0.87347233  1
  Co  Co7  1  0.37347233  0.87347233  0.62652767  1
  Co  Co8  1  0.37347233  0.62652767  0.87347233  1
  Co  Co9  1  0.12652767  0.37347233  0.37347233  1
  Co  Co10  1  0.12652767  0.12652767  0.12652767  1
  Co  Co11  1  0.37347233  0.87347233  0.37347233  1
  Co  Co12  1  0.37347233  0.62652767  0.12652767  1
  Co  Co13  1  0.12652767  0.87347233  0.12652767  1
  Co  Co14  1  0.50000000  0.50000000  0.50000000  1
  Co  Co15  1  0.12652767  0.62652767  0.37347233  1
  Co  Co16  1  0.37347233  0.37347233  0.12652767  1
  Co  Co17  1  0.37347233  0.12652767  0.37347233  1
  Co  Co18  1  0.62652767  0.87347233  0.37347233  1
  Co  Co19  1  0.62652767  0.62652767  0.12652767  1
  Co  Co20  1  0.87347233  0.37347233  0.37347233  1
  Co  Co21  1  0.87347233  0.12652767  0.12652767  1
  Co  Co22  1  0.62652767  0.37347233  0.12652767  1
  Co  Co23  1  0.00000000  0.00000000  0.50000000  1
  Co  Co24  1  0.62652767  0.12652767  0.37347233  1
  Co  Co25  1  0.87347233  0.87347233  0.12652767  1
  Co  Co26  1  0.87347233  0.62652767  0.37347233  1
  Co  Co27  1  0.62652767  0.37347233  0.87347233  1
  Co  Co28  1  0.62652767  0.12652767  0.62652767  1
  Co  Co29  1  0.87347233  0.87347233  0.87347233  1
  Co  Co30  1  0.87347233  0.62652767  0.62652767  1
  Co  Co31  1  0.62652767  0.87347233  0.62652767  1
  Co  Co32  1  0.00000000  0.50000000  0.00000000  1
  Co  Co33  1  0.62652767  0.62652767  0.87347233  1
  Co  Co34  1  0.87347233  0.37347233  0.62652767  1
  Co  Co35  1  0.87347233  0.12652767  0.87347233  1
  S  S36  1  0.50000000  0.76134400  0.00000000  1
  S  S37  1  0.50000000  0.23865600  0.00000000  1
  S  S38  1  0.50000000  0.00000000  0.76134400  1
  S  S39  1  0.00000000  0.00000000  0.73865600  1
  S  S40  1  0.26134400  0.00000000  0.00000000  1
  S  S41  1  0.73865600  0.00000000  0.00000000  1
  S  S42  1  0.25000000  0.25000000  0.75000000  1
  S  S43  1  0.25000000  0.75000000  0.75000000  1
  S  S44  1  0.50000000  0.26134400  0.50000000  1
  S  S45  1  0.50000000  0.73865600  0.50000000  1
  S  S46  1  0.50000000  0.50000000  0.26134400  1
  S  S47  1  0.00000000  0.50000000  0.23865600  1
  S  S48  1  0.26134400  0.50000000  0.50000000  1
  S  S49  1  0.73865600  0.50000000  0.50000000  1
  S  S50  1  0.25000000  0.75000000  0.25000000  1
  S  S51  1  0.25000000  0.25000000  0.25000000  1
  S  S52  1  0.00000000  0.76134400  0.50000000  1
  S  S53  1  0.00000000  0.23865600  0.50000000  1
  S  S54  1  0.00000000  0.00000000  0.26134400  1
  S  S55  1  0.50000000  0.00000000  0.23865600  1
  S  S56  1  0.76134400  0.00000000  0.50000000  1
  S  S57  1  0.23865600  0.00000000  0.50000000  1
  S  S58  1  0.75000000  0.25000000  0.25000000  1
  S  S59  1  0.75000000  0.75000000  0.25000000  1
  S  S60  1  0.00000000  0.26134400  0.00000000  1
  S  S61  1  0.00000000  0.73865600  0.00000000  1
  S  S62  1  0.00000000  0.50000000  0.76134400  1
  S  S63  1  0.50000000  0.50000000  0.73865600  1
  S  S64  1  0.76134400  0.50000000  0.00000000  1
  S  S65  1  0.23865600  0.50000000  0.00000000  1
  S  S66  1  0.75000000  0.75000000  0.75000000  1
  S  S67  1  0.75000000  0.25000000  0.75000000  1
