# generated using pymatgen
data_Ho2C
_symmetry_space_group_name_H-M   'P 1'
_cell_length_a   3.57577825
_cell_length_b   3.57577825
_cell_length_c   18.28179579
_cell_angle_alpha   90.00000000
_cell_angle_beta   90.00000000
_cell_angle_gamma   120.00000000
_symmetry_Int_Tables_number   1
_chemical_formula_structural   Ho2C
_chemical_formula_sum   'Ho6 C3'
_cell_volume   202.43734934
_cell_formula_units_Z   3
loop_
 _symmetry_equiv_pos_site_id
 _symmetry_equiv_pos_as_xyz
  1  'x, y, z'
loop_
 _atom_site_type_symbol
 _atom_site_label
 _atom_site_symmetry_multiplicity
 _atom_site_fract_x
 _atom_site_fract_y
 _atom_site_fract_z
 _atom_site_occupancy
  Ho  Ho0  1  0.00000000  0.00000000  0.26002800  1
  Ho  Ho1  1  0.66666667  0.33333333  0.07330533  1
  Ho  Ho2  1  0.66666667  0.33333333  0.59336133  1
  Ho  Ho3  1  0.33333333  0.66666667  0.40663867  1
  Ho  Ho4  1  0.33333333  0.66666667  0.92669467  1
  Ho  Ho5  1  0.00000000  0.00000000  0.73997200  1
  C  C6  1  0.00000000  0.00000000  0.00000000  1
  C  C7  1  0.66666667  0.33333333  0.33333333  1
  C  C8  1  0.33333333  0.66666667  0.66666667  1
