# generated using pymatgen
data_MnCu2SnS4
_symmetry_space_group_name_H-M   'P 1'
_cell_length_a   5.50625600
_cell_length_b   5.50625600
_cell_length_c   10.83522800
_cell_angle_alpha   90.00000000
_cell_angle_beta   90.00000000
_cell_angle_gamma   90.00000000
_symmetry_Int_Tables_number   1
_chemical_formula_structural   MnCu2SnS4
_chemical_formula_sum   'Mn2 Cu4 Sn2 S8'
_cell_volume   328.51170811
_cell_formula_units_Z   2
loop_
 _symmetry_equiv_pos_site_id
 _symmetry_equiv_pos_as_xyz
  1  'x, y, z'
loop_
 _atom_site_type_symbol
 _atom_site_label
 _atom_site_symmetry_multiplicity
 _atom_site_fract_x
 _atom_site_fract_y
 _atom_site_fract_z
 _atom_site_occupancy
  Mn  Mn0  1  0.00000000  0.00000000  0.00000000  1
  Mn  Mn1  1  0.50000000  0.50000000  0.50000000  1
  Cu  Cu2  1  0.00000000  0.50000000  0.25000000  1
  Cu  Cu3  1  0.50000000  0.00000000  0.25000000  1
  Cu  Cu4  1  0.50000000  0.00000000  0.75000000  1
  Cu  Cu5  1  0.00000000  0.50000000  0.75000000  1
  Sn  Sn6  1  0.50000000  0.50000000  0.00000000  1
  Sn  Sn7  1  0.00000000  0.00000000  0.50000000  1
  S  S8  1  0.75539100  0.24460900  0.13458900  1
  S  S9  1  0.24460900  0.75539100  0.13458900  1
  S  S10  1  0.25539100  0.25539100  0.36541100  1
  S  S11  1  0.74460900  0.74460900  0.36541100  1
  S  S12  1  0.25539100  0.74460900  0.63458900  1
  S  S13  1  0.74460900  0.25539100  0.63458900  1
  S  S14  1  0.75539100  0.75539100  0.86541100  1
  S  S15  1  0.24460900  0.24460900  0.86541100  1
