# generated using pymatgen
data_Al12Co4Cu
_symmetry_space_group_name_H-M   'P 1'
_cell_length_a   15.23784600
_cell_length_b   8.03225200
_cell_length_c   12.37677093
_cell_angle_alpha   90.00000000
_cell_angle_beta   108.20282282
_cell_angle_gamma   90.00000000
_symmetry_Int_Tables_number   1
_chemical_formula_structural   Al12Co4Cu
_chemical_formula_sum   'Al72 Co24 Cu6'
_cell_volume   1439.03730100
_cell_formula_units_Z   6
loop_
 _symmetry_equiv_pos_site_id
 _symmetry_equiv_pos_as_xyz
  1  'x, y, z'
loop_
 _atom_site_type_symbol
 _atom_site_label
 _atom_site_symmetry_multiplicity
 _atom_site_fract_x
 _atom_site_fract_y
 _atom_site_fract_z
 _atom_site_occupancy
  Al  Al0  1  0.67896750  0.71434450  0.83680000  1
  Al  Al1  1  0.67896750  0.28565550  0.83680000  1
  Al  Al2  1  0.68535850  0.71253850  0.61433300  1
  Al  Al3  1  0.68535850  0.28746150  0.61433300  1
  Al  Al4  1  0.87100650  0.72089850  0.61082900  1
  Al  Al5  1  0.87100650  0.27910150  0.61082900  1
  Al  Al6  1  0.99122800  0.73103200  0.82674000  1
  Al  Al7  1  0.99122800  0.26896800  0.82674000  1
  Al  Al8  1  0.86963850  0.70662550  0.97901000  1
  Al  Al9  1  0.86963850  0.29337450  0.97901000  1
  Al  Al10  1  0.00000000  0.74739800  0.50000000  1
  Al  Al11  1  0.00000000  0.25260200  0.50000000  1
  Al  Al12  1  0.82103250  0.78565550  0.16320000  1
  Al  Al13  1  0.82103250  0.21434450  0.16320000  1
  Al  Al14  1  0.81464150  0.78746150  0.38566700  1
  Al  Al15  1  0.52047900  0.00000000  0.66834600  1
  Al  Al16  1  0.73862700  0.50000000  0.46169400  1
  Al  Al17  1  0.55656100  0.50000000  0.67537300  1
  Al  Al18  1  0.73561500  0.50000000  0.03322000  1
  Al  Al19  1  0.97952100  0.50000000  0.33165400  1
  Al  Al20  1  0.76137300  0.00000000  0.53830600  1
  Al  Al21  1  0.94343900  0.00000000  0.32462700  1
  Al  Al22  1  0.76438500  0.00000000  0.96678000  1
  Al  Al23  1  0.57531300  0.50000000  0.08761200  1
  Al  Al24  1  0.79959000  0.50000000  0.26931300  1
  Al  Al25  1  0.92468700  0.00000000  0.91238800  1
  Al  Al26  1  0.70041000  0.00000000  0.73068700  1
  Al  Al27  1  0.66809900  0.00000000  0.21949300  1
  Al  Al28  1  0.83190100  0.50000000  0.78050700  1
  Al  Al29  1  0.63036150  0.20662550  0.02099000  1
  Al  Al30  1  0.63036150  0.79337450  0.02099000  1
  Al  Al31  1  0.50877200  0.23103200  0.17326000  1
  Al  Al32  1  0.50877200  0.76896800  0.17326000  1
  Al  Al33  1  0.62899350  0.22089850  0.38917100  1
  Al  Al34  1  0.62899350  0.77910150  0.38917100  1
  Al  Al35  1  0.81464150  0.21253850  0.38566700  1
  Al  Al36  1  0.17896750  0.21434450  0.83680000  1
  Al  Al37  1  0.17896750  0.78565550  0.83680000  1
  Al  Al38  1  0.18535850  0.21253850  0.61433300  1
  Al  Al39  1  0.18535850  0.78746150  0.61433300  1
  Al  Al40  1  0.37100650  0.22089850  0.61082900  1
  Al  Al41  1  0.37100650  0.77910150  0.61082900  1
  Al  Al42  1  0.49122800  0.23103200  0.82674000  1
  Al  Al43  1  0.49122800  0.76896800  0.82674000  1
  Al  Al44  1  0.36963850  0.20662550  0.97901000  1
  Al  Al45  1  0.36963850  0.79337450  0.97901000  1
  Al  Al46  1  0.50000000  0.24739800  0.50000000  1
  Al  Al47  1  0.50000000  0.75260200  0.50000000  1
  Al  Al48  1  0.32103250  0.28565550  0.16320000  1
  Al  Al49  1  0.32103250  0.71434450  0.16320000  1
  Al  Al50  1  0.31464150  0.28746150  0.38566700  1
  Al  Al51  1  0.02047900  0.50000000  0.66834600  1
  Al  Al52  1  0.23862700  0.00000000  0.46169400  1
  Al  Al53  1  0.05656100  0.00000000  0.67537300  1
  Al  Al54  1  0.23561500  0.00000000  0.03322000  1
  Al  Al55  1  0.47952100  0.00000000  0.33165400  1
  Al  Al56  1  0.26137300  0.50000000  0.53830600  1
  Al  Al57  1  0.44343900  0.50000000  0.32462700  1
  Al  Al58  1  0.26438500  0.50000000  0.96678000  1
  Al  Al59  1  0.07531300  0.00000000  0.08761200  1
  Al  Al60  1  0.29959000  0.00000000  0.26931300  1
  Al  Al61  1  0.42468700  0.50000000  0.91238800  1
  Al  Al62  1  0.20041000  0.50000000  0.73068700  1
  Al  Al63  1  0.16809900  0.50000000  0.21949300  1
  Al  Al64  1  0.33190100  0.00000000  0.78050700  1
  Al  Al65  1  0.13036150  0.70662550  0.02099000  1
  Al  Al66  1  0.13036150  0.29337450  0.02099000  1
  Al  Al67  1  0.00877200  0.73103200  0.17326000  1
  Al  Al68  1  0.00877200  0.26896800  0.17326000  1
  Al  Al69  1  0.12899350  0.72089850  0.38917100  1
  Al  Al70  1  0.12899350  0.27910150  0.38917100  1
  Al  Al71  1  0.31464150  0.71253850  0.38566700  1
  Co  Co72  1  0.81793050  0.77911850  0.78065000  1
  Co  Co73  1  0.81793050  0.22088150  0.78065000  1
  Co  Co74  1  0.68206950  0.72088150  0.21935000  1
  Co  Co75  1  0.68206950  0.27911850  0.21935000  1
  Co  Co76  1  0.91321900  0.00000000  0.10998700  1
  Co  Co77  1  0.90767000  0.00000000  0.50388700  1
  Co  Co78  1  0.60082800  0.00000000  0.51729400  1
  Co  Co79  1  0.89660700  0.50000000  0.13063500  1
  Co  Co80  1  0.58678100  0.50000000  0.89001300  1
  Co  Co81  1  0.59233000  0.50000000  0.49611300  1
  Co  Co82  1  0.89917200  0.50000000  0.48270600  1
  Co  Co83  1  0.60339300  0.00000000  0.86936500  1
  Co  Co84  1  0.31793050  0.27911850  0.78065000  1
  Co  Co85  1  0.31793050  0.72088150  0.78065000  1
  Co  Co86  1  0.18206950  0.22088150  0.21935000  1
  Co  Co87  1  0.18206950  0.77911850  0.21935000  1
  Co  Co88  1  0.41321900  0.50000000  0.10998700  1
  Co  Co89  1  0.40767000  0.50000000  0.50388700  1
  Co  Co90  1  0.10082800  0.50000000  0.51729400  1
  Co  Co91  1  0.39660700  0.00000000  0.13063500  1
  Co  Co92  1  0.08678100  0.00000000  0.89001300  1
  Co  Co93  1  0.09233000  0.00000000  0.49611300  1
  Co  Co94  1  0.39917200  0.00000000  0.48270600  1
  Co  Co95  1  0.10339300  0.50000000  0.86936500  1
  Cu  Cu96  1  0.91017300  0.00000000  0.71273700  1
  Cu  Cu97  1  0.58982700  0.50000000  0.28726300  1
  Cu  Cu98  1  0.00000000  0.50000000  0.00000000  1
  Cu  Cu99  1  0.41017300  0.50000000  0.71273700  1
  Cu  Cu100  1  0.08982700  0.00000000  0.28726300  1
  Cu  Cu101  1  0.50000000  0.00000000  0.00000000  1
