# generated using pymatgen
data_ZrZnNi4
_symmetry_space_group_name_H-M   'P 1'
_cell_length_a   6.77891000
_cell_length_b   6.77891000
_cell_length_c   6.77891000
_cell_angle_alpha   90.00000000
_cell_angle_beta   90.00000000
_cell_angle_gamma   90.00000000
_symmetry_Int_Tables_number   1
_chemical_formula_structural   ZrZnNi4
_chemical_formula_sum   'Zr4 Zn4 Ni16'
_cell_volume   311.51545950
_cell_formula_units_Z   4
loop_
 _symmetry_equiv_pos_site_id
 _symmetry_equiv_pos_as_xyz
  1  'x, y, z'
loop_
 _atom_site_type_symbol
 _atom_site_label
 _atom_site_symmetry_multiplicity
 _atom_site_fract_x
 _atom_site_fract_y
 _atom_site_fract_z
 _atom_site_occupancy
  Zr  Zr0  1  0.00000000  0.00000000  0.00000000  1
  Zr  Zr1  1  0.00000000  0.50000000  0.50000000  1
  Zr  Zr2  1  0.50000000  0.00000000  0.50000000  1
  Zr  Zr3  1  0.50000000  0.50000000  0.00000000  1
  Zn  Zn4  1  0.25000000  0.25000000  0.75000000  1
  Zn  Zn5  1  0.25000000  0.75000000  0.25000000  1
  Zn  Zn6  1  0.75000000  0.25000000  0.25000000  1
  Zn  Zn7  1  0.75000000  0.75000000  0.75000000  1
  Ni  Ni8  1  0.12420300  0.37579700  0.12420300  1
  Ni  Ni9  1  0.62420300  0.12420300  0.87579700  1
  Ni  Ni10  1  0.37579700  0.12420300  0.12420300  1
  Ni  Ni11  1  0.87579700  0.37579700  0.87579700  1
  Ni  Ni12  1  0.12420300  0.87579700  0.62420300  1
  Ni  Ni13  1  0.62420300  0.62420300  0.37579700  1
  Ni  Ni14  1  0.37579700  0.62420300  0.62420300  1
  Ni  Ni15  1  0.87579700  0.87579700  0.37579700  1
  Ni  Ni16  1  0.62420300  0.37579700  0.62420300  1
  Ni  Ni17  1  0.12420300  0.12420300  0.37579700  1
  Ni  Ni18  1  0.87579700  0.12420300  0.62420300  1
  Ni  Ni19  1  0.37579700  0.37579700  0.37579700  1
  Ni  Ni20  1  0.62420300  0.87579700  0.12420300  1
  Ni  Ni21  1  0.12420300  0.62420300  0.87579700  1
  Ni  Ni22  1  0.87579700  0.62420300  0.12420300  1
  Ni  Ni23  1  0.37579700  0.87579700  0.87579700  1
