# generated using pymatgen
data_NbPt2
_symmetry_space_group_name_H-M   'P 1'
_cell_length_a   2.82608800
_cell_length_b   4.01251600
_cell_length_c   8.57569200
_cell_angle_alpha   90.00000000
_cell_angle_beta   90.00000000
_cell_angle_gamma   90.00000000
_symmetry_Int_Tables_number   1
_chemical_formula_structural   NbPt2
_chemical_formula_sum   'Nb2 Pt4'
_cell_volume   97.24597454
_cell_formula_units_Z   2
loop_
 _symmetry_equiv_pos_site_id
 _symmetry_equiv_pos_as_xyz
  1  'x, y, z'
loop_
 _atom_site_type_symbol
 _atom_site_label
 _atom_site_symmetry_multiplicity
 _atom_site_fract_x
 _atom_site_fract_y
 _atom_site_fract_z
 _atom_site_occupancy
  Nb  Nb0  1  0.00000000  0.00000000  0.00000000  1
  Nb  Nb1  1  0.50000000  0.50000000  0.50000000  1
  Pt  Pt2  1  0.50000000  0.50000000  0.83556700  1
  Pt  Pt3  1  0.00000000  0.00000000  0.66443300  1
  Pt  Pt4  1  0.00000000  0.00000000  0.33556700  1
  Pt  Pt5  1  0.50000000  0.50000000  0.16443300  1
