# generated using pymatgen
data_Ni3(PbSe)2
_symmetry_space_group_name_H-M   'P 1'
_cell_length_a   5.71269959
_cell_length_b   5.71269959
_cell_length_c   14.53045070
_cell_angle_alpha   90.00000000
_cell_angle_beta   90.00000000
_cell_angle_gamma   120.00000000
_symmetry_Int_Tables_number   1
_chemical_formula_structural   Ni3(PbSe)2
_chemical_formula_sum   'Ni9 Pb6 Se6'
_cell_volume   410.66953949
_cell_formula_units_Z   3
loop_
 _symmetry_equiv_pos_site_id
 _symmetry_equiv_pos_as_xyz
  1  'x, y, z'
loop_
 _atom_site_type_symbol
 _atom_site_label
 _atom_site_symmetry_multiplicity
 _atom_site_fract_x
 _atom_site_fract_y
 _atom_site_fract_z
 _atom_site_occupancy
  Ni  Ni0  1  0.83333333  0.66666667  0.16666667  1
  Ni  Ni1  1  0.33333333  0.16666667  0.16666667  1
  Ni  Ni2  1  0.83333333  0.16666667  0.16666667  1
  Ni  Ni3  1  0.50000000  0.00000000  0.50000000  1
  Ni  Ni4  1  0.00000000  0.50000000  0.50000000  1
  Ni  Ni5  1  0.50000000  0.50000000  0.50000000  1
  Ni  Ni6  1  0.16666667  0.33333333  0.83333333  1
  Ni  Ni7  1  0.66666667  0.83333333  0.83333333  1
  Ni  Ni8  1  0.16666667  0.83333333  0.83333333  1
  Pb  Pb9  1  0.00000000  0.00000000  0.00000000  1
  Pb  Pb10  1  0.33333333  0.66666667  0.16666667  1
  Pb  Pb11  1  0.66666667  0.33333333  0.33333333  1
  Pb  Pb12  1  1.00000000  1.00000000  0.50000000  1
  Pb  Pb13  1  0.33333333  0.66666667  0.66666667  1
  Pb  Pb14  1  0.66666667  0.33333333  0.83333333  1
  Se  Se15  1  0.66666667  0.33333333  0.05597133  1
  Se  Se16  1  0.00000000  0.00000000  0.27736200  1
  Se  Se17  1  0.33333333  0.66666667  0.38930467  1
  Se  Se18  1  0.66666667  0.33333333  0.61069533  1
  Se  Se19  1  0.00000000  0.00000000  0.72263800  1
  Se  Se20  1  0.33333333  0.66666667  0.94402867  1
