# generated using pymatgen
data_Ti2C
_symmetry_space_group_name_H-M   'P 1'
_cell_length_a   8.63909400
_cell_length_b   8.63909400
_cell_length_c   8.63909400
_cell_angle_alpha   90.00000000
_cell_angle_beta   90.00000000
_cell_angle_gamma   90.00000000
_symmetry_Int_Tables_number   1
_chemical_formula_structural   Ti2C
_chemical_formula_sum   'Ti32 C16'
_cell_volume   644.76966766
_cell_formula_units_Z   16
loop_
 _symmetry_equiv_pos_site_id
 _symmetry_equiv_pos_as_xyz
  1  'x, y, z'
loop_
 _atom_site_type_symbol
 _atom_site_label
 _atom_site_symmetry_multiplicity
 _atom_site_fract_x
 _atom_site_fract_y
 _atom_site_fract_z
 _atom_site_occupancy
  Ti  Ti0  1  0.13107567  0.36892433  0.13107567  1
  Ti  Ti1  1  0.13107567  0.13107567  0.36892433  1
  Ti  Ti2  1  0.36892433  0.13107567  0.13107567  1
  Ti  Ti3  1  0.38107567  0.88107567  0.38107567  1
  Ti  Ti4  1  0.61892433  0.11892433  0.38107567  1
  Ti  Ti5  1  0.11892433  0.88107567  0.11892433  1
  Ti  Ti6  1  0.88107567  0.11892433  0.11892433  1
  Ti  Ti7  1  0.36892433  0.36892433  0.36892433  1
  Ti  Ti8  1  0.13107567  0.86892433  0.63107567  1
  Ti  Ti9  1  0.13107567  0.63107567  0.86892433  1
  Ti  Ti10  1  0.36892433  0.63107567  0.63107567  1
  Ti  Ti11  1  0.38107567  0.38107567  0.88107567  1
  Ti  Ti12  1  0.61892433  0.61892433  0.88107567  1
  Ti  Ti13  1  0.11892433  0.38107567  0.61892433  1
  Ti  Ti14  1  0.88107567  0.61892433  0.61892433  1
  Ti  Ti15  1  0.36892433  0.86892433  0.86892433  1
  Ti  Ti16  1  0.63107567  0.36892433  0.63107567  1
  Ti  Ti17  1  0.63107567  0.13107567  0.86892433  1
  Ti  Ti18  1  0.86892433  0.13107567  0.63107567  1
  Ti  Ti19  1  0.88107567  0.88107567  0.88107567  1
  Ti  Ti20  1  0.11892433  0.11892433  0.88107567  1
  Ti  Ti21  1  0.61892433  0.88107567  0.61892433  1
  Ti  Ti22  1  0.38107567  0.11892433  0.61892433  1
  Ti  Ti23  1  0.86892433  0.36892433  0.86892433  1
  Ti  Ti24  1  0.63107567  0.86892433  0.13107567  1
  Ti  Ti25  1  0.63107567  0.63107567  0.36892433  1
  Ti  Ti26  1  0.86892433  0.63107567  0.13107567  1
  Ti  Ti27  1  0.88107567  0.38107567  0.38107567  1
  Ti  Ti28  1  0.11892433  0.61892433  0.38107567  1
  Ti  Ti29  1  0.61892433  0.38107567  0.11892433  1
  Ti  Ti30  1  0.38107567  0.61892433  0.11892433  1
  Ti  Ti31  1  0.86892433  0.86892433  0.36892433  1
  C  C32  1  0.87500000  0.87500000  0.12500000  1
  C  C33  1  0.37500000  0.12500000  0.37500000  1
  C  C34  1  0.62500000  0.87500000  0.37500000  1
  C  C35  1  0.12500000  0.12500000  0.12500000  1
  C  C36  1  0.87500000  0.37500000  0.62500000  1
  C  C37  1  0.37500000  0.62500000  0.87500000  1
  C  C38  1  0.62500000  0.37500000  0.87500000  1
  C  C39  1  0.12500000  0.62500000  0.62500000  1
  C  C40  1  0.37500000  0.87500000  0.62500000  1
  C  C41  1  0.87500000  0.12500000  0.87500000  1
  C  C42  1  0.12500000  0.87500000  0.87500000  1
  C  C43  1  0.62500000  0.12500000  0.62500000  1
  C  C44  1  0.37500000  0.37500000  0.12500000  1
  C  C45  1  0.87500000  0.62500000  0.37500000  1
  C  C46  1  0.12500000  0.37500000  0.37500000  1
  C  C47  1  0.62500000  0.62500000  0.12500000  1
