# generated using pymatgen
data_CoSnRh2
_symmetry_space_group_name_H-M   'P 1'
_cell_length_a   4.08473800
_cell_length_b   4.08473800
_cell_length_c   7.16575800
_cell_angle_alpha   90.00000000
_cell_angle_beta   90.00000000
_cell_angle_gamma   90.00000000
_symmetry_Int_Tables_number   1
_chemical_formula_structural   CoSnRh2
_chemical_formula_sum   'Co2 Sn2 Rh4'
_cell_volume   119.56127794
_cell_formula_units_Z   2
loop_
 _symmetry_equiv_pos_site_id
 _symmetry_equiv_pos_as_xyz
  1  'x, y, z'
loop_
 _atom_site_type_symbol
 _atom_site_label
 _atom_site_symmetry_multiplicity
 _atom_site_fract_x
 _atom_site_fract_y
 _atom_site_fract_z
 _atom_site_occupancy
  Co  Co0  1  0.00000000  0.00000000  0.00000000  1
  Co  Co1  1  0.50000000  0.50000000  0.50000000  1
  Sn  Sn2  1  0.50000000  0.50000000  0.00000000  1
  Sn  Sn3  1  0.00000000  0.00000000  0.50000000  1
  Rh  Rh4  1  0.50000000  0.00000000  0.25000000  1
  Rh  Rh5  1  0.00000000  0.50000000  0.25000000  1
  Rh  Rh6  1  0.00000000  0.50000000  0.75000000  1
  Rh  Rh7  1  0.50000000  0.00000000  0.75000000  1
