# generated using pymatgen
data_Al6Ru
_symmetry_space_group_name_H-M   'P 1'
_cell_length_a   6.55985600
_cell_length_b   7.50188400
_cell_length_c   9.03906200
_cell_angle_alpha   90.00000000
_cell_angle_beta   90.00000000
_cell_angle_gamma   90.00000000
_symmetry_Int_Tables_number   1
_chemical_formula_structural   Al6Ru
_chemical_formula_sum   'Al24 Ru4'
_cell_volume   444.82379989
_cell_formula_units_Z   4
loop_
 _symmetry_equiv_pos_site_id
 _symmetry_equiv_pos_as_xyz
  1  'x, y, z'
loop_
 _atom_site_type_symbol
 _atom_site_label
 _atom_site_symmetry_multiplicity
 _atom_site_fract_x
 _atom_site_fract_y
 _atom_site_fract_z
 _atom_site_occupancy
  Al  Al0  1  0.50000000  0.18082000  0.00000000  1
  Al  Al1  1  0.50000000  0.81918000  0.50000000  1
  Al  Al2  1  0.50000000  0.81918000  0.00000000  1
  Al  Al3  1  0.50000000  0.18082000  0.50000000  1
  Al  Al4  1  0.14054500  0.00000000  0.09956300  1
  Al  Al5  1  0.85945500  0.00000000  0.59956300  1
  Al  Al6  1  0.14054500  0.00000000  0.40043700  1
  Al  Al7  1  0.85945500  0.00000000  0.90043700  1
  Al  Al8  1  0.79813850  0.17998850  0.25000000  1
  Al  Al9  1  0.20186150  0.82001150  0.75000000  1
  Al  Al10  1  0.79813850  0.82001150  0.25000000  1
  Al  Al11  1  0.20186150  0.17998850  0.75000000  1
  Al  Al12  1  0.00000000  0.68082000  0.00000000  1
  Al  Al13  1  0.00000000  0.31918000  0.50000000  1
  Al  Al14  1  0.00000000  0.31918000  0.00000000  1
  Al  Al15  1  0.00000000  0.68082000  0.50000000  1
  Al  Al16  1  0.64054500  0.50000000  0.09956300  1
  Al  Al17  1  0.35945500  0.50000000  0.59956300  1
  Al  Al18  1  0.64054500  0.50000000  0.40043700  1
  Al  Al19  1  0.35945500  0.50000000  0.90043700  1
  Al  Al20  1  0.29813850  0.67998850  0.25000000  1
  Al  Al21  1  0.70186150  0.32001150  0.75000000  1
  Al  Al22  1  0.29813850  0.32001150  0.25000000  1
  Al  Al23  1  0.70186150  0.67998850  0.75000000  1
  Ru  Ru24  1  0.46356800  0.00000000  0.25000000  1
  Ru  Ru25  1  0.53643200  0.00000000  0.75000000  1
  Ru  Ru26  1  0.96356800  0.50000000  0.25000000  1
  Ru  Ru27  1  0.03643200  0.50000000  0.75000000  1
