# generated using pymatgen
data_P2W
_symmetry_space_group_name_H-M   'P 1'
_cell_length_a   8.52598600
_cell_length_b   3.18353600
_cell_length_c   7.54112814
_cell_angle_alpha   90.00000000
_cell_angle_beta   119.34499371
_cell_angle_gamma   90.00000000
_symmetry_Int_Tables_number   1
_chemical_formula_structural   P2W
_chemical_formula_sum   'P8 W4'
_cell_volume   178.42270646
_cell_formula_units_Z   4
loop_
 _symmetry_equiv_pos_site_id
 _symmetry_equiv_pos_as_xyz
  1  'x, y, z'
loop_
 _atom_site_type_symbol
 _atom_site_label
 _atom_site_symmetry_multiplicity
 _atom_site_fract_x
 _atom_site_fract_y
 _atom_site_fract_z
 _atom_site_occupancy
  P  P0  1  0.13790300  0.00000000  0.02424800  1
  P  P1  1  0.86209700  0.00000000  0.97575200  1
  P  P2  1  0.39947600  0.00000000  0.60052900  1
  P  P3  1  0.60052400  0.00000000  0.39947100  1
  P  P4  1  0.63790300  0.50000000  0.02424800  1
  P  P5  1  0.36209700  0.50000000  0.97575200  1
  P  P6  1  0.89947600  0.50000000  0.60052900  1
  P  P7  1  0.10052400  0.50000000  0.39947100  1
  W  W8  1  0.34195600  0.50000000  0.29275300  1
  W  W9  1  0.65804400  0.50000000  0.70724700  1
  W  W10  1  0.84195600  0.00000000  0.29275300  1
  W  W11  1  0.15804400  0.00000000  0.70724700  1
