# generated using pymatgen
data_TaSb2
_symmetry_space_group_name_H-M   'P 1'
_cell_length_a   10.34916000
_cell_length_b   3.69243600
_cell_length_c   8.39023513
_cell_angle_alpha   90.00000000
_cell_angle_beta   120.39973664
_cell_angle_gamma   90.00000000
_symmetry_Int_Tables_number   1
_chemical_formula_structural   TaSb2
_chemical_formula_sum   'Ta4 Sb8'
_cell_volume   276.54089695
_cell_formula_units_Z   4
loop_
 _symmetry_equiv_pos_site_id
 _symmetry_equiv_pos_as_xyz
  1  'x, y, z'
loop_
 _atom_site_type_symbol
 _atom_site_label
 _atom_site_symmetry_multiplicity
 _atom_site_fract_x
 _atom_site_fract_y
 _atom_site_fract_z
 _atom_site_occupancy
  Ta  Ta0  1  0.84927300  0.00000000  0.31139700  1
  Ta  Ta1  1  0.15072700  0.00000000  0.68860300  1
  Ta  Ta2  1  0.34927300  0.50000000  0.31139700  1
  Ta  Ta3  1  0.65072700  0.50000000  0.68860300  1
  Sb  Sb4  1  0.64841100  0.50000000  0.03477900  1
  Sb  Sb5  1  0.35158900  0.50000000  0.96522100  1
  Sb  Sb6  1  0.90523900  0.50000000  0.61246800  1
  Sb  Sb7  1  0.09476100  0.50000000  0.38753200  1
  Sb  Sb8  1  0.14841100  0.00000000  0.03477900  1
  Sb  Sb9  1  0.85158900  0.00000000  0.96522100  1
  Sb  Sb10  1  0.40523900  0.00000000  0.61246800  1
  Sb  Sb11  1  0.59476100  0.00000000  0.38753200  1
