# generated using pymatgen
data_SiIr3
_symmetry_space_group_name_H-M   'P 1'
_cell_length_a   5.28322400
_cell_length_b   5.28322400
_cell_length_c   8.05297200
_cell_angle_alpha   90.00000000
_cell_angle_beta   90.00000000
_cell_angle_gamma   90.00000000
_symmetry_Int_Tables_number   1
_chemical_formula_structural   SiIr3
_chemical_formula_sum   'Si4 Ir12'
_cell_volume   224.77822528
_cell_formula_units_Z   4
loop_
 _symmetry_equiv_pos_site_id
 _symmetry_equiv_pos_as_xyz
  1  'x, y, z'
loop_
 _atom_site_type_symbol
 _atom_site_label
 _atom_site_symmetry_multiplicity
 _atom_site_fract_x
 _atom_site_fract_y
 _atom_site_fract_z
 _atom_site_occupancy
  Si  Si0  1  0.00000000  0.50000000  0.25000000  1
  Si  Si1  1  0.50000000  0.00000000  0.25000000  1
  Si  Si2  1  0.50000000  0.00000000  0.75000000  1
  Si  Si3  1  0.00000000  0.50000000  0.75000000  1
  Ir  Ir4  1  0.00000000  0.00000000  0.25000000  1
  Ir  Ir5  1  0.50000000  0.50000000  0.25000000  1
  Ir  Ir6  1  0.18484900  0.68484900  0.00000000  1
  Ir  Ir7  1  0.31515100  0.18484900  0.00000000  1
  Ir  Ir8  1  0.68484900  0.81515100  0.00000000  1
  Ir  Ir9  1  0.81515100  0.31515100  0.00000000  1
  Ir  Ir10  1  0.50000000  0.50000000  0.75000000  1
  Ir  Ir11  1  0.00000000  0.00000000  0.75000000  1
  Ir  Ir12  1  0.68484900  0.18484900  0.50000000  1
  Ir  Ir13  1  0.81515100  0.68484900  0.50000000  1
  Ir  Ir14  1  0.18484900  0.31515100  0.50000000  1
  Ir  Ir15  1  0.31515100  0.81515100  0.50000000  1
