# generated using pymatgen
data_Ca3Au4
_symmetry_space_group_name_H-M   'P 1'
_cell_length_a   13.93601542
_cell_length_b   13.93601542
_cell_length_c   5.97702011
_cell_angle_alpha   90.00000000
_cell_angle_beta   90.00000000
_cell_angle_gamma   120.00000000
_symmetry_Int_Tables_number   1
_chemical_formula_structural   Ca3Au4
_chemical_formula_sum   'Ca18 Au24'
_cell_volume   1005.29283066
_cell_formula_units_Z   6
loop_
 _symmetry_equiv_pos_site_id
 _symmetry_equiv_pos_as_xyz
  1  'x, y, z'
loop_
 _atom_site_type_symbol
 _atom_site_label
 _atom_site_symmetry_multiplicity
 _atom_site_fract_x
 _atom_site_fract_y
 _atom_site_fract_z
 _atom_site_occupancy
  Ca  Ca0  1  0.45706033  0.16889967  0.56884667  1
  Ca  Ca1  1  0.37850600  0.87627300  0.90218000  1
  Ca  Ca2  1  0.16443367  0.95482733  0.23551333  1
  Ca  Ca3  1  0.20960633  0.16443367  0.76448667  1
  Ca  Ca4  1  0.28816067  0.45706033  0.43115333  1
  Ca  Ca5  1  0.50223300  0.37850600  0.09782000  1
  Ca  Ca6  1  0.12372700  0.50223300  0.90218000  1
  Ca  Ca7  1  0.04517267  0.20960633  0.23551333  1
  Ca  Ca8  1  0.83110033  0.28816067  0.56884667  1
  Ca  Ca9  1  0.87627300  0.49776700  0.09782000  1
  Ca  Ca10  1  0.95482733  0.79039367  0.76448667  1
  Ca  Ca11  1  0.16889967  0.71183933  0.43115333  1
  Ca  Ca12  1  0.79039367  0.83556633  0.23551333  1
  Ca  Ca13  1  0.71183933  0.54293967  0.56884667  1
  Ca  Ca14  1  0.49776700  0.62149400  0.90218000  1
  Ca  Ca15  1  0.54293967  0.83110033  0.43115333  1
  Ca  Ca16  1  0.62149400  0.12372700  0.09782000  1
  Ca  Ca17  1  0.83556633  0.04517267  0.76448667  1
  Au  Au18  1  0.27731767  0.22161633  0.27775733  1
  Au  Au19  1  0.44505033  0.38903467  0.61109067  1
  Au  Au20  1  0.27763200  0.38934900  0.94442400  1
  Au  Au21  1  0.22161633  0.94429867  0.72224267  1
  Au  Au22  1  0.38934900  0.11171700  0.05557600  1
  Au  Au23  1  0.38903467  0.94398433  0.38890933  1
  Au  Au24  1  0.00000000  0.00000000  0.50000000  1
  Au  Au25  1  0.00000000  0.00000000  0.00000000  1
  Au  Au26  1  0.94398433  0.55494967  0.61109067  1
  Au  Au27  1  0.11171700  0.72236800  0.94442400  1
  Au  Au28  1  0.94429867  0.72268233  0.27775733  1
  Au  Au29  1  0.88828300  0.27763200  0.05557600  1
  Au  Au30  1  0.05601567  0.44505033  0.38890933  1
  Au  Au31  1  0.05570133  0.27731767  0.72224267  1
  Au  Au32  1  0.66666667  0.33333333  0.83333333  1
  Au  Au33  1  0.66666667  0.33333333  0.33333333  1
  Au  Au34  1  0.61065100  0.88828300  0.94442400  1
  Au  Au35  1  0.77838367  0.05570133  0.27775733  1
  Au  Au36  1  0.61096533  0.05601567  0.61109067  1
  Au  Au37  1  0.55494967  0.61096533  0.38890933  1
  Au  Au38  1  0.72268233  0.77838367  0.72224267  1
  Au  Au39  1  0.72236800  0.61065100  0.05557600  1
  Au  Au40  1  0.33333333  0.66666667  0.16666667  1
  Au  Au41  1  0.33333333  0.66666667  0.66666667  1
