# generated using pymatgen
data_CaIn2Cu
_symmetry_space_group_name_H-M   'P 1'
_cell_length_a   4.48742000
_cell_length_b   10.81862600
_cell_length_c   7.50635800
_cell_angle_alpha   90.00000000
_cell_angle_beta   90.00000000
_cell_angle_gamma   90.00000000
_symmetry_Int_Tables_number   1
_chemical_formula_structural   CaIn2Cu
_chemical_formula_sum   'Ca4 In8 Cu4'
_cell_volume   364.41655653
_cell_formula_units_Z   4
loop_
 _symmetry_equiv_pos_site_id
 _symmetry_equiv_pos_as_xyz
  1  'x, y, z'
loop_
 _atom_site_type_symbol
 _atom_site_label
 _atom_site_symmetry_multiplicity
 _atom_site_fract_x
 _atom_site_fract_y
 _atom_site_fract_z
 _atom_site_occupancy
  Ca  Ca0  1  0.50000000  0.43200200  0.75000000  1
  Ca  Ca1  1  0.00000000  0.06799800  0.25000000  1
  Ca  Ca2  1  0.00000000  0.93200200  0.75000000  1
  Ca  Ca3  1  0.50000000  0.56799800  0.25000000  1
  In  In4  1  0.00000000  0.35775200  0.05002700  1
  In  In5  1  0.50000000  0.14224800  0.94997300  1
  In  In6  1  0.00000000  0.35775200  0.44997300  1
  In  In7  1  0.50000000  0.14224800  0.55002700  1
  In  In8  1  0.50000000  0.85775200  0.05002700  1
  In  In9  1  0.00000000  0.64224800  0.94997300  1
  In  In10  1  0.50000000  0.85775200  0.44997300  1
  In  In11  1  0.00000000  0.64224800  0.55002700  1
  Cu  Cu12  1  0.50000000  0.28702700  0.25000000  1
  Cu  Cu13  1  0.00000000  0.21297300  0.75000000  1
  Cu  Cu14  1  0.00000000  0.78702700  0.25000000  1
  Cu  Cu15  1  0.50000000  0.71297300  0.75000000  1
