# generated using pymatgen
data_BaGe
_symmetry_space_group_name_H-M   'P 1'
_cell_length_a   5.09768000
_cell_length_b   12.17674400
_cell_length_c   4.36416300
_cell_angle_alpha   90.00000000
_cell_angle_beta   90.00000000
_cell_angle_gamma   90.00000000
_symmetry_Int_Tables_number   1
_chemical_formula_structural   BaGe
_chemical_formula_sum   'Ba4 Ge4'
_cell_volume   270.89731988
_cell_formula_units_Z   4
loop_
 _symmetry_equiv_pos_site_id
 _symmetry_equiv_pos_as_xyz
  1  'x, y, z'
loop_
 _atom_site_type_symbol
 _atom_site_label
 _atom_site_symmetry_multiplicity
 _atom_site_fract_x
 _atom_site_fract_y
 _atom_site_fract_z
 _atom_site_occupancy
  Ba  Ba0  1  0.50000000  0.36318900  0.75000000  1
  Ba  Ba1  1  0.00000000  0.13681100  0.25000000  1
  Ba  Ba2  1  0.00000000  0.86318900  0.75000000  1
  Ba  Ba3  1  0.50000000  0.63681100  0.25000000  1
  Ge  Ge4  1  0.50000000  0.06415300  0.75000000  1
  Ge  Ge5  1  0.00000000  0.43584700  0.25000000  1
  Ge  Ge6  1  0.00000000  0.56415300  0.75000000  1
  Ge  Ge7  1  0.50000000  0.93584700  0.25000000  1
