# generated using pymatgen
data_Li2SbPd
_symmetry_space_group_name_H-M   'P 1'
_cell_length_a   6.38879200
_cell_length_b   6.38879200
_cell_length_c   6.38879200
_cell_angle_alpha   90.00000000
_cell_angle_beta   90.00000000
_cell_angle_gamma   90.00000000
_symmetry_Int_Tables_number   1
_chemical_formula_structural   Li2SbPd
_chemical_formula_sum   'Li8 Sb4 Pd4'
_cell_volume   260.76917144
_cell_formula_units_Z   4
loop_
 _symmetry_equiv_pos_site_id
 _symmetry_equiv_pos_as_xyz
  1  'x, y, z'
loop_
 _atom_site_type_symbol
 _atom_site_label
 _atom_site_symmetry_multiplicity
 _atom_site_fract_x
 _atom_site_fract_y
 _atom_site_fract_z
 _atom_site_occupancy
  Li  Li0  1  0.50000000  0.00000000  0.00000000  1
  Li  Li1  1  0.25000000  0.25000000  0.75000000  1
  Li  Li2  1  0.50000000  0.50000000  0.50000000  1
  Li  Li3  1  0.25000000  0.75000000  0.25000000  1
  Li  Li4  1  0.00000000  0.00000000  0.50000000  1
  Li  Li5  1  0.75000000  0.25000000  0.25000000  1
  Li  Li6  1  0.00000000  0.50000000  0.00000000  1
  Li  Li7  1  0.75000000  0.75000000  0.75000000  1
  Sb  Sb8  1  0.00000000  0.00000000  0.00000000  1
  Sb  Sb9  1  0.00000000  0.50000000  0.50000000  1
  Sb  Sb10  1  0.50000000  0.00000000  0.50000000  1
  Sb  Sb11  1  0.50000000  0.50000000  0.00000000  1
  Pd  Pd12  1  0.25000000  0.25000000  0.25000000  1
  Pd  Pd13  1  0.25000000  0.75000000  0.75000000  1
  Pd  Pd14  1  0.75000000  0.25000000  0.75000000  1
  Pd  Pd15  1  0.75000000  0.75000000  0.25000000  1
