# generated using pymatgen
data_TiO
_symmetry_space_group_name_H-M   'P 1'
_cell_length_a   9.34105200
_cell_length_b   4.17372200
_cell_length_c   5.84589509
_cell_angle_alpha   90.00000000
_cell_angle_beta   107.31026248
_cell_angle_gamma   90.00000000
_symmetry_Int_Tables_number   1
_chemical_formula_structural   TiO
_chemical_formula_sum   'Ti10 O10'
_cell_volume   217.59087002
_cell_formula_units_Z   10
loop_
 _symmetry_equiv_pos_site_id
 _symmetry_equiv_pos_as_xyz
  1  'x, y, z'
loop_
 _atom_site_type_symbol
 _atom_site_label
 _atom_site_symmetry_multiplicity
 _atom_site_fract_x
 _atom_site_fract_y
 _atom_site_fract_z
 _atom_site_occupancy
  Ti  Ti0  1  0.85046900  0.50000000  0.67448000  1
  Ti  Ti1  1  0.64953100  0.00000000  0.32552000  1
  Ti  Ti2  1  0.83741600  0.50000000  0.17236600  1
  Ti  Ti3  1  0.66258400  0.00000000  0.82763400  1
  Ti  Ti4  1  0.00000000  0.00000000  0.50000000  1
  Ti  Ti5  1  0.35046900  0.00000000  0.67448000  1
  Ti  Ti6  1  0.14953100  0.50000000  0.32552000  1
  Ti  Ti7  1  0.33741600  0.00000000  0.17236600  1
  Ti  Ti8  1  0.16258400  0.50000000  0.82763400  1
  Ti  Ti9  1  0.50000000  0.50000000  0.50000000  1
  O  O10  1  0.00000000  0.50000000  0.00000000  1
  O  O11  1  0.67180100  0.50000000  0.83137400  1
  O  O12  1  0.82819900  0.00000000  0.16862600  1
  O  O13  1  0.67101900  0.50000000  0.34342500  1
  O  O14  1  0.82898100  0.00000000  0.65657500  1
  O  O15  1  0.50000000  0.00000000  0.00000000  1
  O  O16  1  0.17180100  0.00000000  0.83137400  1
  O  O17  1  0.32819900  0.50000000  0.16862600  1
  O  O18  1  0.17101900  0.00000000  0.34342500  1
  O  O19  1  0.32898100  0.50000000  0.65657500  1
