# generated using pymatgen
data_KTiS2
_symmetry_space_group_name_H-M   'P 1'
_cell_length_a   3.65006444
_cell_length_b   3.65006444
_cell_length_c   22.11533613
_cell_angle_alpha   90.00000000
_cell_angle_beta   90.00000000
_cell_angle_gamma   120.00000000
_symmetry_Int_Tables_number   1
_chemical_formula_structural   KTiS2
_chemical_formula_sum   'K3 Ti3 S6'
_cell_volume   255.16743067
_cell_formula_units_Z   3
loop_
 _symmetry_equiv_pos_site_id
 _symmetry_equiv_pos_as_xyz
  1  'x, y, z'
loop_
 _atom_site_type_symbol
 _atom_site_label
 _atom_site_symmetry_multiplicity
 _atom_site_fract_x
 _atom_site_fract_y
 _atom_site_fract_z
 _atom_site_occupancy
  K  K0  1  0.66666667  0.33333333  0.15166433  1
  K  K1  1  0.33333333  0.66666667  0.48499767  1
  K  K2  1  0.00000000  0.00000000  0.81833100  1
  Ti  Ti3  1  0.66666667  0.33333333  0.32013433  1
  Ti  Ti4  1  0.33333333  0.66666667  0.65346767  1
  Ti  Ti5  1  0.00000000  0.00000000  0.98680100  1
  S  S6  1  0.33333333  0.66666667  0.04885467  1
  S  S7  1  0.33333333  0.66666667  0.25734567  1
  S  S8  1  0.00000000  0.00000000  0.38218800  1
  S  S9  1  0.00000000  0.00000000  0.59067900  1
  S  S10  1  0.66666667  0.33333333  0.71552133  1
  S  S11  1  0.66666667  0.33333333  0.92401233  1
