# generated using pymatgen
data_Li15Ge4
_symmetry_space_group_name_H-M   'P 1'
_cell_length_a   10.70100400
_cell_length_b   10.70100400
_cell_length_c   10.70100400
_cell_angle_alpha   90.00000000
_cell_angle_beta   90.00000000
_cell_angle_gamma   90.00000000
_symmetry_Int_Tables_number   1
_chemical_formula_structural   Li15Ge4
_chemical_formula_sum   'Li60 Ge16'
_cell_volume   1225.38787624
_cell_formula_units_Z   4
loop_
 _symmetry_equiv_pos_site_id
 _symmetry_equiv_pos_as_xyz
  1  'x, y, z'
loop_
 _atom_site_type_symbol
 _atom_site_label
 _atom_site_symmetry_multiplicity
 _atom_site_fract_x
 _atom_site_fract_y
 _atom_site_fract_z
 _atom_site_occupancy
  Li  Li0  1  0.28686200  0.59608500  0.87242200  1
  Li  Li1  1  0.90391500  0.12757800  0.78686200  1
  Li  Li2  1  0.12757800  0.21313800  0.59608500  1
  Li  Li3  1  0.21313800  0.40391500  0.37242200  1
  Li  Li4  1  0.40391500  0.37242200  0.21313800  1
  Li  Li5  1  0.37242200  0.21313800  0.40391500  1
  Li  Li6  1  0.34608500  0.03686200  0.62242200  1
  Li  Li7  1  0.15391500  0.03686200  0.37757800  1
  Li  Li8  1  0.00000000  0.25000000  0.37500000  1
  Li  Li9  1  0.37500000  0.00000000  0.25000000  1
  Li  Li10  1  0.12500000  0.00000000  0.75000000  1
  Li  Li11  1  0.75000000  0.12500000  0.00000000  1
  Li  Li12  1  0.25000000  0.37500000  0.00000000  1
  Li  Li13  1  0.00000000  0.75000000  0.12500000  1
  Li  Li14  1  0.15391500  0.96313800  0.12242200  1
  Li  Li15  1  0.12757800  0.78686200  0.90391500  1
  Li  Li16  1  0.87242200  0.28686200  0.59608500  1
  Li  Li17  1  0.59608500  0.87242200  0.28686200  1
  Li  Li18  1  0.59608500  0.12757800  0.21313800  1
  Li  Li19  1  0.21313800  0.59608500  0.12757800  1
  Li  Li20  1  0.78686200  0.90391500  0.12757800  1
  Li  Li21  1  0.46313800  0.37757800  0.84608500  1
  Li  Li22  1  0.37757800  0.15391500  0.03686200  1
  Li  Li23  1  0.03686200  0.62242200  0.34608500  1
  Li  Li24  1  0.37757800  0.84608500  0.46313800  1
  Li  Li25  1  0.03686200  0.37757800  0.15391500  1
  Li  Li26  1  0.62242200  0.34608500  0.03686200  1
  Li  Li27  1  0.12242200  0.15391500  0.96313800  1
  Li  Li28  1  0.96313800  0.12242200  0.15391500  1
  Li  Li29  1  0.84608500  0.46313800  0.37757800  1
  Li  Li30  1  0.78686200  0.09608500  0.37242200  1
  Li  Li31  1  0.40391500  0.62757800  0.28686200  1
  Li  Li32  1  0.62757800  0.71313800  0.09608500  1
  Li  Li33  1  0.71313800  0.90391500  0.87242200  1
  Li  Li34  1  0.90391500  0.87242200  0.71313800  1
  Li  Li35  1  0.87242200  0.71313800  0.90391500  1
  Li  Li36  1  0.84608500  0.53686200  0.12242200  1
  Li  Li37  1  0.65391500  0.53686200  0.87757800  1
  Li  Li38  1  0.50000000  0.75000000  0.87500000  1
  Li  Li39  1  0.87500000  0.50000000  0.75000000  1
  Li  Li40  1  0.62500000  0.50000000  0.25000000  1
  Li  Li41  1  0.25000000  0.62500000  0.50000000  1
  Li  Li42  1  0.75000000  0.87500000  0.50000000  1
  Li  Li43  1  0.50000000  0.25000000  0.62500000  1
  Li  Li44  1  0.65391500  0.46313800  0.62242200  1
  Li  Li45  1  0.62757800  0.28686200  0.40391500  1
  Li  Li46  1  0.37242200  0.78686200  0.09608500  1
  Li  Li47  1  0.09608500  0.37242200  0.78686200  1
  Li  Li48  1  0.09608500  0.62757800  0.71313800  1
  Li  Li49  1  0.71313800  0.09608500  0.62757800  1
  Li  Li50  1  0.28686200  0.40391500  0.62757800  1
  Li  Li51  1  0.96313800  0.87757800  0.34608500  1
  Li  Li52  1  0.87757800  0.65391500  0.53686200  1
  Li  Li53  1  0.53686200  0.12242200  0.84608500  1
  Li  Li54  1  0.87757800  0.34608500  0.96313800  1
  Li  Li55  1  0.53686200  0.87757800  0.65391500  1
  Li  Li56  1  0.12242200  0.84608500  0.53686200  1
  Li  Li57  1  0.62242200  0.65391500  0.46313800  1
  Li  Li58  1  0.46313800  0.62242200  0.65391500  1
  Li  Li59  1  0.34608500  0.96313800  0.87757800  1
  Ge  Ge60  1  0.45765850  0.45765850  0.45765850  1
  Ge  Ge61  1  0.79234150  0.29234150  0.20765850  1
  Ge  Ge62  1  0.29234150  0.20765850  0.79234150  1
  Ge  Ge63  1  0.20765850  0.79234150  0.29234150  1
  Ge  Ge64  1  0.54234150  0.95765850  0.04234150  1
  Ge  Ge65  1  0.95765850  0.04234150  0.54234150  1
  Ge  Ge66  1  0.04234150  0.54234150  0.95765850  1
  Ge  Ge67  1  0.20765850  0.20765850  0.20765850  1
  Ge  Ge68  1  0.95765850  0.95765850  0.95765850  1
  Ge  Ge69  1  0.29234150  0.79234150  0.70765850  1
  Ge  Ge70  1  0.79234150  0.70765850  0.29234150  1
  Ge  Ge71  1  0.70765850  0.29234150  0.79234150  1
  Ge  Ge72  1  0.04234150  0.45765850  0.54234150  1
  Ge  Ge73  1  0.45765850  0.54234150  0.04234150  1
  Ge  Ge74  1  0.54234150  0.04234150  0.45765850  1
  Ge  Ge75  1  0.70765850  0.70765850  0.70765850  1
