# generated using pymatgen
data_SrSn
_symmetry_space_group_name_H-M   'P 1'
_cell_length_a   5.09300600
_cell_length_b   12.23225400
_cell_length_c   4.53656200
_cell_angle_alpha   90.00000000
_cell_angle_beta   90.00000000
_cell_angle_gamma   90.00000000
_symmetry_Int_Tables_number   1
_chemical_formula_structural   SrSn
_chemical_formula_sum   'Sr4 Sn4'
_cell_volume   282.62301752
_cell_formula_units_Z   4
loop_
 _symmetry_equiv_pos_site_id
 _symmetry_equiv_pos_as_xyz
  1  'x, y, z'
loop_
 _atom_site_type_symbol
 _atom_site_label
 _atom_site_symmetry_multiplicity
 _atom_site_fract_x
 _atom_site_fract_y
 _atom_site_fract_z
 _atom_site_occupancy
  Sr  Sr0  1  0.50000000  0.36373400  0.75000000  1
  Sr  Sr1  1  0.00000000  0.13626600  0.25000000  1
  Sr  Sr2  1  0.00000000  0.86373400  0.75000000  1
  Sr  Sr3  1  0.50000000  0.63626600  0.25000000  1
  Sn  Sn4  1  0.50000000  0.07959100  0.75000000  1
  Sn  Sn5  1  0.00000000  0.42040900  0.25000000  1
  Sn  Sn6  1  0.00000000  0.57959100  0.75000000  1
  Sn  Sn7  1  0.50000000  0.92040900  0.25000000  1
