# generated using pymatgen
data_Li2US3
_symmetry_space_group_name_H-M   'P 1'
_cell_length_a   6.66816800
_cell_length_b   11.53203800
_cell_length_c   6.53474715
_cell_angle_alpha   90.00000000
_cell_angle_beta   109.90430530
_cell_angle_gamma   90.00000000
_symmetry_Int_Tables_number   1
_chemical_formula_structural   Li2US3
_chemical_formula_sum   'Li8 U4 S12'
_cell_volume   472.48771749
_cell_formula_units_Z   4
loop_
 _symmetry_equiv_pos_site_id
 _symmetry_equiv_pos_as_xyz
  1  'x, y, z'
loop_
 _atom_site_type_symbol
 _atom_site_label
 _atom_site_symmetry_multiplicity
 _atom_site_fract_x
 _atom_site_fract_y
 _atom_site_fract_z
 _atom_site_occupancy
  Li  Li0  1  0.00000000  0.00000000  0.00000000  1
  Li  Li1  1  0.50000000  0.00000000  0.50000000  1
  Li  Li2  1  0.50000000  0.66489800  0.50000000  1
  Li  Li3  1  0.50000000  0.33510200  0.50000000  1
  Li  Li4  1  0.50000000  0.50000000  0.00000000  1
  Li  Li5  1  0.00000000  0.50000000  0.50000000  1
  Li  Li6  1  0.00000000  0.16489800  0.50000000  1
  Li  Li7  1  0.00000000  0.83510200  0.50000000  1
  U  U8  1  0.50000000  0.83336100  0.00000000  1
  U  U9  1  0.50000000  0.16663900  0.00000000  1
  U  U10  1  0.00000000  0.33336100  0.00000000  1
  U  U11  1  0.00000000  0.66663900  0.00000000  1
  S  S12  1  0.74402500  0.00000000  0.25128400  1
  S  S13  1  0.74786850  0.83064650  0.75183100  1
  S  S14  1  0.74786850  0.16935350  0.75183100  1
  S  S15  1  0.25597500  0.00000000  0.74871600  1
  S  S16  1  0.25213150  0.16935350  0.24816900  1
  S  S17  1  0.25213150  0.83064650  0.24816900  1
  S  S18  1  0.24402500  0.50000000  0.25128400  1
  S  S19  1  0.24786850  0.33064650  0.75183100  1
  S  S20  1  0.24786850  0.66935350  0.75183100  1
  S  S21  1  0.75597500  0.50000000  0.74871600  1
  S  S22  1  0.75213150  0.66935350  0.24816900  1
  S  S23  1  0.75213150  0.33064650  0.24816900  1
