# generated using pymatgen
data_Cu2GeTe3
_symmetry_space_group_name_H-M   'P 1'
_cell_length_a   4.35201000
_cell_length_b   5.95210600
_cell_length_c   12.76236600
_cell_angle_alpha   90.00000000
_cell_angle_beta   90.00000000
_cell_angle_gamma   90.00000000
_symmetry_Int_Tables_number   1
_chemical_formula_structural   Cu2GeTe3
_chemical_formula_sum   'Cu4 Ge2 Te6'
_cell_volume   330.59154085
_cell_formula_units_Z   2
loop_
 _symmetry_equiv_pos_site_id
 _symmetry_equiv_pos_as_xyz
  1  'x, y, z'
loop_
 _atom_site_type_symbol
 _atom_site_label
 _atom_site_symmetry_multiplicity
 _atom_site_fract_x
 _atom_site_fract_y
 _atom_site_fract_z
 _atom_site_occupancy
  Cu  Cu0  1  0.00000000  0.73671300  0.16762700  1
  Cu  Cu1  1  0.50000000  0.23671300  0.33237300  1
  Cu  Cu2  1  0.50000000  0.23671300  0.66762700  1
  Cu  Cu3  1  0.00000000  0.73671300  0.83237300  1
  Ge  Ge4  1  0.50000000  0.26058500  0.00000000  1
  Ge  Ge5  1  0.00000000  0.76058500  0.50000000  1
  Te  Te6  1  0.00000000  0.00638300  0.32670400  1
  Te  Te7  1  0.50000000  0.50638300  0.17329600  1
  Te  Te8  1  0.00000000  0.98022300  0.00000000  1
  Te  Te9  1  0.50000000  0.50638300  0.82670400  1
  Te  Te10  1  0.00000000  0.00638300  0.67329600  1
  Te  Te11  1  0.50000000  0.48022300  0.50000000  1
