# generated using pymatgen
data_TaO3
_symmetry_space_group_name_H-M   'P 1'
_cell_length_a   7.90975400
_cell_length_b   7.90975400
_cell_length_c   7.90975400
_cell_angle_alpha   90.00000000
_cell_angle_beta   90.00000000
_cell_angle_gamma   90.00000000
_symmetry_Int_Tables_number   1
_chemical_formula_structural   TaO3
_chemical_formula_sum   'Ta8 O24'
_cell_volume   494.86749718
_cell_formula_units_Z   8
loop_
 _symmetry_equiv_pos_site_id
 _symmetry_equiv_pos_as_xyz
  1  'x, y, z'
loop_
 _atom_site_type_symbol
 _atom_site_label
 _atom_site_symmetry_multiplicity
 _atom_site_fract_x
 _atom_site_fract_y
 _atom_site_fract_z
 _atom_site_occupancy
  Ta  Ta0  1  0.75000000  0.25000000  0.25000000  1
  Ta  Ta1  1  0.25000000  0.75000000  0.25000000  1
  Ta  Ta2  1  0.25000000  0.25000000  0.25000000  1
  Ta  Ta3  1  0.25000000  0.25000000  0.75000000  1
  Ta  Ta4  1  0.25000000  0.75000000  0.75000000  1
  Ta  Ta5  1  0.75000000  0.25000000  0.75000000  1
  Ta  Ta6  1  0.75000000  0.75000000  0.75000000  1
  Ta  Ta7  1  0.75000000  0.75000000  0.25000000  1
  O  O8  1  0.00000000  0.24408200  0.74430300  1
  O  O9  1  0.25591800  0.75569700  0.50000000  1
  O  O10  1  0.00000000  0.24408200  0.25569700  1
  O  O11  1  0.75569700  0.50000000  0.25591800  1
  O  O12  1  0.25591800  0.24430300  0.50000000  1
  O  O13  1  0.25569700  0.00000000  0.24408200  1
  O  O14  1  0.24430300  0.50000000  0.25591800  1
  O  O15  1  0.24408200  0.25569700  0.00000000  1
  O  O16  1  0.74430300  0.00000000  0.24408200  1
  O  O17  1  0.50000000  0.25591800  0.24430300  1
  O  O18  1  0.24408200  0.74430300  0.00000000  1
  O  O19  1  0.50000000  0.25591800  0.75569700  1
  O  O20  1  0.50000000  0.74408200  0.24430300  1
  O  O21  1  0.75591800  0.25569700  0.00000000  1
  O  O22  1  0.50000000  0.74408200  0.75569700  1
  O  O23  1  0.25569700  0.00000000  0.75591800  1
  O  O24  1  0.75591800  0.74430300  0.00000000  1
  O  O25  1  0.75569700  0.50000000  0.74408200  1
  O  O26  1  0.74430300  0.00000000  0.75591800  1
  O  O27  1  0.74408200  0.75569700  0.50000000  1
  O  O28  1  0.24430300  0.50000000  0.74408200  1
  O  O29  1  0.00000000  0.75591800  0.74430300  1
  O  O30  1  0.74408200  0.24430300  0.50000000  1
  O  O31  1  0.00000000  0.75591800  0.25569700  1
