# generated using pymatgen
data_Ti3Te4
_symmetry_space_group_name_H-M   'P 1'
_cell_length_a   14.41260200
_cell_length_b   3.81384000
_cell_length_c   7.08072973
_cell_angle_alpha   90.00000000
_cell_angle_beta   119.09306035
_cell_angle_gamma   90.00000000
_symmetry_Int_Tables_number   1
_chemical_formula_structural   Ti3Te4
_chemical_formula_sum   'Ti6 Te8'
_cell_volume   340.10294220
_cell_formula_units_Z   2
loop_
 _symmetry_equiv_pos_site_id
 _symmetry_equiv_pos_as_xyz
  1  'x, y, z'
loop_
 _atom_site_type_symbol
 _atom_site_label
 _atom_site_symmetry_multiplicity
 _atom_site_fract_x
 _atom_site_fract_y
 _atom_site_fract_z
 _atom_site_occupancy
  Ti  Ti0  1  0.00000000  0.00000000  0.00000000  1
  Ti  Ti1  1  0.24718500  0.00000000  0.29518300  1
  Ti  Ti2  1  0.25281500  0.50000000  0.70481700  1
  Ti  Ti3  1  0.50000000  0.50000000  0.00000000  1
  Ti  Ti4  1  0.74718500  0.50000000  0.29518300  1
  Ti  Ti5  1  0.75281500  0.00000000  0.70481700  1
  Te  Te6  1  0.36519100  0.00000000  0.04101900  1
  Te  Te7  1  0.13480900  0.50000000  0.95898100  1
  Te  Te8  1  0.39299700  0.50000000  0.55150600  1
  Te  Te9  1  0.10700300  0.00000000  0.44849400  1
  Te  Te10  1  0.86519100  0.50000000  0.04101900  1
  Te  Te11  1  0.63480900  0.00000000  0.95898100  1
  Te  Te12  1  0.89299700  0.00000000  0.55150600  1
  Te  Te13  1  0.60700300  0.50000000  0.44849400  1
