# generated using pymatgen
data_Mg23Al30
_symmetry_space_group_name_H-M   'P 1'
_cell_length_a   12.79321183
_cell_length_b   12.79321183
_cell_length_c   21.66223012
_cell_angle_alpha   90.00000000
_cell_angle_beta   90.00000000
_cell_angle_gamma   120.00000000
_symmetry_Int_Tables_number   1
_chemical_formula_structural   Mg23Al30
_chemical_formula_sum   'Mg69 Al90'
_cell_volume   3070.38601141
_cell_formula_units_Z   3
loop_
 _symmetry_equiv_pos_site_id
 _symmetry_equiv_pos_as_xyz
  1  'x, y, z'
loop_
 _atom_site_type_symbol
 _atom_site_label
 _atom_site_symmetry_multiplicity
 _atom_site_fract_x
 _atom_site_fract_y
 _atom_site_fract_z
 _atom_site_occupancy
  Mg  Mg0  1  0.22350567  0.82523533  0.20694133  1
  Mg  Mg1  1  0.60172967  0.77649433  0.20694133  1
  Mg  Mg2  1  0.17476467  0.39827033  0.20694133  1
  Mg  Mg3  1  0.44316100  0.50809800  0.12639200  1
  Mg  Mg4  1  0.06493700  0.55683900  0.12639200  1
  Mg  Mg5  1  0.49190200  0.93506300  0.12639200  1
  Mg  Mg6  1  0.30302467  0.89741233  0.34864633  1
  Mg  Mg7  1  0.59438767  0.69697533  0.34864633  1
  Mg  Mg8  1  0.10258767  0.40561233  0.34864633  1
  Mg  Mg9  1  0.36364200  0.43592100  0.98468700  1
  Mg  Mg10  1  0.07227900  0.63635800  0.98468700  1
  Mg  Mg11  1  0.56407900  0.92772100  0.98468700  1
  Mg  Mg12  1  0.78060967  0.73712933  0.12465733  1
  Mg  Mg13  1  0.95651967  0.21939033  0.12465733  1
  Mg  Mg14  1  0.26287067  0.04348033  0.12465733  1
  Mg  Mg15  1  0.88605700  0.59620400  0.20867600  1
  Mg  Mg16  1  0.71014700  0.11394300  0.20867600  1
  Mg  Mg17  1  0.40379600  0.28985300  0.20867600  1
  Mg  Mg18  1  0.33333333  0.66666667  0.74384467  1
  Mg  Mg19  1  0.33333333  0.66666667  0.58948867  1
  Mg  Mg20  1  0.33333333  0.66666667  0.00478267  1
  Mg  Mg21  1  0.33333333  0.66666667  0.32855067  1
  Mg  Mg22  1  0.33333333  0.66666667  0.16666667  1
  Mg  Mg23  1  0.89017233  0.15856867  0.54027467  1
  Mg  Mg24  1  0.26839633  0.10982767  0.54027467  1
  Mg  Mg25  1  0.84143133  0.73160367  0.54027467  1
  Mg  Mg26  1  0.10982767  0.84143133  0.45972533  1
  Mg  Mg27  1  0.73160367  0.89017233  0.45972533  1
  Mg  Mg28  1  0.15856867  0.26839633  0.45972533  1
  Mg  Mg29  1  0.96969133  0.23074567  0.68197967  1
  Mg  Mg30  1  0.26105433  0.03030867  0.68197967  1
  Mg  Mg31  1  0.76925433  0.73894567  0.68197967  1
  Mg  Mg32  1  0.03030867  0.76925433  0.31802033  1
  Mg  Mg33  1  0.73894567  0.96969133  0.31802033  1
  Mg  Mg34  1  0.23074567  0.26105433  0.31802033  1
  Mg  Mg35  1  0.44727633  0.07046267  0.45799067  1
  Mg  Mg36  1  0.62318633  0.55272367  0.45799067  1
  Mg  Mg37  1  0.92953733  0.37681367  0.45799067  1
  Mg  Mg38  1  0.55272367  0.92953733  0.54200933  1
  Mg  Mg39  1  0.37681367  0.44727633  0.54200933  1
  Mg  Mg40  1  0.07046267  0.62318633  0.54200933  1
  Mg  Mg41  1  0.00000000  0.00000000  0.07717800  1
  Mg  Mg42  1  0.00000000  0.00000000  0.92282200  1
  Mg  Mg43  1  0.00000000  0.00000000  0.33811600  1
  Mg  Mg44  1  0.00000000  0.00000000  0.66188400  1
  Mg  Mg45  1  1.00000000  0.00000000  0.50000000  1
  Mg  Mg46  1  0.55683900  0.49190200  0.87360800  1
  Mg  Mg47  1  0.93506300  0.44316100  0.87360800  1
  Mg  Mg48  1  0.50809800  0.06493700  0.87360800  1
  Mg  Mg49  1  0.77649433  0.17476467  0.79305867  1
  Mg  Mg50  1  0.39827033  0.22350567  0.79305867  1
  Mg  Mg51  1  0.82523533  0.60172967  0.79305867  1
  Mg  Mg52  1  0.63635800  0.56407900  0.01531300  1
  Mg  Mg53  1  0.92772100  0.36364200  0.01531300  1
  Mg  Mg54  1  0.43592100  0.07227900  0.01531300  1
  Mg  Mg55  1  0.69697533  0.10258767  0.65135367  1
  Mg  Mg56  1  0.40561233  0.30302467  0.65135367  1
  Mg  Mg57  1  0.89741233  0.59438767  0.65135367  1
  Mg  Mg58  1  0.11394300  0.40379600  0.79132400  1
  Mg  Mg59  1  0.28985300  0.88605700  0.79132400  1
  Mg  Mg60  1  0.59620400  0.71014700  0.79132400  1
  Mg  Mg61  1  0.21939033  0.26287067  0.87534267  1
  Mg  Mg62  1  0.04348033  0.78060967  0.87534267  1
  Mg  Mg63  1  0.73712933  0.95651967  0.87534267  1
  Mg  Mg64  1  0.66666667  0.33333333  0.41051133  1
  Mg  Mg65  1  0.66666667  0.33333333  0.25615533  1
  Mg  Mg66  1  0.66666667  0.33333333  0.67144933  1
  Mg  Mg67  1  0.66666667  0.33333333  0.99521733  1
  Mg  Mg68  1  0.66666667  0.33333333  0.83333333  1
  Al  Al69  1  0.14611967  0.44752033  0.93872633  1
  Al  Al70  1  0.48133033  0.88817067  0.26217167  1
  Al  Al71  1  0.11182933  0.59315967  0.26217167  1
  Al  Al72  1  0.40684033  0.51866967  0.26217167  1
  Al  Al73  1  0.18533633  0.44516267  0.07116167  1
  Al  Al74  1  0.55483733  0.74017367  0.07116167  1
  Al  Al75  1  0.25982633  0.81466367  0.07116167  1
  Al  Al76  1  0.30140067  0.85388033  0.93872633  1
  Al  Al77  1  0.55247967  0.69859933  0.93872633  1
  Al  Al78  1  0.52054700  0.88581300  0.39460700  1
  Al  Al79  1  0.36526600  0.47945300  0.39460700  1
  Al  Al80  1  0.11418700  0.63473400  0.39460700  1
  Al  Al81  1  0.34973333  0.55080867  0.86857067  1
  Al  Al82  1  0.20107533  0.65026667  0.86857067  1
  Al  Al83  1  0.44919133  0.79892467  0.86857067  1
  Al  Al84  1  0.31693333  0.78252467  0.46476267  1
  Al  Al85  1  0.46559133  0.68306667  0.46476267  1
  Al  Al86  1  0.21747533  0.53440867  0.46476267  1
  Al  Al87  1  0.03558633  0.76984467  0.10449267  1
  Al  Al88  1  0.73425833  0.96441367  0.10449267  1
  Al  Al89  1  0.23015533  0.26574167  0.10449267  1
  Al  Al90  1  0.63108033  0.56348867  0.22884067  1
  Al  Al91  1  0.93240833  0.36891967  0.22884067  1
  Al  Al92  1  0.43651133  0.06759167  0.22884067  1
  Al  Al93  1  0.14738433  0.91061467  0.00175467  1
  Al  Al94  1  0.76323033  0.85261567  0.00175467  1
  Al  Al95  1  0.08938533  0.23676967  0.00175467  1
  Al  Al96  1  0.51928233  0.42271867  0.33157867  1
  Al  Al97  1  0.90343633  0.48071767  0.33157867  1
  Al  Al98  1  0.57728133  0.09656367  0.33157867  1
  Al  Al99  1  0.81278633  0.78085367  0.27205967  1
  Al  Al100  1  0.14799700  0.22150400  0.59550500  1
  Al  Al101  1  0.77849600  0.92649300  0.59550500  1
  Al  Al102  1  0.07350700  0.85200300  0.59550500  1
  Al  Al103  1  0.85200300  0.77849600  0.40449500  1
  Al  Al104  1  0.22150400  0.07350700  0.40449500  1
  Al  Al105  1  0.92649300  0.14799700  0.40449500  1
  Al  Al106  1  0.96806733  0.18721367  0.27205967  1
  Al  Al107  1  0.21914633  0.03193267  0.27205967  1
  Al  Al108  1  0.18721367  0.21914633  0.72794033  1
  Al  Al109  1  0.03193267  0.81278633  0.72794033  1
  Al  Al110  1  0.78085367  0.96806733  0.72794033  1
  Al  Al111  1  0.01640000  0.88414200  0.20190400  1
  Al  Al112  1  0.86774200  0.98360000  0.20190400  1
  Al  Al113  1  0.11585800  0.13225800  0.20190400  1
  Al  Al114  1  0.98360000  0.11585800  0.79809600  1
  Al  Al115  1  0.13225800  0.01640000  0.79809600  1
  Al  Al116  1  0.88414200  0.86774200  0.79809600  1
  Al  Al117  1  0.70225300  0.10317800  0.43782600  1
  Al  Al118  1  0.40092500  0.29774700  0.43782600  1
  Al  Al119  1  0.89682200  0.59907500  0.43782600  1
  Al  Al120  1  0.29774700  0.89682200  0.56217400  1
  Al  Al121  1  0.59907500  0.70225300  0.56217400  1
  Al  Al122  1  0.10317800  0.40092500  0.56217400  1
  Al  Al123  1  0.81405100  0.24394800  0.33508800  1
  Al  Al124  1  0.42989700  0.18594900  0.33508800  1
  Al  Al125  1  0.75605200  0.57010300  0.33508800  1
  Al  Al126  1  0.18594900  0.75605200  0.66491200  1
  Al  Al127  1  0.57010300  0.81405100  0.66491200  1
  Al  Al128  1  0.24394800  0.42989700  0.66491200  1
  Al  Al129  1  0.47945300  0.11418700  0.60539300  1
  Al  Al130  1  0.81466367  0.55483733  0.92883833  1
  Al  Al131  1  0.44516267  0.25982633  0.92883833  1
  Al  Al132  1  0.74017367  0.18533633  0.92883833  1
  Al  Al133  1  0.51866967  0.11182933  0.73782833  1
  Al  Al134  1  0.88817067  0.40684033  0.73782833  1
  Al  Al135  1  0.59315967  0.48133033  0.73782833  1
  Al  Al136  1  0.63473400  0.52054700  0.60539300  1
  Al  Al137  1  0.88581300  0.36526600  0.60539300  1
  Al  Al138  1  0.85388033  0.55247967  0.06127367  1
  Al  Al139  1  0.69859933  0.14611967  0.06127367  1
  Al  Al140  1  0.44752033  0.30140067  0.06127367  1
  Al  Al141  1  0.68306667  0.21747533  0.53523733  1
  Al  Al142  1  0.53440867  0.31693333  0.53523733  1
  Al  Al143  1  0.78252467  0.46559133  0.53523733  1
  Al  Al144  1  0.65026667  0.44919133  0.13142933  1
  Al  Al145  1  0.79892467  0.34973333  0.13142933  1
  Al  Al146  1  0.55080867  0.20107533  0.13142933  1
  Al  Al147  1  0.36891967  0.43651133  0.77115933  1
  Al  Al148  1  0.06759167  0.63108033  0.77115933  1
  Al  Al149  1  0.56348867  0.93240833  0.77115933  1
  Al  Al150  1  0.96441367  0.23015533  0.89550733  1
  Al  Al151  1  0.26574167  0.03558633  0.89550733  1
  Al  Al152  1  0.76984467  0.73425833  0.89550733  1
  Al  Al153  1  0.48071767  0.57728133  0.66842133  1
  Al  Al154  1  0.09656367  0.51928233  0.66842133  1
  Al  Al155  1  0.42271867  0.90343633  0.66842133  1
  Al  Al156  1  0.85261567  0.08938533  0.99824533  1
  Al  Al157  1  0.23676967  0.14738433  0.99824533  1
  Al  Al158  1  0.91061467  0.76323033  0.99824533  1
