# generated using pymatgen
data_Te2Rh3
_symmetry_space_group_name_H-M   'P 1'
_cell_length_a   3.75468000
_cell_length_b   12.58532000
_cell_length_c   7.83282600
_cell_angle_alpha   90.00000000
_cell_angle_beta   90.00000000
_cell_angle_gamma   90.00000000
_symmetry_Int_Tables_number   1
_chemical_formula_structural   Te2Rh3
_chemical_formula_sum   'Te8 Rh12'
_cell_volume   370.13117938
_cell_formula_units_Z   4
loop_
 _symmetry_equiv_pos_site_id
 _symmetry_equiv_pos_as_xyz
  1  'x, y, z'
loop_
 _atom_site_type_symbol
 _atom_site_label
 _atom_site_symmetry_multiplicity
 _atom_site_fract_x
 _atom_site_fract_y
 _atom_site_fract_z
 _atom_site_occupancy
  Te  Te0  1  0.00000000  0.00000000  0.50000000  1
  Te  Te1  1  0.00000000  0.00000000  0.00000000  1
  Te  Te2  1  0.00000000  0.25298100  0.25000000  1
  Te  Te3  1  0.50000000  0.24701900  0.75000000  1
  Te  Te4  1  0.50000000  0.50000000  0.50000000  1
  Te  Te5  1  0.50000000  0.50000000  0.00000000  1
  Te  Te6  1  0.50000000  0.75298100  0.25000000  1
  Te  Te7  1  0.00000000  0.74701900  0.75000000  1
  Rh  Rh8  1  0.00000000  0.46394600  0.25000000  1
  Rh  Rh9  1  0.50000000  0.03605400  0.75000000  1
  Rh  Rh10  1  0.00000000  0.33874300  0.55983400  1
  Rh  Rh11  1  0.50000000  0.16125700  0.44016600  1
  Rh  Rh12  1  0.50000000  0.16125700  0.05983400  1
  Rh  Rh13  1  0.00000000  0.33874300  0.94016600  1
  Rh  Rh14  1  0.50000000  0.96394600  0.25000000  1
  Rh  Rh15  1  0.00000000  0.53605400  0.75000000  1
  Rh  Rh16  1  0.50000000  0.83874300  0.55983400  1
  Rh  Rh17  1  0.00000000  0.66125700  0.44016600  1
  Rh  Rh18  1  0.00000000  0.66125700  0.05983400  1
  Rh  Rh19  1  0.50000000  0.83874300  0.94016600  1
