# generated using pymatgen
data_Sr2Sb
_symmetry_space_group_name_H-M   'P 1'
_cell_length_a   5.06720200
_cell_length_b   5.06720200
_cell_length_c   17.85170600
_cell_angle_alpha   90.00000000
_cell_angle_beta   90.00000000
_cell_angle_gamma   90.00000000
_symmetry_Int_Tables_number   1
_chemical_formula_structural   Sr2Sb
_chemical_formula_sum   'Sr8 Sb4'
_cell_volume   458.36997371
_cell_formula_units_Z   4
loop_
 _symmetry_equiv_pos_site_id
 _symmetry_equiv_pos_as_xyz
  1  'x, y, z'
loop_
 _atom_site_type_symbol
 _atom_site_label
 _atom_site_symmetry_multiplicity
 _atom_site_fract_x
 _atom_site_fract_y
 _atom_site_fract_z
 _atom_site_occupancy
  Sr  Sr0  1  0.50000000  0.00000000  0.00000000  1
  Sr  Sr1  1  0.00000000  0.50000000  0.00000000  1
  Sr  Sr2  1  0.00000000  0.00000000  0.32203400  1
  Sr  Sr3  1  0.50000000  0.50000000  0.17796600  1
  Sr  Sr4  1  0.00000000  0.50000000  0.50000000  1
  Sr  Sr5  1  0.50000000  0.00000000  0.50000000  1
  Sr  Sr6  1  0.50000000  0.50000000  0.82203400  1
  Sr  Sr7  1  0.00000000  0.00000000  0.67796600  1
  Sb  Sb8  1  0.00000000  0.00000000  0.13494800  1
  Sb  Sb9  1  0.50000000  0.50000000  0.36505200  1
  Sb  Sb10  1  0.50000000  0.50000000  0.63494800  1
  Sb  Sb11  1  0.00000000  0.00000000  0.86505200  1
