# generated using pymatgen
data_RbFe2Se3
_symmetry_space_group_name_H-M   'P 1'
_cell_length_a   9.68492000
_cell_length_b   12.14095400
_cell_length_c   5.45381400
_cell_angle_alpha   90.00000000
_cell_angle_beta   90.00000000
_cell_angle_gamma   90.00000000
_symmetry_Int_Tables_number   1
_chemical_formula_structural   RbFe2Se3
_chemical_formula_sum   'Rb4 Fe8 Se12'
_cell_volume   641.28218278
_cell_formula_units_Z   4
loop_
 _symmetry_equiv_pos_site_id
 _symmetry_equiv_pos_as_xyz
  1  'x, y, z'
loop_
 _atom_site_type_symbol
 _atom_site_label
 _atom_site_symmetry_multiplicity
 _atom_site_fract_x
 _atom_site_fract_y
 _atom_site_fract_z
 _atom_site_occupancy
  Rb  Rb0  1  0.50000000  0.83431900  0.25000000  1
  Rb  Rb1  1  0.50000000  0.16568100  0.75000000  1
  Rb  Rb2  1  0.00000000  0.33431900  0.25000000  1
  Rb  Rb3  1  0.00000000  0.66568100  0.75000000  1
  Fe  Fe4  1  0.86913500  0.00000000  0.00000000  1
  Fe  Fe5  1  0.13086500  0.00000000  0.50000000  1
  Fe  Fe6  1  0.13086500  0.00000000  0.00000000  1
  Fe  Fe7  1  0.86913500  0.00000000  0.50000000  1
  Fe  Fe8  1  0.36913500  0.50000000  0.00000000  1
  Fe  Fe9  1  0.63086500  0.50000000  0.50000000  1
  Fe  Fe10  1  0.63086500  0.50000000  0.00000000  1
  Fe  Fe11  1  0.36913500  0.50000000  0.50000000  1
  Se  Se12  1  0.73122450  0.88763550  0.75000000  1
  Se  Se13  1  0.26877550  0.11236450  0.25000000  1
  Se  Se14  1  0.50000000  0.62959200  0.75000000  1
  Se  Se15  1  0.50000000  0.37040800  0.25000000  1
  Se  Se16  1  0.26877550  0.88763550  0.75000000  1
  Se  Se17  1  0.73122450  0.11236450  0.25000000  1
  Se  Se18  1  0.23122450  0.38763550  0.75000000  1
  Se  Se19  1  0.76877550  0.61236450  0.25000000  1
  Se  Se20  1  0.00000000  0.12959200  0.75000000  1
  Se  Se21  1  0.00000000  0.87040800  0.25000000  1
  Se  Se22  1  0.76877550  0.38763550  0.75000000  1
  Se  Se23  1  0.23122450  0.61236450  0.25000000  1
