# generated using pymatgen
data_CsO2
_symmetry_space_group_name_H-M   'P 1'
_cell_length_a   4.46165200
_cell_length_b   4.46165200
_cell_length_c   7.37146800
_cell_angle_alpha   90.00000000
_cell_angle_beta   90.00000000
_cell_angle_gamma   90.00000000
_symmetry_Int_Tables_number   1
_chemical_formula_structural   CsO2
_chemical_formula_sum   'Cs2 O4'
_cell_volume   146.73893776
_cell_formula_units_Z   2
loop_
 _symmetry_equiv_pos_site_id
 _symmetry_equiv_pos_as_xyz
  1  'x, y, z'
loop_
 _atom_site_type_symbol
 _atom_site_label
 _atom_site_symmetry_multiplicity
 _atom_site_fract_x
 _atom_site_fract_y
 _atom_site_fract_z
 _atom_site_occupancy
  Cs  Cs0  1  0.00000000  0.00000000  0.00000000  1
  Cs  Cs1  1  0.50000000  0.50000000  0.50000000  1
  O  O2  1  0.50000000  0.50000000  0.09163600  1
  O  O3  1  0.00000000  0.00000000  0.40836400  1
  O  O4  1  0.00000000  0.00000000  0.59163600  1
  O  O5  1  0.50000000  0.50000000  0.90836400  1
