# generated using pymatgen
data_AlRe2
_symmetry_space_group_name_H-M   'P 1'
_cell_length_a   3.00480200
_cell_length_b   3.00480200
_cell_length_c   9.66053800
_cell_angle_alpha   90.00000000
_cell_angle_beta   90.00000000
_cell_angle_gamma   90.00000000
_symmetry_Int_Tables_number   1
_chemical_formula_structural   AlRe2
_chemical_formula_sum   'Al2 Re4'
_cell_volume   87.22340419
_cell_formula_units_Z   2
loop_
 _symmetry_equiv_pos_site_id
 _symmetry_equiv_pos_as_xyz
  1  'x, y, z'
loop_
 _atom_site_type_symbol
 _atom_site_label
 _atom_site_symmetry_multiplicity
 _atom_site_fract_x
 _atom_site_fract_y
 _atom_site_fract_z
 _atom_site_occupancy
  Al  Al0  1  0.00000000  0.00000000  0.00000000  1
  Al  Al1  1  0.50000000  0.50000000  0.50000000  1
  Re  Re2  1  0.00000000  0.00000000  0.33113500  1
  Re  Re3  1  0.50000000  0.50000000  0.16886500  1
  Re  Re4  1  0.50000000  0.50000000  0.83113500  1
  Re  Re5  1  0.00000000  0.00000000  0.66886500  1
