# generated using pymatgen
data_BW2
_symmetry_space_group_name_H-M   'P 1'
_cell_length_a   5.59212600
_cell_length_b   5.59212600
_cell_length_c   4.79671600
_cell_angle_alpha   90.00000000
_cell_angle_beta   90.00000000
_cell_angle_gamma   90.00000000
_symmetry_Int_Tables_number   1
_chemical_formula_structural   BW2
_chemical_formula_sum   'B4 W8'
_cell_volume   150.00229453
_cell_formula_units_Z   4
loop_
 _symmetry_equiv_pos_site_id
 _symmetry_equiv_pos_as_xyz
  1  'x, y, z'
loop_
 _atom_site_type_symbol
 _atom_site_label
 _atom_site_symmetry_multiplicity
 _atom_site_fract_x
 _atom_site_fract_y
 _atom_site_fract_z
 _atom_site_occupancy
  B  B0  1  0.00000000  0.00000000  0.25000000  1
  B  B1  1  0.00000000  0.00000000  0.75000000  1
  B  B2  1  0.50000000  0.50000000  0.75000000  1
  B  B3  1  0.50000000  0.50000000  0.25000000  1
  W  W4  1  0.32976700  0.17023300  0.50000000  1
  W  W5  1  0.82976700  0.32976700  0.50000000  1
  W  W6  1  0.17023300  0.32976700  0.00000000  1
  W  W7  1  0.67023300  0.17023300  0.00000000  1
  W  W8  1  0.82976700  0.67023300  0.00000000  1
  W  W9  1  0.32976700  0.82976700  0.00000000  1
  W  W10  1  0.67023300  0.82976700  0.50000000  1
  W  W11  1  0.17023300  0.67023300  0.50000000  1
