# generated using pymatgen
data_ThAl
_symmetry_space_group_name_H-M   'P 1'
_cell_length_a   4.46300200
_cell_length_b   11.45337800
_cell_length_c   4.18437200
_cell_angle_alpha   90.00000000
_cell_angle_beta   90.00000000
_cell_angle_gamma   90.00000000
_symmetry_Int_Tables_number   1
_chemical_formula_structural   ThAl
_chemical_formula_sum   'Th4 Al4'
_cell_volume   213.89023760
_cell_formula_units_Z   4
loop_
 _symmetry_equiv_pos_site_id
 _symmetry_equiv_pos_as_xyz
  1  'x, y, z'
loop_
 _atom_site_type_symbol
 _atom_site_label
 _atom_site_symmetry_multiplicity
 _atom_site_fract_x
 _atom_site_fract_y
 _atom_site_fract_z
 _atom_site_occupancy
  Th  Th0  1  0.00000000  0.14445800  0.25000000  1
  Th  Th1  1  0.50000000  0.35554200  0.75000000  1
  Th  Th2  1  0.50000000  0.64445800  0.25000000  1
  Th  Th3  1  0.00000000  0.85554200  0.75000000  1
  Al  Al4  1  0.00000000  0.42923400  0.25000000  1
  Al  Al5  1  0.50000000  0.07076600  0.75000000  1
  Al  Al6  1  0.50000000  0.92923400  0.25000000  1
  Al  Al7  1  0.00000000  0.57076600  0.75000000  1
