# generated using pymatgen
data_YMgCu4
_symmetry_space_group_name_H-M   'P 1'
_cell_length_a   7.22396000
_cell_length_b   7.22396000
_cell_length_c   7.22396000
_cell_angle_alpha   90.00000000
_cell_angle_beta   90.00000000
_cell_angle_gamma   90.00000000
_symmetry_Int_Tables_number   1
_chemical_formula_structural   YMgCu4
_chemical_formula_sum   'Y4 Mg4 Cu16'
_cell_volume   376.98667312
_cell_formula_units_Z   4
loop_
 _symmetry_equiv_pos_site_id
 _symmetry_equiv_pos_as_xyz
  1  'x, y, z'
loop_
 _atom_site_type_symbol
 _atom_site_label
 _atom_site_symmetry_multiplicity
 _atom_site_fract_x
 _atom_site_fract_y
 _atom_site_fract_z
 _atom_site_occupancy
  Y  Y0  1  0.25000000  0.25000000  0.25000000  1
  Y  Y1  1  0.25000000  0.75000000  0.75000000  1
  Y  Y2  1  0.75000000  0.25000000  0.75000000  1
  Y  Y3  1  0.75000000  0.75000000  0.25000000  1
  Mg  Mg4  1  0.00000000  0.00000000  0.00000000  1
  Mg  Mg5  1  0.00000000  0.50000000  0.50000000  1
  Mg  Mg6  1  0.50000000  0.00000000  0.50000000  1
  Mg  Mg7  1  0.50000000  0.50000000  0.00000000  1
  Cu  Cu8  1  0.12617333  0.37382667  0.87382667  1
  Cu  Cu9  1  0.62617333  0.12617333  0.12617333  1
  Cu  Cu10  1  0.87382667  0.37382667  0.12617333  1
  Cu  Cu11  1  0.37382667  0.12617333  0.87382667  1
  Cu  Cu12  1  0.12617333  0.87382667  0.37382667  1
  Cu  Cu13  1  0.62617333  0.62617333  0.62617333  1
  Cu  Cu14  1  0.87382667  0.87382667  0.62617333  1
  Cu  Cu15  1  0.37382667  0.62617333  0.37382667  1
  Cu  Cu16  1  0.62617333  0.37382667  0.37382667  1
  Cu  Cu17  1  0.12617333  0.12617333  0.62617333  1
  Cu  Cu18  1  0.37382667  0.37382667  0.62617333  1
  Cu  Cu19  1  0.87382667  0.12617333  0.37382667  1
  Cu  Cu20  1  0.62617333  0.87382667  0.87382667  1
  Cu  Cu21  1  0.12617333  0.62617333  0.12617333  1
  Cu  Cu22  1  0.37382667  0.87382667  0.12617333  1
  Cu  Cu23  1  0.87382667  0.62617333  0.87382667  1
