# generated using pymatgen
data_Cu2SnTe3
_symmetry_space_group_name_H-M   'P 1'
_cell_length_a   4.40991000
_cell_length_b   6.11366800
_cell_length_c   13.09354600
_cell_angle_alpha   90.00000000
_cell_angle_beta   90.00000000
_cell_angle_gamma   90.00000000
_symmetry_Int_Tables_number   1
_chemical_formula_structural   Cu2SnTe3
_chemical_formula_sum   'Cu4 Sn2 Te6'
_cell_volume   353.01150149
_cell_formula_units_Z   2
loop_
 _symmetry_equiv_pos_site_id
 _symmetry_equiv_pos_as_xyz
  1  'x, y, z'
loop_
 _atom_site_type_symbol
 _atom_site_label
 _atom_site_symmetry_multiplicity
 _atom_site_fract_x
 _atom_site_fract_y
 _atom_site_fract_z
 _atom_site_occupancy
  Cu  Cu0  1  0.00000000  0.73945050  0.17030750  1
  Cu  Cu1  1  0.50000000  0.23945050  0.32969250  1
  Cu  Cu2  1  0.50000000  0.23945050  0.67030750  1
  Cu  Cu3  1  0.00000000  0.73945050  0.82969250  1
  Sn  Sn4  1  0.50000000  0.26615300  0.00000000  1
  Sn  Sn5  1  0.00000000  0.76615300  0.50000000  1
  Te  Te6  1  0.00000000  0.01875000  0.31971000  1
  Te  Te7  1  0.50000000  0.51875000  0.18029000  1
  Te  Te8  1  0.00000000  0.95944800  0.00000000  1
  Te  Te9  1  0.50000000  0.51875000  0.81971000  1
  Te  Te10  1  0.00000000  0.01875000  0.68029000  1
  Te  Te11  1  0.50000000  0.45944800  0.50000000  1
