# generated using pymatgen
data_BaTb2NiO5
_symmetry_space_group_name_H-M   'P 1'
_cell_length_a   3.80384349
_cell_length_b   5.82906028
_cell_length_c   11.48045492
_cell_angle_alpha   90.00000000
_cell_angle_beta   90.00000000
_cell_angle_gamma   90.00000000
_symmetry_Int_Tables_number   1
_chemical_formula_structural   BaTb2NiO5
_chemical_formula_sum   'Ba2 Tb4 Ni2 O10'
_cell_volume   254.55420969
_cell_formula_units_Z   2
loop_
 _symmetry_equiv_pos_site_id
 _symmetry_equiv_pos_as_xyz
  1  'x, y, z'
loop_
 _atom_site_type_symbol
 _atom_site_label
 _atom_site_symmetry_multiplicity
 _atom_site_fract_x
 _atom_site_fract_y
 _atom_site_fract_z
 _atom_site_occupancy
  Ba  Ba0  1  0.00000000  0.00000000  0.00000000  1
  Ba  Ba1  1  0.50000000  0.50000000  0.50000000  1
  Tb  Tb2  1  0.00000000  0.50000000  0.20315169  1
  Tb  Tb3  1  0.50000000  0.00000000  0.29684831  1
  Tb  Tb4  1  0.50000000  0.00000000  0.70315169  1
  Tb  Tb5  1  0.00000000  0.50000000  0.79684831  1
  Ni  Ni6  1  0.50000000  0.50000000  0.00000000  1
  Ni  Ni7  1  0.00000000  0.00000000  0.50000000  1
  O  O8  1  0.50000000  0.00000000  0.50000000  1
  O  O9  1  0.00000000  0.24027878  0.35070501  1
  O  O10  1  0.50000000  0.25972122  0.14929499  1
  O  O11  1  0.50000000  0.74027878  0.14929499  1
  O  O12  1  0.00000000  0.75972122  0.35070501  1
  O  O13  1  0.00000000  0.50000000  0.00000000  1
  O  O14  1  0.50000000  0.74027878  0.85070501  1
  O  O15  1  0.00000000  0.75972122  0.64929499  1
  O  O16  1  0.00000000  0.24027878  0.64929499  1
  O  O17  1  0.50000000  0.25972122  0.85070501  1
