# generated using pymatgen
data_Y(BIr)2
_symmetry_space_group_name_H-M   'P 1'
_cell_length_a   5.88294600
_cell_length_b   9.31114600
_cell_length_c   10.82418400
_cell_angle_alpha   90.00000000
_cell_angle_beta   90.00000000
_cell_angle_gamma   90.00000000
_symmetry_Int_Tables_number   1
_chemical_formula_structural   Y(BIr)2
_chemical_formula_sum   'Y8 B16 Ir16'
_cell_volume   592.91599268
_cell_formula_units_Z   8
loop_
 _symmetry_equiv_pos_site_id
 _symmetry_equiv_pos_as_xyz
  1  'x, y, z'
loop_
 _atom_site_type_symbol
 _atom_site_label
 _atom_site_symmetry_multiplicity
 _atom_site_fract_x
 _atom_site_fract_y
 _atom_site_fract_z
 _atom_site_occupancy
  Y  Y0  1  0.75000000  0.25000000  0.25000000  1
  Y  Y1  1  0.50000000  0.00000000  0.00000000  1
  Y  Y2  1  0.75000000  0.75000000  0.75000000  1
  Y  Y3  1  0.50000000  0.50000000  0.50000000  1
  Y  Y4  1  0.25000000  0.25000000  0.75000000  1
  Y  Y5  1  0.00000000  0.00000000  0.50000000  1
  Y  Y6  1  0.25000000  0.75000000  0.25000000  1
  Y  Y7  1  0.00000000  0.50000000  0.00000000  1
  B  B8  1  0.75000000  0.56849300  0.25000000  1
  B  B9  1  0.50000000  0.31849300  0.00000000  1
  B  B10  1  0.75000000  0.93150700  0.25000000  1
  B  B11  1  0.50000000  0.68150700  0.00000000  1
  B  B12  1  0.75000000  0.06849300  0.75000000  1
  B  B13  1  0.50000000  0.81849300  0.50000000  1
  B  B14  1  0.75000000  0.43150700  0.75000000  1
  B  B15  1  0.50000000  0.18150700  0.50000000  1
  B  B16  1  0.25000000  0.56849300  0.75000000  1
  B  B17  1  0.00000000  0.31849300  0.50000000  1
  B  B18  1  0.25000000  0.93150700  0.75000000  1
  B  B19  1  0.00000000  0.68150700  0.50000000  1
  B  B20  1  0.25000000  0.06849300  0.25000000  1
  B  B21  1  0.00000000  0.81849300  0.00000000  1
  B  B22  1  0.25000000  0.43150700  0.25000000  1
  B  B23  1  0.00000000  0.18150700  0.00000000  1
  Ir  Ir24  1  0.75000000  0.75000000  0.37802500  1
  Ir  Ir25  1  0.00000000  0.00000000  0.12802500  1
  Ir  Ir26  1  0.50000000  0.00000000  0.37197500  1
  Ir  Ir27  1  0.75000000  0.75000000  0.12197500  1
  Ir  Ir28  1  0.75000000  0.25000000  0.87802500  1
  Ir  Ir29  1  0.00000000  0.50000000  0.62802500  1
  Ir  Ir30  1  0.50000000  0.50000000  0.87197500  1
  Ir  Ir31  1  0.75000000  0.25000000  0.62197500  1
  Ir  Ir32  1  0.25000000  0.75000000  0.87802500  1
  Ir  Ir33  1  0.50000000  0.00000000  0.62802500  1
  Ir  Ir34  1  0.00000000  0.00000000  0.87197500  1
  Ir  Ir35  1  0.25000000  0.75000000  0.62197500  1
  Ir  Ir36  1  0.25000000  0.25000000  0.37802500  1
  Ir  Ir37  1  0.50000000  0.50000000  0.12802500  1
  Ir  Ir38  1  0.00000000  0.50000000  0.37197500  1
  Ir  Ir39  1  0.25000000  0.25000000  0.12197500  1
