# generated using pymatgen
data_ZnCu2GeTe4
_symmetry_space_group_name_H-M   'P 1'
_cell_length_a   6.09324600
_cell_length_b   6.09324600
_cell_length_c   12.06724600
_cell_angle_alpha   90.00000000
_cell_angle_beta   90.00000000
_cell_angle_gamma   90.00000000
_symmetry_Int_Tables_number   1
_chemical_formula_structural   ZnCu2GeTe4
_chemical_formula_sum   'Zn2 Cu4 Ge2 Te8'
_cell_volume   448.02844754
_cell_formula_units_Z   2
loop_
 _symmetry_equiv_pos_site_id
 _symmetry_equiv_pos_as_xyz
  1  'x, y, z'
loop_
 _atom_site_type_symbol
 _atom_site_label
 _atom_site_symmetry_multiplicity
 _atom_site_fract_x
 _atom_site_fract_y
 _atom_site_fract_z
 _atom_site_occupancy
  Zn  Zn0  1  0.00000000  0.00000000  0.00000000  1
  Zn  Zn1  1  0.50000000  0.50000000  0.50000000  1
  Cu  Cu2  1  0.00000000  0.50000000  0.25000000  1
  Cu  Cu3  1  0.50000000  0.00000000  0.25000000  1
  Cu  Cu4  1  0.50000000  0.00000000  0.75000000  1
  Cu  Cu5  1  0.00000000  0.50000000  0.75000000  1
  Ge  Ge6  1  0.50000000  0.50000000  0.00000000  1
  Ge  Ge7  1  0.00000000  0.00000000  0.50000000  1
  Te  Te8  1  0.25125500  0.25125500  0.13323000  1
  Te  Te9  1  0.75125500  0.24874500  0.36677000  1
  Te  Te10  1  0.24874500  0.75125500  0.36677000  1
  Te  Te11  1  0.74874500  0.74874500  0.13323000  1
  Te  Te12  1  0.75125500  0.75125500  0.63323000  1
  Te  Te13  1  0.25125500  0.74874500  0.86677000  1
  Te  Te14  1  0.74874500  0.25125500  0.86677000  1
  Te  Te15  1  0.24874500  0.24874500  0.63323000  1
