# generated using pymatgen
data_Al12Tc
_symmetry_space_group_name_H-M   'P 1'
_cell_length_a   7.53260400
_cell_length_b   7.53260400
_cell_length_c   7.53260400
_cell_angle_alpha   90.00000000
_cell_angle_beta   90.00000000
_cell_angle_gamma   90.00000000
_symmetry_Int_Tables_number   1
_chemical_formula_structural   Al12Tc
_chemical_formula_sum   'Al24 Tc2'
_cell_volume   427.40087763
_cell_formula_units_Z   2
loop_
 _symmetry_equiv_pos_site_id
 _symmetry_equiv_pos_as_xyz
  1  'x, y, z'
loop_
 _atom_site_type_symbol
 _atom_site_label
 _atom_site_symmetry_multiplicity
 _atom_site_fract_x
 _atom_site_fract_y
 _atom_site_fract_z
 _atom_site_occupancy
  Al  Al0  1  0.18752400  0.30802300  0.00000000  1
  Al  Al1  1  0.80802300  0.50000000  0.31247600  1
  Al  Al2  1  0.00000000  0.18752400  0.69197700  1
  Al  Al3  1  0.19197700  0.50000000  0.31247600  1
  Al  Al4  1  0.50000000  0.31247600  0.80802300  1
  Al  Al5  1  0.69197700  0.00000000  0.18752400  1
  Al  Al6  1  0.50000000  0.31247600  0.19197700  1
  Al  Al7  1  0.00000000  0.18752400  0.30802300  1
  Al  Al8  1  0.30802300  0.00000000  0.18752400  1
  Al  Al9  1  0.31247600  0.80802300  0.50000000  1
  Al  Al10  1  0.18752400  0.69197700  0.00000000  1
  Al  Al11  1  0.31247600  0.19197700  0.50000000  1
  Al  Al12  1  0.68752400  0.80802300  0.50000000  1
  Al  Al13  1  0.30802300  0.00000000  0.81247600  1
  Al  Al14  1  0.50000000  0.68752400  0.19197700  1
  Al  Al15  1  0.69197700  0.00000000  0.81247600  1
  Al  Al16  1  0.00000000  0.81247600  0.30802300  1
  Al  Al17  1  0.19197700  0.50000000  0.68752400  1
  Al  Al18  1  0.00000000  0.81247600  0.69197700  1
  Al  Al19  1  0.50000000  0.68752400  0.80802300  1
  Al  Al20  1  0.80802300  0.50000000  0.68752400  1
  Al  Al21  1  0.81247600  0.30802300  0.00000000  1
  Al  Al22  1  0.68752400  0.19197700  0.50000000  1
  Al  Al23  1  0.81247600  0.69197700  0.00000000  1
  Tc  Tc24  1  0.00000000  0.00000000  0.00000000  1
  Tc  Tc25  1  0.50000000  0.50000000  0.50000000  1
