# generated using pymatgen
data_CoPtO2
_symmetry_space_group_name_H-M   'P 1'
_cell_length_a   2.88474896
_cell_length_b   2.88474896
_cell_length_c   18.20328899
_cell_angle_alpha   90.00000000
_cell_angle_beta   90.00000000
_cell_angle_gamma   120.00000000
_symmetry_Int_Tables_number   1
_chemical_formula_structural   CoPtO2
_chemical_formula_sum   'Co3 Pt3 O6'
_cell_volume   131.18873552
_cell_formula_units_Z   3
loop_
 _symmetry_equiv_pos_site_id
 _symmetry_equiv_pos_as_xyz
  1  'x, y, z'
loop_
 _atom_site_type_symbol
 _atom_site_label
 _atom_site_symmetry_multiplicity
 _atom_site_fract_x
 _atom_site_fract_y
 _atom_site_fract_z
 _atom_site_occupancy
  Co  Co0  1  0.33333333  0.66666667  0.16666667  1
  Co  Co1  1  1.00000000  1.00000000  0.50000000  1
  Co  Co2  1  0.66666667  0.33333333  0.83333333  1
  Pt  Pt3  1  0.66666667  0.33333333  0.33333333  1
  Pt  Pt4  1  0.33333333  0.66666667  0.66666667  1
  Pt  Pt5  1  1.00000000  1.00000000  0.00000000  1
  O  O6  1  0.66666667  0.33333333  0.22324575  1
  O  O7  1  0.00000000  0.00000000  0.11008758  1
  O  O8  1  0.33333333  0.66666667  0.55657908  1
  O  O9  1  0.66666667  0.33333333  0.44342092  1
  O  O10  1  0.00000000  0.00000000  0.88991242  1
  O  O11  1  0.33333333  0.66666667  0.77675425  1
