# generated using pymatgen
data_Ba(Cu2As)2
_symmetry_space_group_name_H-M   'P 1'
_cell_length_a   4.22776410
_cell_length_b   4.22776410
_cell_length_c   24.75252924
_cell_angle_alpha   90.00000000
_cell_angle_beta   90.00000000
_cell_angle_gamma   120.00000000
_symmetry_Int_Tables_number   1
_chemical_formula_structural   Ba(Cu2As)2
_chemical_formula_sum   'Ba3 Cu12 As6'
_cell_volume   383.15253812
_cell_formula_units_Z   3
loop_
 _symmetry_equiv_pos_site_id
 _symmetry_equiv_pos_as_xyz
  1  'x, y, z'
loop_
 _atom_site_type_symbol
 _atom_site_label
 _atom_site_symmetry_multiplicity
 _atom_site_fract_x
 _atom_site_fract_y
 _atom_site_fract_z
 _atom_site_occupancy
  Ba  Ba0  1  0.00000000  0.00000000  0.00000000  1
  Ba  Ba1  1  0.66666667  0.33333333  0.33333333  1
  Ba  Ba2  1  0.33333333  0.66666667  0.66666667  1
  Cu  Cu3  1  0.33333333  0.66666667  0.22324967  1
  Cu  Cu4  1  0.66666667  0.33333333  0.18890233  1
  Cu  Cu5  1  0.33333333  0.66666667  0.11008367  1
  Cu  Cu6  1  0.00000000  0.00000000  0.14443100  1
  Cu  Cu7  1  0.00000000  0.00000000  0.55658300  1
  Cu  Cu8  1  0.33333333  0.66666667  0.52223567  1
  Cu  Cu9  1  0.00000000  0.00000000  0.44341700  1
  Cu  Cu10  1  0.66666667  0.33333333  0.47776433  1
  Cu  Cu11  1  0.66666667  0.33333333  0.88991633  1
  Cu  Cu12  1  0.00000000  0.00000000  0.85556900  1
  Cu  Cu13  1  0.66666667  0.33333333  0.77675033  1
  Cu  Cu14  1  0.33333333  0.66666667  0.81109767  1
  As  As15  1  0.66666667  0.33333333  0.08968933  1
  As  As16  1  0.00000000  0.00000000  0.24364400  1
  As  As17  1  0.33333333  0.66666667  0.42302267  1
  As  As18  1  0.66666667  0.33333333  0.57697733  1
  As  As19  1  0.00000000  0.00000000  0.75635600  1
  As  As20  1  0.33333333  0.66666667  0.91031067  1
