# generated using pymatgen
data_Sc2Si2Ru
_symmetry_space_group_name_H-M   'P 1'
_cell_length_a   10.10743400
_cell_length_b   4.09608200
_cell_length_c   9.50187124
_cell_angle_alpha   90.00000000
_cell_angle_beta   118.01030363
_cell_angle_gamma   90.00000000
_symmetry_Int_Tables_number   1
_chemical_formula_structural   Sc2Si2Ru
_chemical_formula_sum   'Sc8 Si8 Ru4'
_cell_volume   347.30584218
_cell_formula_units_Z   4
loop_
 _symmetry_equiv_pos_site_id
 _symmetry_equiv_pos_as_xyz
  1  'x, y, z'
loop_
 _atom_site_type_symbol
 _atom_site_label
 _atom_site_symmetry_multiplicity
 _atom_site_fract_x
 _atom_site_fract_y
 _atom_site_fract_z
 _atom_site_occupancy
  Sc  Sc0  1  0.18171800  0.00000000  0.10758100  1
  Sc  Sc1  1  0.49527000  0.50000000  0.32313500  1
  Sc  Sc2  1  0.81828200  0.00000000  0.89241900  1
  Sc  Sc3  1  0.50473000  0.50000000  0.67686500  1
  Sc  Sc4  1  0.68171800  0.50000000  0.10758100  1
  Sc  Sc5  1  0.99527000  0.00000000  0.32313500  1
  Sc  Sc6  1  0.31828200  0.50000000  0.89241900  1
  Sc  Sc7  1  0.00473000  0.00000000  0.67686500  1
  Si  Si8  1  0.51182000  0.00000000  0.87813200  1
  Si  Si9  1  0.63909400  0.00000000  0.56462800  1
  Si  Si10  1  0.48818000  0.00000000  0.12186800  1
  Si  Si11  1  0.36090600  0.00000000  0.43537200  1
  Si  Si12  1  0.01182000  0.50000000  0.87813200  1
  Si  Si13  1  0.13909400  0.50000000  0.56462800  1
  Si  Si14  1  0.98818000  0.50000000  0.12186800  1
  Si  Si15  1  0.86090600  0.50000000  0.43537200  1
  Ru  Ru16  1  0.76962200  0.50000000  0.62959800  1
  Ru  Ru17  1  0.23037800  0.50000000  0.37040200  1
  Ru  Ru18  1  0.26962200  0.00000000  0.62959800  1
  Ru  Ru19  1  0.73037800  0.00000000  0.37040200  1
