# generated using pymatgen
data_Nd(PdO2)2
_symmetry_space_group_name_H-M   'P 1'
_cell_length_a   5.94106000
_cell_length_b   5.94106000
_cell_length_c   10.27524800
_cell_angle_alpha   90.00000000
_cell_angle_beta   90.00000000
_cell_angle_gamma   90.00000000
_symmetry_Int_Tables_number   1
_chemical_formula_structural   Nd(PdO2)2
_chemical_formula_sum   'Nd4 Pd8 O16'
_cell_volume   362.67714602
_cell_formula_units_Z   4
loop_
 _symmetry_equiv_pos_site_id
 _symmetry_equiv_pos_as_xyz
  1  'x, y, z'
loop_
 _atom_site_type_symbol
 _atom_site_label
 _atom_site_symmetry_multiplicity
 _atom_site_fract_x
 _atom_site_fract_y
 _atom_site_fract_z
 _atom_site_occupancy
  Nd  Nd0  1  0.50000000  0.50000000  0.00000000  1
  Nd  Nd1  1  0.50000000  0.00000000  0.25000000  1
  Nd  Nd2  1  0.00000000  0.00000000  0.50000000  1
  Nd  Nd3  1  0.00000000  0.50000000  0.75000000  1
  Pd  Pd4  1  0.00000000  0.75000000  0.12500000  1
  Pd  Pd5  1  0.25000000  0.50000000  0.37500000  1
  Pd  Pd6  1  0.75000000  0.50000000  0.37500000  1
  Pd  Pd7  1  0.00000000  0.25000000  0.12500000  1
  Pd  Pd8  1  0.50000000  0.25000000  0.62500000  1
  Pd  Pd9  1  0.75000000  0.00000000  0.87500000  1
  Pd  Pd10  1  0.25000000  0.00000000  0.87500000  1
  Pd  Pd11  1  0.50000000  0.75000000  0.62500000  1
  O  O12  1  0.15214800  0.19917800  0.30091700  1
  O  O13  1  0.30082200  0.15214800  0.05091700  1
  O  O14  1  0.69917800  0.84785200  0.05091700  1
  O  O15  1  0.84785200  0.80082200  0.30091700  1
  O  O16  1  0.34785200  0.80082200  0.44908300  1
  O  O17  1  0.69917800  0.34785200  0.19908300  1
  O  O18  1  0.65214800  0.19917800  0.44908300  1
  O  O19  1  0.30082200  0.65214800  0.19908300  1
  O  O20  1  0.65214800  0.69917800  0.80091700  1
  O  O21  1  0.80082200  0.65214800  0.55091700  1
  O  O22  1  0.19917800  0.34785200  0.55091700  1
  O  O23  1  0.34785200  0.30082200  0.80091700  1
  O  O24  1  0.84785200  0.30082200  0.94908300  1
  O  O25  1  0.19917800  0.84785200  0.69908300  1
  O  O26  1  0.15214800  0.69917800  0.94908300  1
  O  O27  1  0.80082200  0.15214800  0.69908300  1
