# generated using pymatgen
data_Ho2AlSi2
_symmetry_space_group_name_H-M   'P 1'
_cell_length_a   4.04682600
_cell_length_b   5.81019000
_cell_length_c   8.62838800
_cell_angle_alpha   90.00000000
_cell_angle_beta   90.00000000
_cell_angle_gamma   90.00000000
_symmetry_Int_Tables_number   1
_chemical_formula_structural   Ho2AlSi2
_chemical_formula_sum   'Ho4 Al2 Si4'
_cell_volume   202.87780259
_cell_formula_units_Z   2
loop_
 _symmetry_equiv_pos_site_id
 _symmetry_equiv_pos_as_xyz
  1  'x, y, z'
loop_
 _atom_site_type_symbol
 _atom_site_label
 _atom_site_symmetry_multiplicity
 _atom_site_fract_x
 _atom_site_fract_y
 _atom_site_fract_z
 _atom_site_occupancy
  Ho  Ho0  1  0.00000000  0.50000000  0.21112300  1
  Ho  Ho1  1  0.00000000  0.50000000  0.78887700  1
  Ho  Ho2  1  0.50000000  0.00000000  0.71112300  1
  Ho  Ho3  1  0.50000000  0.00000000  0.28887700  1
  Al  Al4  1  0.00000000  0.00000000  0.00000000  1
  Al  Al5  1  0.50000000  0.50000000  0.50000000  1
  Si  Si6  1  0.50000000  0.28912500  0.00000000  1
  Si  Si7  1  0.50000000  0.71087500  0.00000000  1
  Si  Si8  1  0.00000000  0.78912500  0.50000000  1
  Si  Si9  1  0.00000000  0.21087500  0.50000000  1
