# generated using pymatgen
data_K2Mn2O3
_symmetry_space_group_name_H-M   'P 1'
_cell_length_a   6.09678349
_cell_length_b   6.53983000
_cell_length_c   6.48296128
_cell_angle_alpha   90.00000000
_cell_angle_beta   114.57481581
_cell_angle_gamma   90.00000000
_symmetry_Int_Tables_number   1
_chemical_formula_structural   K2Mn2O3
_chemical_formula_sum   'K4 Mn4 O6'
_cell_volume   235.07404563
_cell_formula_units_Z   2
loop_
 _symmetry_equiv_pos_site_id
 _symmetry_equiv_pos_as_xyz
  1  'x, y, z'
loop_
 _atom_site_type_symbol
 _atom_site_label
 _atom_site_symmetry_multiplicity
 _atom_site_fract_x
 _atom_site_fract_y
 _atom_site_fract_z
 _atom_site_occupancy
  K  K0  1  0.18339700  0.36170300  0.42768650  1
  K  K1  1  0.18339700  0.13829700  0.92768650  1
  K  K2  1  0.81660300  0.63829700  0.57231350  1
  K  K3  1  0.81660300  0.86170300  0.07231350  1
  Mn  Mn4  1  0.66558700  0.38708400  0.93041750  1
  Mn  Mn5  1  0.33441300  0.88708400  0.56958250  1
  Mn  Mn6  1  0.66558700  0.11291600  0.43041750  1
  Mn  Mn7  1  0.33441300  0.61291600  0.06958250  1
  O  O8  1  0.00000000  0.50000000  0.00000000  1
  O  O9  1  0.00000000  0.00000000  0.50000000  1
  O  O10  1  0.41132200  0.63204600  0.78140550  1
  O  O11  1  0.58867800  0.13204600  0.71859450  1
  O  O12  1  0.58867800  0.36795400  0.21859450  1
  O  O13  1  0.41132200  0.86795400  0.28140550  1
