# generated using pymatgen
data_BMo
_symmetry_space_group_name_H-M   'P 1'
_cell_length_a   3.13188000
_cell_length_b   3.13188000
_cell_length_c   17.05669200
_cell_angle_alpha   90.00000000
_cell_angle_beta   90.00000000
_cell_angle_gamma   90.00000000
_symmetry_Int_Tables_number   1
_chemical_formula_structural   BMo
_chemical_formula_sum   'B8 Mo8'
_cell_volume   167.30350294
_cell_formula_units_Z   8
loop_
 _symmetry_equiv_pos_site_id
 _symmetry_equiv_pos_as_xyz
  1  'x, y, z'
loop_
 _atom_site_type_symbol
 _atom_site_label
 _atom_site_symmetry_multiplicity
 _atom_site_fract_x
 _atom_site_fract_y
 _atom_site_fract_z
 _atom_site_occupancy
  B  B0  1  0.00000000  0.50000000  0.09475500  1
  B  B1  1  0.50000000  0.50000000  0.34475500  1
  B  B2  1  0.00000000  0.00000000  0.15524500  1
  B  B3  1  0.00000000  0.50000000  0.40524500  1
  B  B4  1  0.50000000  0.00000000  0.59475500  1
  B  B5  1  0.00000000  0.00000000  0.84475500  1
  B  B6  1  0.50000000  0.50000000  0.65524500  1
  B  B7  1  0.50000000  0.00000000  0.90524500  1
  Mo  Mo8  1  0.50000000  0.00000000  0.44701800  1
  Mo  Mo9  1  0.50000000  0.50000000  0.19701800  1
  Mo  Mo10  1  0.00000000  0.00000000  0.30298200  1
  Mo  Mo11  1  0.50000000  0.00000000  0.05298200  1
  Mo  Mo12  1  0.00000000  0.50000000  0.94701800  1
  Mo  Mo13  1  0.00000000  0.00000000  0.69701800  1
  Mo  Mo14  1  0.50000000  0.50000000  0.80298200  1
  Mo  Mo15  1  0.00000000  0.50000000  0.55298200  1
