# generated using pymatgen
data_ZrS
_symmetry_space_group_name_H-M   'P 1'
_cell_length_a   5.24701600
_cell_length_b   5.24701600
_cell_length_c   5.24701600
_cell_angle_alpha   90.00000000
_cell_angle_beta   90.00000000
_cell_angle_gamma   90.00000000
_symmetry_Int_Tables_number   1
_chemical_formula_structural   ZrS
_chemical_formula_sum   'Zr4 S4'
_cell_volume   144.45652572
_cell_formula_units_Z   4
loop_
 _symmetry_equiv_pos_site_id
 _symmetry_equiv_pos_as_xyz
  1  'x, y, z'
loop_
 _atom_site_type_symbol
 _atom_site_label
 _atom_site_symmetry_multiplicity
 _atom_site_fract_x
 _atom_site_fract_y
 _atom_site_fract_z
 _atom_site_occupancy
  Zr  Zr0  1  0.00000000  0.00000000  0.00000000  1
  Zr  Zr1  1  0.00000000  0.50000000  0.50000000  1
  Zr  Zr2  1  0.50000000  0.00000000  0.50000000  1
  Zr  Zr3  1  0.50000000  0.50000000  0.00000000  1
  S  S4  1  0.50000000  0.00000000  0.00000000  1
  S  S5  1  0.50000000  0.50000000  0.50000000  1
  S  S6  1  0.00000000  0.00000000  0.50000000  1
  S  S7  1  0.00000000  0.50000000  0.00000000  1
