# generated using pymatgen
data_Mg2SiNi3
_symmetry_space_group_name_H-M   'P 1'
_cell_length_a   5.00208403
_cell_length_b   5.00208403
_cell_length_c   11.00901049
_cell_angle_alpha   90.00000000
_cell_angle_beta   90.00000000
_cell_angle_gamma   120.00000000
_symmetry_Int_Tables_number   1
_chemical_formula_structural   Mg2SiNi3
_chemical_formula_sum   'Mg6 Si3 Ni9'
_cell_volume   238.55080305
_cell_formula_units_Z   3
loop_
 _symmetry_equiv_pos_site_id
 _symmetry_equiv_pos_as_xyz
  1  'x, y, z'
loop_
 _atom_site_type_symbol
 _atom_site_label
 _atom_site_symmetry_multiplicity
 _atom_site_fract_x
 _atom_site_fract_y
 _atom_site_fract_z
 _atom_site_occupancy
  Mg  Mg0  1  0.33333333  0.66666667  0.79195267  1
  Mg  Mg1  1  0.33333333  0.66666667  0.54138067  1
  Mg  Mg2  1  0.00000000  0.00000000  0.12528600  1
  Mg  Mg3  1  0.00000000  0.00000000  0.87471400  1
  Mg  Mg4  1  0.66666667  0.33333333  0.45861933  1
  Mg  Mg5  1  0.66666667  0.33333333  0.20804733  1
  Si  Si6  1  0.33333333  0.66666667  0.16666667  1
  Si  Si7  1  1.00000000  1.00000000  0.50000000  1
  Si  Si8  1  0.66666667  0.33333333  0.83333333  1
  Ni  Ni9  1  0.16666667  0.33333333  0.33333333  1
  Ni  Ni10  1  0.00000000  0.50000000  0.00000000  1
  Ni  Ni11  1  0.50000000  0.50000000  0.00000000  1
  Ni  Ni12  1  0.83333333  0.66666667  0.66666667  1
  Ni  Ni13  1  0.66666667  0.83333333  0.33333333  1
  Ni  Ni14  1  0.16666667  0.83333333  0.33333333  1
  Ni  Ni15  1  0.50000000  0.00000000  0.00000000  1
  Ni  Ni16  1  0.33333333  0.16666667  0.66666667  1
  Ni  Ni17  1  0.83333333  0.16666667  0.66666667  1
