# generated using pymatgen
data_Al21Pd8
_symmetry_space_group_name_H-M   'P 1'
_cell_length_a   13.07950200
_cell_length_b   13.07950200
_cell_length_c   10.77581600
_cell_angle_alpha   90.00000000
_cell_angle_beta   90.00000000
_cell_angle_gamma   90.00000000
_symmetry_Int_Tables_number   1
_chemical_formula_structural   Al21Pd8
_chemical_formula_sum   'Al84 Pd32'
_cell_volume   1843.45518529
_cell_formula_units_Z   4
loop_
 _symmetry_equiv_pos_site_id
 _symmetry_equiv_pos_as_xyz
  1  'x, y, z'
loop_
 _atom_site_type_symbol
 _atom_site_label
 _atom_site_symmetry_multiplicity
 _atom_site_fract_x
 _atom_site_fract_y
 _atom_site_fract_z
 _atom_site_occupancy
  Al  Al0  1  0.50000000  0.00000000  0.25000000  1
  Al  Al1  1  0.50000000  0.50000000  0.50000000  1
  Al  Al2  1  0.58935600  0.94626700  0.85034500  1
  Al  Al3  1  0.94626700  0.91064400  0.60034500  1
  Al  Al4  1  0.05373300  0.08935600  0.60034500  1
  Al  Al5  1  0.91064400  0.55373300  0.35034500  1
  Al  Al6  1  0.91064400  0.05373300  0.39965500  1
  Al  Al7  1  0.55373300  0.08935600  0.64965500  1
  Al  Al8  1  0.94626700  0.41064400  0.14965500  1
  Al  Al9  1  0.08935600  0.94626700  0.39965500  1
  Al  Al10  1  0.58672550  0.25210950  0.80148450  1
  Al  Al11  1  0.75210950  0.41327450  0.05148450  1
  Al  Al12  1  0.74789050  0.08672550  0.55148450  1
  Al  Al13  1  0.91327450  0.24789050  0.30148450  1
  Al  Al14  1  0.41327450  0.24789050  0.94851550  1
  Al  Al15  1  0.74789050  0.58672550  0.19851550  1
  Al  Al16  1  0.75210950  0.91327450  0.69851550  1
  Al  Al17  1  0.08672550  0.25210950  0.44851550  1
  Al  Al18  1  0.78960150  0.28260950  0.72518350  1
  Al  Al19  1  0.28260950  0.71039850  0.47518350  1
  Al  Al20  1  0.71739050  0.28960150  0.47518350  1
  Al  Al21  1  0.71039850  0.21739050  0.22518350  1
  Al  Al22  1  0.71039850  0.71739050  0.52481650  1
  Al  Al23  1  0.21739050  0.28960150  0.77481650  1
  Al  Al24  1  0.28260950  0.21039850  0.27481650  1
  Al  Al25  1  0.28960150  0.28260950  0.52481650  1
  Al  Al26  1  0.00905550  0.28221850  0.72976750  1
  Al  Al27  1  0.28221850  0.49094450  0.47976750  1
  Al  Al28  1  0.71778150  0.50905550  0.47976750  1
  Al  Al29  1  0.99094450  0.71778150  0.72976750  1
  Al  Al30  1  0.49094450  0.71778150  0.52023250  1
  Al  Al31  1  0.71778150  0.00905550  0.27023250  1
  Al  Al32  1  0.28221850  0.99094450  0.27023250  1
  Al  Al33  1  0.50905550  0.28221850  0.52023250  1
  Al  Al34  1  0.92771600  0.40649400  0.52323600  1
  Al  Al35  1  0.90649400  0.07228400  0.77323600  1
  Al  Al36  1  0.59350600  0.42771600  0.27323600  1
  Al  Al37  1  0.57228400  0.09350600  0.02323600  1
  Al  Al38  1  0.07228400  0.09350600  0.22676400  1
  Al  Al39  1  0.59350600  0.92771600  0.47676400  1
  Al  Al40  1  0.90649400  0.57228400  0.97676400  1
  Al  Al41  1  0.42771600  0.40649400  0.72676400  1
  Al  Al42  1  0.00000000  0.50000000  0.75000000  1
  Al  Al43  1  0.00000000  0.00000000  0.00000000  1
  Al  Al44  1  0.08935600  0.44626700  0.35034500  1
  Al  Al45  1  0.44626700  0.41064400  0.10034500  1
  Al  Al46  1  0.55373300  0.58935600  0.10034500  1
  Al  Al47  1  0.41064400  0.05373300  0.85034500  1
  Al  Al48  1  0.41064400  0.55373300  0.89965500  1
  Al  Al49  1  0.05373300  0.58935600  0.14965500  1
  Al  Al50  1  0.44626700  0.91064400  0.64965500  1
  Al  Al51  1  0.58935600  0.44626700  0.89965500  1
  Al  Al52  1  0.08672550  0.75210950  0.30148450  1
  Al  Al53  1  0.25210950  0.91327450  0.55148450  1
  Al  Al54  1  0.24789050  0.58672550  0.05148450  1
  Al  Al55  1  0.41327450  0.74789050  0.80148450  1
  Al  Al56  1  0.91327450  0.74789050  0.44851550  1
  Al  Al57  1  0.24789050  0.08672550  0.69851550  1
  Al  Al58  1  0.25210950  0.41327450  0.19851550  1
  Al  Al59  1  0.58672550  0.75210950  0.94851550  1
  Al  Al60  1  0.28960150  0.78260950  0.22518350  1
  Al  Al61  1  0.78260950  0.21039850  0.97518350  1
  Al  Al62  1  0.21739050  0.78960150  0.97518350  1
  Al  Al63  1  0.21039850  0.71739050  0.72518350  1
  Al  Al64  1  0.21039850  0.21739050  0.02481650  1
  Al  Al65  1  0.71739050  0.78960150  0.27481650  1
  Al  Al66  1  0.78260950  0.71039850  0.77481650  1
  Al  Al67  1  0.78960150  0.78260950  0.02481650  1
  Al  Al68  1  0.50905550  0.78221850  0.22976750  1
  Al  Al69  1  0.78221850  0.99094450  0.97976750  1
  Al  Al70  1  0.21778150  0.00905550  0.97976750  1
  Al  Al71  1  0.49094450  0.21778150  0.22976750  1
  Al  Al72  1  0.99094450  0.21778150  0.02023250  1
  Al  Al73  1  0.21778150  0.50905550  0.77023250  1
  Al  Al74  1  0.78221850  0.49094450  0.77023250  1
  Al  Al75  1  0.00905550  0.78221850  0.02023250  1
  Al  Al76  1  0.42771600  0.90649400  0.02323600  1
  Al  Al77  1  0.40649400  0.57228400  0.27323600  1
  Al  Al78  1  0.09350600  0.92771600  0.77323600  1
  Al  Al79  1  0.07228400  0.59350600  0.52323600  1
  Al  Al80  1  0.57228400  0.59350600  0.72676400  1
  Al  Al81  1  0.09350600  0.42771600  0.97676400  1
  Al  Al82  1  0.40649400  0.07228400  0.47676400  1
  Al  Al83  1  0.92771600  0.90649400  0.22676400  1
  Pd  Pd84  1  0.63050650  0.40699250  0.65533050  1
  Pd  Pd85  1  0.90699250  0.36949350  0.90533050  1
  Pd  Pd86  1  0.59300750  0.13050650  0.40533050  1
  Pd  Pd87  1  0.36949350  0.59300750  0.65533050  1
  Pd  Pd88  1  0.86949350  0.59300750  0.59466950  1
  Pd  Pd89  1  0.59300750  0.63050650  0.34466950  1
  Pd  Pd90  1  0.40699250  0.36949350  0.34466950  1
  Pd  Pd91  1  0.63050650  0.90699250  0.09466950  1
  Pd  Pd92  1  0.78598700  0.90005300  0.45703200  1
  Pd  Pd93  1  0.40005300  0.21401300  0.70703200  1
  Pd  Pd94  1  0.09994700  0.28598700  0.20703200  1
  Pd  Pd95  1  0.21401300  0.09994700  0.45703200  1
  Pd  Pd96  1  0.71401300  0.09994700  0.79296800  1
  Pd  Pd97  1  0.09994700  0.78598700  0.54296800  1
  Pd  Pd98  1  0.90005300  0.21401300  0.54296800  1
  Pd  Pd99  1  0.78598700  0.40005300  0.29296800  1
  Pd  Pd100  1  0.13050650  0.90699250  0.15533050  1
  Pd  Pd101  1  0.40699250  0.86949350  0.40533050  1
  Pd  Pd102  1  0.09300750  0.63050650  0.90533050  1
  Pd  Pd103  1  0.86949350  0.09300750  0.15533050  1
  Pd  Pd104  1  0.36949350  0.09300750  0.09466950  1
  Pd  Pd105  1  0.09300750  0.13050650  0.84466950  1
  Pd  Pd106  1  0.90699250  0.86949350  0.84466950  1
  Pd  Pd107  1  0.13050650  0.40699250  0.59466950  1
  Pd  Pd108  1  0.28598700  0.40005300  0.95703200  1
  Pd  Pd109  1  0.90005300  0.71401300  0.20703200  1
  Pd  Pd110  1  0.59994700  0.78598700  0.70703200  1
  Pd  Pd111  1  0.71401300  0.59994700  0.95703200  1
  Pd  Pd112  1  0.21401300  0.59994700  0.29296800  1
  Pd  Pd113  1  0.59994700  0.28598700  0.04296800  1
  Pd  Pd114  1  0.40005300  0.71401300  0.04296800  1
  Pd  Pd115  1  0.28598700  0.90005300  0.79296800  1
