# generated using pymatgen
data_YbAl2Ni
_symmetry_space_group_name_H-M   'P 1'
_cell_length_a   4.10186000
_cell_length_b   9.81178000
_cell_length_c   7.13615700
_cell_angle_alpha   90.00000000
_cell_angle_beta   90.00000000
_cell_angle_gamma   90.00000000
_symmetry_Int_Tables_number   1
_chemical_formula_structural   YbAl2Ni
_chemical_formula_sum   'Yb4 Al8 Ni4'
_cell_volume   287.20568460
_cell_formula_units_Z   4
loop_
 _symmetry_equiv_pos_site_id
 _symmetry_equiv_pos_as_xyz
  1  'x, y, z'
loop_
 _atom_site_type_symbol
 _atom_site_label
 _atom_site_symmetry_multiplicity
 _atom_site_fract_x
 _atom_site_fract_y
 _atom_site_fract_z
 _atom_site_occupancy
  Yb  Yb0  1  0.50000000  0.05351400  0.75000000  1
  Yb  Yb1  1  0.00000000  0.44648600  0.25000000  1
  Yb  Yb2  1  0.00000000  0.55351400  0.75000000  1
  Yb  Yb3  1  0.50000000  0.94648600  0.25000000  1
  Al  Al4  1  0.00000000  0.16314400  0.44300400  1
  Al  Al5  1  0.50000000  0.33685600  0.55699600  1
  Al  Al6  1  0.50000000  0.33685600  0.94300400  1
  Al  Al7  1  0.00000000  0.16314400  0.05699600  1
  Al  Al8  1  0.50000000  0.66314400  0.44300400  1
  Al  Al9  1  0.00000000  0.83685600  0.55699600  1
  Al  Al10  1  0.00000000  0.83685600  0.94300400  1
  Al  Al11  1  0.50000000  0.66314400  0.05699600  1
  Ni  Ni12  1  0.00000000  0.28004700  0.75000000  1
  Ni  Ni13  1  0.50000000  0.21995300  0.25000000  1
  Ni  Ni14  1  0.50000000  0.78004700  0.75000000  1
  Ni  Ni15  1  0.00000000  0.71995300  0.25000000  1
