# generated using pymatgen
data_V3Te4
_symmetry_space_group_name_H-M   'P 1'
_cell_length_a   14.03343600
_cell_length_b   3.96052800
_cell_length_c   6.87439239
_cell_angle_alpha   90.00000000
_cell_angle_beta   117.53832355
_cell_angle_gamma   90.00000000
_symmetry_Int_Tables_number   1
_chemical_formula_structural   V3Te4
_chemical_formula_sum   'V6 Te8'
_cell_volume   338.78877061
_cell_formula_units_Z   2
loop_
 _symmetry_equiv_pos_site_id
 _symmetry_equiv_pos_as_xyz
  1  'x, y, z'
loop_
 _atom_site_type_symbol
 _atom_site_label
 _atom_site_symmetry_multiplicity
 _atom_site_fract_x
 _atom_site_fract_y
 _atom_site_fract_z
 _atom_site_occupancy
  V  V0  1  0.25578600  0.00000000  0.29361200  1
  V  V1  1  0.24421400  0.50000000  0.70638800  1
  V  V2  1  0.00000000  0.00000000  0.00000000  1
  V  V3  1  0.75578600  0.50000000  0.29361200  1
  V  V4  1  0.74421400  0.00000000  0.70638800  1
  V  V5  1  0.50000000  0.50000000  0.00000000  1
  Te  Te6  1  0.13669400  0.50000000  0.97630700  1
  Te  Te7  1  0.36330600  0.00000000  0.02369300  1
  Te  Te8  1  0.11116700  0.00000000  0.45254000  1
  Te  Te9  1  0.38883300  0.50000000  0.54746000  1
  Te  Te10  1  0.63669400  0.00000000  0.97630700  1
  Te  Te11  1  0.86330600  0.50000000  0.02369300  1
  Te  Te12  1  0.61116700  0.50000000  0.45254000  1
  Te  Te13  1  0.88883300  0.00000000  0.54746000  1
