# generated using pymatgen
data_LuSi
_symmetry_space_group_name_H-M   'P 1'
_cell_length_a   4.16623000
_cell_length_b   10.30554400
_cell_length_c   3.76766100
_cell_angle_alpha   90.00000000
_cell_angle_beta   90.00000000
_cell_angle_gamma   90.00000000
_symmetry_Int_Tables_number   1
_chemical_formula_structural   LuSi
_chemical_formula_sum   'Lu4 Si4'
_cell_volume   161.76552941
_cell_formula_units_Z   4
loop_
 _symmetry_equiv_pos_site_id
 _symmetry_equiv_pos_as_xyz
  1  'x, y, z'
loop_
 _atom_site_type_symbol
 _atom_site_label
 _atom_site_symmetry_multiplicity
 _atom_site_fract_x
 _atom_site_fract_y
 _atom_site_fract_z
 _atom_site_occupancy
  Lu  Lu0  1  0.00000000  0.14071300  0.25000000  1
  Lu  Lu1  1  0.50000000  0.35928700  0.75000000  1
  Lu  Lu2  1  0.50000000  0.64071300  0.25000000  1
  Lu  Lu3  1  0.00000000  0.85928700  0.75000000  1
  Si  Si4  1  0.00000000  0.42162200  0.25000000  1
  Si  Si5  1  0.50000000  0.07837800  0.75000000  1
  Si  Si6  1  0.50000000  0.92162200  0.25000000  1
  Si  Si7  1  0.00000000  0.57837800  0.75000000  1
