# generated using pymatgen
data_Zr2Al3
_symmetry_space_group_name_H-M   'P 1'
_cell_length_a   5.59277800
_cell_length_b   9.63495200
_cell_length_c   13.96179000
_cell_angle_alpha   90.00000000
_cell_angle_beta   90.00000000
_cell_angle_gamma   90.00000000
_symmetry_Int_Tables_number   1
_chemical_formula_structural   Zr2Al3
_chemical_formula_sum   'Zr16 Al24'
_cell_volume   752.34707637
_cell_formula_units_Z   8
loop_
 _symmetry_equiv_pos_site_id
 _symmetry_equiv_pos_as_xyz
  1  'x, y, z'
loop_
 _atom_site_type_symbol
 _atom_site_label
 _atom_site_symmetry_multiplicity
 _atom_site_fract_x
 _atom_site_fract_y
 _atom_site_fract_z
 _atom_site_occupancy
  Zr  Zr0  1  0.99452150  0.93265000  0.80274050  1
  Zr  Zr1  1  0.49452150  0.06735000  0.69725950  1
  Zr  Zr2  1  0.24452150  0.81735000  0.55274050  1
  Zr  Zr3  1  0.74452150  0.18265000  0.94725950  1
  Zr  Zr4  1  0.49452150  0.93265000  0.30274050  1
  Zr  Zr5  1  0.99452150  0.06735000  0.19725950  1
  Zr  Zr6  1  0.74452150  0.81735000  0.05274050  1
  Zr  Zr7  1  0.24452150  0.18265000  0.44725950  1
  Zr  Zr8  1  0.49452150  0.43265000  0.80274050  1
  Zr  Zr9  1  0.99452150  0.56735000  0.69725950  1
  Zr  Zr10  1  0.74452150  0.31735000  0.55274050  1
  Zr  Zr11  1  0.24452150  0.68265000  0.94725950  1
  Zr  Zr12  1  0.99452150  0.43265000  0.30274050  1
  Zr  Zr13  1  0.49452150  0.56735000  0.19725950  1
  Zr  Zr14  1  0.24452150  0.31735000  0.05274050  1
  Zr  Zr15  1  0.74452150  0.68265000  0.44725950  1
  Al  Al16  1  0.62988100  0.00000000  0.50000000  1
  Al  Al17  1  0.37988100  0.75000000  0.75000000  1
  Al  Al18  1  0.50303750  0.93169650  0.88517000  1
  Al  Al19  1  0.00303750  0.06830350  0.61483000  1
  Al  Al20  1  0.25303750  0.31830350  0.63517000  1
  Al  Al21  1  0.25303750  0.18169650  0.86483000  1
  Al  Al22  1  0.12988100  0.00000000  0.00000000  1
  Al  Al23  1  0.87988100  0.75000000  0.25000000  1
  Al  Al24  1  0.00303750  0.93169650  0.38517000  1
  Al  Al25  1  0.50303750  0.06830350  0.11483000  1
  Al  Al26  1  0.75303750  0.31830350  0.13517000  1
  Al  Al27  1  0.75303750  0.18169650  0.36483000  1
  Al  Al28  1  0.12988100  0.50000000  0.50000000  1
  Al  Al29  1  0.87988100  0.25000000  0.75000000  1
  Al  Al30  1  0.00303750  0.43169650  0.88517000  1
  Al  Al31  1  0.50303750  0.56830350  0.61483000  1
  Al  Al32  1  0.75303750  0.81830350  0.63517000  1
  Al  Al33  1  0.75303750  0.68169650  0.86483000  1
  Al  Al34  1  0.62988100  0.50000000  0.00000000  1
  Al  Al35  1  0.37988100  0.25000000  0.25000000  1
  Al  Al36  1  0.50303750  0.43169650  0.38517000  1
  Al  Al37  1  0.00303750  0.56830350  0.11483000  1
  Al  Al38  1  0.25303750  0.81830350  0.13517000  1
  Al  Al39  1  0.25303750  0.68169650  0.36483000  1
