# generated using pymatgen
data_Y(PdO2)2
_symmetry_space_group_name_H-M   'P 1'
_cell_length_a   5.82538800
_cell_length_b   5.82538800
_cell_length_c   10.11069800
_cell_angle_alpha   90.00000000
_cell_angle_beta   90.00000000
_cell_angle_gamma   90.00000000
_symmetry_Int_Tables_number   1
_chemical_formula_structural   Y(PdO2)2
_chemical_formula_sum   'Y4 Pd8 O16'
_cell_volume   343.10800623
_cell_formula_units_Z   4
loop_
 _symmetry_equiv_pos_site_id
 _symmetry_equiv_pos_as_xyz
  1  'x, y, z'
loop_
 _atom_site_type_symbol
 _atom_site_label
 _atom_site_symmetry_multiplicity
 _atom_site_fract_x
 _atom_site_fract_y
 _atom_site_fract_z
 _atom_site_occupancy
  Y  Y0  1  0.00000000  0.50000000  0.25000000  1
  Y  Y1  1  0.00000000  0.00000000  0.00000000  1
  Y  Y2  1  0.50000000  0.00000000  0.75000000  1
  Y  Y3  1  0.50000000  0.50000000  0.50000000  1
  Pd  Pd4  1  0.25000000  0.00000000  0.37500000  1
  Pd  Pd5  1  0.50000000  0.75000000  0.12500000  1
  Pd  Pd6  1  0.75000000  0.00000000  0.37500000  1
  Pd  Pd7  1  0.50000000  0.25000000  0.12500000  1
  Pd  Pd8  1  0.75000000  0.50000000  0.87500000  1
  Pd  Pd9  1  0.00000000  0.25000000  0.62500000  1
  Pd  Pd10  1  0.25000000  0.50000000  0.87500000  1
  Pd  Pd11  1  0.00000000  0.75000000  0.62500000  1
  O  O12  1  0.65735150  0.68948550  0.30245850  1
  O  O13  1  0.81051450  0.65735150  0.05245850  1
  O  O14  1  0.18948550  0.34264850  0.05245850  1
  O  O15  1  0.34264850  0.31051450  0.30245850  1
  O  O16  1  0.84264850  0.31051450  0.44754150  1
  O  O17  1  0.18948550  0.84264850  0.19754150  1
  O  O18  1  0.15735150  0.68948550  0.44754150  1
  O  O19  1  0.81051450  0.15735150  0.19754150  1
  O  O20  1  0.15735150  0.18948550  0.80245850  1
  O  O21  1  0.31051450  0.15735150  0.55245850  1
  O  O22  1  0.68948550  0.84264850  0.55245850  1
  O  O23  1  0.84264850  0.81051450  0.80245850  1
  O  O24  1  0.34264850  0.81051450  0.94754150  1
  O  O25  1  0.68948550  0.34264850  0.69754150  1
  O  O26  1  0.65735150  0.18948550  0.94754150  1
  O  O27  1  0.31051450  0.65735150  0.69754150  1
