# generated using pymatgen
data_Sc2BC2
_symmetry_space_group_name_H-M   'P 1'
_cell_length_a   3.33996400
_cell_length_b   3.33996400
_cell_length_c   10.68713600
_cell_angle_alpha   90.00000000
_cell_angle_beta   90.00000000
_cell_angle_gamma   90.00000000
_symmetry_Int_Tables_number   1
_chemical_formula_structural   Sc2BC2
_chemical_formula_sum   'Sc4 B2 C4'
_cell_volume   119.21884433
_cell_formula_units_Z   2
loop_
 _symmetry_equiv_pos_site_id
 _symmetry_equiv_pos_as_xyz
  1  'x, y, z'
loop_
 _atom_site_type_symbol
 _atom_site_label
 _atom_site_symmetry_multiplicity
 _atom_site_fract_x
 _atom_site_fract_y
 _atom_site_fract_z
 _atom_site_occupancy
  Sc  Sc0  1  0.50000000  0.50000000  0.15239900  1
  Sc  Sc1  1  0.00000000  0.00000000  0.34760100  1
  Sc  Sc2  1  0.00000000  0.00000000  0.65239900  1
  Sc  Sc3  1  0.50000000  0.50000000  0.84760100  1
  B  B4  1  0.00000000  0.00000000  0.00000000  1
  B  B5  1  0.50000000  0.50000000  0.50000000  1
  C  C6  1  0.50000000  0.50000000  0.36124400  1
  C  C7  1  0.00000000  0.00000000  0.13875600  1
  C  C8  1  0.00000000  0.00000000  0.86124400  1
  C  C9  1  0.50000000  0.50000000  0.63875600  1
