# generated using pymatgen
data_TbB2Rh2C
_symmetry_space_group_name_H-M   'P 1'
_cell_length_a   3.81318200
_cell_length_b   3.81318200
_cell_length_c   10.32393000
_cell_angle_alpha   90.00000000
_cell_angle_beta   90.00000000
_cell_angle_gamma   90.00000000
_symmetry_Int_Tables_number   1
_chemical_formula_structural   TbB2Rh2C
_chemical_formula_sum   'Tb2 B4 Rh4 C2'
_cell_volume   150.11362748
_cell_formula_units_Z   2
loop_
 _symmetry_equiv_pos_site_id
 _symmetry_equiv_pos_as_xyz
  1  'x, y, z'
loop_
 _atom_site_type_symbol
 _atom_site_label
 _atom_site_symmetry_multiplicity
 _atom_site_fract_x
 _atom_site_fract_y
 _atom_site_fract_z
 _atom_site_occupancy
  Tb  Tb0  1  0.00000000  0.00000000  0.00000000  1
  Tb  Tb1  1  0.50000000  0.50000000  0.50000000  1
  B  B2  1  0.00000000  0.00000000  0.35512400  1
  B  B3  1  0.50000000  0.50000000  0.14487600  1
  B  B4  1  0.50000000  0.50000000  0.85512400  1
  B  B5  1  0.00000000  0.00000000  0.64487600  1
  Rh  Rh6  1  0.50000000  0.00000000  0.25000000  1
  Rh  Rh7  1  0.00000000  0.50000000  0.25000000  1
  Rh  Rh8  1  0.00000000  0.50000000  0.75000000  1
  Rh  Rh9  1  0.50000000  0.00000000  0.75000000  1
  C  C10  1  0.50000000  0.50000000  0.00000000  1
  C  C11  1  0.00000000  0.00000000  0.50000000  1
