# generated using pymatgen
data_Sb7Mo3
_symmetry_space_group_name_H-M   'P 1'
_cell_length_a   9.66466800
_cell_length_b   9.66466800
_cell_length_c   9.66466800
_cell_angle_alpha   90.00000000
_cell_angle_beta   90.00000000
_cell_angle_gamma   90.00000000
_symmetry_Int_Tables_number   1
_chemical_formula_structural   Sb7Mo3
_chemical_formula_sum   'Sb28 Mo12'
_cell_volume   902.73611924
_cell_formula_units_Z   4
loop_
 _symmetry_equiv_pos_site_id
 _symmetry_equiv_pos_as_xyz
  1  'x, y, z'
loop_
 _atom_site_type_symbol
 _atom_site_label
 _atom_site_symmetry_multiplicity
 _atom_site_fract_x
 _atom_site_fract_y
 _atom_site_fract_z
 _atom_site_occupancy
  Sb  Sb0  1  0.00000000  0.50000000  0.25000000  1
  Sb  Sb1  1  0.25000000  0.50000000  0.00000000  1
  Sb  Sb2  1  0.25000000  0.00000000  0.50000000  1
  Sb  Sb3  1  0.50000000  0.25000000  0.00000000  1
  Sb  Sb4  1  0.00000000  0.25000000  0.50000000  1
  Sb  Sb5  1  0.50000000  0.00000000  0.25000000  1
  Sb  Sb6  1  0.16079250  0.16079250  0.16079250  1
  Sb  Sb7  1  0.16079250  0.16079250  0.83920750  1
  Sb  Sb8  1  0.83920750  0.16079250  0.16079250  1
  Sb  Sb9  1  0.16079250  0.83920750  0.16079250  1
  Sb  Sb10  1  0.66079250  0.33920750  0.33920750  1
  Sb  Sb11  1  0.33920750  0.66079250  0.33920750  1
  Sb  Sb12  1  0.33920750  0.33920750  0.66079250  1
  Sb  Sb13  1  0.33920750  0.33920750  0.33920750  1
  Sb  Sb14  1  0.50000000  0.00000000  0.75000000  1
  Sb  Sb15  1  0.75000000  0.00000000  0.50000000  1
  Sb  Sb16  1  0.75000000  0.50000000  0.00000000  1
  Sb  Sb17  1  0.00000000  0.75000000  0.50000000  1
  Sb  Sb18  1  0.50000000  0.75000000  0.00000000  1
  Sb  Sb19  1  0.00000000  0.50000000  0.75000000  1
  Sb  Sb20  1  0.66079250  0.66079250  0.66079250  1
  Sb  Sb21  1  0.66079250  0.66079250  0.33920750  1
  Sb  Sb22  1  0.33920750  0.66079250  0.66079250  1
  Sb  Sb23  1  0.66079250  0.33920750  0.66079250  1
  Sb  Sb24  1  0.16079250  0.83920750  0.83920750  1
  Sb  Sb25  1  0.83920750  0.16079250  0.83920750  1
  Sb  Sb26  1  0.83920750  0.83920750  0.16079250  1
  Sb  Sb27  1  0.83920750  0.83920750  0.83920750  1
  Mo  Mo28  1  0.00000000  0.00000000  0.34220000  1
  Mo  Mo29  1  0.34220000  0.00000000  0.00000000  1
  Mo  Mo30  1  0.65780000  0.00000000  0.00000000  1
  Mo  Mo31  1  0.00000000  0.65780000  0.00000000  1
  Mo  Mo32  1  0.00000000  0.34220000  0.00000000  1
  Mo  Mo33  1  0.00000000  0.00000000  0.65780000  1
  Mo  Mo34  1  0.50000000  0.50000000  0.84220000  1
  Mo  Mo35  1  0.84220000  0.50000000  0.50000000  1
  Mo  Mo36  1  0.15780000  0.50000000  0.50000000  1
  Mo  Mo37  1  0.50000000  0.15780000  0.50000000  1
  Mo  Mo38  1  0.50000000  0.84220000  0.50000000  1
  Mo  Mo39  1  0.50000000  0.50000000  0.15780000  1
