# generated using pymatgen
data_DyAu
_symmetry_space_group_name_H-M   'P 1'
_cell_length_a   3.71423800
_cell_length_b   11.00501600
_cell_length_c   4.69760300
_cell_angle_alpha   90.00000000
_cell_angle_beta   90.00000000
_cell_angle_gamma   90.00000000
_symmetry_Int_Tables_number   1
_chemical_formula_structural   DyAu
_chemical_formula_sum   'Dy4 Au4'
_cell_volume   192.01569053
_cell_formula_units_Z   4
loop_
 _symmetry_equiv_pos_site_id
 _symmetry_equiv_pos_as_xyz
  1  'x, y, z'
loop_
 _atom_site_type_symbol
 _atom_site_label
 _atom_site_symmetry_multiplicity
 _atom_site_fract_x
 _atom_site_fract_y
 _atom_site_fract_z
 _atom_site_occupancy
  Dy  Dy0  1  0.50000000  0.63899200  0.75000000  1
  Dy  Dy1  1  0.00000000  0.86100800  0.25000000  1
  Dy  Dy2  1  0.00000000  0.13899200  0.75000000  1
  Dy  Dy3  1  0.50000000  0.36100800  0.25000000  1
  Au  Au4  1  0.50000000  0.91237100  0.75000000  1
  Au  Au5  1  0.00000000  0.58762900  0.25000000  1
  Au  Au6  1  0.00000000  0.41237100  0.75000000  1
  Au  Au7  1  0.50000000  0.08762900  0.25000000  1
