# generated using pymatgen
data_ErCdCu4
_symmetry_space_group_name_H-M   'P 1'
_cell_length_a   7.18576200
_cell_length_b   7.18576200
_cell_length_c   7.18576200
_cell_angle_alpha   90.00000000
_cell_angle_beta   90.00000000
_cell_angle_gamma   90.00000000
_symmetry_Int_Tables_number   1
_chemical_formula_structural   ErCdCu4
_chemical_formula_sum   'Er4 Cd4 Cu16'
_cell_volume   371.03808212
_cell_formula_units_Z   4
loop_
 _symmetry_equiv_pos_site_id
 _symmetry_equiv_pos_as_xyz
  1  'x, y, z'
loop_
 _atom_site_type_symbol
 _atom_site_label
 _atom_site_symmetry_multiplicity
 _atom_site_fract_x
 _atom_site_fract_y
 _atom_site_fract_z
 _atom_site_occupancy
  Er  Er0  1  0.25000000  0.25000000  0.25000000  1
  Er  Er1  1  0.25000000  0.75000000  0.75000000  1
  Er  Er2  1  0.75000000  0.25000000  0.75000000  1
  Er  Er3  1  0.75000000  0.75000000  0.25000000  1
  Cd  Cd4  1  0.00000000  0.00000000  0.00000000  1
  Cd  Cd5  1  0.00000000  0.50000000  0.50000000  1
  Cd  Cd6  1  0.50000000  0.00000000  0.50000000  1
  Cd  Cd7  1  0.50000000  0.50000000  0.00000000  1
  Cu  Cu8  1  0.12560767  0.37439233  0.87439233  1
  Cu  Cu9  1  0.37439233  0.12560767  0.87439233  1
  Cu  Cu10  1  0.87439233  0.37439233  0.12560767  1
  Cu  Cu11  1  0.62560767  0.12560767  0.12560767  1
  Cu  Cu12  1  0.12560767  0.87439233  0.37439233  1
  Cu  Cu13  1  0.37439233  0.62560767  0.37439233  1
  Cu  Cu14  1  0.87439233  0.87439233  0.62560767  1
  Cu  Cu15  1  0.62560767  0.62560767  0.62560767  1
  Cu  Cu16  1  0.62560767  0.37439233  0.37439233  1
  Cu  Cu17  1  0.87439233  0.12560767  0.37439233  1
  Cu  Cu18  1  0.37439233  0.37439233  0.62560767  1
  Cu  Cu19  1  0.12560767  0.12560767  0.62560767  1
  Cu  Cu20  1  0.62560767  0.87439233  0.87439233  1
  Cu  Cu21  1  0.87439233  0.62560767  0.87439233  1
  Cu  Cu22  1  0.37439233  0.87439233  0.12560767  1
  Cu  Cu23  1  0.12560767  0.62560767  0.12560767  1
