# generated using pymatgen
data_Y2Zn17
_symmetry_space_group_name_H-M   'P 1'
_cell_length_a   8.97363993
_cell_length_b   8.97363993
_cell_length_c   13.22899986
_cell_angle_alpha   90.00000000
_cell_angle_beta   90.00000000
_cell_angle_gamma   120.00000000
_symmetry_Int_Tables_number   1
_chemical_formula_structural   Y2Zn17
_chemical_formula_sum   'Y6 Zn51'
_cell_volume   922.56063982
_cell_formula_units_Z   3
loop_
 _symmetry_equiv_pos_site_id
 _symmetry_equiv_pos_as_xyz
  1  'x, y, z'
loop_
 _atom_site_type_symbol
 _atom_site_label
 _atom_site_symmetry_multiplicity
 _atom_site_fract_x
 _atom_site_fract_y
 _atom_site_fract_z
 _atom_site_occupancy
  Y  Y0  1  0.33333333  0.66666667  0.33176567  1
  Y  Y1  1  0.33333333  0.66666667  0.00156767  1
  Y  Y2  1  0.00000000  0.00000000  0.66509900  1
  Y  Y3  1  0.00000000  0.00000000  0.33490100  1
  Y  Y4  1  0.66666667  0.33333333  0.99843233  1
  Y  Y5  1  0.66666667  0.33333333  0.66823433  1
  Zn  Zn6  1  0.17120500  0.82879500  0.18054200  1
  Zn  Zn7  1  0.17120500  0.34241000  0.18054200  1
  Zn  Zn8  1  0.33333333  0.66666667  0.76646467  1
  Zn  Zn9  1  0.33333333  0.66666667  0.56686867  1
  Zn  Zn10  1  0.16666667  0.83333333  0.83333333  1
  Zn  Zn11  1  0.33333333  0.16666667  0.16666667  1
  Zn  Zn12  1  0.83333333  0.66666667  0.16666667  1
  Zn  Zn13  1  0.36976567  0.03643233  0.33333333  1
  Zn  Zn14  1  0.00000000  0.29690100  0.00000000  1
  Zn  Zn15  1  0.29690100  0.00000000  0.00000000  1
  Zn  Zn16  1  0.96356767  0.63023433  0.33333333  1
  Zn  Zn17  1  0.00000000  0.70309900  0.00000000  1
  Zn  Zn18  1  0.70309900  0.00000000  0.00000000  1
  Zn  Zn19  1  0.49546167  0.99092333  0.15279133  1
  Zn  Zn20  1  0.49546167  0.50453833  0.15279133  1
  Zn  Zn21  1  0.00907667  0.50453833  0.15279133  1
  Zn  Zn22  1  0.65759000  0.82879500  0.18054200  1
  Zn  Zn23  1  0.83787167  0.16212833  0.51387533  1
  Zn  Zn24  1  0.83787167  0.67574333  0.51387533  1
  Zn  Zn25  1  0.00000000  0.00000000  0.09979800  1
  Zn  Zn26  1  0.00000000  0.00000000  0.90020200  1
  Zn  Zn27  1  0.83333333  0.16666667  0.16666667  1
  Zn  Zn28  1  0.00000000  0.50000000  0.50000000  1
  Zn  Zn29  1  0.50000000  0.00000000  0.50000000  1
  Zn  Zn30  1  0.03643233  0.36976567  0.66666667  1
  Zn  Zn31  1  0.66666667  0.63023433  0.33333333  1
  Zn  Zn32  1  0.96356767  0.33333333  0.33333333  1
  Zn  Zn33  1  0.63023433  0.96356767  0.66666667  1
  Zn  Zn34  1  0.66666667  0.03643233  0.33333333  1
  Zn  Zn35  1  0.36976567  0.33333333  0.33333333  1
  Zn  Zn36  1  0.16212833  0.32425667  0.48612467  1
  Zn  Zn37  1  0.16212833  0.83787167  0.48612467  1
  Zn  Zn38  1  0.67574333  0.83787167  0.48612467  1
  Zn  Zn39  1  0.32425667  0.16212833  0.51387533  1
  Zn  Zn40  1  0.50453833  0.49546167  0.84720867  1
  Zn  Zn41  1  0.50453833  0.00907667  0.84720867  1
  Zn  Zn42  1  0.66666667  0.33333333  0.43313133  1
  Zn  Zn43  1  0.66666667  0.33333333  0.23353533  1
  Zn  Zn44  1  0.50000000  0.50000000  0.50000000  1
  Zn  Zn45  1  0.66666667  0.83333333  0.83333333  1
  Zn  Zn46  1  0.16666667  0.33333333  0.83333333  1
  Zn  Zn47  1  0.70309900  0.70309900  0.00000000  1
  Zn  Zn48  1  0.33333333  0.96356767  0.66666667  1
  Zn  Zn49  1  0.63023433  0.66666667  0.66666667  1
  Zn  Zn50  1  0.29690100  0.29690100  0.00000000  1
  Zn  Zn51  1  0.33333333  0.36976567  0.66666667  1
  Zn  Zn52  1  0.03643233  0.66666667  0.66666667  1
  Zn  Zn53  1  0.82879500  0.65759000  0.81945800  1
  Zn  Zn54  1  0.82879500  0.17120500  0.81945800  1
  Zn  Zn55  1  0.34241000  0.17120500  0.81945800  1
  Zn  Zn56  1  0.99092333  0.49546167  0.84720867  1
