# generated using pymatgen
data_LiSn
_symmetry_space_group_name_H-M   'P 1'
_cell_length_a   4.44482400
_cell_length_b   4.44482400
_cell_length_c   26.07601000
_cell_angle_alpha   90.00000000
_cell_angle_beta   90.00000000
_cell_angle_gamma   90.00000000
_symmetry_Int_Tables_number   1
_chemical_formula_structural   LiSn
_chemical_formula_sum   'Li12 Sn12'
_cell_volume   515.16965872
_cell_formula_units_Z   12
loop_
 _symmetry_equiv_pos_site_id
 _symmetry_equiv_pos_as_xyz
  1  'x, y, z'
loop_
 _atom_site_type_symbol
 _atom_site_label
 _atom_site_symmetry_multiplicity
 _atom_site_fract_x
 _atom_site_fract_y
 _atom_site_fract_z
 _atom_site_occupancy
  Li  Li0  1  0.50000000  0.50000000  0.16333700  1
  Li  Li1  1  0.50000000  0.00000000  0.41333700  1
  Li  Li2  1  0.50000000  0.00000000  0.08666300  1
  Li  Li3  1  0.00000000  0.00000000  0.33666300  1
  Li  Li4  1  0.50000000  0.00000000  0.25000000  1
  Li  Li5  1  0.50000000  0.50000000  0.00000000  1
  Li  Li6  1  0.00000000  0.00000000  0.66333700  1
  Li  Li7  1  0.00000000  0.50000000  0.91333700  1
  Li  Li8  1  0.00000000  0.50000000  0.58666300  1
  Li  Li9  1  0.50000000  0.50000000  0.83666300  1
  Li  Li10  1  0.00000000  0.50000000  0.75000000  1
  Li  Li11  1  0.00000000  0.00000000  0.50000000  1
  Sn  Sn12  1  0.00000000  0.50000000  0.25000000  1
  Sn  Sn13  1  0.00000000  0.00000000  0.00000000  1
  Sn  Sn14  1  0.50000000  0.50000000  0.33007300  1
  Sn  Sn15  1  0.00000000  0.50000000  0.08007300  1
  Sn  Sn16  1  0.00000000  0.50000000  0.41992700  1
  Sn  Sn17  1  0.00000000  0.00000000  0.16992700  1
  Sn  Sn18  1  0.50000000  0.00000000  0.75000000  1
  Sn  Sn19  1  0.50000000  0.50000000  0.50000000  1
  Sn  Sn20  1  0.00000000  0.00000000  0.83007300  1
  Sn  Sn21  1  0.50000000  0.00000000  0.58007300  1
  Sn  Sn22  1  0.50000000  0.00000000  0.91992700  1
  Sn  Sn23  1  0.50000000  0.50000000  0.66992700  1
