# generated using pymatgen
data_NaVS2
_symmetry_space_group_name_H-M   'P 1'
_cell_length_a   3.57162008
_cell_length_b   3.57162008
_cell_length_c   20.00439116
_cell_angle_alpha   90.00000000
_cell_angle_beta   90.00000000
_cell_angle_gamma   120.00000000
_symmetry_Int_Tables_number   1
_chemical_formula_structural   NaVS2
_chemical_formula_sum   'Na3 V3 S6'
_cell_volume   220.99705282
_cell_formula_units_Z   3
loop_
 _symmetry_equiv_pos_site_id
 _symmetry_equiv_pos_as_xyz
  1  'x, y, z'
loop_
 _atom_site_type_symbol
 _atom_site_label
 _atom_site_symmetry_multiplicity
 _atom_site_fract_x
 _atom_site_fract_y
 _atom_site_fract_z
 _atom_site_occupancy
  Na  Na0  1  0.66666667  0.33333333  0.16712133  1
  Na  Na1  1  0.33333333  0.66666667  0.50045467  1
  Na  Na2  1  0.00000000  0.00000000  0.83378800  1
  V  V3  1  0.00000000  0.00000000  0.00224300  1
  V  V4  1  0.66666667  0.33333333  0.33557633  1
  V  V5  1  0.33333333  0.66666667  0.66890967  1
  S  S6  1  0.33333333  0.66666667  0.06894167  1
  S  S7  1  0.33333333  0.66666667  0.26836067  1
  S  S8  1  0.00000000  0.00000000  0.40227500  1
  S  S9  1  0.00000000  0.00000000  0.60169400  1
  S  S10  1  0.66666667  0.33333333  0.73560833  1
  S  S11  1  0.66666667  0.33333333  0.93502733  1
