# generated using pymatgen
data_HfSb
_symmetry_space_group_name_H-M   'P 1'
_cell_length_a   3.76963600
_cell_length_b   10.46949400
_cell_length_c   14.06665100
_cell_angle_alpha   90.00000000
_cell_angle_beta   90.00000000
_cell_angle_gamma   90.00000000
_symmetry_Int_Tables_number   1
_chemical_formula_structural   HfSb
_chemical_formula_sum   'Hf12 Sb12'
_cell_volume   555.15700124
_cell_formula_units_Z   12
loop_
 _symmetry_equiv_pos_site_id
 _symmetry_equiv_pos_as_xyz
  1  'x, y, z'
loop_
 _atom_site_type_symbol
 _atom_site_label
 _atom_site_symmetry_multiplicity
 _atom_site_fract_x
 _atom_site_fract_y
 _atom_site_fract_z
 _atom_site_occupancy
  Hf  Hf0  1  0.50000000  0.11152200  0.75000000  1
  Hf  Hf1  1  0.00000000  0.38847800  0.25000000  1
  Hf  Hf2  1  0.00000000  0.07157500  0.10847500  1
  Hf  Hf3  1  0.50000000  0.42842500  0.89152500  1
  Hf  Hf4  1  0.50000000  0.42842500  0.60847500  1
  Hf  Hf5  1  0.00000000  0.07157500  0.39152500  1
  Hf  Hf6  1  0.00000000  0.61152200  0.75000000  1
  Hf  Hf7  1  0.50000000  0.88847800  0.25000000  1
  Hf  Hf8  1  0.50000000  0.57157500  0.10847500  1
  Hf  Hf9  1  0.00000000  0.92842500  0.89152500  1
  Hf  Hf10  1  0.00000000  0.92842500  0.60847500  1
  Hf  Hf11  1  0.50000000  0.57157500  0.39152500  1
  Sb  Sb12  1  0.00000000  0.32448200  0.75000000  1
  Sb  Sb13  1  0.50000000  0.17551800  0.25000000  1
  Sb  Sb14  1  0.00000000  0.35757500  0.04961500  1
  Sb  Sb15  1  0.50000000  0.14242500  0.95038500  1
  Sb  Sb16  1  0.50000000  0.14242500  0.54961500  1
  Sb  Sb17  1  0.00000000  0.35757500  0.45038500  1
  Sb  Sb18  1  0.50000000  0.82448200  0.75000000  1
  Sb  Sb19  1  0.00000000  0.67551800  0.25000000  1
  Sb  Sb20  1  0.50000000  0.85757500  0.04961500  1
  Sb  Sb21  1  0.00000000  0.64242500  0.95038500  1
  Sb  Sb22  1  0.00000000  0.64242500  0.54961500  1
  Sb  Sb23  1  0.50000000  0.85757500  0.45038500  1
