# generated using pymatgen
data_IrO2
_symmetry_space_group_name_H-M   'P 1'
_cell_length_a   3.92524800
_cell_length_b   3.92524800
_cell_length_c   9.78058400
_cell_angle_alpha   90.00000000
_cell_angle_beta   90.00000000
_cell_angle_gamma   90.00000000
_symmetry_Int_Tables_number   1
_chemical_formula_structural   IrO2
_chemical_formula_sum   'Ir4 O8'
_cell_volume   150.69505083
_cell_formula_units_Z   4
loop_
 _symmetry_equiv_pos_site_id
 _symmetry_equiv_pos_as_xyz
  1  'x, y, z'
loop_
 _atom_site_type_symbol
 _atom_site_label
 _atom_site_symmetry_multiplicity
 _atom_site_fract_x
 _atom_site_fract_y
 _atom_site_fract_z
 _atom_site_occupancy
  Ir  Ir0  1  0.00000000  0.00000000  0.00000000  1
  Ir  Ir1  1  0.00000000  0.50000000  0.25000000  1
  Ir  Ir2  1  0.50000000  0.50000000  0.50000000  1
  Ir  Ir3  1  0.50000000  0.00000000  0.75000000  1
  O  O4  1  0.00000000  0.50000000  0.45960400  1
  O  O5  1  0.00000000  0.00000000  0.20960400  1
  O  O6  1  0.00000000  0.50000000  0.04039600  1
  O  O7  1  0.50000000  0.50000000  0.29039600  1
  O  O8  1  0.50000000  0.00000000  0.95960400  1
  O  O9  1  0.50000000  0.50000000  0.70960400  1
  O  O10  1  0.50000000  0.00000000  0.54039600  1
  O  O11  1  0.00000000  0.00000000  0.79039600  1
