# generated using pymatgen
data_TiTl3F6
_symmetry_space_group_name_H-M   'P 1'
_cell_length_a   9.31259400
_cell_length_b   9.31259400
_cell_length_c   9.31259400
_cell_angle_alpha   90.00000000
_cell_angle_beta   90.00000000
_cell_angle_gamma   90.00000000
_symmetry_Int_Tables_number   1
_chemical_formula_structural   TiTl3F6
_chemical_formula_sum   'Ti4 Tl12 F24'
_cell_volume   807.62919236
_cell_formula_units_Z   4
loop_
 _symmetry_equiv_pos_site_id
 _symmetry_equiv_pos_as_xyz
  1  'x, y, z'
loop_
 _atom_site_type_symbol
 _atom_site_label
 _atom_site_symmetry_multiplicity
 _atom_site_fract_x
 _atom_site_fract_y
 _atom_site_fract_z
 _atom_site_occupancy
  Ti  Ti0  1  0.00000000  0.00000000  0.00000000  1
  Ti  Ti1  1  0.00000000  0.50000000  0.50000000  1
  Ti  Ti2  1  0.50000000  0.00000000  0.50000000  1
  Ti  Ti3  1  0.50000000  0.50000000  0.00000000  1
  Tl  Tl4  1  0.50000000  0.00000000  0.00000000  1
  Tl  Tl5  1  0.25000000  0.25000000  0.75000000  1
  Tl  Tl6  1  0.25000000  0.75000000  0.75000000  1
  Tl  Tl7  1  0.50000000  0.50000000  0.50000000  1
  Tl  Tl8  1  0.25000000  0.75000000  0.25000000  1
  Tl  Tl9  1  0.25000000  0.25000000  0.25000000  1
  Tl  Tl10  1  0.00000000  0.00000000  0.50000000  1
  Tl  Tl11  1  0.75000000  0.25000000  0.25000000  1
  Tl  Tl12  1  0.75000000  0.75000000  0.25000000  1
  Tl  Tl13  1  0.00000000  0.50000000  0.00000000  1
  Tl  Tl14  1  0.75000000  0.75000000  0.75000000  1
  Tl  Tl15  1  0.75000000  0.25000000  0.75000000  1
  F  F16  1  0.50000000  0.29024600  0.00000000  1
  F  F17  1  0.50000000  0.00000000  0.70975400  1
  F  F18  1  0.00000000  0.00000000  0.79024600  1
  F  F19  1  0.20975400  0.00000000  0.00000000  1
  F  F20  1  0.50000000  0.70975400  0.00000000  1
  F  F21  1  0.79024600  0.00000000  0.00000000  1
  F  F22  1  0.50000000  0.79024600  0.50000000  1
  F  F23  1  0.50000000  0.50000000  0.20975400  1
  F  F24  1  0.00000000  0.50000000  0.29024600  1
  F  F25  1  0.20975400  0.50000000  0.50000000  1
  F  F26  1  0.50000000  0.20975400  0.50000000  1
  F  F27  1  0.79024600  0.50000000  0.50000000  1
  F  F28  1  0.00000000  0.29024600  0.50000000  1
  F  F29  1  0.00000000  0.00000000  0.20975400  1
  F  F30  1  0.50000000  0.00000000  0.29024600  1
  F  F31  1  0.70975400  0.00000000  0.50000000  1
  F  F32  1  0.00000000  0.70975400  0.50000000  1
  F  F33  1  0.29024600  0.00000000  0.50000000  1
  F  F34  1  0.00000000  0.79024600  0.00000000  1
  F  F35  1  0.00000000  0.50000000  0.70975400  1
  F  F36  1  0.50000000  0.50000000  0.79024600  1
  F  F37  1  0.70975400  0.50000000  0.00000000  1
  F  F38  1  0.00000000  0.20975400  0.00000000  1
  F  F39  1  0.29024600  0.50000000  0.00000000  1
