# generated using pymatgen
data_YSb2
_symmetry_space_group_name_H-M   'P 1'
_cell_length_a   3.60250800
_cell_length_b   6.37003000
_cell_length_c   7.51645500
_cell_angle_alpha   90.00000000
_cell_angle_beta   90.00000000
_cell_angle_gamma   90.00000000
_symmetry_Int_Tables_number   1
_chemical_formula_structural   YSb2
_chemical_formula_sum   'Y2 Sb4'
_cell_volume   172.48824099
_cell_formula_units_Z   2
loop_
 _symmetry_equiv_pos_site_id
 _symmetry_equiv_pos_as_xyz
  1  'x, y, z'
loop_
 _atom_site_type_symbol
 _atom_site_label
 _atom_site_symmetry_multiplicity
 _atom_site_fract_x
 _atom_site_fract_y
 _atom_site_fract_z
 _atom_site_occupancy
  Y  Y0  1  0.00000000  0.00000000  0.00000000  1
  Y  Y1  1  0.50000000  0.50000000  0.00000000  1
  Sb  Sb2  1  0.75000000  0.25000000  0.67376500  1
  Sb  Sb3  1  0.25000000  0.25000000  0.32623500  1
  Sb  Sb4  1  0.25000000  0.75000000  0.67376500  1
  Sb  Sb5  1  0.75000000  0.75000000  0.32623500  1
