# generated using pymatgen
data_Zn13Rh
_symmetry_space_group_name_H-M   'P 1'
_cell_length_a   10.98027400
_cell_length_b   7.60426400
_cell_length_c   5.15244908
_cell_angle_alpha   90.00000000
_cell_angle_beta   101.70935513
_cell_angle_gamma   90.00000000
_symmetry_Int_Tables_number   1
_chemical_formula_structural   Zn13Rh
_chemical_formula_sum   'Zn26 Rh2'
_cell_volume   421.26065885
_cell_formula_units_Z   2
loop_
 _symmetry_equiv_pos_site_id
 _symmetry_equiv_pos_as_xyz
  1  'x, y, z'
loop_
 _atom_site_type_symbol
 _atom_site_label
 _atom_site_symmetry_multiplicity
 _atom_site_fract_x
 _atom_site_fract_y
 _atom_site_fract_z
 _atom_site_occupancy
  Zn  Zn0  1  0.00000000  0.00000000  0.00000000  1
  Zn  Zn1  1  0.58004600  0.80156300  0.32071100  1
  Zn  Zn2  1  0.41995400  0.80156300  0.67928900  1
  Zn  Zn3  1  0.41995400  0.19843700  0.67928900  1
  Zn  Zn4  1  0.58004600  0.19843700  0.32071100  1
  Zn  Zn5  1  0.32067400  0.31794300  0.19781600  1
  Zn  Zn6  1  0.67932600  0.31794300  0.80218400  1
  Zn  Zn7  1  0.67932600  0.68205700  0.80218400  1
  Zn  Zn8  1  0.32067400  0.68205700  0.19781600  1
  Zn  Zn9  1  0.22394200  0.00000000  0.36941800  1
  Zn  Zn10  1  0.77605800  0.00000000  0.63058200  1
  Zn  Zn11  1  0.38753400  0.00000000  0.07133100  1
  Zn  Zn12  1  0.61246600  0.00000000  0.92866900  1
  Zn  Zn13  1  0.50000000  0.50000000  0.00000000  1
  Zn  Zn14  1  0.08004600  0.30156300  0.32071100  1
  Zn  Zn15  1  0.91995400  0.30156300  0.67928900  1
  Zn  Zn16  1  0.91995400  0.69843700  0.67928900  1
  Zn  Zn17  1  0.08004600  0.69843700  0.32071100  1
  Zn  Zn18  1  0.82067400  0.81794300  0.19781600  1
  Zn  Zn19  1  0.17932600  0.81794300  0.80218400  1
  Zn  Zn20  1  0.17932600  0.18205700  0.80218400  1
  Zn  Zn21  1  0.82067400  0.18205700  0.19781600  1
  Zn  Zn22  1  0.72394200  0.50000000  0.36941800  1
  Zn  Zn23  1  0.27605800  0.50000000  0.63058200  1
  Zn  Zn24  1  0.88753400  0.50000000  0.07133100  1
  Zn  Zn25  1  0.11246600  0.50000000  0.92866900  1
  Rh  Rh26  1  0.00000000  0.00000000  0.50000000  1
  Rh  Rh27  1  0.50000000  0.50000000  0.50000000  1
