# generated using pymatgen
data_Mn5SiC
_symmetry_space_group_name_H-M   'P 1'
_cell_length_a   7.84355200
_cell_length_b   10.01500000
_cell_length_c   7.49735000
_cell_angle_alpha   90.00000000
_cell_angle_beta   90.00000000
_cell_angle_gamma   90.00000000
_symmetry_Int_Tables_number   1
_chemical_formula_structural   Mn5SiC
_chemical_formula_sum   'Mn40 Si8 C8'
_cell_volume   588.94063369
_cell_formula_units_Z   8
loop_
 _symmetry_equiv_pos_site_id
 _symmetry_equiv_pos_as_xyz
  1  'x, y, z'
loop_
 _atom_site_type_symbol
 _atom_site_label
 _atom_site_symmetry_multiplicity
 _atom_site_fract_x
 _atom_site_fract_y
 _atom_site_fract_z
 _atom_site_occupancy
  Mn  Mn0  1  0.50000000  0.37407800  0.00000000  1
  Mn  Mn1  1  0.50000000  0.62592200  0.50000000  1
  Mn  Mn2  1  0.50000000  0.37407800  0.50000000  1
  Mn  Mn3  1  0.50000000  0.62592200  0.00000000  1
  Mn  Mn4  1  0.18174000  0.88231400  0.25000000  1
  Mn  Mn5  1  0.81826000  0.11768600  0.75000000  1
  Mn  Mn6  1  0.81826000  0.88231400  0.75000000  1
  Mn  Mn7  1  0.18174000  0.11768600  0.25000000  1
  Mn  Mn8  1  0.33833650  0.85431950  0.56476100  1
  Mn  Mn9  1  0.66166350  0.14568050  0.06476100  1
  Mn  Mn10  1  0.66166350  0.85431950  0.06476100  1
  Mn  Mn11  1  0.33833650  0.14568050  0.56476100  1
  Mn  Mn12  1  0.86575300  0.00000000  0.25000000  1
  Mn  Mn13  1  0.13424700  0.00000000  0.75000000  1
  Mn  Mn14  1  0.53291700  0.00000000  0.75000000  1
  Mn  Mn15  1  0.46708300  0.00000000  0.25000000  1
  Mn  Mn16  1  0.33833650  0.14568050  0.93523900  1
  Mn  Mn17  1  0.66166350  0.85431950  0.43523900  1
  Mn  Mn18  1  0.66166350  0.14568050  0.43523900  1
  Mn  Mn19  1  0.33833650  0.85431950  0.93523900  1
  Mn  Mn20  1  0.00000000  0.87407800  0.00000000  1
  Mn  Mn21  1  0.00000000  0.12592200  0.50000000  1
  Mn  Mn22  1  0.00000000  0.87407800  0.50000000  1
  Mn  Mn23  1  0.00000000  0.12592200  0.00000000  1
  Mn  Mn24  1  0.68174000  0.38231400  0.25000000  1
  Mn  Mn25  1  0.31826000  0.61768600  0.75000000  1
  Mn  Mn26  1  0.31826000  0.38231400  0.75000000  1
  Mn  Mn27  1  0.68174000  0.61768600  0.25000000  1
  Mn  Mn28  1  0.83833650  0.35431950  0.56476100  1
  Mn  Mn29  1  0.16166350  0.64568050  0.06476100  1
  Mn  Mn30  1  0.16166350  0.35431950  0.06476100  1
  Mn  Mn31  1  0.83833650  0.64568050  0.56476100  1
  Mn  Mn32  1  0.36575300  0.50000000  0.25000000  1
  Mn  Mn33  1  0.63424700  0.50000000  0.75000000  1
  Mn  Mn34  1  0.03291700  0.50000000  0.75000000  1
  Mn  Mn35  1  0.96708300  0.50000000  0.25000000  1
  Mn  Mn36  1  0.83833650  0.64568050  0.93523900  1
  Mn  Mn37  1  0.16166350  0.35431950  0.43523900  1
  Mn  Mn38  1  0.16166350  0.64568050  0.43523900  1
  Mn  Mn39  1  0.83833650  0.35431950  0.93523900  1
  Si  Si40  1  0.57918500  0.75521100  0.75000000  1
  Si  Si41  1  0.42081500  0.24478900  0.25000000  1
  Si  Si42  1  0.42081500  0.75521100  0.25000000  1
  Si  Si43  1  0.57918500  0.24478900  0.75000000  1
  Si  Si44  1  0.07918500  0.25521100  0.75000000  1
  Si  Si45  1  0.92081500  0.74478900  0.25000000  1
  Si  Si46  1  0.92081500  0.25521100  0.25000000  1
  Si  Si47  1  0.07918500  0.74478900  0.75000000  1
  C  C48  1  0.80697200  0.00000000  0.96532100  1
  C  C49  1  0.19302800  0.00000000  0.46532100  1
  C  C50  1  0.80697200  0.00000000  0.53467900  1
  C  C51  1  0.19302800  0.00000000  0.03467900  1
  C  C52  1  0.30697200  0.50000000  0.96532100  1
  C  C53  1  0.69302800  0.50000000  0.46532100  1
  C  C54  1  0.30697200  0.50000000  0.53467900  1
  C  C55  1  0.69302800  0.50000000  0.03467900  1
