# generated using pymatgen
data_Hf2Pd
_symmetry_space_group_name_H-M   'P 1'
_cell_length_a   3.29730600
_cell_length_b   3.29730600
_cell_length_c   10.79331000
_cell_angle_alpha   90.00000000
_cell_angle_beta   90.00000000
_cell_angle_gamma   90.00000000
_symmetry_Int_Tables_number   1
_chemical_formula_structural   Hf2Pd
_chemical_formula_sum   'Hf4 Pd2'
_cell_volume   117.34731486
_cell_formula_units_Z   2
loop_
 _symmetry_equiv_pos_site_id
 _symmetry_equiv_pos_as_xyz
  1  'x, y, z'
loop_
 _atom_site_type_symbol
 _atom_site_label
 _atom_site_symmetry_multiplicity
 _atom_site_fract_x
 _atom_site_fract_y
 _atom_site_fract_z
 _atom_site_occupancy
  Hf  Hf0  1  0.50000000  0.50000000  0.15817000  1
  Hf  Hf1  1  0.00000000  0.00000000  0.34183000  1
  Hf  Hf2  1  0.00000000  0.00000000  0.65817000  1
  Hf  Hf3  1  0.50000000  0.50000000  0.84183000  1
  Pd  Pd4  1  0.00000000  0.00000000  0.00000000  1
  Pd  Pd5  1  0.50000000  0.50000000  0.50000000  1
