# generated using pymatgen
data_Y2AlSi2
_symmetry_space_group_name_H-M   'P 1'
_cell_length_a   4.05981000
_cell_length_b   5.83602600
_cell_length_c   8.70048600
_cell_angle_alpha   90.00000000
_cell_angle_beta   90.00000000
_cell_angle_gamma   90.00000000
_symmetry_Int_Tables_number   1
_chemical_formula_structural   Y2AlSi2
_chemical_formula_sum   'Y4 Al2 Si4'
_cell_volume   206.14197830
_cell_formula_units_Z   2
loop_
 _symmetry_equiv_pos_site_id
 _symmetry_equiv_pos_as_xyz
  1  'x, y, z'
loop_
 _atom_site_type_symbol
 _atom_site_label
 _atom_site_symmetry_multiplicity
 _atom_site_fract_x
 _atom_site_fract_y
 _atom_site_fract_z
 _atom_site_occupancy
  Y  Y0  1  0.00000000  0.50000000  0.21110600  1
  Y  Y1  1  0.00000000  0.50000000  0.78889400  1
  Y  Y2  1  0.50000000  0.00000000  0.71110600  1
  Y  Y3  1  0.50000000  0.00000000  0.28889400  1
  Al  Al4  1  0.00000000  0.00000000  0.00000000  1
  Al  Al5  1  0.50000000  0.50000000  0.50000000  1
  Si  Si6  1  0.50000000  0.28900000  0.00000000  1
  Si  Si7  1  0.50000000  0.71100000  0.00000000  1
  Si  Si8  1  0.00000000  0.78900000  0.50000000  1
  Si  Si9  1  0.00000000  0.21100000  0.50000000  1
