# generated using pymatgen
data_ZrAl
_symmetry_space_group_name_H-M   'P 1'
_cell_length_a   3.35523400
_cell_length_b   10.95467000
_cell_length_c   4.30527300
_cell_angle_alpha   90.00000000
_cell_angle_beta   90.00000000
_cell_angle_gamma   90.00000000
_symmetry_Int_Tables_number   1
_chemical_formula_structural   ZrAl
_chemical_formula_sum   'Zr4 Al4'
_cell_volume   158.24238100
_cell_formula_units_Z   4
loop_
 _symmetry_equiv_pos_site_id
 _symmetry_equiv_pos_as_xyz
  1  'x, y, z'
loop_
 _atom_site_type_symbol
 _atom_site_label
 _atom_site_symmetry_multiplicity
 _atom_site_fract_x
 _atom_site_fract_y
 _atom_site_fract_z
 _atom_site_occupancy
  Zr  Zr0  1  0.50000000  0.65997000  0.25000000  1
  Zr  Zr1  1  0.00000000  0.84003000  0.75000000  1
  Zr  Zr2  1  0.00000000  0.15997000  0.25000000  1
  Zr  Zr3  1  0.50000000  0.34003000  0.75000000  1
  Al  Al4  1  0.50000000  0.92886900  0.25000000  1
  Al  Al5  1  0.00000000  0.57113100  0.75000000  1
  Al  Al6  1  0.00000000  0.42886900  0.25000000  1
  Al  Al7  1  0.50000000  0.07113100  0.75000000  1
