# generated using pymatgen
data_TbAl2Ni
_symmetry_space_group_name_H-M   'P 1'
_cell_length_a   4.05227000
_cell_length_b   10.32113000
_cell_length_c   6.88461100
_cell_angle_alpha   90.00000000
_cell_angle_beta   90.00000000
_cell_angle_gamma   90.00000000
_symmetry_Int_Tables_number   1
_chemical_formula_structural   TbAl2Ni
_chemical_formula_sum   'Tb4 Al8 Ni4'
_cell_volume   287.94200809
_cell_formula_units_Z   4
loop_
 _symmetry_equiv_pos_site_id
 _symmetry_equiv_pos_as_xyz
  1  'x, y, z'
loop_
 _atom_site_type_symbol
 _atom_site_label
 _atom_site_symmetry_multiplicity
 _atom_site_fract_x
 _atom_site_fract_y
 _atom_site_fract_z
 _atom_site_occupancy
  Tb  Tb0  1  0.00000000  0.05988800  0.25000000  1
  Tb  Tb1  1  0.50000000  0.44011200  0.75000000  1
  Tb  Tb2  1  0.50000000  0.55988800  0.25000000  1
  Tb  Tb3  1  0.00000000  0.94011200  0.75000000  1
  Al  Al4  1  0.00000000  0.34088900  0.44513300  1
  Al  Al5  1  0.50000000  0.15911100  0.55486700  1
  Al  Al6  1  0.50000000  0.15911100  0.94513300  1
  Al  Al7  1  0.00000000  0.34088900  0.05486700  1
  Al  Al8  1  0.50000000  0.84088900  0.44513300  1
  Al  Al9  1  0.00000000  0.65911100  0.55486700  1
  Al  Al10  1  0.00000000  0.65911100  0.94513300  1
  Al  Al11  1  0.50000000  0.84088900  0.05486700  1
  Ni  Ni12  1  0.50000000  0.28343400  0.25000000  1
  Ni  Ni13  1  0.00000000  0.21656600  0.75000000  1
  Ni  Ni14  1  0.00000000  0.78343400  0.25000000  1
  Ni  Ni15  1  0.50000000  0.71656600  0.75000000  1
