# generated using pymatgen
data_ZnAu3
_symmetry_space_group_name_H-M   'P 1'
_cell_length_a   5.79965400
_cell_length_b   16.72310400
_cell_length_c   5.71125800
_cell_angle_alpha   90.00000000
_cell_angle_beta   90.00000000
_cell_angle_gamma   90.00000000
_symmetry_Int_Tables_number   1
_chemical_formula_structural   ZnAu3
_chemical_formula_sum   'Zn8 Au24'
_cell_volume   553.92473028
_cell_formula_units_Z   8
loop_
 _symmetry_equiv_pos_site_id
 _symmetry_equiv_pos_as_xyz
  1  'x, y, z'
loop_
 _atom_site_type_symbol
 _atom_site_label
 _atom_site_symmetry_multiplicity
 _atom_site_fract_x
 _atom_site_fract_y
 _atom_site_fract_z
 _atom_site_occupancy
  Zn  Zn0  1  0.00000000  0.36383100  0.00000000  1
  Zn  Zn1  1  0.50000000  0.13616900  0.00000000  1
  Zn  Zn2  1  0.50000000  0.36383100  0.50000000  1
  Zn  Zn3  1  0.00000000  0.13616900  0.50000000  1
  Zn  Zn4  1  0.50000000  0.86383100  0.00000000  1
  Zn  Zn5  1  0.00000000  0.63616900  0.00000000  1
  Zn  Zn6  1  0.00000000  0.86383100  0.50000000  1
  Zn  Zn7  1  0.50000000  0.63616900  0.50000000  1
  Au  Au8  1  0.31732100  0.00000000  0.18147800  1
  Au  Au9  1  0.81732100  0.00000000  0.31852200  1
  Au  Au10  1  0.18267900  0.00000000  0.68147800  1
  Au  Au11  1  0.50000000  0.11919800  0.50000000  1
  Au  Au12  1  0.75211000  0.25000000  0.75000000  1
  Au  Au13  1  0.00000000  0.11919800  0.00000000  1
  Au  Au14  1  0.74789000  0.25000000  0.25000000  1
  Au  Au15  1  0.68267900  0.00000000  0.81852200  1
  Au  Au16  1  0.00000000  0.38080200  0.50000000  1
  Au  Au17  1  0.50000000  0.38080200  0.00000000  1
  Au  Au18  1  0.24789000  0.25000000  0.25000000  1
  Au  Au19  1  0.25211000  0.25000000  0.75000000  1
  Au  Au20  1  0.81732100  0.50000000  0.18147800  1
  Au  Au21  1  0.31732100  0.50000000  0.31852200  1
  Au  Au22  1  0.68267900  0.50000000  0.68147800  1
  Au  Au23  1  0.00000000  0.61919800  0.50000000  1
  Au  Au24  1  0.25211000  0.75000000  0.75000000  1
  Au  Au25  1  0.50000000  0.61919800  0.00000000  1
  Au  Au26  1  0.24789000  0.75000000  0.25000000  1
  Au  Au27  1  0.18267900  0.50000000  0.81852200  1
  Au  Au28  1  0.50000000  0.88080200  0.50000000  1
  Au  Au29  1  0.00000000  0.88080200  0.00000000  1
  Au  Au30  1  0.74789000  0.75000000  0.25000000  1
  Au  Au31  1  0.75211000  0.75000000  0.75000000  1
