# generated using pymatgen
data_P2W
_symmetry_space_group_name_H-M   'P 1'
_cell_length_a   3.18134400
_cell_length_b   11.23722000
_cell_length_c   5.00739200
_cell_angle_alpha   90.00000000
_cell_angle_beta   90.00000000
_cell_angle_gamma   90.00000000
_symmetry_Int_Tables_number   1
_chemical_formula_structural   P2W
_chemical_formula_sum   'P8 W4'
_cell_volume   179.01157214
_cell_formula_units_Z   4
loop_
 _symmetry_equiv_pos_site_id
 _symmetry_equiv_pos_as_xyz
  1  'x, y, z'
loop_
 _atom_site_type_symbol
 _atom_site_label
 _atom_site_symmetry_multiplicity
 _atom_site_fract_x
 _atom_site_fract_y
 _atom_site_fract_z
 _atom_site_occupancy
  P  P0  1  0.00000000  0.56964500  0.61668200  1
  P  P1  1  0.50000000  0.93035500  0.11668200  1
  P  P2  1  0.50000000  0.79822700  0.80058200  1
  P  P3  1  0.00000000  0.70177300  0.30058200  1
  P  P4  1  0.50000000  0.06964500  0.61668200  1
  P  P5  1  0.00000000  0.43035500  0.11668200  1
  P  P6  1  0.00000000  0.29822700  0.80058200  1
  P  P7  1  0.50000000  0.20177300  0.30058200  1
  W  W8  1  0.00000000  0.90626100  0.49973600  1
  W  W9  1  0.50000000  0.59373900  0.99973600  1
  W  W10  1  0.50000000  0.40626100  0.49973600  1
  W  W11  1  0.00000000  0.09373900  0.99973600  1
