# generated using pymatgen
data_K(USe3)2
_symmetry_space_group_name_H-M   'P 1'
_cell_length_a   4.05302600
_cell_length_b   5.53577600
_cell_length_c   22.10395800
_cell_angle_alpha   90.00000000
_cell_angle_beta   90.00000000
_cell_angle_gamma   90.00000000
_symmetry_Int_Tables_number   1
_chemical_formula_structural   K(USe3)2
_chemical_formula_sum   'K2 U4 Se12'
_cell_volume   495.93863792
_cell_formula_units_Z   2
loop_
 _symmetry_equiv_pos_site_id
 _symmetry_equiv_pos_as_xyz
  1  'x, y, z'
loop_
 _atom_site_type_symbol
 _atom_site_label
 _atom_site_symmetry_multiplicity
 _atom_site_fract_x
 _atom_site_fract_y
 _atom_site_fract_z
 _atom_site_occupancy
  K  K0  1  0.00000000  0.00000000  0.00000000  1
  K  K1  1  0.50000000  0.50000000  0.50000000  1
  U  U2  1  0.00000000  0.50000000  0.81892500  1
  U  U3  1  0.50000000  0.00000000  0.68107500  1
  U  U4  1  0.50000000  0.00000000  0.31892500  1
  U  U5  1  0.00000000  0.50000000  0.18107500  1
  Se  Se6  1  0.00000000  0.00000000  0.77391000  1
  Se  Se7  1  0.00000000  0.24645200  0.60802200  1
  Se  Se8  1  0.50000000  0.25354800  0.89197800  1
  Se  Se9  1  0.50000000  0.50000000  0.72609000  1
  Se  Se10  1  0.00000000  0.75354800  0.60802200  1
  Se  Se11  1  0.50000000  0.74645200  0.89197800  1
  Se  Se12  1  0.50000000  0.50000000  0.27391000  1
  Se  Se13  1  0.50000000  0.74645200  0.10802200  1
  Se  Se14  1  0.00000000  0.75354800  0.39197800  1
  Se  Se15  1  0.00000000  0.00000000  0.22609000  1
  Se  Se16  1  0.50000000  0.25354800  0.10802200  1
  Se  Se17  1  0.00000000  0.24645200  0.39197800  1
