# generated using pymatgen
data_ScNi4Sn
_symmetry_space_group_name_H-M   'P 1'
_cell_length_a   6.89934600
_cell_length_b   6.89934600
_cell_length_c   6.89934600
_cell_angle_alpha   90.00000000
_cell_angle_beta   90.00000000
_cell_angle_gamma   90.00000000
_symmetry_Int_Tables_number   1
_chemical_formula_structural   ScNi4Sn
_chemical_formula_sum   'Sc4 Ni16 Sn4'
_cell_volume   328.41559803
_cell_formula_units_Z   4
loop_
 _symmetry_equiv_pos_site_id
 _symmetry_equiv_pos_as_xyz
  1  'x, y, z'
loop_
 _atom_site_type_symbol
 _atom_site_label
 _atom_site_symmetry_multiplicity
 _atom_site_fract_x
 _atom_site_fract_y
 _atom_site_fract_z
 _atom_site_occupancy
  Sc  Sc0  1  0.00000000  0.00000000  0.00000000  1
  Sc  Sc1  1  0.00000000  0.50000000  0.50000000  1
  Sc  Sc2  1  0.50000000  0.00000000  0.50000000  1
  Sc  Sc3  1  0.50000000  0.50000000  0.00000000  1
  Ni  Ni4  1  0.12505600  0.37494400  0.12505600  1
  Ni  Ni5  1  0.62505600  0.12505600  0.87494400  1
  Ni  Ni6  1  0.37494400  0.12505600  0.12505600  1
  Ni  Ni7  1  0.87494400  0.37494400  0.87494400  1
  Ni  Ni8  1  0.12505600  0.87494400  0.62505600  1
  Ni  Ni9  1  0.62505600  0.62505600  0.37494400  1
  Ni  Ni10  1  0.37494400  0.62505600  0.62505600  1
  Ni  Ni11  1  0.87494400  0.87494400  0.37494400  1
  Ni  Ni12  1  0.62505600  0.37494400  0.62505600  1
  Ni  Ni13  1  0.12505600  0.12505600  0.37494400  1
  Ni  Ni14  1  0.87494400  0.12505600  0.62505600  1
  Ni  Ni15  1  0.37494400  0.37494400  0.37494400  1
  Ni  Ni16  1  0.62505600  0.87494400  0.12505600  1
  Ni  Ni17  1  0.12505600  0.62505600  0.87494400  1
  Ni  Ni18  1  0.87494400  0.62505600  0.12505600  1
  Ni  Ni19  1  0.37494400  0.87494400  0.87494400  1
  Sn  Sn20  1  0.25000000  0.25000000  0.75000000  1
  Sn  Sn21  1  0.25000000  0.75000000  0.25000000  1
  Sn  Sn22  1  0.75000000  0.25000000  0.25000000  1
  Sn  Sn23  1  0.75000000  0.75000000  0.75000000  1
