# generated using pymatgen
data_Sb2Pt3
_symmetry_space_group_name_H-M   'P 1'
_cell_length_a   5.40563000
_cell_length_b   6.58610000
_cell_length_c   11.09689200
_cell_angle_alpha   90.00000000
_cell_angle_beta   90.00000000
_cell_angle_gamma   90.00000000
_symmetry_Int_Tables_number   1
_chemical_formula_structural   Sb2Pt3
_chemical_formula_sum   'Sb8 Pt12'
_cell_volume   395.07176807
_cell_formula_units_Z   4
loop_
 _symmetry_equiv_pos_site_id
 _symmetry_equiv_pos_as_xyz
  1  'x, y, z'
loop_
 _atom_site_type_symbol
 _atom_site_label
 _atom_site_symmetry_multiplicity
 _atom_site_fract_x
 _atom_site_fract_y
 _atom_site_fract_z
 _atom_site_occupancy
  Sb  Sb0  1  0.00000000  0.26005400  0.65526200  1
  Sb  Sb1  1  0.50000000  0.23994600  0.84473800  1
  Sb  Sb2  1  0.00000000  0.76005400  0.84473800  1
  Sb  Sb3  1  0.50000000  0.73994600  0.65526200  1
  Sb  Sb4  1  0.50000000  0.76005400  0.15526200  1
  Sb  Sb5  1  0.00000000  0.73994600  0.34473800  1
  Sb  Sb6  1  0.50000000  0.26005400  0.34473800  1
  Sb  Sb7  1  0.00000000  0.23994600  0.15526200  1
  Pt  Pt8  1  0.50000000  0.12951350  0.60913450  1
  Pt  Pt9  1  0.00000000  0.37048650  0.89086550  1
  Pt  Pt10  1  0.00000000  0.87048650  0.60913450  1
  Pt  Pt11  1  0.50000000  0.62951350  0.89086550  1
  Pt  Pt12  1  0.75000000  0.50000000  0.50000000  1
  Pt  Pt13  1  0.25000000  0.50000000  0.50000000  1
  Pt  Pt14  1  0.00000000  0.62951350  0.10913450  1
  Pt  Pt15  1  0.50000000  0.87048650  0.39086550  1
  Pt  Pt16  1  0.50000000  0.37048650  0.10913450  1
  Pt  Pt17  1  0.00000000  0.12951350  0.39086550  1
  Pt  Pt18  1  0.25000000  0.00000000  0.00000000  1
  Pt  Pt19  1  0.75000000  0.00000000  0.00000000  1
