# generated using pymatgen
data_Nb5Si3
_symmetry_space_group_name_H-M   'P 1'
_cell_length_a   6.61503400
_cell_length_b   6.61503400
_cell_length_c   11.95546800
_cell_angle_alpha   90.00000000
_cell_angle_beta   90.00000000
_cell_angle_gamma   90.00000000
_symmetry_Int_Tables_number   1
_chemical_formula_structural   Nb5Si3
_chemical_formula_sum   'Nb20 Si12'
_cell_volume   523.15543655
_cell_formula_units_Z   4
loop_
 _symmetry_equiv_pos_site_id
 _symmetry_equiv_pos_as_xyz
  1  'x, y, z'
loop_
 _atom_site_type_symbol
 _atom_site_label
 _atom_site_symmetry_multiplicity
 _atom_site_fract_x
 _atom_site_fract_y
 _atom_site_fract_z
 _atom_site_occupancy
  Nb  Nb0  1  0.83375650  0.66624350  0.35090350  1
  Nb  Nb1  1  0.66624350  0.16624350  0.35090350  1
  Nb  Nb2  1  0.33375650  0.83375650  0.35090350  1
  Nb  Nb3  1  0.83375650  0.33375650  0.14909650  1
  Nb  Nb4  1  0.16624350  0.33375650  0.35090350  1
  Nb  Nb5  1  0.66624350  0.83375650  0.14909650  1
  Nb  Nb6  1  0.33375650  0.16624350  0.14909650  1
  Nb  Nb7  1  0.16624350  0.66624350  0.14909650  1
  Nb  Nb8  1  0.50000000  0.50000000  0.00000000  1
  Nb  Nb9  1  0.00000000  0.00000000  0.00000000  1
  Nb  Nb10  1  0.33375650  0.16624350  0.85090350  1
  Nb  Nb11  1  0.16624350  0.66624350  0.85090350  1
  Nb  Nb12  1  0.83375650  0.33375650  0.85090350  1
  Nb  Nb13  1  0.33375650  0.83375650  0.64909650  1
  Nb  Nb14  1  0.66624350  0.83375650  0.85090350  1
  Nb  Nb15  1  0.16624350  0.33375650  0.64909650  1
  Nb  Nb16  1  0.83375650  0.66624350  0.64909650  1
  Nb  Nb17  1  0.66624350  0.16624350  0.64909650  1
  Nb  Nb18  1  0.00000000  0.00000000  0.50000000  1
  Nb  Nb19  1  0.50000000  0.50000000  0.50000000  1
  Si  Si20  1  0.62910000  0.12910000  0.00000000  1
  Si  Si21  1  0.87090000  0.62910000  0.00000000  1
  Si  Si22  1  0.12910000  0.37090000  0.00000000  1
  Si  Si23  1  0.37090000  0.87090000  0.00000000  1
  Si  Si24  1  0.50000000  0.50000000  0.25000000  1
  Si  Si25  1  0.00000000  0.00000000  0.25000000  1
  Si  Si26  1  0.12910000  0.62910000  0.50000000  1
  Si  Si27  1  0.37090000  0.12910000  0.50000000  1
  Si  Si28  1  0.62910000  0.87090000  0.50000000  1
  Si  Si29  1  0.87090000  0.37090000  0.50000000  1
  Si  Si30  1  0.00000000  0.00000000  0.75000000  1
  Si  Si31  1  0.50000000  0.50000000  0.75000000  1
