# generated using pymatgen
data_Ca3(GaNi)4
_symmetry_space_group_name_H-M   'P 1'
_cell_length_a   7.39693400
_cell_length_b   7.39693400
_cell_length_c   7.39693400
_cell_angle_alpha   90.00000000
_cell_angle_beta   90.00000000
_cell_angle_gamma   90.00000000
_symmetry_Int_Tables_number   1
_chemical_formula_structural   Ca3(GaNi)4
_chemical_formula_sum   'Ca6 Ga8 Ni8'
_cell_volume   404.72052618
_cell_formula_units_Z   2
loop_
 _symmetry_equiv_pos_site_id
 _symmetry_equiv_pos_as_xyz
  1  'x, y, z'
loop_
 _atom_site_type_symbol
 _atom_site_label
 _atom_site_symmetry_multiplicity
 _atom_site_fract_x
 _atom_site_fract_y
 _atom_site_fract_z
 _atom_site_occupancy
  Ca  Ca0  1  0.00000000  0.00000000  0.50000000  1
  Ca  Ca1  1  0.50000000  0.00000000  0.00000000  1
  Ca  Ca2  1  0.00000000  0.50000000  0.00000000  1
  Ca  Ca3  1  0.50000000  0.50000000  0.00000000  1
  Ca  Ca4  1  0.00000000  0.50000000  0.50000000  1
  Ca  Ca5  1  0.50000000  0.00000000  0.50000000  1
  Ga  Ga6  1  0.30500850  0.69499150  0.30500850  1
  Ga  Ga7  1  0.30500850  0.30500850  0.69499150  1
  Ga  Ga8  1  0.19499150  0.19499150  0.19499150  1
  Ga  Ga9  1  0.69499150  0.30500850  0.30500850  1
  Ga  Ga10  1  0.80500850  0.19499150  0.80500850  1
  Ga  Ga11  1  0.80500850  0.80500850  0.19499150  1
  Ga  Ga12  1  0.69499150  0.69499150  0.69499150  1
  Ga  Ga13  1  0.19499150  0.80500850  0.80500850  1
  Ni  Ni14  1  0.87730300  0.12269700  0.12269700  1
  Ni  Ni15  1  0.12269700  0.12269700  0.87730300  1
  Ni  Ni16  1  0.12269700  0.87730300  0.12269700  1
  Ni  Ni17  1  0.37730300  0.37730300  0.37730300  1
  Ni  Ni18  1  0.37730300  0.62269700  0.62269700  1
  Ni  Ni19  1  0.62269700  0.62269700  0.37730300  1
  Ni  Ni20  1  0.62269700  0.37730300  0.62269700  1
  Ni  Ni21  1  0.87730300  0.87730300  0.87730300  1
