# generated using pymatgen
data_Yb(FeO2)2
_symmetry_space_group_name_H-M   'P 1'
_cell_length_a   3.46771164
_cell_length_b   3.46771164
_cell_length_c   25.67250489
_cell_angle_alpha   90.00000000
_cell_angle_beta   90.00000000
_cell_angle_gamma   120.00000000
_symmetry_Int_Tables_number   1
_chemical_formula_structural   Yb(FeO2)2
_chemical_formula_sum   'Yb3 Fe6 O12'
_cell_volume   267.35285648
_cell_formula_units_Z   3
loop_
 _symmetry_equiv_pos_site_id
 _symmetry_equiv_pos_as_xyz
  1  'x, y, z'
loop_
 _atom_site_type_symbol
 _atom_site_label
 _atom_site_symmetry_multiplicity
 _atom_site_fract_x
 _atom_site_fract_y
 _atom_site_fract_z
 _atom_site_occupancy
  Yb  Yb0  1  0.00000000  0.00000000  0.00000000  1
  Yb  Yb1  1  0.66666667  0.33333333  0.33333333  1
  Yb  Yb2  1  0.33333333  0.66666667  0.66666667  1
  Fe  Fe3  1  0.66666667  0.33333333  0.11650033  1
  Fe  Fe4  1  0.00000000  0.00000000  0.21683300  1
  Fe  Fe5  1  0.33333333  0.66666667  0.44983367  1
  Fe  Fe6  1  0.66666667  0.33333333  0.55016633  1
  Fe  Fe7  1  0.00000000  0.00000000  0.78316700  1
  Fe  Fe8  1  0.33333333  0.66666667  0.88349967  1
  O  O9  1  0.66666667  0.33333333  0.20218533  1
  O  O10  1  0.00000000  0.00000000  0.13114800  1
  O  O11  1  0.66666667  0.33333333  0.04569233  1
  O  O12  1  0.00000000  0.00000000  0.28764100  1
  O  O13  1  0.33333333  0.66666667  0.53551867  1
  O  O14  1  0.66666667  0.33333333  0.46448133  1
  O  O15  1  0.33333333  0.66666667  0.37902567  1
  O  O16  1  0.66666667  0.33333333  0.62097433  1
  O  O17  1  0.00000000  0.00000000  0.86885200  1
  O  O18  1  0.33333333  0.66666667  0.79781467  1
  O  O19  1  0.00000000  0.00000000  0.71235900  1
  O  O20  1  0.33333333  0.66666667  0.95430767  1
