# generated using pymatgen
data_HgRhF6
_symmetry_space_group_name_H-M   'P 1'
_cell_length_a   5.28981309
_cell_length_b   5.28981309
_cell_length_c   14.85971212
_cell_angle_alpha   90.00000000
_cell_angle_beta   90.00000000
_cell_angle_gamma   120.00000000
_symmetry_Int_Tables_number   1
_chemical_formula_structural   HgRhF6
_chemical_formula_sum   'Hg3 Rh3 F18'
_cell_volume   360.09880682
_cell_formula_units_Z   3
loop_
 _symmetry_equiv_pos_site_id
 _symmetry_equiv_pos_as_xyz
  1  'x, y, z'
loop_
 _atom_site_type_symbol
 _atom_site_label
 _atom_site_symmetry_multiplicity
 _atom_site_fract_x
 _atom_site_fract_y
 _atom_site_fract_z
 _atom_site_occupancy
  Hg  Hg0  1  0.33333333  0.66666667  0.16666667  1
  Hg  Hg1  1  1.00000000  0.00000000  0.50000000  1
  Hg  Hg2  1  0.66666667  0.33333333  0.83333333  1
  Rh  Rh3  1  0.00000000  0.00000000  0.00000000  1
  Rh  Rh4  1  0.66666667  0.33333333  0.33333333  1
  Rh  Rh5  1  0.33333333  0.66666667  0.66666667  1
  F  F6  1  0.30827800  0.01720500  0.07639800  1
  F  F7  1  0.98279500  0.29107300  0.07639800  1
  F  F8  1  0.95773967  0.64161133  0.25693533  1
  F  F9  1  0.68387167  0.04226033  0.25693533  1
  F  F10  1  0.35838867  0.31612833  0.25693533  1
  F  F11  1  0.70892700  0.69172200  0.07639800  1
  F  F12  1  0.97494467  0.35053833  0.40973133  1
  F  F13  1  0.64946167  0.62440633  0.40973133  1
  F  F14  1  0.62440633  0.97494467  0.59026867  1
  F  F15  1  0.35053833  0.37559367  0.59026867  1
  F  F16  1  0.02505533  0.64946167  0.59026867  1
  F  F17  1  0.37559367  0.02505533  0.40973133  1
  F  F18  1  0.64161133  0.68387167  0.74306467  1
  F  F19  1  0.31612833  0.95773967  0.74306467  1
  F  F20  1  0.29107300  0.30827800  0.92360200  1
  F  F21  1  0.01720500  0.70892700  0.92360200  1
  F  F22  1  0.69172200  0.98279500  0.92360200  1
  F  F23  1  0.04226033  0.35838867  0.74306467  1
