# generated using pymatgen
data_UAlNi4
_symmetry_space_group_name_H-M   'P 1'
_cell_length_a   6.88389800
_cell_length_b   6.88389800
_cell_length_c   6.88389800
_cell_angle_alpha   90.00000000
_cell_angle_beta   90.00000000
_cell_angle_gamma   90.00000000
_symmetry_Int_Tables_number   1
_chemical_formula_structural   UAlNi4
_chemical_formula_sum   'U4 Al4 Ni16'
_cell_volume   326.21451415
_cell_formula_units_Z   4
loop_
 _symmetry_equiv_pos_site_id
 _symmetry_equiv_pos_as_xyz
  1  'x, y, z'
loop_
 _atom_site_type_symbol
 _atom_site_label
 _atom_site_symmetry_multiplicity
 _atom_site_fract_x
 _atom_site_fract_y
 _atom_site_fract_z
 _atom_site_occupancy
  U  U0  1  0.00000000  0.00000000  0.00000000  1
  U  U1  1  0.00000000  0.50000000  0.50000000  1
  U  U2  1  0.50000000  0.00000000  0.50000000  1
  U  U3  1  0.50000000  0.50000000  0.00000000  1
  Al  Al4  1  0.25000000  0.25000000  0.75000000  1
  Al  Al5  1  0.25000000  0.75000000  0.25000000  1
  Al  Al6  1  0.75000000  0.25000000  0.25000000  1
  Al  Al7  1  0.75000000  0.75000000  0.75000000  1
  Ni  Ni8  1  0.12375300  0.37624700  0.12375300  1
  Ni  Ni9  1  0.62375300  0.12375300  0.87624700  1
  Ni  Ni10  1  0.37624700  0.12375300  0.12375300  1
  Ni  Ni11  1  0.87624700  0.37624700  0.87624700  1
  Ni  Ni12  1  0.12375300  0.87624700  0.62375300  1
  Ni  Ni13  1  0.62375300  0.62375300  0.37624700  1
  Ni  Ni14  1  0.37624700  0.62375300  0.62375300  1
  Ni  Ni15  1  0.87624700  0.87624700  0.37624700  1
  Ni  Ni16  1  0.62375300  0.37624700  0.62375300  1
  Ni  Ni17  1  0.12375300  0.12375300  0.37624700  1
  Ni  Ni18  1  0.87624700  0.12375300  0.62375300  1
  Ni  Ni19  1  0.37624700  0.37624700  0.37624700  1
  Ni  Ni20  1  0.62375300  0.87624700  0.12375300  1
  Ni  Ni21  1  0.12375300  0.62375300  0.87624700  1
  Ni  Ni22  1  0.87624700  0.62375300  0.12375300  1
  Ni  Ni23  1  0.37624700  0.87624700  0.87624700  1
