# generated using pymatgen
data_Zr3(CuSi)4
_symmetry_space_group_name_H-M   'P 1'
_cell_length_a   3.94587800
_cell_length_b   6.41620800
_cell_length_c   13.13205200
_cell_angle_alpha   90.00000000
_cell_angle_beta   90.00000000
_cell_angle_gamma   90.00000000
_symmetry_Int_Tables_number   1
_chemical_formula_structural   Zr3(CuSi)4
_chemical_formula_sum   'Zr6 Cu8 Si8'
_cell_volume   332.47169816
_cell_formula_units_Z   2
loop_
 _symmetry_equiv_pos_site_id
 _symmetry_equiv_pos_as_xyz
  1  'x, y, z'
loop_
 _atom_site_type_symbol
 _atom_site_label
 _atom_site_symmetry_multiplicity
 _atom_site_fract_x
 _atom_site_fract_y
 _atom_site_fract_z
 _atom_site_occupancy
  Zr  Zr0  1  0.00000000  0.00000000  0.87573600  1
  Zr  Zr1  1  0.50000000  0.50000000  0.62426400  1
  Zr  Zr2  1  0.00000000  0.50000000  0.00000000  1
  Zr  Zr3  1  0.50000000  0.50000000  0.37573600  1
  Zr  Zr4  1  0.00000000  0.00000000  0.12426400  1
  Zr  Zr5  1  0.50000000  0.00000000  0.50000000  1
  Cu  Cu6  1  0.50000000  0.69194000  0.83040600  1
  Cu  Cu7  1  0.00000000  0.19194000  0.66959400  1
  Cu  Cu8  1  0.50000000  0.30806000  0.83040600  1
  Cu  Cu9  1  0.00000000  0.80806000  0.66959400  1
  Cu  Cu10  1  0.00000000  0.19194000  0.33040600  1
  Cu  Cu11  1  0.50000000  0.69194000  0.16959400  1
  Cu  Cu12  1  0.00000000  0.80806000  0.33040600  1
  Cu  Cu13  1  0.50000000  0.30806000  0.16959400  1
  Si  Si14  1  0.50000000  0.80930600  0.00000000  1
  Si  Si15  1  0.50000000  0.19069400  0.00000000  1
  Si  Si16  1  0.00000000  0.50000000  0.78399400  1
  Si  Si17  1  0.50000000  0.00000000  0.71600600  1
  Si  Si18  1  0.00000000  0.30930600  0.50000000  1
  Si  Si19  1  0.00000000  0.69069400  0.50000000  1
  Si  Si20  1  0.50000000  0.00000000  0.28399400  1
  Si  Si21  1  0.00000000  0.50000000  0.21600600  1
