# generated using pymatgen
data_Na2NiO2
_symmetry_space_group_name_H-M   'P 1'
_cell_length_a   2.86542028
_cell_length_b   10.21650464
_cell_length_c   8.30113035
_cell_angle_alpha   90.00000000
_cell_angle_beta   90.00000000
_cell_angle_gamma   90.00000000
_symmetry_Int_Tables_number   1
_chemical_formula_structural   Na2NiO2
_chemical_formula_sum   'Na8 Ni4 O8'
_cell_volume   243.01210109
_cell_formula_units_Z   4
loop_
 _symmetry_equiv_pos_site_id
 _symmetry_equiv_pos_as_xyz
  1  'x, y, z'
loop_
 _atom_site_type_symbol
 _atom_site_label
 _atom_site_symmetry_multiplicity
 _atom_site_fract_x
 _atom_site_fract_y
 _atom_site_fract_z
 _atom_site_occupancy
  Na  Na0  1  0.50000000  0.39526043  0.15244463  1
  Na  Na1  1  0.00000000  0.35143433  0.83077950  1
  Na  Na2  1  0.00000000  0.10473957  0.65244463  1
  Na  Na3  1  0.50000000  0.14856567  0.33077950  1
  Na  Na4  1  0.00000000  0.89526043  0.15244463  1
  Na  Na5  1  0.50000000  0.85143433  0.83077950  1
  Na  Na6  1  0.50000000  0.60473957  0.65244463  1
  Na  Na7  1  0.00000000  0.64856567  0.33077950  1
  Ni  Ni8  1  0.50000000  0.12204581  0.99838272  1
  Ni  Ni9  1  0.00000000  0.37795419  0.49838272  1
  Ni  Ni10  1  0.00000000  0.62204581  0.99838272  1
  Ni  Ni11  1  0.50000000  0.87795419  0.49838272  1
  O  O12  1  0.00000000  0.22231166  0.09353179  1
  O  O13  1  0.00000000  0.01983375  0.91016163  1
  O  O14  1  0.50000000  0.27768834  0.59353179  1
  O  O15  1  0.50000000  0.48016625  0.41016163  1
  O  O16  1  0.50000000  0.72231166  0.09353179  1
  O  O17  1  0.50000000  0.51983375  0.91016163  1
  O  O18  1  0.00000000  0.77768834  0.59353179  1
  O  O19  1  0.00000000  0.98016625  0.41016163  1
