# generated using pymatgen
data_MgPd3
_symmetry_space_group_name_H-M   'P 1'
_cell_length_a   3.97730600
_cell_length_b   3.97730600
_cell_length_c   15.89743000
_cell_angle_alpha   90.00000000
_cell_angle_beta   90.00000000
_cell_angle_gamma   90.00000000
_symmetry_Int_Tables_number   1
_chemical_formula_structural   MgPd3
_chemical_formula_sum   'Mg4 Pd12'
_cell_volume   251.48085725
_cell_formula_units_Z   4
loop_
 _symmetry_equiv_pos_site_id
 _symmetry_equiv_pos_as_xyz
  1  'x, y, z'
loop_
 _atom_site_type_symbol
 _atom_site_label
 _atom_site_symmetry_multiplicity
 _atom_site_fract_x
 _atom_site_fract_y
 _atom_site_fract_z
 _atom_site_occupancy
  Mg  Mg0  1  0.00000000  0.00000000  0.12368800  1
  Mg  Mg1  1  0.50000000  0.50000000  0.37631200  1
  Mg  Mg2  1  0.50000000  0.50000000  0.62368800  1
  Mg  Mg3  1  0.00000000  0.00000000  0.87631200  1
  Pd  Pd4  1  0.50000000  0.00000000  0.00000000  1
  Pd  Pd5  1  0.00000000  0.50000000  0.00000000  1
  Pd  Pd6  1  0.50000000  0.00000000  0.25000000  1
  Pd  Pd7  1  0.00000000  0.50000000  0.25000000  1
  Pd  Pd8  1  0.00000000  0.00000000  0.37442900  1
  Pd  Pd9  1  0.50000000  0.50000000  0.12557100  1
  Pd  Pd10  1  0.00000000  0.50000000  0.50000000  1
  Pd  Pd11  1  0.50000000  0.00000000  0.50000000  1
  Pd  Pd12  1  0.00000000  0.50000000  0.75000000  1
  Pd  Pd13  1  0.50000000  0.00000000  0.75000000  1
  Pd  Pd14  1  0.50000000  0.50000000  0.87442900  1
  Pd  Pd15  1  0.00000000  0.00000000  0.62557100  1
