# generated using pymatgen
data_TaAs
_symmetry_space_group_name_H-M   'P 1'
_cell_length_a   3.46961400
_cell_length_b   3.46961400
_cell_length_c   11.73489000
_cell_angle_alpha   90.00000000
_cell_angle_beta   90.00000000
_cell_angle_gamma   90.00000000
_symmetry_Int_Tables_number   1
_chemical_formula_structural   TaAs
_chemical_formula_sum   'Ta4 As4'
_cell_volume   141.26720286
_cell_formula_units_Z   4
loop_
 _symmetry_equiv_pos_site_id
 _symmetry_equiv_pos_as_xyz
  1  'x, y, z'
loop_
 _atom_site_type_symbol
 _atom_site_label
 _atom_site_symmetry_multiplicity
 _atom_site_fract_x
 _atom_site_fract_y
 _atom_site_fract_z
 _atom_site_occupancy
  Ta  Ta0  1  0.50000000  0.00000000  0.24993600  1
  Ta  Ta1  1  0.50000000  0.50000000  0.99993600  1
  Ta  Ta2  1  0.00000000  0.50000000  0.74993600  1
  Ta  Ta3  1  0.00000000  0.00000000  0.49993600  1
  As  As4  1  0.00000000  0.50000000  0.16776400  1
  As  As5  1  0.00000000  0.00000000  0.91776400  1
  As  As6  1  0.50000000  0.00000000  0.66776400  1
  As  As7  1  0.50000000  0.50000000  0.41776400  1
