# generated using pymatgen
data_Zr3Pd4
_symmetry_space_group_name_H-M   'P 1'
_cell_length_a   12.66262051
_cell_length_b   12.66262051
_cell_length_c   5.60033522
_cell_angle_alpha   90.00000000
_cell_angle_beta   90.00000000
_cell_angle_gamma   120.00000000
_symmetry_Int_Tables_number   1
_chemical_formula_structural   Zr3Pd4
_chemical_formula_sum   'Zr18 Pd24'
_cell_volume   777.66371985
_cell_formula_units_Z   6
loop_
 _symmetry_equiv_pos_site_id
 _symmetry_equiv_pos_as_xyz
  1  'x, y, z'
loop_
 _atom_site_type_symbol
 _atom_site_label
 _atom_site_symmetry_multiplicity
 _atom_site_fract_x
 _atom_site_fract_y
 _atom_site_fract_z
 _atom_site_occupancy
  Zr  Zr0  1  0.70980433  0.15886367  0.55559767  1
  Zr  Zr1  1  0.50780300  0.88427400  0.88893100  1
  Zr  Zr2  1  0.78239267  0.95686233  0.22226433  1
  Zr  Zr3  1  0.95686233  0.17446967  0.77773567  1
  Zr  Zr4  1  0.15886367  0.44905933  0.44440233  1
  Zr  Zr5  1  0.88427400  0.37647100  0.11106900  1
  Zr  Zr6  1  0.37647100  0.49219700  0.88893100  1
  Zr  Zr7  1  0.17446967  0.21760733  0.22226433  1
  Zr  Zr8  1  0.44905933  0.29019567  0.55559767  1
  Zr  Zr9  1  0.62352900  0.50780300  0.11106900  1
  Zr  Zr10  1  0.82553033  0.78239267  0.77773567  1
  Zr  Zr11  1  0.55094067  0.70980433  0.44440233  1
  Zr  Zr12  1  0.04313767  0.82553033  0.22226433  1
  Zr  Zr13  1  0.84113633  0.55094067  0.55559767  1
  Zr  Zr14  1  0.11572600  0.62352900  0.88893100  1
  Zr  Zr15  1  0.29019567  0.84113633  0.44440233  1
  Zr  Zr16  1  0.49219700  0.11572600  0.11106900  1
  Zr  Zr17  1  0.21760733  0.04313767  0.77773567  1
  Pd  Pd18  1  0.00000000  0.00000000  0.00000000  1
  Pd  Pd19  1  0.00000000  0.00000000  0.50000000  1
  Pd  Pd20  1  0.72021167  0.11902933  0.04173533  1
  Pd  Pd21  1  0.54763733  0.93451567  0.37506867  1
  Pd  Pd22  1  0.73215100  0.94645500  0.70840200  1
  Pd  Pd23  1  0.94645500  0.21430400  0.29159800  1
  Pd  Pd24  1  0.11902933  0.39881767  0.95826467  1
  Pd  Pd25  1  0.93451567  0.38687833  0.62493133  1
  Pd  Pd26  1  0.66666667  0.33333333  0.33333333  1
  Pd  Pd27  1  0.66666667  0.33333333  0.83333333  1
  Pd  Pd28  1  0.38687833  0.45236267  0.37506867  1
  Pd  Pd29  1  0.21430400  0.26784900  0.70840200  1
  Pd  Pd30  1  0.39881767  0.27978833  0.04173533  1
  Pd  Pd31  1  0.61312167  0.54763733  0.62493133  1
  Pd  Pd32  1  0.78569600  0.73215100  0.29159800  1
  Pd  Pd33  1  0.60118233  0.72021167  0.95826467  1
  Pd  Pd34  1  0.33333333  0.66666667  0.66666667  1
  Pd  Pd35  1  0.33333333  0.66666667  0.16666667  1
  Pd  Pd36  1  0.05354500  0.78569600  0.70840200  1
  Pd  Pd37  1  0.88097067  0.60118233  0.04173533  1
  Pd  Pd38  1  0.06548433  0.61312167  0.37506867  1
  Pd  Pd39  1  0.27978833  0.88097067  0.95826467  1
  Pd  Pd40  1  0.45236267  0.06548433  0.62493133  1
  Pd  Pd41  1  0.26784900  0.05354500  0.29159800  1
