# generated using pymatgen
data_YAl
_symmetry_space_group_name_H-M   'P 1'
_cell_length_a   3.83281600
_cell_length_b   11.54740200
_cell_length_c   4.48258600
_cell_angle_alpha   90.00000000
_cell_angle_beta   90.00000000
_cell_angle_gamma   90.00000000
_symmetry_Int_Tables_number   1
_chemical_formula_structural   YAl
_chemical_formula_sum   'Y4 Al4'
_cell_volume   198.39507475
_cell_formula_units_Z   4
loop_
 _symmetry_equiv_pos_site_id
 _symmetry_equiv_pos_as_xyz
  1  'x, y, z'
loop_
 _atom_site_type_symbol
 _atom_site_label
 _atom_site_symmetry_multiplicity
 _atom_site_fract_x
 _atom_site_fract_y
 _atom_site_fract_z
 _atom_site_occupancy
  Y  Y0  1  0.50000000  0.85026200  0.75000000  1
  Y  Y1  1  0.00000000  0.64973800  0.25000000  1
  Y  Y2  1  0.00000000  0.35026200  0.75000000  1
  Y  Y3  1  0.50000000  0.14973800  0.25000000  1
  Al  Al4  1  0.50000000  0.56978800  0.75000000  1
  Al  Al5  1  0.00000000  0.93021200  0.25000000  1
  Al  Al6  1  0.00000000  0.06978800  0.75000000  1
  Al  Al7  1  0.50000000  0.43021200  0.25000000  1
