# generated using pymatgen
data_CeO
_symmetry_space_group_name_H-M   'P 1'
_cell_length_a   4.98580000
_cell_length_b   4.98580000
_cell_length_c   4.98580000
_cell_angle_alpha   90.00000000
_cell_angle_beta   90.00000000
_cell_angle_gamma   90.00000000
_symmetry_Int_Tables_number   1
_chemical_formula_structural   CeO
_chemical_formula_sum   'Ce4 O4'
_cell_volume   123.93802174
_cell_formula_units_Z   4
loop_
 _symmetry_equiv_pos_site_id
 _symmetry_equiv_pos_as_xyz
  1  'x, y, z'
loop_
 _atom_site_type_symbol
 _atom_site_label
 _atom_site_symmetry_multiplicity
 _atom_site_fract_x
 _atom_site_fract_y
 _atom_site_fract_z
 _atom_site_occupancy
  Ce  Ce0  1  0.00000000  0.00000000  0.00000000  1
  Ce  Ce1  1  0.00000000  0.50000000  0.50000000  1
  Ce  Ce2  1  0.50000000  0.00000000  0.50000000  1
  Ce  Ce3  1  0.50000000  0.50000000  0.00000000  1
  O  O4  1  0.50000000  0.00000000  0.00000000  1
  O  O5  1  0.50000000  0.50000000  0.50000000  1
  O  O6  1  0.00000000  0.00000000  0.50000000  1
  O  O7  1  0.00000000  0.50000000  0.00000000  1
