# generated using pymatgen
data_CaGa3Ni2
_symmetry_space_group_name_H-M   'P 1'
_cell_length_a   7.89292200
_cell_length_b   9.78033200
_cell_length_c   5.16527500
_cell_angle_alpha   90.00000000
_cell_angle_beta   90.00000000
_cell_angle_gamma   90.00000000
_symmetry_Int_Tables_number   1
_chemical_formula_structural   CaGa3Ni2
_chemical_formula_sum   'Ca4 Ga12 Ni8'
_cell_volume   398.73545739
_cell_formula_units_Z   4
loop_
 _symmetry_equiv_pos_site_id
 _symmetry_equiv_pos_as_xyz
  1  'x, y, z'
loop_
 _atom_site_type_symbol
 _atom_site_label
 _atom_site_symmetry_multiplicity
 _atom_site_fract_x
 _atom_site_fract_y
 _atom_site_fract_z
 _atom_site_occupancy
  Ca  Ca0  1  0.65605100  0.00000000  0.75000000  1
  Ca  Ca1  1  0.34394900  0.00000000  0.25000000  1
  Ca  Ca2  1  0.15605100  0.50000000  0.75000000  1
  Ca  Ca3  1  0.84394900  0.50000000  0.25000000  1
  Ga  Ga4  1  0.72153500  0.81245400  0.25000000  1
  Ga  Ga5  1  0.72153500  0.18754600  0.25000000  1
  Ga  Ga6  1  0.27846500  0.18754600  0.75000000  1
  Ga  Ga7  1  0.95019000  0.00000000  0.25000000  1
  Ga  Ga8  1  0.04981000  0.00000000  0.75000000  1
  Ga  Ga9  1  0.27846500  0.81245400  0.75000000  1
  Ga  Ga10  1  0.22153500  0.31245400  0.25000000  1
  Ga  Ga11  1  0.22153500  0.68754600  0.25000000  1
  Ga  Ga12  1  0.77846500  0.68754600  0.75000000  1
  Ga  Ga13  1  0.45019000  0.50000000  0.25000000  1
  Ga  Ga14  1  0.54981000  0.50000000  0.75000000  1
  Ga  Ga15  1  0.77846500  0.31245400  0.75000000  1
  Ni  Ni16  1  0.50000000  0.71087600  0.50000000  1
  Ni  Ni17  1  0.50000000  0.71087600  0.00000000  1
  Ni  Ni18  1  0.50000000  0.28912400  0.00000000  1
  Ni  Ni19  1  0.50000000  0.28912400  0.50000000  1
  Ni  Ni20  1  0.00000000  0.21087600  0.50000000  1
  Ni  Ni21  1  0.00000000  0.21087600  0.00000000  1
  Ni  Ni22  1  0.00000000  0.78912400  0.00000000  1
  Ni  Ni23  1  0.00000000  0.78912400  0.50000000  1
