# generated using pymatgen
data_Rh3Se8
_symmetry_space_group_name_H-M   'P 1'
_cell_length_a   8.63688359
_cell_length_b   8.63688359
_cell_length_c   10.33261362
_cell_angle_alpha   90.00000000
_cell_angle_beta   90.00000000
_cell_angle_gamma   120.00000000
_symmetry_Int_Tables_number   1
_chemical_formula_structural   Rh3Se8
_chemical_formula_sum   'Rh9 Se24'
_cell_volume   667.50566144
_cell_formula_units_Z   3
loop_
 _symmetry_equiv_pos_site_id
 _symmetry_equiv_pos_as_xyz
  1  'x, y, z'
loop_
 _atom_site_type_symbol
 _atom_site_label
 _atom_site_symmetry_multiplicity
 _atom_site_fract_x
 _atom_site_fract_y
 _atom_site_fract_z
 _atom_site_occupancy
  Rh  Rh0  1  0.16666667  0.33333333  0.33333333  1
  Rh  Rh1  1  0.66666667  0.83333333  0.33333333  1
  Rh  Rh2  1  0.16666667  0.83333333  0.33333333  1
  Rh  Rh3  1  0.83333333  0.66666667  0.66666667  1
  Rh  Rh4  1  0.33333333  0.16666667  0.66666667  1
  Rh  Rh5  1  0.83333333  0.16666667  0.66666667  1
  Rh  Rh6  1  0.50000000  0.00000000  0.00000000  1
  Rh  Rh7  1  0.00000000  0.50000000  0.00000000  1
  Rh  Rh8  1  0.50000000  0.50000000  0.00000000  1
  Se  Se9  1  0.42244767  0.07571533  0.45918933  1
  Se  Se10  1  0.92428467  0.34673233  0.45918933  1
  Se  Se11  1  0.65326767  0.57755233  0.45918933  1
  Se  Se12  1  0.57755233  0.92428467  0.54081067  1
  Se  Se13  1  0.07571533  0.65326767  0.54081067  1
  Se  Se14  1  0.34673233  0.42244767  0.54081067  1
  Se  Se15  1  0.00000000  0.00000000  0.62123500  1
  Se  Se16  1  0.00000000  0.00000000  0.37876500  1
  Se  Se17  1  0.08911433  0.40904867  0.79252267  1
  Se  Se18  1  0.59095133  0.68006567  0.79252267  1
  Se  Se19  1  0.31993433  0.91088567  0.79252267  1
  Se  Se20  1  0.24421900  0.25761800  0.87414400  1
  Se  Se21  1  0.74238200  0.98660100  0.87414400  1
  Se  Se22  1  0.01339900  0.75578100  0.87414400  1
  Se  Se23  1  0.66666667  0.33333333  0.95456833  1
  Se  Se24  1  0.66666667  0.33333333  0.71209833  1
  Se  Se25  1  0.75578100  0.74238200  0.12585600  1
  Se  Se26  1  0.25761800  0.01339900  0.12585600  1
  Se  Se27  1  0.98660100  0.24421900  0.12585600  1
  Se  Se28  1  0.91088567  0.59095133  0.20747733  1
  Se  Se29  1  0.40904867  0.31993433  0.20747733  1
  Se  Se30  1  0.68006567  0.08911433  0.20747733  1
  Se  Se31  1  0.33333333  0.66666667  0.28790167  1
  Se  Se32  1  0.33333333  0.66666667  0.04543167  1
