# generated using pymatgen
data_Sb
_symmetry_space_group_name_H-M   'P 1'
_cell_length_a   4.38595381
_cell_length_b   4.38595381
_cell_length_c   11.57308431
_cell_angle_alpha   90.00000000
_cell_angle_beta   90.00000000
_cell_angle_gamma   120.00000000
_symmetry_Int_Tables_number   1
_chemical_formula_structural   Sb
_chemical_formula_sum   Sb6
_cell_volume   192.80036678
_cell_formula_units_Z   6
loop_
 _symmetry_equiv_pos_site_id
 _symmetry_equiv_pos_as_xyz
  1  'x, y, z'
loop_
 _atom_site_type_symbol
 _atom_site_label
 _atom_site_symmetry_multiplicity
 _atom_site_fract_x
 _atom_site_fract_y
 _atom_site_fract_z
 _atom_site_occupancy
  Sb  Sb0  1  0.66666667  0.33333333  0.06516333  1
  Sb  Sb1  1  0.00000000  0.00000000  0.26817000  1
  Sb  Sb2  1  0.33333333  0.66666667  0.39849667  1
  Sb  Sb3  1  0.66666667  0.33333333  0.60150333  1
  Sb  Sb4  1  0.00000000  0.00000000  0.73183000  1
  Sb  Sb5  1  0.33333333  0.66666667  0.93483667  1
