# generated using pymatgen
data_Be12Cr
_symmetry_space_group_name_H-M   'P 1'
_cell_length_a   7.19395000
_cell_length_b   7.19395000
_cell_length_c   4.12257400
_cell_angle_alpha   90.00000000
_cell_angle_beta   90.00000000
_cell_angle_gamma   90.00000000
_symmetry_Int_Tables_number   1
_chemical_formula_structural   Be12Cr
_chemical_formula_sum   'Be24 Cr2'
_cell_volume   213.35522841
_cell_formula_units_Z   2
loop_
 _symmetry_equiv_pos_site_id
 _symmetry_equiv_pos_as_xyz
  1  'x, y, z'
loop_
 _atom_site_type_symbol
 _atom_site_label
 _atom_site_symmetry_multiplicity
 _atom_site_fract_x
 _atom_site_fract_y
 _atom_site_fract_z
 _atom_site_occupancy
  Be  Be0  1  0.78871400  0.00000000  0.50000000  1
  Be  Be1  1  0.75000000  0.25000000  0.75000000  1
  Be  Be2  1  0.75000000  0.75000000  0.25000000  1
  Be  Be3  1  0.75000000  0.75000000  0.75000000  1
  Be  Be4  1  0.75000000  0.25000000  0.25000000  1
  Be  Be5  1  0.65184800  0.00000000  0.00000000  1
  Be  Be6  1  0.50000000  0.84815200  0.50000000  1
  Be  Be7  1  0.50000000  0.15184800  0.50000000  1
  Be  Be8  1  0.34815200  0.00000000  0.00000000  1
  Be  Be9  1  0.21128600  0.00000000  0.50000000  1
  Be  Be10  1  0.50000000  0.28871400  0.00000000  1
  Be  Be11  1  0.50000000  0.71128600  0.00000000  1
  Be  Be12  1  0.28871400  0.50000000  0.00000000  1
  Be  Be13  1  0.25000000  0.75000000  0.25000000  1
  Be  Be14  1  0.25000000  0.25000000  0.75000000  1
  Be  Be15  1  0.25000000  0.25000000  0.25000000  1
  Be  Be16  1  0.25000000  0.75000000  0.75000000  1
  Be  Be17  1  0.15184800  0.50000000  0.50000000  1
  Be  Be18  1  0.00000000  0.34815200  0.00000000  1
  Be  Be19  1  0.00000000  0.65184800  0.00000000  1
  Be  Be20  1  0.84815200  0.50000000  0.50000000  1
  Be  Be21  1  0.71128600  0.50000000  0.00000000  1
  Be  Be22  1  0.00000000  0.78871400  0.50000000  1
  Be  Be23  1  0.00000000  0.21128600  0.50000000  1
  Cr  Cr24  1  0.00000000  0.00000000  0.00000000  1
  Cr  Cr25  1  0.50000000  0.50000000  0.50000000  1
