# generated using pymatgen
data_CaSn2Pd
_symmetry_space_group_name_H-M   'P 1'
_cell_length_a   4.45975000
_cell_length_b   11.27624000
_cell_length_c   7.58214700
_cell_angle_alpha   90.00000000
_cell_angle_beta   90.00000000
_cell_angle_gamma   90.00000000
_symmetry_Int_Tables_number   1
_chemical_formula_structural   CaSn2Pd
_chemical_formula_sum   'Ca4 Sn8 Pd4'
_cell_volume   381.30019289
_cell_formula_units_Z   4
loop_
 _symmetry_equiv_pos_site_id
 _symmetry_equiv_pos_as_xyz
  1  'x, y, z'
loop_
 _atom_site_type_symbol
 _atom_site_label
 _atom_site_symmetry_multiplicity
 _atom_site_fract_x
 _atom_site_fract_y
 _atom_site_fract_z
 _atom_site_occupancy
  Ca  Ca0  1  0.00000000  0.06944000  0.25000000  1
  Ca  Ca1  1  0.50000000  0.43056000  0.75000000  1
  Ca  Ca2  1  0.50000000  0.56944000  0.25000000  1
  Ca  Ca3  1  0.00000000  0.93056000  0.75000000  1
  Sn  Sn4  1  0.00000000  0.35833800  0.45526300  1
  Sn  Sn5  1  0.50000000  0.14166200  0.54473700  1
  Sn  Sn6  1  0.50000000  0.14166200  0.95526300  1
  Sn  Sn7  1  0.00000000  0.35833800  0.04473700  1
  Sn  Sn8  1  0.50000000  0.85833800  0.45526300  1
  Sn  Sn9  1  0.00000000  0.64166200  0.54473700  1
  Sn  Sn10  1  0.00000000  0.64166200  0.95526300  1
  Sn  Sn11  1  0.50000000  0.85833800  0.04473700  1
  Pd  Pd12  1  0.50000000  0.29550100  0.25000000  1
  Pd  Pd13  1  0.00000000  0.20449900  0.75000000  1
  Pd  Pd14  1  0.00000000  0.79550100  0.25000000  1
  Pd  Pd15  1  0.50000000  0.70449900  0.75000000  1
