# generated using pymatgen
data_SrIn4Pd
_symmetry_space_group_name_H-M   'P 1'
_cell_length_a   4.64453600
_cell_length_b   17.32372600
_cell_length_c   7.62262900
_cell_angle_alpha   90.00000000
_cell_angle_beta   90.00000000
_cell_angle_gamma   90.00000000
_symmetry_Int_Tables_number   1
_chemical_formula_structural   SrIn4Pd
_chemical_formula_sum   'Sr4 In16 Pd4'
_cell_volume   613.32182934
_cell_formula_units_Z   4
loop_
 _symmetry_equiv_pos_site_id
 _symmetry_equiv_pos_as_xyz
  1  'x, y, z'
loop_
 _atom_site_type_symbol
 _atom_site_label
 _atom_site_symmetry_multiplicity
 _atom_site_fract_x
 _atom_site_fract_y
 _atom_site_fract_z
 _atom_site_occupancy
  Sr  Sr0  1  0.00000000  0.87593500  0.75000000  1
  Sr  Sr1  1  0.50000000  0.62406500  0.25000000  1
  Sr  Sr2  1  0.50000000  0.37593500  0.75000000  1
  Sr  Sr3  1  0.00000000  0.12406500  0.25000000  1
  In  In4  1  0.00000000  0.68533000  0.94841600  1
  In  In5  1  0.50000000  0.81467000  0.05158400  1
  In  In6  1  0.00000000  0.68533000  0.55158400  1
  In  In7  1  0.50000000  0.00000000  0.00000000  1
  In  In8  1  0.50000000  0.81467000  0.44841600  1
  In  In9  1  0.50000000  0.00000000  0.50000000  1
  In  In10  1  0.00000000  0.93023600  0.25000000  1
  In  In11  1  0.50000000  0.56976400  0.75000000  1
  In  In12  1  0.50000000  0.18533000  0.94841600  1
  In  In13  1  0.00000000  0.31467000  0.05158400  1
  In  In14  1  0.50000000  0.18533000  0.55158400  1
  In  In15  1  0.00000000  0.50000000  0.00000000  1
  In  In16  1  0.00000000  0.31467000  0.44841600  1
  In  In17  1  0.00000000  0.50000000  0.50000000  1
  In  In18  1  0.50000000  0.43023600  0.25000000  1
  In  In19  1  0.00000000  0.06976400  0.75000000  1
  Pd  Pd20  1  0.50000000  0.72561200  0.75000000  1
  Pd  Pd21  1  0.00000000  0.77438800  0.25000000  1
  Pd  Pd22  1  0.00000000  0.22561200  0.75000000  1
  Pd  Pd23  1  0.50000000  0.27438800  0.25000000  1
