# generated using pymatgen
data_K(CoS)2
_symmetry_space_group_name_H-M   'P 1'
_cell_length_a   3.74478000
_cell_length_b   3.74478000
_cell_length_c   12.72058000
_cell_angle_alpha   90.00000000
_cell_angle_beta   90.00000000
_cell_angle_gamma   90.00000000
_symmetry_Int_Tables_number   1
_chemical_formula_structural   K(CoS)2
_chemical_formula_sum   'K2 Co4 S4'
_cell_volume   178.38549216
_cell_formula_units_Z   2
loop_
 _symmetry_equiv_pos_site_id
 _symmetry_equiv_pos_as_xyz
  1  'x, y, z'
loop_
 _atom_site_type_symbol
 _atom_site_label
 _atom_site_symmetry_multiplicity
 _atom_site_fract_x
 _atom_site_fract_y
 _atom_site_fract_z
 _atom_site_occupancy
  K  K0  1  0.00000000  0.00000000  0.00000000  1
  K  K1  1  0.50000000  0.50000000  0.50000000  1
  Co  Co2  1  0.50000000  0.00000000  0.25000000  1
  Co  Co3  1  0.00000000  0.50000000  0.25000000  1
  Co  Co4  1  0.00000000  0.50000000  0.75000000  1
  Co  Co5  1  0.50000000  0.00000000  0.75000000  1
  S  S6  1  0.50000000  0.50000000  0.15575300  1
  S  S7  1  0.00000000  0.00000000  0.34424700  1
  S  S8  1  0.00000000  0.00000000  0.65575300  1
  S  S9  1  0.50000000  0.50000000  0.84424700  1
