# generated using pymatgen
data_Mo5As4
_symmetry_space_group_name_H-M   'P 1'
_cell_length_a   9.69007600
_cell_length_b   9.69007600
_cell_length_c   3.30017200
_cell_angle_alpha   90.00000000
_cell_angle_beta   90.00000000
_cell_angle_gamma   90.00000000
_symmetry_Int_Tables_number   1
_chemical_formula_structural   Mo5As4
_chemical_formula_sum   'Mo10 As8'
_cell_volume   309.87814091
_cell_formula_units_Z   2
loop_
 _symmetry_equiv_pos_site_id
 _symmetry_equiv_pos_as_xyz
  1  'x, y, z'
loop_
 _atom_site_type_symbol
 _atom_site_label
 _atom_site_symmetry_multiplicity
 _atom_site_fract_x
 _atom_site_fract_y
 _atom_site_fract_z
 _atom_site_occupancy
  Mo  Mo0  1  0.62083950  0.29886550  0.00000000  1
  Mo  Mo1  1  0.20113450  0.12083950  0.50000000  1
  Mo  Mo2  1  0.79886550  0.87916050  0.50000000  1
  Mo  Mo3  1  0.37916050  0.70113450  0.00000000  1
  Mo  Mo4  1  0.00000000  0.00000000  0.00000000  1
  Mo  Mo5  1  0.12083950  0.79886550  0.50000000  1
  Mo  Mo6  1  0.70113450  0.62083950  0.00000000  1
  Mo  Mo7  1  0.29886550  0.37916050  0.00000000  1
  Mo  Mo8  1  0.87916050  0.20113450  0.50000000  1
  Mo  Mo9  1  0.50000000  0.50000000  0.50000000  1
  As  As10  1  0.71424750  0.05725450  0.00000000  1
  As  As11  1  0.44274550  0.21424750  0.50000000  1
  As  As12  1  0.55725450  0.78575250  0.50000000  1
  As  As13  1  0.28575250  0.94274550  0.00000000  1
  As  As14  1  0.21424750  0.55725450  0.50000000  1
  As  As15  1  0.94274550  0.71424750  0.00000000  1
  As  As16  1  0.05725450  0.28575250  0.00000000  1
  As  As17  1  0.78575250  0.44274550  0.50000000  1
