# generated using pymatgen
data_P3Rh
_symmetry_space_group_name_H-M   'P 1'
_cell_length_a   8.06158400
_cell_length_b   8.06158400
_cell_length_c   8.06158400
_cell_angle_alpha   90.00000000
_cell_angle_beta   90.00000000
_cell_angle_gamma   90.00000000
_symmetry_Int_Tables_number   1
_chemical_formula_structural   P3Rh
_chemical_formula_sum   'P24 Rh8'
_cell_volume   523.91538370
_cell_formula_units_Z   8
loop_
 _symmetry_equiv_pos_site_id
 _symmetry_equiv_pos_as_xyz
  1  'x, y, z'
loop_
 _atom_site_type_symbol
 _atom_site_label
 _atom_site_symmetry_multiplicity
 _atom_site_fract_x
 _atom_site_fract_y
 _atom_site_fract_z
 _atom_site_occupancy
  P  P0  1  0.64415300  0.00000000  0.13972500  1
  P  P1  1  0.85584700  0.50000000  0.36027500  1
  P  P2  1  0.14415300  0.50000000  0.36027500  1
  P  P3  1  0.35584700  0.00000000  0.13972500  1
  P  P4  1  0.00000000  0.13972500  0.64415300  1
  P  P5  1  0.50000000  0.36027500  0.85584700  1
  P  P6  1  0.50000000  0.36027500  0.14415300  1
  P  P7  1  0.00000000  0.13972500  0.35584700  1
  P  P8  1  0.13972500  0.64415300  0.00000000  1
  P  P9  1  0.36027500  0.85584700  0.50000000  1
  P  P10  1  0.36027500  0.14415300  0.50000000  1
  P  P11  1  0.13972500  0.35584700  0.00000000  1
  P  P12  1  0.14415300  0.50000000  0.63972500  1
  P  P13  1  0.35584700  0.00000000  0.86027500  1
  P  P14  1  0.64415300  0.00000000  0.86027500  1
  P  P15  1  0.85584700  0.50000000  0.63972500  1
  P  P16  1  0.50000000  0.63972500  0.14415300  1
  P  P17  1  0.00000000  0.86027500  0.35584700  1
  P  P18  1  0.00000000  0.86027500  0.64415300  1
  P  P19  1  0.50000000  0.63972500  0.85584700  1
  P  P20  1  0.63972500  0.14415300  0.50000000  1
  P  P21  1  0.86027500  0.35584700  0.00000000  1
  P  P22  1  0.86027500  0.64415300  0.00000000  1
  P  P23  1  0.63972500  0.85584700  0.50000000  1
  Rh  Rh24  1  0.25000000  0.25000000  0.75000000  1
  Rh  Rh25  1  0.75000000  0.25000000  0.25000000  1
  Rh  Rh26  1  0.25000000  0.75000000  0.25000000  1
  Rh  Rh27  1  0.25000000  0.25000000  0.25000000  1
  Rh  Rh28  1  0.75000000  0.75000000  0.25000000  1
  Rh  Rh29  1  0.25000000  0.75000000  0.75000000  1
  Rh  Rh30  1  0.75000000  0.25000000  0.75000000  1
  Rh  Rh31  1  0.75000000  0.75000000  0.75000000  1
