# generated using pymatgen
data_Al6Re
_symmetry_space_group_name_H-M   'P 1'
_cell_length_a   6.62980400
_cell_length_b   7.64280400
_cell_length_c   9.03369300
_cell_angle_alpha   90.00000000
_cell_angle_beta   90.00000000
_cell_angle_gamma   90.00000000
_symmetry_Int_Tables_number   1
_chemical_formula_structural   Al6Re
_chemical_formula_sum   'Al24 Re4'
_cell_volume   457.73986694
_cell_formula_units_Z   4
loop_
 _symmetry_equiv_pos_site_id
 _symmetry_equiv_pos_as_xyz
  1  'x, y, z'
loop_
 _atom_site_type_symbol
 _atom_site_label
 _atom_site_symmetry_multiplicity
 _atom_site_fract_x
 _atom_site_fract_y
 _atom_site_fract_z
 _atom_site_occupancy
  Al  Al0  1  0.50000000  0.17480500  0.50000000  1
  Al  Al1  1  0.50000000  0.17480500  0.00000000  1
  Al  Al2  1  0.50000000  0.82519500  0.50000000  1
  Al  Al3  1  0.50000000  0.82519500  0.00000000  1
  Al  Al4  1  0.87099700  0.00000000  0.89877100  1
  Al  Al5  1  0.12900300  0.00000000  0.10122900  1
  Al  Al6  1  0.87099700  0.00000000  0.60122900  1
  Al  Al7  1  0.12900300  0.00000000  0.39877100  1
  Al  Al8  1  0.78941000  0.82046500  0.25000000  1
  Al  Al9  1  0.21059000  0.82046500  0.75000000  1
  Al  Al10  1  0.21059000  0.17953500  0.75000000  1
  Al  Al11  1  0.78941000  0.17953500  0.25000000  1
  Al  Al12  1  0.00000000  0.67480500  0.50000000  1
  Al  Al13  1  0.00000000  0.67480500  0.00000000  1
  Al  Al14  1  0.00000000  0.32519500  0.50000000  1
  Al  Al15  1  0.00000000  0.32519500  0.00000000  1
  Al  Al16  1  0.37099700  0.50000000  0.89877100  1
  Al  Al17  1  0.62900300  0.50000000  0.10122900  1
  Al  Al18  1  0.37099700  0.50000000  0.60122900  1
  Al  Al19  1  0.62900300  0.50000000  0.39877100  1
  Al  Al20  1  0.28941000  0.32046500  0.25000000  1
  Al  Al21  1  0.71059000  0.32046500  0.75000000  1
  Al  Al22  1  0.71059000  0.67953500  0.75000000  1
  Al  Al23  1  0.28941000  0.67953500  0.25000000  1
  Re  Re24  1  0.54615800  0.00000000  0.75000000  1
  Re  Re25  1  0.45384200  0.00000000  0.25000000  1
  Re  Re26  1  0.04615800  0.50000000  0.75000000  1
  Re  Re27  1  0.95384200  0.50000000  0.25000000  1
