# generated using pymatgen
data_Mg2Pt
_symmetry_space_group_name_H-M   'P 1'
_cell_length_a   6.38578600
_cell_length_b   6.38578600
_cell_length_c   5.68751000
_cell_angle_alpha   90.00000000
_cell_angle_beta   90.00000000
_cell_angle_gamma   90.00000000
_symmetry_Int_Tables_number   1
_chemical_formula_structural   Mg2Pt
_chemical_formula_sum   'Mg8 Pt4'
_cell_volume   231.92677767
_cell_formula_units_Z   4
loop_
 _symmetry_equiv_pos_site_id
 _symmetry_equiv_pos_as_xyz
  1  'x, y, z'
loop_
 _atom_site_type_symbol
 _atom_site_label
 _atom_site_symmetry_multiplicity
 _atom_site_fract_x
 _atom_site_fract_y
 _atom_site_fract_z
 _atom_site_occupancy
  Mg  Mg0  1  0.31534700  0.18465300  0.50000000  1
  Mg  Mg1  1  0.68465300  0.18465300  0.00000000  1
  Mg  Mg2  1  0.18465300  0.31534700  0.00000000  1
  Mg  Mg3  1  0.81534700  0.31534700  0.50000000  1
  Mg  Mg4  1  0.81534700  0.68465300  0.00000000  1
  Mg  Mg5  1  0.18465300  0.68465300  0.50000000  1
  Mg  Mg6  1  0.68465300  0.81534700  0.50000000  1
  Mg  Mg7  1  0.31534700  0.81534700  0.00000000  1
  Pt  Pt8  1  0.00000000  0.00000000  0.25000000  1
  Pt  Pt9  1  0.00000000  0.00000000  0.75000000  1
  Pt  Pt10  1  0.50000000  0.50000000  0.75000000  1
  Pt  Pt11  1  0.50000000  0.50000000  0.25000000  1
