# generated using pymatgen
data_MnAu4
_symmetry_space_group_name_H-M   'P 1'
_cell_length_a   6.54789400
_cell_length_b   6.54789400
_cell_length_c   4.06272000
_cell_angle_alpha   90.00000000
_cell_angle_beta   90.00000000
_cell_angle_gamma   90.00000000
_symmetry_Int_Tables_number   1
_chemical_formula_structural   MnAu4
_chemical_formula_sum   'Mn2 Au8'
_cell_volume   174.18877806
_cell_formula_units_Z   2
loop_
 _symmetry_equiv_pos_site_id
 _symmetry_equiv_pos_as_xyz
  1  'x, y, z'
loop_
 _atom_site_type_symbol
 _atom_site_label
 _atom_site_symmetry_multiplicity
 _atom_site_fract_x
 _atom_site_fract_y
 _atom_site_fract_z
 _atom_site_occupancy
  Mn  Mn0  1  0.00000000  0.00000000  0.00000000  1
  Mn  Mn1  1  0.50000000  0.50000000  0.50000000  1
  Au  Au2  1  0.39745900  0.79570300  0.00000000  1
  Au  Au3  1  0.60254100  0.20429700  0.00000000  1
  Au  Au4  1  0.29570300  0.10254100  0.50000000  1
  Au  Au5  1  0.70429700  0.89745900  0.50000000  1
  Au  Au6  1  0.89745900  0.29570300  0.50000000  1
  Au  Au7  1  0.10254100  0.70429700  0.50000000  1
  Au  Au8  1  0.79570300  0.60254100  0.00000000  1
  Au  Au9  1  0.20429700  0.39745900  0.00000000  1
