# generated using pymatgen
data_CeZn2
_symmetry_space_group_name_H-M   'P 1'
_cell_length_a   4.61319000
_cell_length_b   6.89079200
_cell_length_c   7.90749000
_cell_angle_alpha   90.00000000
_cell_angle_beta   90.00000000
_cell_angle_gamma   90.00000000
_symmetry_Int_Tables_number   1
_chemical_formula_structural   CeZn2
_chemical_formula_sum   'Ce4 Zn8'
_cell_volume   251.36750481
_cell_formula_units_Z   4
loop_
 _symmetry_equiv_pos_site_id
 _symmetry_equiv_pos_as_xyz
  1  'x, y, z'
loop_
 _atom_site_type_symbol
 _atom_site_label
 _atom_site_symmetry_multiplicity
 _atom_site_fract_x
 _atom_site_fract_y
 _atom_site_fract_z
 _atom_site_occupancy
  Ce  Ce0  1  0.00000000  0.75000000  0.51619400  1
  Ce  Ce1  1  0.00000000  0.25000000  0.48380600  1
  Ce  Ce2  1  0.50000000  0.25000000  0.01619400  1
  Ce  Ce3  1  0.50000000  0.75000000  0.98380600  1
  Zn  Zn4  1  0.00000000  0.96456300  0.16591600  1
  Zn  Zn5  1  0.00000000  0.03543700  0.83408400  1
  Zn  Zn6  1  0.50000000  0.96456300  0.33408400  1
  Zn  Zn7  1  0.50000000  0.03543700  0.66591600  1
  Zn  Zn8  1  0.50000000  0.46456300  0.66591600  1
  Zn  Zn9  1  0.50000000  0.53543700  0.33408400  1
  Zn  Zn10  1  0.00000000  0.46456300  0.83408400  1
  Zn  Zn11  1  0.00000000  0.53543700  0.16591600  1
