# generated using pymatgen
data_CaNiGe2
_symmetry_space_group_name_H-M   'P 1'
_cell_length_a   4.23144400
_cell_length_b   17.33911000
_cell_length_c   4.07920500
_cell_angle_alpha   90.00000000
_cell_angle_beta   90.00000000
_cell_angle_gamma   90.00000000
_symmetry_Int_Tables_number   1
_chemical_formula_structural   CaNiGe2
_chemical_formula_sum   'Ca4 Ni4 Ge8'
_cell_volume   299.28912101
_cell_formula_units_Z   4
loop_
 _symmetry_equiv_pos_site_id
 _symmetry_equiv_pos_as_xyz
  1  'x, y, z'
loop_
 _atom_site_type_symbol
 _atom_site_label
 _atom_site_symmetry_multiplicity
 _atom_site_fract_x
 _atom_site_fract_y
 _atom_site_fract_z
 _atom_site_occupancy
  Ca  Ca0  1  0.50000000  0.39134800  0.75000000  1
  Ca  Ca1  1  0.00000000  0.10865200  0.25000000  1
  Ca  Ca2  1  0.00000000  0.89134800  0.75000000  1
  Ca  Ca3  1  0.50000000  0.60865200  0.25000000  1
  Ni  Ni4  1  0.00000000  0.32215800  0.25000000  1
  Ni  Ni5  1  0.50000000  0.17784200  0.75000000  1
  Ni  Ni6  1  0.50000000  0.82215800  0.25000000  1
  Ni  Ni7  1  0.00000000  0.67784200  0.75000000  1
  Ge  Ge8  1  0.50000000  0.25039900  0.25000000  1
  Ge  Ge9  1  0.00000000  0.24960100  0.75000000  1
  Ge  Ge10  1  0.50000000  0.04298400  0.75000000  1
  Ge  Ge11  1  0.00000000  0.45701600  0.25000000  1
  Ge  Ge12  1  0.00000000  0.75039900  0.25000000  1
  Ge  Ge13  1  0.50000000  0.74960100  0.75000000  1
  Ge  Ge14  1  0.00000000  0.54298400  0.75000000  1
  Ge  Ge15  1  0.50000000  0.95701600  0.25000000  1
