# generated using pymatgen
data_BaCd2
_symmetry_space_group_name_H-M   'P 1'
_cell_length_a   5.32663800
_cell_length_b   8.47391800
_cell_length_c   8.79754000
_cell_angle_alpha   90.00000000
_cell_angle_beta   90.00000000
_cell_angle_gamma   90.00000000
_symmetry_Int_Tables_number   1
_chemical_formula_structural   BaCd2
_chemical_formula_sum   'Ba4 Cd8'
_cell_volume   397.09890569
_cell_formula_units_Z   4
loop_
 _symmetry_equiv_pos_site_id
 _symmetry_equiv_pos_as_xyz
  1  'x, y, z'
loop_
 _atom_site_type_symbol
 _atom_site_label
 _atom_site_symmetry_multiplicity
 _atom_site_fract_x
 _atom_site_fract_y
 _atom_site_fract_z
 _atom_site_occupancy
  Ba  Ba0  1  0.00000000  0.75000000  0.45281400  1
  Ba  Ba1  1  0.00000000  0.25000000  0.54718600  1
  Ba  Ba2  1  0.50000000  0.25000000  0.95281400  1
  Ba  Ba3  1  0.50000000  0.75000000  0.04718600  1
  Cd  Cd4  1  0.00000000  0.06129200  0.16462400  1
  Cd  Cd5  1  0.00000000  0.93870800  0.83537600  1
  Cd  Cd6  1  0.50000000  0.93870800  0.66462400  1
  Cd  Cd7  1  0.50000000  0.06129200  0.33537600  1
  Cd  Cd8  1  0.50000000  0.56129200  0.66462400  1
  Cd  Cd9  1  0.50000000  0.43870800  0.33537600  1
  Cd  Cd10  1  0.00000000  0.43870800  0.16462400  1
  Cd  Cd11  1  0.00000000  0.56129200  0.83537600  1
