# generated using pymatgen
data_Sr2MoO4
_symmetry_space_group_name_H-M   'P 1'
_cell_length_a   4.02203522
_cell_length_b   4.02203522
_cell_length_c   12.98813020
_cell_angle_alpha   90.00000000
_cell_angle_beta   90.00000000
_cell_angle_gamma   90.00000000
_symmetry_Int_Tables_number   1
_chemical_formula_structural   Sr2MoO4
_chemical_formula_sum   'Sr4 Mo2 O8'
_cell_volume   210.10596037
_cell_formula_units_Z   2
loop_
 _symmetry_equiv_pos_site_id
 _symmetry_equiv_pos_as_xyz
  1  'x, y, z'
loop_
 _atom_site_type_symbol
 _atom_site_label
 _atom_site_symmetry_multiplicity
 _atom_site_fract_x
 _atom_site_fract_y
 _atom_site_fract_z
 _atom_site_occupancy
  Sr  Sr0  1  0.00000000  0.00000000  0.34992758  1
  Sr  Sr1  1  0.50000000  0.50000000  0.15007242  1
  Sr  Sr2  1  0.50000000  0.50000000  0.84992758  1
  Sr  Sr3  1  0.00000000  0.00000000  0.65007242  1
  Mo  Mo4  1  0.00000000  0.00000000  0.00000000  1
  Mo  Mo5  1  0.50000000  0.50000000  0.50000000  1
  O  O6  1  0.50000000  0.00000000  0.50000000  1
  O  O7  1  0.00000000  0.50000000  0.50000000  1
  O  O8  1  0.50000000  0.50000000  0.33563834  1
  O  O9  1  0.00000000  0.00000000  0.16436166  1
  O  O10  1  0.00000000  0.50000000  0.00000000  1
  O  O11  1  0.50000000  0.00000000  0.00000000  1
  O  O12  1  0.00000000  0.00000000  0.83563835  1
  O  O13  1  0.50000000  0.50000000  0.66436165  1
