# generated using pymatgen
data_As3W2
_symmetry_space_group_name_H-M   'P 1'
_cell_length_a   13.49801400
_cell_length_b   3.30819800
_cell_length_c   9.70095695
_cell_angle_alpha   90.00000000
_cell_angle_beta   124.78346048
_cell_angle_gamma   90.00000000
_symmetry_Int_Tables_number   1
_chemical_formula_structural   As3W2
_chemical_formula_sum   'As12 W8'
_cell_volume   355.78294928
_cell_formula_units_Z   4
loop_
 _symmetry_equiv_pos_site_id
 _symmetry_equiv_pos_as_xyz
  1  'x, y, z'
loop_
 _atom_site_type_symbol
 _atom_site_label
 _atom_site_symmetry_multiplicity
 _atom_site_fract_x
 _atom_site_fract_y
 _atom_site_fract_z
 _atom_site_occupancy
  As  As0  1  0.89392100  0.00000000  0.36930000  1
  As  As1  1  0.10607900  0.00000000  0.63070000  1
  As  As2  1  0.08397000  0.50000000  0.31325300  1
  As  As3  1  0.91603000  0.50000000  0.68674700  1
  As  As4  1  0.62492700  0.50000000  0.04679900  1
  As  As5  1  0.37507300  0.50000000  0.95320100  1
  As  As6  1  0.39392100  0.50000000  0.36930000  1
  As  As7  1  0.60607900  0.50000000  0.63070000  1
  As  As8  1  0.58397000  0.00000000  0.31325300  1
  As  As9  1  0.41603000  0.00000000  0.68674700  1
  As  As10  1  0.12492700  0.00000000  0.04679900  1
  As  As11  1  0.87507300  0.00000000  0.95320100  1
  W  W12  1  0.15273100  0.50000000  0.87114300  1
  W  W13  1  0.84726900  0.50000000  0.12885700  1
  W  W14  1  0.25276400  0.50000000  0.62762700  1
  W  W15  1  0.74723600  0.50000000  0.37237300  1
  W  W16  1  0.65273100  0.00000000  0.87114300  1
  W  W17  1  0.34726900  0.00000000  0.12885700  1
  W  W18  1  0.75276400  0.00000000  0.62762700  1
  W  W19  1  0.24723600  0.00000000  0.37237300  1
