# generated using pymatgen
data_Zr3O
_symmetry_space_group_name_H-M   'P 1'
_cell_length_a   5.67430986
_cell_length_b   5.67430986
_cell_length_c   15.70075304
_cell_angle_alpha   90.00000000
_cell_angle_beta   90.00000000
_cell_angle_gamma   120.00000000
_symmetry_Int_Tables_number   1
_chemical_formula_structural   Zr3O
_chemical_formula_sum   'Zr18 O6'
_cell_volume   437.80146364
_cell_formula_units_Z   6
loop_
 _symmetry_equiv_pos_site_id
 _symmetry_equiv_pos_as_xyz
  1  'x, y, z'
loop_
 _atom_site_type_symbol
 _atom_site_label
 _atom_site_symmetry_multiplicity
 _atom_site_fract_x
 _atom_site_fract_y
 _atom_site_fract_z
 _atom_site_occupancy
  Zr  Zr0  1  0.33878000  0.33878000  0.25000000  1
  Zr  Zr1  1  0.32788667  0.99455333  0.08333333  1
  Zr  Zr2  1  0.00544667  0.33333333  0.08333333  1
  Zr  Zr3  1  0.66666667  0.67211333  0.08333333  1
  Zr  Zr4  1  0.00000000  0.66122000  0.25000000  1
  Zr  Zr5  1  0.66122000  0.00000000  0.25000000  1
  Zr  Zr6  1  0.00544667  0.67211333  0.58333333  1
  Zr  Zr7  1  0.99455333  0.32788667  0.41666667  1
  Zr  Zr8  1  0.67211333  0.66666667  0.41666667  1
  Zr  Zr9  1  0.33333333  0.00544667  0.41666667  1
  Zr  Zr10  1  0.66666667  0.99455333  0.58333333  1
  Zr  Zr11  1  0.32788667  0.33333333  0.58333333  1
  Zr  Zr12  1  0.67211333  0.00544667  0.91666667  1
  Zr  Zr13  1  0.66122000  0.66122000  0.75000000  1
  Zr  Zr14  1  0.33878000  0.00000000  0.75000000  1
  Zr  Zr15  1  0.00000000  0.33878000  0.75000000  1
  Zr  Zr16  1  0.33333333  0.32788667  0.91666667  1
  Zr  Zr17  1  0.99455333  0.66666667  0.91666667  1
  O  O18  1  0.00000000  0.00000000  0.00000000  1
  O  O19  1  0.33333333  0.66666667  0.16666667  1
  O  O20  1  0.66666667  0.33333333  0.33333333  1
  O  O21  1  0.00000000  0.00000000  0.50000000  1
  O  O22  1  0.33333333  0.66666667  0.66666667  1
  O  O23  1  0.66666667  0.33333333  0.83333333  1
