# generated using pymatgen
data_Mg2Pd
_symmetry_space_group_name_H-M   'P 1'
_cell_length_a   12.14136600
_cell_length_b   12.14136600
_cell_length_c   12.14136600
_cell_angle_alpha   90.00000000
_cell_angle_beta   90.00000000
_cell_angle_gamma   90.00000000
_symmetry_Int_Tables_number   1
_chemical_formula_structural   Mg2Pd
_chemical_formula_sum   'Mg64 Pd32'
_cell_volume   1789.79237356
_cell_formula_units_Z   32
loop_
 _symmetry_equiv_pos_site_id
 _symmetry_equiv_pos_as_xyz
  1  'x, y, z'
loop_
 _atom_site_type_symbol
 _atom_site_label
 _atom_site_symmetry_multiplicity
 _atom_site_fract_x
 _atom_site_fract_y
 _atom_site_fract_z
 _atom_site_occupancy
  Mg  Mg0  1  0.50000000  0.69432000  0.50000000  1
  Mg  Mg1  1  0.50000000  0.00000000  0.19432000  1
  Mg  Mg2  1  0.80568000  0.00000000  0.50000000  1
  Mg  Mg3  1  0.25000000  0.55568000  0.25000000  1
  Mg  Mg4  1  0.19432000  0.00000000  0.50000000  1
  Mg  Mg5  1  0.44432000  0.75000000  0.25000000  1
  Mg  Mg6  1  0.25000000  0.94432000  0.25000000  1
  Mg  Mg7  1  0.25000000  0.75000000  0.44432000  1
  Mg  Mg8  1  0.00000000  0.00000000  0.30568000  1
  Mg  Mg9  1  0.05568000  0.75000000  0.25000000  1
  Mg  Mg10  1  0.12500000  0.12500000  0.12500000  1
  Mg  Mg11  1  0.50000000  0.30568000  0.50000000  1
  Mg  Mg12  1  0.25000000  0.75000000  0.05568000  1
  Mg  Mg13  1  0.62500000  0.87500000  0.37500000  1
  Mg  Mg14  1  0.87500000  0.87500000  0.12500000  1
  Mg  Mg15  1  0.37500000  0.12500000  0.37500000  1
  Mg  Mg16  1  0.50000000  0.19432000  0.00000000  1
  Mg  Mg17  1  0.50000000  0.50000000  0.69432000  1
  Mg  Mg18  1  0.80568000  0.50000000  0.00000000  1
  Mg  Mg19  1  0.25000000  0.05568000  0.75000000  1
  Mg  Mg20  1  0.19432000  0.50000000  0.00000000  1
  Mg  Mg21  1  0.44432000  0.25000000  0.75000000  1
  Mg  Mg22  1  0.25000000  0.44432000  0.75000000  1
  Mg  Mg23  1  0.25000000  0.25000000  0.94432000  1
  Mg  Mg24  1  0.00000000  0.50000000  0.80568000  1
  Mg  Mg25  1  0.05568000  0.25000000  0.75000000  1
  Mg  Mg26  1  0.12500000  0.62500000  0.62500000  1
  Mg  Mg27  1  0.50000000  0.80568000  0.00000000  1
  Mg  Mg28  1  0.25000000  0.25000000  0.55568000  1
  Mg  Mg29  1  0.62500000  0.37500000  0.87500000  1
  Mg  Mg30  1  0.87500000  0.37500000  0.62500000  1
  Mg  Mg31  1  0.37500000  0.62500000  0.87500000  1
  Mg  Mg32  1  0.00000000  0.69432000  0.00000000  1
  Mg  Mg33  1  0.00000000  0.00000000  0.69432000  1
  Mg  Mg34  1  0.30568000  0.00000000  0.00000000  1
  Mg  Mg35  1  0.75000000  0.55568000  0.75000000  1
  Mg  Mg36  1  0.69432000  0.00000000  0.00000000  1
  Mg  Mg37  1  0.94432000  0.75000000  0.75000000  1
  Mg  Mg38  1  0.75000000  0.94432000  0.75000000  1
  Mg  Mg39  1  0.75000000  0.75000000  0.94432000  1
  Mg  Mg40  1  0.50000000  0.00000000  0.80568000  1
  Mg  Mg41  1  0.55568000  0.75000000  0.75000000  1
  Mg  Mg42  1  0.62500000  0.12500000  0.62500000  1
  Mg  Mg43  1  0.00000000  0.30568000  0.00000000  1
  Mg  Mg44  1  0.75000000  0.75000000  0.55568000  1
  Mg  Mg45  1  0.12500000  0.87500000  0.87500000  1
  Mg  Mg46  1  0.37500000  0.87500000  0.62500000  1
  Mg  Mg47  1  0.87500000  0.12500000  0.87500000  1
  Mg  Mg48  1  0.00000000  0.19432000  0.50000000  1
  Mg  Mg49  1  0.00000000  0.50000000  0.19432000  1
  Mg  Mg50  1  0.30568000  0.50000000  0.50000000  1
  Mg  Mg51  1  0.75000000  0.05568000  0.25000000  1
  Mg  Mg52  1  0.69432000  0.50000000  0.50000000  1
  Mg  Mg53  1  0.94432000  0.25000000  0.25000000  1
  Mg  Mg54  1  0.75000000  0.44432000  0.25000000  1
  Mg  Mg55  1  0.75000000  0.25000000  0.44432000  1
  Mg  Mg56  1  0.50000000  0.50000000  0.30568000  1
  Mg  Mg57  1  0.55568000  0.25000000  0.25000000  1
  Mg  Mg58  1  0.62500000  0.62500000  0.12500000  1
  Mg  Mg59  1  0.00000000  0.80568000  0.50000000  1
  Mg  Mg60  1  0.75000000  0.25000000  0.05568000  1
  Mg  Mg61  1  0.12500000  0.37500000  0.37500000  1
  Mg  Mg62  1  0.37500000  0.37500000  0.12500000  1
  Mg  Mg63  1  0.87500000  0.62500000  0.37500000  1
  Pd  Pd64  1  0.15770700  0.34229300  0.15770700  1
  Pd  Pd65  1  0.34229300  0.34229300  0.34229300  1
  Pd  Pd66  1  0.34229300  0.15770700  0.15770700  1
  Pd  Pd67  1  0.09229300  0.90770700  0.09229300  1
  Pd  Pd68  1  0.15770700  0.15770700  0.34229300  1
  Pd  Pd69  1  0.90770700  0.09229300  0.09229300  1
  Pd  Pd70  1  0.40770700  0.90770700  0.40770700  1
  Pd  Pd71  1  0.59229300  0.09229300  0.40770700  1
  Pd  Pd72  1  0.15770700  0.84229300  0.65770700  1
  Pd  Pd73  1  0.34229300  0.84229300  0.84229300  1
  Pd  Pd74  1  0.34229300  0.65770700  0.65770700  1
  Pd  Pd75  1  0.09229300  0.40770700  0.59229300  1
  Pd  Pd76  1  0.15770700  0.65770700  0.84229300  1
  Pd  Pd77  1  0.90770700  0.59229300  0.59229300  1
  Pd  Pd78  1  0.40770700  0.40770700  0.90770700  1
  Pd  Pd79  1  0.59229300  0.59229300  0.90770700  1
  Pd  Pd80  1  0.65770700  0.34229300  0.65770700  1
  Pd  Pd81  1  0.84229300  0.34229300  0.84229300  1
  Pd  Pd82  1  0.84229300  0.15770700  0.65770700  1
  Pd  Pd83  1  0.59229300  0.90770700  0.59229300  1
  Pd  Pd84  1  0.65770700  0.15770700  0.84229300  1
  Pd  Pd85  1  0.40770700  0.09229300  0.59229300  1
  Pd  Pd86  1  0.90770700  0.90770700  0.90770700  1
  Pd  Pd87  1  0.09229300  0.09229300  0.90770700  1
  Pd  Pd88  1  0.65770700  0.84229300  0.15770700  1
  Pd  Pd89  1  0.84229300  0.84229300  0.34229300  1
  Pd  Pd90  1  0.84229300  0.65770700  0.15770700  1
  Pd  Pd91  1  0.59229300  0.40770700  0.09229300  1
  Pd  Pd92  1  0.65770700  0.65770700  0.34229300  1
  Pd  Pd93  1  0.40770700  0.59229300  0.09229300  1
  Pd  Pd94  1  0.90770700  0.40770700  0.40770700  1
  Pd  Pd95  1  0.09229300  0.59229300  0.40770700  1
