# generated using pymatgen
data_TiTeAs
_symmetry_space_group_name_H-M   'P 1'
_cell_length_a   3.59860600
_cell_length_b   5.30344000
_cell_length_c   12.87266000
_cell_angle_alpha   90.00000000
_cell_angle_beta   90.00000000
_cell_angle_gamma   90.00000000
_symmetry_Int_Tables_number   1
_chemical_formula_structural   TiTeAs
_chemical_formula_sum   'Ti4 Te4 As4'
_cell_volume   245.67460031
_cell_formula_units_Z   4
loop_
 _symmetry_equiv_pos_site_id
 _symmetry_equiv_pos_as_xyz
  1  'x, y, z'
loop_
 _atom_site_type_symbol
 _atom_site_label
 _atom_site_symmetry_multiplicity
 _atom_site_fract_x
 _atom_site_fract_y
 _atom_site_fract_z
 _atom_site_occupancy
  Ti  Ti0  1  0.50000000  0.00000000  0.88177800  1
  Ti  Ti1  1  0.00000000  0.50000000  0.61822200  1
  Ti  Ti2  1  0.00000000  0.50000000  0.38177800  1
  Ti  Ti3  1  0.50000000  0.00000000  0.11822200  1
  Te  Te4  1  0.00000000  0.00000000  0.70948100  1
  Te  Te5  1  0.50000000  0.50000000  0.79051900  1
  Te  Te6  1  0.50000000  0.50000000  0.20948100  1
  Te  Te7  1  0.00000000  0.00000000  0.29051900  1
  As  As8  1  0.00000000  0.74886000  0.00000000  1
  As  As9  1  0.00000000  0.25114000  0.00000000  1
  As  As10  1  0.50000000  0.24886000  0.50000000  1
  As  As11  1  0.50000000  0.75114000  0.50000000  1
