# generated using pymatgen
data_Sn4Au
_symmetry_space_group_name_H-M   'P 1'
_cell_length_a   6.68237800
_cell_length_b   11.87158000
_cell_length_c   6.65822400
_cell_angle_alpha   90.00000000
_cell_angle_beta   90.00000000
_cell_angle_gamma   90.00000000
_symmetry_Int_Tables_number   1
_chemical_formula_structural   Sn4Au
_chemical_formula_sum   'Sn16 Au4'
_cell_volume   528.19947345
_cell_formula_units_Z   4
loop_
 _symmetry_equiv_pos_site_id
 _symmetry_equiv_pos_as_xyz
  1  'x, y, z'
loop_
 _atom_site_type_symbol
 _atom_site_label
 _atom_site_symmetry_multiplicity
 _atom_site_fract_x
 _atom_site_fract_y
 _atom_site_fract_z
 _atom_site_occupancy
  Sn  Sn0  1  0.16006800  0.12649900  0.66668500  1
  Sn  Sn1  1  0.83993200  0.12649900  0.33331500  1
  Sn  Sn2  1  0.66006800  0.12649900  0.83331500  1
  Sn  Sn3  1  0.33993200  0.12649900  0.16668500  1
  Sn  Sn4  1  0.83993200  0.37350100  0.83331500  1
  Sn  Sn5  1  0.16006800  0.37350100  0.16668500  1
  Sn  Sn6  1  0.33993200  0.37350100  0.66668500  1
  Sn  Sn7  1  0.66006800  0.37350100  0.33331500  1
  Sn  Sn8  1  0.66006800  0.62649900  0.66668500  1
  Sn  Sn9  1  0.33993200  0.62649900  0.33331500  1
  Sn  Sn10  1  0.16006800  0.62649900  0.83331500  1
  Sn  Sn11  1  0.83993200  0.62649900  0.16668500  1
  Sn  Sn12  1  0.33993200  0.87350100  0.83331500  1
  Sn  Sn13  1  0.66006800  0.87350100  0.16668500  1
  Sn  Sn14  1  0.83993200  0.87350100  0.66668500  1
  Sn  Sn15  1  0.16006800  0.87350100  0.33331500  1
  Au  Au16  1  0.50000000  0.00000000  0.50000000  1
  Au  Au17  1  0.00000000  0.00000000  0.00000000  1
  Au  Au18  1  0.00000000  0.50000000  0.50000000  1
  Au  Au19  1  0.50000000  0.50000000  0.00000000  1
