# generated using pymatgen
data_HfGe2
_symmetry_space_group_name_H-M   'P 1'
_cell_length_a   3.83901800
_cell_length_b   14.95738000
_cell_length_c   3.79449700
_cell_angle_alpha   90.00000000
_cell_angle_beta   90.00000000
_cell_angle_gamma   90.00000000
_symmetry_Int_Tables_number   1
_chemical_formula_structural   HfGe2
_chemical_formula_sum   'Hf4 Ge8'
_cell_volume   217.88628266
_cell_formula_units_Z   4
loop_
 _symmetry_equiv_pos_site_id
 _symmetry_equiv_pos_as_xyz
  1  'x, y, z'
loop_
 _atom_site_type_symbol
 _atom_site_label
 _atom_site_symmetry_multiplicity
 _atom_site_fract_x
 _atom_site_fract_y
 _atom_site_fract_z
 _atom_site_occupancy
  Hf  Hf0  1  0.50000000  0.39585400  0.75000000  1
  Hf  Hf1  1  0.00000000  0.10414600  0.25000000  1
  Hf  Hf2  1  0.00000000  0.89585400  0.75000000  1
  Hf  Hf3  1  0.50000000  0.60414600  0.25000000  1
  Ge  Ge4  1  0.50000000  0.06096000  0.75000000  1
  Ge  Ge5  1  0.00000000  0.43904000  0.25000000  1
  Ge  Ge6  1  0.50000000  0.24982600  0.25000000  1
  Ge  Ge7  1  0.00000000  0.25017400  0.75000000  1
  Ge  Ge8  1  0.00000000  0.56096000  0.75000000  1
  Ge  Ge9  1  0.50000000  0.93904000  0.25000000  1
  Ge  Ge10  1  0.00000000  0.74982600  0.25000000  1
  Ge  Ge11  1  0.50000000  0.75017400  0.75000000  1
