# generated using pymatgen
data_Re3P4
_symmetry_space_group_name_H-M   'P 1'
_cell_length_a   12.27509400
_cell_length_b   3.03167200
_cell_length_c   6.08339871
_cell_angle_alpha   90.00000000
_cell_angle_beta   113.90340160
_cell_angle_gamma   90.00000000
_symmetry_Int_Tables_number   1
_chemical_formula_structural   Re3P4
_chemical_formula_sum   'Re6 P8'
_cell_volume   206.97063965
_cell_formula_units_Z   2
loop_
 _symmetry_equiv_pos_site_id
 _symmetry_equiv_pos_as_xyz
  1  'x, y, z'
loop_
 _atom_site_type_symbol
 _atom_site_label
 _atom_site_symmetry_multiplicity
 _atom_site_fract_x
 _atom_site_fract_y
 _atom_site_fract_z
 _atom_site_occupancy
  Re  Re0  1  0.23625300  0.50000000  0.68132900  1
  Re  Re1  1  0.26374700  0.00000000  0.31867100  1
  Re  Re2  1  0.00000000  0.00000000  0.00000000  1
  Re  Re3  1  0.73625300  0.00000000  0.68132900  1
  Re  Re4  1  0.76374700  0.50000000  0.31867100  1
  Re  Re5  1  0.50000000  0.50000000  0.00000000  1
  P  P6  1  0.41494300  0.50000000  0.56405600  1
  P  P7  1  0.08505700  0.00000000  0.43594400  1
  P  P8  1  0.14910500  0.50000000  0.97552800  1
  P  P9  1  0.35089500  0.00000000  0.02447200  1
  P  P10  1  0.91494300  0.00000000  0.56405600  1
  P  P11  1  0.58505700  0.50000000  0.43594400  1
  P  P12  1  0.64910500  0.00000000  0.97552800  1
  P  P13  1  0.85089500  0.50000000  0.02447200  1
