# generated using pymatgen
data_Hf3(NiGe)4
_symmetry_space_group_name_H-M   'P 1'
_cell_length_a   3.91766200
_cell_length_b   6.52295200
_cell_length_c   12.90767000
_cell_angle_alpha   90.00000000
_cell_angle_beta   90.00000000
_cell_angle_gamma   90.00000000
_symmetry_Int_Tables_number   1
_chemical_formula_structural   Hf3(NiGe)4
_chemical_formula_sum   'Hf6 Ni8 Ge8'
_cell_volume   329.85190791
_cell_formula_units_Z   2
loop_
 _symmetry_equiv_pos_site_id
 _symmetry_equiv_pos_as_xyz
  1  'x, y, z'
loop_
 _atom_site_type_symbol
 _atom_site_label
 _atom_site_symmetry_multiplicity
 _atom_site_fract_x
 _atom_site_fract_y
 _atom_site_fract_z
 _atom_site_occupancy
  Hf  Hf0  1  0.00000000  0.50000000  0.62734600  1
  Hf  Hf1  1  0.50000000  0.00000000  0.87265400  1
  Hf  Hf2  1  0.50000000  0.50000000  0.00000000  1
  Hf  Hf3  1  0.50000000  0.00000000  0.12734600  1
  Hf  Hf4  1  0.00000000  0.50000000  0.37265400  1
  Hf  Hf5  1  0.00000000  0.00000000  0.50000000  1
  Ni  Ni6  1  0.00000000  0.29988200  0.82286200  1
  Ni  Ni7  1  0.50000000  0.20011800  0.67713800  1
  Ni  Ni8  1  0.00000000  0.70011800  0.82286200  1
  Ni  Ni9  1  0.50000000  0.79988200  0.67713800  1
  Ni  Ni10  1  0.50000000  0.79988200  0.32286200  1
  Ni  Ni11  1  0.00000000  0.70011800  0.17713800  1
  Ni  Ni12  1  0.50000000  0.20011800  0.32286200  1
  Ni  Ni13  1  0.00000000  0.29988200  0.17713800  1
  Ge  Ge14  1  0.00000000  0.00000000  0.71336600  1
  Ge  Ge15  1  0.00000000  0.20031700  0.00000000  1
  Ge  Ge16  1  0.00000000  0.79968300  0.00000000  1
  Ge  Ge17  1  0.50000000  0.50000000  0.78663400  1
  Ge  Ge18  1  0.50000000  0.50000000  0.21336600  1
  Ge  Ge19  1  0.50000000  0.70031700  0.50000000  1
  Ge  Ge20  1  0.50000000  0.29968300  0.50000000  1
  Ge  Ge21  1  0.00000000  0.00000000  0.28663400  1
