# generated using pymatgen
data_TmGa2
_symmetry_space_group_name_H-M   'P 1'
_cell_length_a   4.24679800
_cell_length_b   6.87113600
_cell_length_c   8.15368400
_cell_angle_alpha   90.00000000
_cell_angle_beta   90.00000000
_cell_angle_gamma   90.00000000
_symmetry_Int_Tables_number   1
_chemical_formula_structural   TmGa2
_chemical_formula_sum   'Tm4 Ga8'
_cell_volume   237.92716230
_cell_formula_units_Z   4
loop_
 _symmetry_equiv_pos_site_id
 _symmetry_equiv_pos_as_xyz
  1  'x, y, z'
loop_
 _atom_site_type_symbol
 _atom_site_label
 _atom_site_symmetry_multiplicity
 _atom_site_fract_x
 _atom_site_fract_y
 _atom_site_fract_z
 _atom_site_occupancy
  Tm  Tm0  1  0.50000000  0.75000000  0.94369800  1
  Tm  Tm1  1  0.50000000  0.25000000  0.05630200  1
  Tm  Tm2  1  0.00000000  0.25000000  0.44369800  1
  Tm  Tm3  1  0.00000000  0.75000000  0.55630200  1
  Ga  Ga4  1  0.00000000  0.05014600  0.83890800  1
  Ga  Ga5  1  0.00000000  0.94985400  0.16109200  1
  Ga  Ga6  1  0.50000000  0.05014600  0.66109200  1
  Ga  Ga7  1  0.50000000  0.94985400  0.33890800  1
  Ga  Ga8  1  0.50000000  0.55014600  0.33890800  1
  Ga  Ga9  1  0.50000000  0.44985400  0.66109200  1
  Ga  Ga10  1  0.00000000  0.55014600  0.16109200  1
  Ga  Ga11  1  0.00000000  0.44985400  0.83890800  1
