# generated using pymatgen
data_HoAl2Ni
_symmetry_space_group_name_H-M   'P 1'
_cell_length_a   4.05004600
_cell_length_b   10.14063400
_cell_length_c   6.86845400
_cell_angle_alpha   90.00000000
_cell_angle_beta   90.00000000
_cell_angle_gamma   90.00000000
_symmetry_Int_Tables_number   1
_chemical_formula_structural   HoAl2Ni
_chemical_formula_sum   'Ho4 Al8 Ni4'
_cell_volume   282.08764047
_cell_formula_units_Z   4
loop_
 _symmetry_equiv_pos_site_id
 _symmetry_equiv_pos_as_xyz
  1  'x, y, z'
loop_
 _atom_site_type_symbol
 _atom_site_label
 _atom_site_symmetry_multiplicity
 _atom_site_fract_x
 _atom_site_fract_y
 _atom_site_fract_z
 _atom_site_occupancy
  Ho  Ho0  1  0.50000000  0.43831700  0.75000000  1
  Ho  Ho1  1  0.00000000  0.06168300  0.25000000  1
  Ho  Ho2  1  0.00000000  0.93831700  0.75000000  1
  Ho  Ho3  1  0.50000000  0.56168300  0.25000000  1
  Al  Al4  1  0.00000000  0.34421300  0.44578200  1
  Al  Al5  1  0.50000000  0.15578700  0.55421800  1
  Al  Al6  1  0.50000000  0.15578700  0.94578200  1
  Al  Al7  1  0.00000000  0.34421300  0.05421800  1
  Al  Al8  1  0.50000000  0.84421300  0.44578200  1
  Al  Al9  1  0.00000000  0.65578700  0.55421800  1
  Al  Al10  1  0.00000000  0.65578700  0.94578200  1
  Al  Al11  1  0.50000000  0.84421300  0.05421800  1
  Ni  Ni12  1  0.00000000  0.21580900  0.75000000  1
  Ni  Ni13  1  0.50000000  0.28419100  0.25000000  1
  Ni  Ni14  1  0.50000000  0.71580900  0.75000000  1
  Ni  Ni15  1  0.00000000  0.78419100  0.25000000  1
