# generated using pymatgen
data_Ti2Pd
_symmetry_space_group_name_H-M   'P 1'
_cell_length_a   3.12232200
_cell_length_b   3.12232200
_cell_length_c   9.97308800
_cell_angle_alpha   90.00000000
_cell_angle_beta   90.00000000
_cell_angle_gamma   90.00000000
_symmetry_Int_Tables_number   1
_chemical_formula_structural   Ti2Pd
_chemical_formula_sum   'Ti4 Pd2'
_cell_volume   97.22658446
_cell_formula_units_Z   2
loop_
 _symmetry_equiv_pos_site_id
 _symmetry_equiv_pos_as_xyz
  1  'x, y, z'
loop_
 _atom_site_type_symbol
 _atom_site_label
 _atom_site_symmetry_multiplicity
 _atom_site_fract_x
 _atom_site_fract_y
 _atom_site_fract_z
 _atom_site_occupancy
  Ti  Ti0  1  0.50000000  0.50000000  0.16459900  1
  Ti  Ti1  1  0.00000000  0.00000000  0.33540100  1
  Ti  Ti2  1  0.00000000  0.00000000  0.66459900  1
  Ti  Ti3  1  0.50000000  0.50000000  0.83540100  1
  Pd  Pd4  1  0.00000000  0.00000000  0.00000000  1
  Pd  Pd5  1  0.50000000  0.50000000  0.50000000  1
