# generated using pymatgen
data_BePd3
_symmetry_space_group_name_H-M   'P 1'
_cell_length_a   2.87326000
_cell_length_b   9.74387600
_cell_length_c   7.69467900
_cell_angle_alpha   90.00000000
_cell_angle_beta   90.00000000
_cell_angle_gamma   90.00000000
_symmetry_Int_Tables_number   1
_chemical_formula_structural   BePd3
_chemical_formula_sum   'Be4 Pd12'
_cell_volume   215.42553612
_cell_formula_units_Z   4
loop_
 _symmetry_equiv_pos_site_id
 _symmetry_equiv_pos_as_xyz
  1  'x, y, z'
loop_
 _atom_site_type_symbol
 _atom_site_label
 _atom_site_symmetry_multiplicity
 _atom_site_fract_x
 _atom_site_fract_y
 _atom_site_fract_z
 _atom_site_occupancy
  Be  Be0  1  0.50000000  0.24705300  0.25000000  1
  Be  Be1  1  0.00000000  0.25294700  0.75000000  1
  Be  Be2  1  0.00000000  0.74705300  0.25000000  1
  Be  Be3  1  0.50000000  0.75294700  0.75000000  1
  Pd  Pd4  1  0.00000000  0.43273200  0.25000000  1
  Pd  Pd5  1  0.50000000  0.06726800  0.75000000  1
  Pd  Pd6  1  0.00000000  0.13637800  0.43889200  1
  Pd  Pd7  1  0.50000000  0.36362200  0.56110800  1
  Pd  Pd8  1  0.50000000  0.36362200  0.93889200  1
  Pd  Pd9  1  0.00000000  0.13637800  0.06110800  1
  Pd  Pd10  1  0.50000000  0.93273200  0.25000000  1
  Pd  Pd11  1  0.00000000  0.56726800  0.75000000  1
  Pd  Pd12  1  0.50000000  0.63637800  0.43889200  1
  Pd  Pd13  1  0.00000000  0.86362200  0.56110800  1
  Pd  Pd14  1  0.00000000  0.86362200  0.93889200  1
  Pd  Pd15  1  0.50000000  0.63637800  0.06110800  1
