# generated using pymatgen
data_ZrSb
_symmetry_space_group_name_H-M   'P 1'
_cell_length_a   3.81734000
_cell_length_b   10.54589800
_cell_length_c   14.21265800
_cell_angle_alpha   90.00000000
_cell_angle_beta   90.00000000
_cell_angle_gamma   90.00000000
_symmetry_Int_Tables_number   1
_chemical_formula_structural   ZrSb
_chemical_formula_sum   'Zr12 Sb12'
_cell_volume   572.16292808
_cell_formula_units_Z   12
loop_
 _symmetry_equiv_pos_site_id
 _symmetry_equiv_pos_as_xyz
  1  'x, y, z'
loop_
 _atom_site_type_symbol
 _atom_site_label
 _atom_site_symmetry_multiplicity
 _atom_site_fract_x
 _atom_site_fract_y
 _atom_site_fract_z
 _atom_site_occupancy
  Zr  Zr0  1  0.00000000  0.38093300  0.25000000  1
  Zr  Zr1  1  0.50000000  0.11906700  0.75000000  1
  Zr  Zr2  1  0.00000000  0.07124800  0.39177800  1
  Zr  Zr3  1  0.50000000  0.42875200  0.60822200  1
  Zr  Zr4  1  0.50000000  0.42875200  0.89177800  1
  Zr  Zr5  1  0.00000000  0.07124800  0.10822200  1
  Zr  Zr6  1  0.50000000  0.88093300  0.25000000  1
  Zr  Zr7  1  0.00000000  0.61906700  0.75000000  1
  Zr  Zr8  1  0.50000000  0.57124800  0.39177800  1
  Zr  Zr9  1  0.00000000  0.92875200  0.60822200  1
  Zr  Zr10  1  0.00000000  0.92875200  0.89177800  1
  Zr  Zr11  1  0.50000000  0.57124800  0.10822200  1
  Sb  Sb12  1  0.50000000  0.16909300  0.25000000  1
  Sb  Sb13  1  0.00000000  0.33090700  0.75000000  1
  Sb  Sb14  1  0.50000000  0.14269400  0.95088200  1
  Sb  Sb15  1  0.00000000  0.35730600  0.04911800  1
  Sb  Sb16  1  0.00000000  0.35730600  0.45088200  1
  Sb  Sb17  1  0.50000000  0.14269400  0.54911800  1
  Sb  Sb18  1  0.00000000  0.66909300  0.25000000  1
  Sb  Sb19  1  0.50000000  0.83090700  0.75000000  1
  Sb  Sb20  1  0.00000000  0.64269400  0.95088200  1
  Sb  Sb21  1  0.50000000  0.85730600  0.04911800  1
  Sb  Sb22  1  0.50000000  0.85730600  0.45088200  1
  Sb  Sb23  1  0.00000000  0.64269400  0.54911800  1
