# generated using pymatgen
data_CaAl4
_symmetry_space_group_name_H-M   'P 1'
_cell_length_a   4.35125600
_cell_length_b   4.35125600
_cell_length_c   11.23033000
_cell_angle_alpha   90.00000000
_cell_angle_beta   90.00000000
_cell_angle_gamma   90.00000000
_symmetry_Int_Tables_number   1
_chemical_formula_structural   CaAl4
_chemical_formula_sum   'Ca2 Al8'
_cell_volume   212.62865320
_cell_formula_units_Z   2
loop_
 _symmetry_equiv_pos_site_id
 _symmetry_equiv_pos_as_xyz
  1  'x, y, z'
loop_
 _atom_site_type_symbol
 _atom_site_label
 _atom_site_symmetry_multiplicity
 _atom_site_fract_x
 _atom_site_fract_y
 _atom_site_fract_z
 _atom_site_occupancy
  Ca  Ca0  1  0.00000000  0.00000000  0.00000000  1
  Ca  Ca1  1  0.50000000  0.50000000  0.50000000  1
  Al  Al2  1  0.00000000  0.50000000  0.25000000  1
  Al  Al3  1  0.00000000  0.00000000  0.38647100  1
  Al  Al4  1  0.50000000  0.50000000  0.11352900  1
  Al  Al5  1  0.50000000  0.00000000  0.25000000  1
  Al  Al6  1  0.50000000  0.00000000  0.75000000  1
  Al  Al7  1  0.50000000  0.50000000  0.88647100  1
  Al  Al8  1  0.00000000  0.00000000  0.61352900  1
  Al  Al9  1  0.00000000  0.50000000  0.75000000  1
