# generated using pymatgen
data_Si3Mo5
_symmetry_space_group_name_H-M   'P 1'
_cell_length_a   9.69180800
_cell_length_b   9.69180800
_cell_length_c   4.93561800
_cell_angle_alpha   90.00000000
_cell_angle_beta   90.00000000
_cell_angle_gamma   90.00000000
_symmetry_Int_Tables_number   1
_chemical_formula_structural   Si3Mo5
_chemical_formula_sum   'Si12 Mo20'
_cell_volume   463.60823674
_cell_formula_units_Z   4
loop_
 _symmetry_equiv_pos_site_id
 _symmetry_equiv_pos_as_xyz
  1  'x, y, z'
loop_
 _atom_site_type_symbol
 _atom_site_label
 _atom_site_symmetry_multiplicity
 _atom_site_fract_x
 _atom_site_fract_y
 _atom_site_fract_z
 _atom_site_occupancy
  Si  Si0  1  0.66735900  0.16735900  0.00000000  1
  Si  Si1  1  0.33264100  0.16735900  0.50000000  1
  Si  Si2  1  0.66735900  0.83264100  0.50000000  1
  Si  Si3  1  0.33264100  0.83264100  0.00000000  1
  Si  Si4  1  0.00000000  0.00000000  0.25000000  1
  Si  Si5  1  0.00000000  0.00000000  0.75000000  1
  Si  Si6  1  0.16735900  0.66735900  0.50000000  1
  Si  Si7  1  0.83264100  0.66735900  0.00000000  1
  Si  Si8  1  0.16735900  0.33264100  0.00000000  1
  Si  Si9  1  0.83264100  0.33264100  0.50000000  1
  Si  Si10  1  0.50000000  0.50000000  0.75000000  1
  Si  Si11  1  0.50000000  0.50000000  0.25000000  1
  Mo  Mo12  1  0.22393750  0.07654450  0.00000000  1
  Mo  Mo13  1  0.77606250  0.92345550  0.00000000  1
  Mo  Mo14  1  0.57654450  0.27606250  0.50000000  1
  Mo  Mo15  1  0.42345550  0.72393750  0.50000000  1
  Mo  Mo16  1  0.57654450  0.72393750  0.00000000  1
  Mo  Mo17  1  0.77606250  0.07654450  0.50000000  1
  Mo  Mo18  1  0.22393750  0.92345550  0.50000000  1
  Mo  Mo19  1  0.42345550  0.27606250  0.00000000  1
  Mo  Mo20  1  0.50000000  0.00000000  0.75000000  1
  Mo  Mo21  1  0.50000000  0.00000000  0.25000000  1
  Mo  Mo22  1  0.72393750  0.57654450  0.50000000  1
  Mo  Mo23  1  0.27606250  0.42345550  0.50000000  1
  Mo  Mo24  1  0.07654450  0.77606250  0.00000000  1
  Mo  Mo25  1  0.92345550  0.22393750  0.00000000  1
  Mo  Mo26  1  0.07654450  0.22393750  0.50000000  1
  Mo  Mo27  1  0.27606250  0.57654450  0.00000000  1
  Mo  Mo28  1  0.72393750  0.42345550  0.00000000  1
  Mo  Mo29  1  0.92345550  0.77606250  0.50000000  1
  Mo  Mo30  1  0.00000000  0.50000000  0.25000000  1
  Mo  Mo31  1  0.00000000  0.50000000  0.75000000  1
