# generated using pymatgen
data_Ti4O5
_symmetry_space_group_name_H-M   'P 1'
_cell_length_a   6.63804000
_cell_length_b   6.63804000
_cell_length_c   4.18776000
_cell_angle_alpha   90.00000000
_cell_angle_beta   90.00000000
_cell_angle_gamma   90.00000000
_symmetry_Int_Tables_number   1
_chemical_formula_structural   Ti4O5
_chemical_formula_sum   'Ti8 O10'
_cell_volume   184.52767702
_cell_formula_units_Z   2
loop_
 _symmetry_equiv_pos_site_id
 _symmetry_equiv_pos_as_xyz
  1  'x, y, z'
loop_
 _atom_site_type_symbol
 _atom_site_label
 _atom_site_symmetry_multiplicity
 _atom_site_fract_x
 _atom_site_fract_y
 _atom_site_fract_z
 _atom_site_occupancy
  Ti  Ti0  1  0.60756850  0.78356350  0.00000000  1
  Ti  Ti1  1  0.71643650  0.10756850  0.50000000  1
  Ti  Ti2  1  0.28356350  0.89243150  0.50000000  1
  Ti  Ti3  1  0.39243150  0.21643650  0.00000000  1
  Ti  Ti4  1  0.10756850  0.28356350  0.50000000  1
  Ti  Ti5  1  0.21643650  0.60756850  0.00000000  1
  Ti  Ti6  1  0.78356350  0.39243150  0.00000000  1
  Ti  Ti7  1  0.89243150  0.71643650  0.50000000  1
  O  O8  1  0.40854300  0.18999800  0.50000000  1
  O  O9  1  0.31000200  0.90854300  0.00000000  1
  O  O10  1  0.68999800  0.09145700  0.00000000  1
  O  O11  1  0.59145700  0.81000200  0.50000000  1
  O  O12  1  0.00000000  0.00000000  0.50000000  1
  O  O13  1  0.90854300  0.68999800  0.00000000  1
  O  O14  1  0.81000200  0.40854300  0.50000000  1
  O  O15  1  0.18999800  0.59145700  0.50000000  1
  O  O16  1  0.09145700  0.31000200  0.00000000  1
  O  O17  1  0.50000000  0.50000000  0.00000000  1
