# generated using pymatgen
data_SiPt3
_symmetry_space_group_name_H-M   'P 1'
_cell_length_a   7.76561000
_cell_length_b   7.90941600
_cell_length_c   5.44610053
_cell_angle_alpha   90.00000000
_cell_angle_beta   133.24271426
_cell_angle_gamma   90.00000000
_symmetry_Int_Tables_number   1
_chemical_formula_structural   SiPt3
_chemical_formula_sum   'Si4 Pt12'
_cell_volume   243.67457630
_cell_formula_units_Z   4
loop_
 _symmetry_equiv_pos_site_id
 _symmetry_equiv_pos_as_xyz
  1  'x, y, z'
loop_
 _atom_site_type_symbol
 _atom_site_label
 _atom_site_symmetry_multiplicity
 _atom_site_fract_x
 _atom_site_fract_y
 _atom_site_fract_z
 _atom_site_occupancy
  Si  Si0  1  0.28538600  0.00000000  0.07359000  1
  Si  Si1  1  0.71461400  0.00000000  0.92641000  1
  Si  Si2  1  0.78538600  0.50000000  0.07359000  1
  Si  Si3  1  0.21461400  0.50000000  0.92641000  1
  Pt  Pt4  1  0.50000000  0.77411600  0.50000000  1
  Pt  Pt5  1  0.50000000  0.22588400  0.50000000  1
  Pt  Pt6  1  0.50000000  0.68447000  0.00000000  1
  Pt  Pt7  1  0.50000000  0.31553000  0.00000000  1
  Pt  Pt8  1  0.28336700  0.00000000  0.63702100  1
  Pt  Pt9  1  0.71663300  0.00000000  0.36297900  1
  Pt  Pt10  1  0.00000000  0.27411600  0.50000000  1
  Pt  Pt11  1  0.00000000  0.72588400  0.50000000  1
  Pt  Pt12  1  0.00000000  0.18447000  0.00000000  1
  Pt  Pt13  1  0.00000000  0.81553000  0.00000000  1
  Pt  Pt14  1  0.78336700  0.50000000  0.63702100  1
  Pt  Pt15  1  0.21663300  0.50000000  0.36297900  1
