# generated using pymatgen
data_Ti3NiS6
_symmetry_space_group_name_H-M   'P 1'
_cell_length_a   5.87081014
_cell_length_b   5.87081014
_cell_length_c   17.03648284
_cell_angle_alpha   90.00000000
_cell_angle_beta   90.00000000
_cell_angle_gamma   120.00000000
_symmetry_Int_Tables_number   1
_chemical_formula_structural   Ti3NiS6
_chemical_formula_sum   'Ti9 Ni3 S18'
_cell_volume   508.51836632
_cell_formula_units_Z   3
loop_
 _symmetry_equiv_pos_site_id
 _symmetry_equiv_pos_as_xyz
  1  'x, y, z'
loop_
 _atom_site_type_symbol
 _atom_site_label
 _atom_site_symmetry_multiplicity
 _atom_site_fract_x
 _atom_site_fract_y
 _atom_site_fract_z
 _atom_site_occupancy
  Ti  Ti0  1  0.66666667  0.33333333  0.00387433  1
  Ti  Ti1  1  0.00000000  0.00000000  0.32945900  1
  Ti  Ti2  1  0.00000000  0.00000000  0.00000000  1
  Ti  Ti3  1  0.33333333  0.66666667  0.33720767  1
  Ti  Ti4  1  0.66666667  0.33333333  0.66279233  1
  Ti  Ti5  1  0.66666667  0.33333333  0.33333333  1
  Ti  Ti6  1  0.00000000  0.00000000  0.67054100  1
  Ti  Ti7  1  0.33333333  0.66666667  0.99612567  1
  Ti  Ti8  1  0.33333333  0.66666667  0.66666667  1
  Ni  Ni9  1  0.33333333  0.66666667  0.16666667  1
  Ni  Ni10  1  1.00000000  0.00000000  0.50000000  1
  Ni  Ni11  1  0.66666667  0.33333333  0.83333333  1
  S  S12  1  0.66443367  0.66927533  0.08528333  1
  S  S13  1  0.33072467  0.99515833  0.08528333  1
  S  S14  1  0.00484167  0.33556633  0.08528333  1
  S  S15  1  0.00223300  0.66405800  0.24805000  1
  S  S16  1  0.66182500  0.99776700  0.24805000  1
  S  S17  1  0.33594200  0.33817500  0.24805000  1
  S  S18  1  0.33110033  0.00260867  0.41861667  1
  S  S19  1  0.99739133  0.32849167  0.41861667  1
  S  S20  1  0.67150833  0.66889967  0.41861667  1
  S  S21  1  0.66889967  0.99739133  0.58138333  1
  S  S22  1  0.32849167  0.33110033  0.58138333  1
  S  S23  1  0.00260867  0.67150833  0.58138333  1
  S  S24  1  0.99776700  0.33594200  0.75195000  1
  S  S25  1  0.66405800  0.66182500  0.75195000  1
  S  S26  1  0.33817500  0.00223300  0.75195000  1
  S  S27  1  0.33556633  0.33072467  0.91471667  1
  S  S28  1  0.99515833  0.66443367  0.91471667  1
  S  S29  1  0.66927533  0.00484167  0.91471667  1
