# generated using pymatgen
data_AgSbTe2
_symmetry_space_group_name_H-M   'P 1'
_cell_length_a   4.37451809
_cell_length_b   4.37451809
_cell_length_c   20.88674999
_cell_angle_alpha   90.00000000
_cell_angle_beta   90.00000000
_cell_angle_gamma   120.00000000
_symmetry_Int_Tables_number   1
_chemical_formula_structural   AgSbTe2
_chemical_formula_sum   'Ag3 Sb3 Te6'
_cell_volume   346.14808572
_cell_formula_units_Z   3
loop_
 _symmetry_equiv_pos_site_id
 _symmetry_equiv_pos_as_xyz
  1  'x, y, z'
loop_
 _atom_site_type_symbol
 _atom_site_label
 _atom_site_symmetry_multiplicity
 _atom_site_fract_x
 _atom_site_fract_y
 _atom_site_fract_z
 _atom_site_occupancy
  Ag  Ag0  1  0.33333333  0.66666667  0.16666667  1
  Ag  Ag1  1  1.00000000  1.00000000  0.50000000  1
  Ag  Ag2  1  0.66666667  0.33333333  0.83333333  1
  Sb  Sb3  1  0.00000000  0.00000000  0.00000000  1
  Sb  Sb4  1  0.66666667  0.33333333  0.33333333  1
  Sb  Sb5  1  0.33333333  0.66666667  0.66666667  1
  Te  Te6  1  0.00000000  0.00000000  0.24631700  1
  Te  Te7  1  0.66666667  0.33333333  0.08701633  1
  Te  Te8  1  0.66666667  0.33333333  0.57965033  1
  Te  Te9  1  0.33333333  0.66666667  0.42034967  1
  Te  Te10  1  0.33333333  0.66666667  0.91298367  1
  Te  Te11  1  0.00000000  0.00000000  0.75368300  1
