# generated using pymatgen
data_ScGa2
_symmetry_space_group_name_H-M   'P 1'
_cell_length_a   4.12265600
_cell_length_b   6.62657600
_cell_length_c   7.98168600
_cell_angle_alpha   90.00000000
_cell_angle_beta   90.00000000
_cell_angle_gamma   90.00000000
_symmetry_Int_Tables_number   1
_chemical_formula_structural   ScGa2
_chemical_formula_sum   'Sc4 Ga8'
_cell_volume   218.05242457
_cell_formula_units_Z   4
loop_
 _symmetry_equiv_pos_site_id
 _symmetry_equiv_pos_as_xyz
  1  'x, y, z'
loop_
 _atom_site_type_symbol
 _atom_site_label
 _atom_site_symmetry_multiplicity
 _atom_site_fract_x
 _atom_site_fract_y
 _atom_site_fract_z
 _atom_site_occupancy
  Sc  Sc0  1  0.50000000  0.25000000  0.93929800  1
  Sc  Sc1  1  0.50000000  0.75000000  0.06070200  1
  Sc  Sc2  1  0.00000000  0.75000000  0.43929800  1
  Sc  Sc3  1  0.00000000  0.25000000  0.56070200  1
  Ga  Ga4  1  0.00000000  0.95398400  0.84195900  1
  Ga  Ga5  1  0.00000000  0.04601600  0.15804100  1
  Ga  Ga6  1  0.50000000  0.04601600  0.34195900  1
  Ga  Ga7  1  0.50000000  0.95398400  0.65804100  1
  Ga  Ga8  1  0.50000000  0.45398400  0.34195900  1
  Ga  Ga9  1  0.50000000  0.54601600  0.65804100  1
  Ga  Ga10  1  0.00000000  0.54601600  0.84195900  1
  Ga  Ga11  1  0.00000000  0.45398400  0.15804100  1
