# generated using pymatgen
data_Mg13Al14
_symmetry_space_group_name_H-M   'P 1'
_cell_length_a   10.19732200
_cell_length_b   10.19732200
_cell_length_c   10.19732200
_cell_angle_alpha   90.00000000
_cell_angle_beta   90.00000000
_cell_angle_gamma   90.00000000
_symmetry_Int_Tables_number   1
_chemical_formula_structural   Mg13Al14
_chemical_formula_sum   'Mg26 Al28'
_cell_volume   1060.37236207
_cell_formula_units_Z   2
loop_
 _symmetry_equiv_pos_site_id
 _symmetry_equiv_pos_as_xyz
  1  'x, y, z'
loop_
 _atom_site_type_symbol
 _atom_site_label
 _atom_site_symmetry_multiplicity
 _atom_site_fract_x
 _atom_site_fract_y
 _atom_site_fract_z
 _atom_site_occupancy
  Mg  Mg0  1  0.00000000  0.00000000  0.00000000  1
  Mg  Mg1  1  0.50000000  0.15630600  0.15630600  1
  Mg  Mg2  1  0.15630600  0.50000000  0.84369400  1
  Mg  Mg3  1  0.50000000  0.15630600  0.84369400  1
  Mg  Mg4  1  0.15630600  0.50000000  0.15630600  1
  Mg  Mg5  1  0.84369400  0.15630600  0.50000000  1
  Mg  Mg6  1  0.15630600  0.84369400  0.50000000  1
  Mg  Mg7  1  0.84369400  0.50000000  0.15630600  1
  Mg  Mg8  1  0.34369400  0.00000000  0.34369400  1
  Mg  Mg9  1  0.00000000  0.34369400  0.34369400  1
  Mg  Mg10  1  0.50000000  0.84369400  0.15630600  1
  Mg  Mg11  1  0.34369400  0.34369400  0.00000000  1
  Mg  Mg12  1  0.15630600  0.15630600  0.50000000  1
  Mg  Mg13  1  0.50000000  0.50000000  0.50000000  1
  Mg  Mg14  1  0.00000000  0.65630600  0.65630600  1
  Mg  Mg15  1  0.65630600  0.00000000  0.34369400  1
  Mg  Mg16  1  0.00000000  0.65630600  0.34369400  1
  Mg  Mg17  1  0.65630600  0.00000000  0.65630600  1
  Mg  Mg18  1  0.34369400  0.65630600  0.00000000  1
  Mg  Mg19  1  0.65630600  0.34369400  0.00000000  1
  Mg  Mg20  1  0.34369400  0.00000000  0.65630600  1
  Mg  Mg21  1  0.84369400  0.50000000  0.84369400  1
  Mg  Mg22  1  0.50000000  0.84369400  0.84369400  1
  Mg  Mg23  1  0.00000000  0.34369400  0.65630600  1
  Mg  Mg24  1  0.84369400  0.84369400  0.50000000  1
  Mg  Mg25  1  0.65630600  0.65630600  0.00000000  1
  Al  Al26  1  0.32915450  0.67084550  0.32915450  1
  Al  Al27  1  0.32915450  0.32915450  0.32915450  1
  Al  Al28  1  0.67084550  0.32915450  0.32915450  1
  Al  Al29  1  0.17084550  0.82915450  0.17084550  1
  Al  Al30  1  0.82915450  0.17084550  0.17084550  1
  Al  Al31  1  0.17084550  0.17084550  0.82915450  1
  Al  Al32  1  0.17084550  0.17084550  0.17084550  1
  Al  Al33  1  0.00000000  0.00000000  0.69995300  1
  Al  Al34  1  0.00000000  0.30004700  0.00000000  1
  Al  Al35  1  0.00000000  0.69995300  0.00000000  1
  Al  Al36  1  0.69995300  0.00000000  0.00000000  1
  Al  Al37  1  0.30004700  0.00000000  0.00000000  1
  Al  Al38  1  0.00000000  0.00000000  0.30004700  1
  Al  Al39  1  0.32915450  0.32915450  0.67084550  1
  Al  Al40  1  0.82915450  0.17084550  0.82915450  1
  Al  Al41  1  0.82915450  0.82915450  0.82915450  1
  Al  Al42  1  0.17084550  0.82915450  0.82915450  1
  Al  Al43  1  0.67084550  0.32915450  0.67084550  1
  Al  Al44  1  0.32915450  0.67084550  0.67084550  1
  Al  Al45  1  0.67084550  0.67084550  0.32915450  1
  Al  Al46  1  0.67084550  0.67084550  0.67084550  1
  Al  Al47  1  0.50000000  0.50000000  0.19995300  1
  Al  Al48  1  0.50000000  0.80004700  0.50000000  1
  Al  Al49  1  0.50000000  0.19995300  0.50000000  1
  Al  Al50  1  0.19995300  0.50000000  0.50000000  1
  Al  Al51  1  0.80004700  0.50000000  0.50000000  1
  Al  Al52  1  0.50000000  0.50000000  0.80004700  1
  Al  Al53  1  0.82915450  0.82915450  0.17084550  1
