# generated using pymatgen
data_TiCoO3
_symmetry_space_group_name_H-M   'P 1'
_cell_length_a   5.10852028
_cell_length_b   5.10852028
_cell_length_c   14.04074915
_cell_angle_alpha   90.00000000
_cell_angle_beta   90.00000000
_cell_angle_gamma   120.00000000
_symmetry_Int_Tables_number   1
_chemical_formula_structural   TiCoO3
_chemical_formula_sum   'Ti6 Co6 O18'
_cell_volume   317.33001740
_cell_formula_units_Z   6
loop_
 _symmetry_equiv_pos_site_id
 _symmetry_equiv_pos_as_xyz
  1  'x, y, z'
loop_
 _atom_site_type_symbol
 _atom_site_label
 _atom_site_symmetry_multiplicity
 _atom_site_fract_x
 _atom_site_fract_y
 _atom_site_fract_z
 _atom_site_occupancy
  Ti  Ti0  1  0.00000000  0.00000000  0.14412750  1
  Ti  Ti1  1  0.66666667  0.33333333  0.18920583  1
  Ti  Ti2  1  0.66666667  0.33333333  0.47746083  1
  Ti  Ti3  1  0.33333333  0.66666667  0.52253917  1
  Ti  Ti4  1  0.33333333  0.66666667  0.81079417  1
  Ti  Ti5  1  0.00000000  0.00000000  0.85587250  1
  Co  Co6  1  0.33333333  0.66666667  0.02163817  1
  Co  Co7  1  0.33333333  0.66666667  0.31169517  1
  Co  Co8  1  0.00000000  0.00000000  0.35497150  1
  Co  Co9  1  0.00000000  0.00000000  0.64502850  1
  Co  Co10  1  0.66666667  0.33333333  0.68830483  1
  Co  Co11  1  0.66666667  0.33333333  0.97836183  1
  O  O12  1  0.35074200  0.31389250  0.08714150  1
  O  O13  1  0.98055917  0.29648383  0.24619183  1
  O  O14  1  0.70351617  0.68407533  0.24619183  1
  O  O15  1  0.68610750  0.03684950  0.08714150  1
  O  O16  1  0.31592467  0.01944083  0.24619183  1
  O  O17  1  0.96315050  0.64925800  0.08714150  1
  O  O18  1  0.01740867  0.64722583  0.42047483  1
  O  O19  1  0.64722583  0.62981717  0.57952517  1
  O  O20  1  0.37018283  0.01740867  0.57952517  1
  O  O21  1  0.35277417  0.37018283  0.42047483  1
  O  O22  1  0.98259133  0.35277417  0.57952517  1
  O  O23  1  0.62981717  0.98259133  0.42047483  1
  O  O24  1  0.68407533  0.98055917  0.75380817  1
  O  O25  1  0.31389250  0.96315050  0.91285850  1
  O  O26  1  0.03684950  0.35074200  0.91285850  1
  O  O27  1  0.01944083  0.70351617  0.75380817  1
  O  O28  1  0.64925800  0.68610750  0.91285850  1
  O  O29  1  0.29648383  0.31592467  0.75380817  1
