# generated using pymatgen
data_NaAu2
_symmetry_space_group_name_H-M   'P 1'
_cell_length_a   7.96714800
_cell_length_b   7.96714800
_cell_length_c   7.96714800
_cell_angle_alpha   90.00000000
_cell_angle_beta   90.00000000
_cell_angle_gamma   90.00000000
_symmetry_Int_Tables_number   1
_chemical_formula_structural   NaAu2
_chemical_formula_sum   'Na8 Au16'
_cell_volume   505.71828264
_cell_formula_units_Z   8
loop_
 _symmetry_equiv_pos_site_id
 _symmetry_equiv_pos_as_xyz
  1  'x, y, z'
loop_
 _atom_site_type_symbol
 _atom_site_label
 _atom_site_symmetry_multiplicity
 _atom_site_fract_x
 _atom_site_fract_y
 _atom_site_fract_z
 _atom_site_occupancy
  Na  Na0  1  0.25000000  0.25000000  0.25000000  1
  Na  Na1  1  0.50000000  0.00000000  0.50000000  1
  Na  Na2  1  0.25000000  0.75000000  0.75000000  1
  Na  Na3  1  0.50000000  0.50000000  0.00000000  1
  Na  Na4  1  0.75000000  0.25000000  0.75000000  1
  Na  Na5  1  0.00000000  0.00000000  0.00000000  1
  Na  Na6  1  0.75000000  0.75000000  0.25000000  1
  Na  Na7  1  0.00000000  0.50000000  0.50000000  1
  Au  Au8  1  0.37500000  0.62500000  0.37500000  1
  Au  Au9  1  0.37500000  0.87500000  0.12500000  1
  Au  Au10  1  0.12500000  0.87500000  0.37500000  1
  Au  Au11  1  0.12500000  0.62500000  0.12500000  1
  Au  Au12  1  0.37500000  0.12500000  0.87500000  1
  Au  Au13  1  0.37500000  0.37500000  0.62500000  1
  Au  Au14  1  0.12500000  0.37500000  0.87500000  1
  Au  Au15  1  0.12500000  0.12500000  0.62500000  1
  Au  Au16  1  0.87500000  0.62500000  0.87500000  1
  Au  Au17  1  0.87500000  0.87500000  0.62500000  1
  Au  Au18  1  0.62500000  0.87500000  0.87500000  1
  Au  Au19  1  0.62500000  0.62500000  0.62500000  1
  Au  Au20  1  0.87500000  0.12500000  0.37500000  1
  Au  Au21  1  0.87500000  0.37500000  0.12500000  1
  Au  Au22  1  0.62500000  0.37500000  0.37500000  1
  Au  Au23  1  0.62500000  0.12500000  0.12500000  1
