# generated using pymatgen
data_LaCoGe3
_symmetry_space_group_name_H-M   'P 1'
_cell_length_a   4.35987800
_cell_length_b   4.35987800
_cell_length_c   9.92256600
_cell_angle_alpha   90.00000000
_cell_angle_beta   90.00000000
_cell_angle_gamma   90.00000000
_symmetry_Int_Tables_number   1
_chemical_formula_structural   LaCoGe3
_chemical_formula_sum   'La2 Co2 Ge6'
_cell_volume   188.61345476
_cell_formula_units_Z   2
loop_
 _symmetry_equiv_pos_site_id
 _symmetry_equiv_pos_as_xyz
  1  'x, y, z'
loop_
 _atom_site_type_symbol
 _atom_site_label
 _atom_site_symmetry_multiplicity
 _atom_site_fract_x
 _atom_site_fract_y
 _atom_site_fract_z
 _atom_site_occupancy
  La  La0  1  0.00000000  0.00000000  0.33919700  1
  La  La1  1  0.50000000  0.50000000  0.83919700  1
  Co  Co2  1  0.00000000  0.00000000  0.00379300  1
  Co  Co3  1  0.50000000  0.50000000  0.50379300  1
  Ge  Ge4  1  0.50000000  0.00000000  0.09684000  1
  Ge  Ge5  1  0.50000000  0.50000000  0.27123000  1
  Ge  Ge6  1  0.00000000  0.50000000  0.09684000  1
  Ge  Ge7  1  0.00000000  0.50000000  0.59684000  1
  Ge  Ge8  1  0.00000000  0.00000000  0.77123000  1
  Ge  Ge9  1  0.50000000  0.00000000  0.59684000  1
