# generated using pymatgen
data_V3S4
_symmetry_space_group_name_H-M   'P 1'
_cell_length_a   12.62134800
_cell_length_b   3.24801400
_cell_length_c   5.86339963
_cell_angle_alpha   90.00000000
_cell_angle_beta   115.34709159
_cell_angle_gamma   90.00000000
_symmetry_Int_Tables_number   1
_chemical_formula_structural   V3S4
_chemical_formula_sum   'V6 S8'
_cell_volume   217.22625156
_cell_formula_units_Z   2
loop_
 _symmetry_equiv_pos_site_id
 _symmetry_equiv_pos_as_xyz
  1  'x, y, z'
loop_
 _atom_site_type_symbol
 _atom_site_label
 _atom_site_symmetry_multiplicity
 _atom_site_fract_x
 _atom_site_fract_y
 _atom_site_fract_z
 _atom_site_occupancy
  V  V0  1  0.00000000  0.00000000  0.00000000  1
  V  V1  1  0.24213100  0.50000000  0.68117300  1
  V  V2  1  0.25786900  0.00000000  0.31882700  1
  V  V3  1  0.50000000  0.50000000  0.00000000  1
  V  V4  1  0.74213100  0.00000000  0.68117300  1
  V  V5  1  0.75786900  0.50000000  0.31882700  1
  S  S6  1  0.14071700  0.50000000  0.98092400  1
  S  S7  1  0.35928300  0.00000000  0.01907600  1
  S  S8  1  0.10950000  0.00000000  0.44921300  1
  S  S9  1  0.39050000  0.50000000  0.55078700  1
  S  S10  1  0.64071700  0.00000000  0.98092400  1
  S  S11  1  0.85928300  0.50000000  0.01907600  1
  S  S12  1  0.60950000  0.50000000  0.44921300  1
  S  S13  1  0.89050000  0.00000000  0.55078700  1
