# generated using pymatgen
data_ErAu
_symmetry_space_group_name_H-M   'P 1'
_cell_length_a   3.70283000
_cell_length_b   10.89597200
_cell_length_c   4.66132300
_cell_angle_alpha   90.00000000
_cell_angle_beta   90.00000000
_cell_angle_gamma   90.00000000
_symmetry_Int_Tables_number   1
_chemical_formula_structural   ErAu
_chemical_formula_sum   'Er4 Au4'
_cell_volume   188.06542079
_cell_formula_units_Z   4
loop_
 _symmetry_equiv_pos_site_id
 _symmetry_equiv_pos_as_xyz
  1  'x, y, z'
loop_
 _atom_site_type_symbol
 _atom_site_label
 _atom_site_symmetry_multiplicity
 _atom_site_fract_x
 _atom_site_fract_y
 _atom_site_fract_z
 _atom_site_occupancy
  Er  Er0  1  0.50000000  0.63891000  0.25000000  1
  Er  Er1  1  0.00000000  0.86109000  0.75000000  1
  Er  Er2  1  0.00000000  0.13891000  0.25000000  1
  Er  Er3  1  0.50000000  0.36109000  0.75000000  1
  Au  Au4  1  0.50000000  0.91087600  0.25000000  1
  Au  Au5  1  0.00000000  0.58912400  0.75000000  1
  Au  Au6  1  0.00000000  0.41087600  0.25000000  1
  Au  Au7  1  0.50000000  0.08912400  0.75000000  1
