# generated using pymatgen
data_CoCu2SnSe4
_symmetry_space_group_name_H-M   'P 1'
_cell_length_a   5.70378600
_cell_length_b   5.70378600
_cell_length_c   11.28832000
_cell_angle_alpha   90.00000000
_cell_angle_beta   90.00000000
_cell_angle_gamma   90.00000000
_symmetry_Int_Tables_number   1
_chemical_formula_structural   CoCu2SnSe4
_chemical_formula_sum   'Co2 Cu4 Sn2 Se8'
_cell_volume   367.24488701
_cell_formula_units_Z   2
loop_
 _symmetry_equiv_pos_site_id
 _symmetry_equiv_pos_as_xyz
  1  'x, y, z'
loop_
 _atom_site_type_symbol
 _atom_site_label
 _atom_site_symmetry_multiplicity
 _atom_site_fract_x
 _atom_site_fract_y
 _atom_site_fract_z
 _atom_site_occupancy
  Co  Co0  1  0.00000000  0.00000000  0.00000000  1
  Co  Co1  1  0.50000000  0.50000000  0.50000000  1
  Cu  Cu2  1  0.00000000  0.50000000  0.25000000  1
  Cu  Cu3  1  0.50000000  0.00000000  0.25000000  1
  Cu  Cu4  1  0.50000000  0.00000000  0.75000000  1
  Cu  Cu5  1  0.00000000  0.50000000  0.75000000  1
  Sn  Sn6  1  0.50000000  0.50000000  0.00000000  1
  Sn  Sn7  1  0.00000000  0.00000000  0.50000000  1
  Se  Se8  1  0.77135600  0.22864400  0.13235400  1
  Se  Se9  1  0.22864400  0.77135600  0.13235400  1
  Se  Se10  1  0.27135600  0.27135600  0.36764600  1
  Se  Se11  1  0.72864400  0.72864400  0.36764600  1
  Se  Se12  1  0.27135600  0.72864400  0.63235400  1
  Se  Se13  1  0.72864400  0.27135600  0.63235400  1
  Se  Se14  1  0.77135600  0.77135600  0.86764600  1
  Se  Se15  1  0.22864400  0.22864400  0.86764600  1
