# generated using pymatgen
data_Sr3CrN3
_symmetry_space_group_name_H-M   'P 1'
_cell_length_a   7.82880014
_cell_length_b   7.82880014
_cell_length_c   5.25089400
_cell_angle_alpha   90.00000000
_cell_angle_beta   90.00000000
_cell_angle_gamma   120.00000000
_symmetry_Int_Tables_number   1
_chemical_formula_structural   Sr3CrN3
_chemical_formula_sum   'Sr6 Cr2 N6'
_cell_volume   278.71111909
_cell_formula_units_Z   2
loop_
 _symmetry_equiv_pos_site_id
 _symmetry_equiv_pos_as_xyz
  1  'x, y, z'
loop_
 _atom_site_type_symbol
 _atom_site_label
 _atom_site_symmetry_multiplicity
 _atom_site_fract_x
 _atom_site_fract_y
 _atom_site_fract_z
 _atom_site_occupancy
  Sr  Sr0  1  0.08363800  0.35826300  0.75000000  1
  Sr  Sr1  1  0.72537500  0.08363800  0.25000000  1
  Sr  Sr2  1  0.35826300  0.27462500  0.25000000  1
  Sr  Sr3  1  0.64173700  0.72537500  0.75000000  1
  Sr  Sr4  1  0.27462500  0.91636200  0.75000000  1
  Sr  Sr5  1  0.91636200  0.64173700  0.25000000  1
  Cr  Cr6  1  0.66666667  0.33333333  0.75000000  1
  Cr  Cr7  1  0.33333333  0.66666667  0.25000000  1
  N  N8  1  0.12198200  0.43689700  0.25000000  1
  N  N9  1  0.68508500  0.12198200  0.75000000  1
  N  N10  1  0.43689700  0.31491500  0.75000000  1
  N  N11  1  0.56310300  0.68508500  0.25000000  1
  N  N12  1  0.31491500  0.87801800  0.25000000  1
  N  N13  1  0.87801800  0.56310300  0.75000000  1
