# generated using pymatgen
data_Na3SbS4
_symmetry_space_group_name_H-M   'P 1'
_cell_length_a   7.25383200
_cell_length_b   7.25383200
_cell_length_c   7.25383200
_cell_angle_alpha   90.00000000
_cell_angle_beta   90.00000000
_cell_angle_gamma   90.00000000
_symmetry_Int_Tables_number   1
_chemical_formula_structural   Na3SbS4
_chemical_formula_sum   'Na6 Sb2 S8'
_cell_volume   381.68270294
_cell_formula_units_Z   2
loop_
 _symmetry_equiv_pos_site_id
 _symmetry_equiv_pos_as_xyz
  1  'x, y, z'
loop_
 _atom_site_type_symbol
 _atom_site_label
 _atom_site_symmetry_multiplicity
 _atom_site_fract_x
 _atom_site_fract_y
 _atom_site_fract_z
 _atom_site_occupancy
  Na  Na0  1  0.00000000  0.50000000  0.00000000  1
  Na  Na1  1  0.00000000  0.00000000  0.50000000  1
  Na  Na2  1  0.50000000  0.00000000  0.00000000  1
  Na  Na3  1  0.50000000  0.00000000  0.50000000  1
  Na  Na4  1  0.50000000  0.50000000  0.00000000  1
  Na  Na5  1  0.00000000  0.50000000  0.50000000  1
  Sb  Sb6  1  0.00000000  0.00000000  0.00000000  1
  Sb  Sb7  1  0.50000000  0.50000000  0.50000000  1
  S  S8  1  0.31153800  0.68846200  0.31153800  1
  S  S9  1  0.18846200  0.18846200  0.18846200  1
  S  S10  1  0.31153800  0.31153800  0.68846200  1
  S  S11  1  0.68846200  0.31153800  0.31153800  1
  S  S12  1  0.81153800  0.18846200  0.81153800  1
  S  S13  1  0.68846200  0.68846200  0.68846200  1
  S  S14  1  0.81153800  0.81153800  0.18846200  1
  S  S15  1  0.18846200  0.81153800  0.81153800  1
