# generated using pymatgen
data_ZrNi2Sn
_symmetry_space_group_name_H-M   'P 1'
_cell_length_a   6.31837400
_cell_length_b   6.31837400
_cell_length_c   6.31837400
_cell_angle_alpha   90.00000000
_cell_angle_beta   90.00000000
_cell_angle_gamma   90.00000000
_symmetry_Int_Tables_number   1
_chemical_formula_structural   ZrNi2Sn
_chemical_formula_sum   'Zr4 Ni8 Sn4'
_cell_volume   252.24117910
_cell_formula_units_Z   4
loop_
 _symmetry_equiv_pos_site_id
 _symmetry_equiv_pos_as_xyz
  1  'x, y, z'
loop_
 _atom_site_type_symbol
 _atom_site_label
 _atom_site_symmetry_multiplicity
 _atom_site_fract_x
 _atom_site_fract_y
 _atom_site_fract_z
 _atom_site_occupancy
  Zr  Zr0  1  0.00000000  0.00000000  0.00000000  1
  Zr  Zr1  1  0.00000000  0.50000000  0.50000000  1
  Zr  Zr2  1  0.50000000  0.00000000  0.50000000  1
  Zr  Zr3  1  0.50000000  0.50000000  0.00000000  1
  Ni  Ni4  1  0.25000000  0.25000000  0.75000000  1
  Ni  Ni5  1  0.25000000  0.75000000  0.75000000  1
  Ni  Ni6  1  0.25000000  0.75000000  0.25000000  1
  Ni  Ni7  1  0.25000000  0.25000000  0.25000000  1
  Ni  Ni8  1  0.75000000  0.25000000  0.25000000  1
  Ni  Ni9  1  0.75000000  0.75000000  0.25000000  1
  Ni  Ni10  1  0.75000000  0.75000000  0.75000000  1
  Ni  Ni11  1  0.75000000  0.25000000  0.75000000  1
  Sn  Sn12  1  0.50000000  0.00000000  0.00000000  1
  Sn  Sn13  1  0.50000000  0.50000000  0.50000000  1
  Sn  Sn14  1  0.00000000  0.00000000  0.50000000  1
  Sn  Sn15  1  0.00000000  0.50000000  0.00000000  1
