# generated using pymatgen
data_V3Se4
_symmetry_space_group_name_H-M   'P 1'
_cell_length_a   13.36347200
_cell_length_b   3.40486600
_cell_length_c   6.18646296
_cell_angle_alpha   90.00000000
_cell_angle_beta   115.94857341
_cell_angle_gamma   90.00000000
_symmetry_Int_Tables_number   1
_chemical_formula_structural   V3Se4
_chemical_formula_sum   'V6 Se8'
_cell_volume   253.11147921
_cell_formula_units_Z   2
loop_
 _symmetry_equiv_pos_site_id
 _symmetry_equiv_pos_as_xyz
  1  'x, y, z'
loop_
 _atom_site_type_symbol
 _atom_site_label
 _atom_site_symmetry_multiplicity
 _atom_site_fract_x
 _atom_site_fract_y
 _atom_site_fract_z
 _atom_site_occupancy
  V  V0  1  0.24476000  0.50000000  0.67682700  1
  V  V1  1  0.25524000  0.00000000  0.32317300  1
  V  V2  1  0.00000000  0.00000000  0.00000000  1
  V  V3  1  0.74476000  0.00000000  0.67682700  1
  V  V4  1  0.75524000  0.50000000  0.32317300  1
  V  V5  1  0.50000000  0.50000000  0.00000000  1
  Se  Se6  1  0.35876500  0.00000000  0.02014900  1
  Se  Se7  1  0.14123500  0.50000000  0.97985100  1
  Se  Se8  1  0.39278900  0.50000000  0.54757800  1
  Se  Se9  1  0.10721100  0.00000000  0.45242200  1
  Se  Se10  1  0.85876500  0.50000000  0.02014900  1
  Se  Se11  1  0.64123500  0.00000000  0.97985100  1
  Se  Se12  1  0.89278900  0.00000000  0.54757800  1
  Se  Se13  1  0.60721100  0.50000000  0.45242200  1
