# generated using pymatgen
data_NiCl2
_symmetry_space_group_name_H-M   'P 1'
_cell_length_a   3.46487501
_cell_length_b   3.46487501
_cell_length_c   19.27679916
_cell_angle_alpha   90.00000000
_cell_angle_beta   90.00000000
_cell_angle_gamma   120.00000000
_symmetry_Int_Tables_number   1
_chemical_formula_structural   NiCl2
_chemical_formula_sum   'Ni3 Cl6'
_cell_volume   200.41983417
_cell_formula_units_Z   3
loop_
 _symmetry_equiv_pos_site_id
 _symmetry_equiv_pos_as_xyz
  1  'x, y, z'
loop_
 _atom_site_type_symbol
 _atom_site_label
 _atom_site_symmetry_multiplicity
 _atom_site_fract_x
 _atom_site_fract_y
 _atom_site_fract_z
 _atom_site_occupancy
  Ni  Ni0  1  0.00000000  0.00000000  0.00000000  1
  Ni  Ni1  1  0.66666667  0.33333333  0.33333333  1
  Ni  Ni2  1  0.33333333  0.66666667  0.66666667  1
  Cl  Cl3  1  0.66666667  0.33333333  0.06617933  1
  Cl  Cl4  1  0.00000000  0.00000000  0.26715400  1
  Cl  Cl5  1  0.33333333  0.66666667  0.39951267  1
  Cl  Cl6  1  0.66666667  0.33333333  0.60048733  1
  Cl  Cl7  1  0.00000000  0.00000000  0.73284600  1
  Cl  Cl8  1  0.33333333  0.66666667  0.93382067  1
