# generated using pymatgen
data_TiCl3
_symmetry_space_group_name_H-M   'P 1'
_cell_length_a   6.11381808
_cell_length_b   6.11381808
_cell_length_c   18.91029322
_cell_angle_alpha   90.00000000
_cell_angle_beta   90.00000000
_cell_angle_gamma   120.00000000
_symmetry_Int_Tables_number   1
_chemical_formula_structural   TiCl3
_chemical_formula_sum   'Ti6 Cl18'
_cell_volume   612.14445293
_cell_formula_units_Z   6
loop_
 _symmetry_equiv_pos_site_id
 _symmetry_equiv_pos_as_xyz
  1  'x, y, z'
loop_
 _atom_site_type_symbol
 _atom_site_label
 _atom_site_symmetry_multiplicity
 _atom_site_fract_x
 _atom_site_fract_y
 _atom_site_fract_z
 _atom_site_occupancy
  Ti  Ti0  1  0.33333333  0.66666667  0.00009467  1
  Ti  Ti1  1  0.33333333  0.66666667  0.33323867  1
  Ti  Ti2  1  0.00000000  0.00000000  0.33342800  1
  Ti  Ti3  1  0.00000000  0.00000000  0.66657200  1
  Ti  Ti4  1  0.66666667  0.33333333  0.66676133  1
  Ti  Ti5  1  0.66666667  0.33333333  0.99990533  1
  Cl  Cl6  1  0.64720867  0.00018533  0.07437133  1
  Cl  Cl7  1  0.35297667  0.35279133  0.07437133  1
  Cl  Cl8  1  0.66685200  0.68631000  0.25896200  1
  Cl  Cl9  1  0.31369000  0.98054200  0.25896200  1
  Cl  Cl10  1  0.01945800  0.33314800  0.25896200  1
  Cl  Cl11  1  0.99981467  0.64702333  0.07437133  1
  Cl  Cl12  1  0.31387533  0.33351867  0.40770467  1
  Cl  Cl13  1  0.01964333  0.68612467  0.40770467  1
  Cl  Cl14  1  0.33351867  0.01964333  0.59229533  1
  Cl  Cl15  1  0.98035667  0.31387533  0.59229533  1
  Cl  Cl16  1  0.68612467  0.66648133  0.59229533  1
  Cl  Cl17  1  0.66648133  0.98035667  0.40770467  1
  Cl  Cl18  1  0.98054200  0.66685200  0.74103800  1
  Cl  Cl19  1  0.68631000  0.01945800  0.74103800  1
  Cl  Cl20  1  0.00018533  0.35297667  0.92562867  1
  Cl  Cl21  1  0.64702333  0.64720867  0.92562867  1
  Cl  Cl22  1  0.35279133  0.99981467  0.92562867  1
  Cl  Cl23  1  0.33314800  0.31369000  0.74103800  1
