# generated using pymatgen
data_Fe5C2
_symmetry_space_group_name_H-M   'P 1'
_cell_length_a   11.60258800
_cell_length_b   4.50732200
_cell_length_c   4.98962659
_cell_angle_alpha   90.00000000
_cell_angle_beta   97.57481549
_cell_angle_gamma   90.00000000
_symmetry_Int_Tables_number   1
_chemical_formula_structural   Fe5C2
_chemical_formula_sum   'Fe20 C8'
_cell_volume   258.66342955
_cell_formula_units_Z   4
loop_
 _symmetry_equiv_pos_site_id
 _symmetry_equiv_pos_as_xyz
  1  'x, y, z'
loop_
 _atom_site_type_symbol
 _atom_site_label
 _atom_site_symmetry_multiplicity
 _atom_site_fract_x
 _atom_site_fract_y
 _atom_site_fract_z
 _atom_site_occupancy
  Fe  Fe0  1  0.90160550  0.91662750  0.58300600  1
  Fe  Fe1  1  0.59839450  0.41662750  0.91699400  1
  Fe  Fe2  1  0.71431300  0.08189000  0.31061200  1
  Fe  Fe3  1  0.78568700  0.58189000  0.18938800  1
  Fe  Fe4  1  0.78568700  0.41811000  0.68938800  1
  Fe  Fe5  1  0.71431300  0.91811000  0.81061200  1
  Fe  Fe6  1  0.90160550  0.08337250  0.08300600  1
  Fe  Fe7  1  0.59839450  0.58337250  0.41699400  1
  Fe  Fe8  1  0.00000000  0.43277500  0.75000000  1
  Fe  Fe9  1  0.00000000  0.56722500  0.25000000  1
  Fe  Fe10  1  0.40160550  0.41662750  0.58300600  1
  Fe  Fe11  1  0.09839450  0.91662750  0.91699400  1
  Fe  Fe12  1  0.21431300  0.58189000  0.31061200  1
  Fe  Fe13  1  0.28568700  0.08189000  0.18938800  1
  Fe  Fe14  1  0.28568700  0.91811000  0.68938800  1
  Fe  Fe15  1  0.21431300  0.41811000  0.81061200  1
  Fe  Fe16  1  0.40160550  0.58337250  0.08300600  1
  Fe  Fe17  1  0.09839450  0.08337250  0.41699400  1
  Fe  Fe18  1  0.50000000  0.93277500  0.75000000  1
  Fe  Fe19  1  0.50000000  0.06722500  0.25000000  1
  C  C20  1  0.61305750  0.18553250  0.57871100  1
  C  C21  1  0.88694250  0.68553250  0.92128900  1
  C  C22  1  0.88694250  0.31446750  0.42128900  1
  C  C23  1  0.61305750  0.81446750  0.07871100  1
  C  C24  1  0.11305750  0.68553250  0.57871100  1
  C  C25  1  0.38694250  0.18553250  0.92128900  1
  C  C26  1  0.38694250  0.81446750  0.42128900  1
  C  C27  1  0.11305750  0.31446750  0.07871100  1
