# generated using pymatgen
data_YGe3
_symmetry_space_group_name_H-M   'P 1'
_cell_length_a   4.05342400
_cell_length_b   21.03053600
_cell_length_c   3.94230200
_cell_angle_alpha   90.00000000
_cell_angle_beta   90.00000000
_cell_angle_gamma   90.00000000
_symmetry_Int_Tables_number   1
_chemical_formula_structural   YGe3
_chemical_formula_sum   'Y4 Ge12'
_cell_volume   336.06421221
_cell_formula_units_Z   4
loop_
 _symmetry_equiv_pos_site_id
 _symmetry_equiv_pos_as_xyz
  1  'x, y, z'
loop_
 _atom_site_type_symbol
 _atom_site_label
 _atom_site_symmetry_multiplicity
 _atom_site_fract_x
 _atom_site_fract_y
 _atom_site_fract_z
 _atom_site_occupancy
  Y  Y0  1  0.50000000  0.08238900  0.75000000  1
  Y  Y1  1  0.00000000  0.41761100  0.25000000  1
  Y  Y2  1  0.00000000  0.58238900  0.75000000  1
  Y  Y3  1  0.50000000  0.91761100  0.25000000  1
  Ge  Ge4  1  0.00000000  0.18941500  0.75000000  1
  Ge  Ge5  1  0.50000000  0.31058500  0.25000000  1
  Ge  Ge6  1  0.00000000  0.03923600  0.25000000  1
  Ge  Ge7  1  0.50000000  0.46076400  0.75000000  1
  Ge  Ge8  1  0.50000000  0.19133400  0.25000000  1
  Ge  Ge9  1  0.00000000  0.30866600  0.75000000  1
  Ge  Ge10  1  0.50000000  0.68941500  0.75000000  1
  Ge  Ge11  1  0.00000000  0.81058500  0.25000000  1
  Ge  Ge12  1  0.50000000  0.53923600  0.25000000  1
  Ge  Ge13  1  0.00000000  0.96076400  0.75000000  1
  Ge  Ge14  1  0.00000000  0.69133400  0.25000000  1
  Ge  Ge15  1  0.50000000  0.80866600  0.75000000  1
