# generated using pymatgen
data_Pb2Au
_symmetry_space_group_name_H-M   'P 1'
_cell_length_a   7.39828400
_cell_length_b   7.39828400
_cell_length_c   5.94143000
_cell_angle_alpha   90.00000000
_cell_angle_beta   90.00000000
_cell_angle_gamma   90.00000000
_symmetry_Int_Tables_number   1
_chemical_formula_structural   Pb2Au
_chemical_formula_sum   'Pb8 Au4'
_cell_volume   325.20183099
_cell_formula_units_Z   4
loop_
 _symmetry_equiv_pos_site_id
 _symmetry_equiv_pos_as_xyz
  1  'x, y, z'
loop_
 _atom_site_type_symbol
 _atom_site_label
 _atom_site_symmetry_multiplicity
 _atom_site_fract_x
 _atom_site_fract_y
 _atom_site_fract_z
 _atom_site_occupancy
  Pb  Pb0  1  0.65941700  0.15941700  0.00000000  1
  Pb  Pb1  1  0.34058300  0.84058300  0.00000000  1
  Pb  Pb2  1  0.34058300  0.15941700  0.50000000  1
  Pb  Pb3  1  0.65941700  0.84058300  0.50000000  1
  Pb  Pb4  1  0.15941700  0.65941700  0.50000000  1
  Pb  Pb5  1  0.84058300  0.34058300  0.50000000  1
  Pb  Pb6  1  0.84058300  0.65941700  0.00000000  1
  Pb  Pb7  1  0.15941700  0.34058300  0.00000000  1
  Au  Au8  1  0.00000000  0.00000000  0.75000000  1
  Au  Au9  1  0.00000000  0.00000000  0.25000000  1
  Au  Au10  1  0.50000000  0.50000000  0.25000000  1
  Au  Au11  1  0.50000000  0.50000000  0.75000000  1
