# generated using pymatgen
data_MgSn4Ru
_symmetry_space_group_name_H-M   'P 1'
_cell_length_a   6.84334000
_cell_length_b   6.84334000
_cell_length_c   11.38844400
_cell_angle_alpha   90.00000000
_cell_angle_beta   90.00000000
_cell_angle_gamma   90.00000000
_symmetry_Int_Tables_number   1
_chemical_formula_structural   MgSn4Ru
_chemical_formula_sum   'Mg4 Sn16 Ru4'
_cell_volume   533.33566432
_cell_formula_units_Z   4
loop_
 _symmetry_equiv_pos_site_id
 _symmetry_equiv_pos_as_xyz
  1  'x, y, z'
loop_
 _atom_site_type_symbol
 _atom_site_label
 _atom_site_symmetry_multiplicity
 _atom_site_fract_x
 _atom_site_fract_y
 _atom_site_fract_z
 _atom_site_occupancy
  Mg  Mg0  1  0.50000000  0.50000000  0.00000000  1
  Mg  Mg1  1  0.00000000  0.00000000  0.00000000  1
  Mg  Mg2  1  0.00000000  0.00000000  0.50000000  1
  Mg  Mg3  1  0.50000000  0.50000000  0.50000000  1
  Sn  Sn4  1  0.15510250  0.34489750  0.36014350  1
  Sn  Sn5  1  0.65510250  0.15510250  0.36014350  1
  Sn  Sn6  1  0.34489750  0.84489750  0.36014350  1
  Sn  Sn7  1  0.15510250  0.65510250  0.13985650  1
  Sn  Sn8  1  0.84489750  0.34489750  0.13985650  1
  Sn  Sn9  1  0.34489750  0.15510250  0.13985650  1
  Sn  Sn10  1  0.65510250  0.84489750  0.13985650  1
  Sn  Sn11  1  0.84489750  0.65510250  0.36014350  1
  Sn  Sn12  1  0.65510250  0.84489750  0.86014350  1
  Sn  Sn13  1  0.15510250  0.65510250  0.86014350  1
  Sn  Sn14  1  0.84489750  0.34489750  0.86014350  1
  Sn  Sn15  1  0.65510250  0.15510250  0.63985650  1
  Sn  Sn16  1  0.34489750  0.84489750  0.63985650  1
  Sn  Sn17  1  0.84489750  0.65510250  0.63985650  1
  Sn  Sn18  1  0.15510250  0.34489750  0.63985650  1
  Sn  Sn19  1  0.34489750  0.15510250  0.86014350  1
  Ru  Ru20  1  0.50000000  0.50000000  0.25000000  1
  Ru  Ru21  1  0.00000000  0.00000000  0.25000000  1
  Ru  Ru22  1  0.00000000  0.00000000  0.75000000  1
  Ru  Ru23  1  0.50000000  0.50000000  0.75000000  1
