# generated using pymatgen
data_Ti8C5
_symmetry_space_group_name_H-M   'P 1'
_cell_length_a   6.13866197
_cell_length_b   6.13866197
_cell_length_c   14.88991876
_cell_angle_alpha   90.00000000
_cell_angle_beta   90.00000000
_cell_angle_gamma   120.00000000
_symmetry_Int_Tables_number   1
_chemical_formula_structural   Ti8C5
_chemical_formula_sum   'Ti24 C15'
_cell_volume   485.92629329
_cell_formula_units_Z   3
loop_
 _symmetry_equiv_pos_site_id
 _symmetry_equiv_pos_as_xyz
  1  'x, y, z'
loop_
 _atom_site_type_symbol
 _atom_site_label
 _atom_site_symmetry_multiplicity
 _atom_site_fract_x
 _atom_site_fract_y
 _atom_site_fract_z
 _atom_site_occupancy
  Ti  Ti0  1  0.33333333  0.66666667  0.42447167  1
  Ti  Ti1  1  0.50462667  0.49537333  0.24781333  1
  Ti  Ti2  1  0.16204000  0.83796000  0.08552000  1
  Ti  Ti3  1  0.99074667  0.49537333  0.24781333  1
  Ti  Ti4  1  0.67592000  0.83796000  0.08552000  1
  Ti  Ti5  1  0.33333333  0.66666667  0.90886167  1
  Ti  Ti6  1  0.16204000  0.32408000  0.08552000  1
  Ti  Ti7  1  0.50462667  0.00925333  0.24781333  1
  Ti  Ti8  1  0.00000000  0.00000000  0.75780500  1
  Ti  Ti9  1  0.17129333  0.82870667  0.58114667  1
  Ti  Ti10  1  0.82870667  0.17129333  0.41885333  1
  Ti  Ti11  1  0.65741333  0.82870667  0.58114667  1
  Ti  Ti12  1  0.34258667  0.17129333  0.41885333  1
  Ti  Ti13  1  0.00000000  0.00000000  0.24219500  1
  Ti  Ti14  1  0.82870667  0.65741333  0.41885333  1
  Ti  Ti15  1  0.17129333  0.34258667  0.58114667  1
  Ti  Ti16  1  0.66666667  0.33333333  0.09113833  1
  Ti  Ti17  1  0.83796000  0.16204000  0.91448000  1
  Ti  Ti18  1  0.49537333  0.50462667  0.75218667  1
  Ti  Ti19  1  0.32408000  0.16204000  0.91448000  1
  Ti  Ti20  1  0.00925333  0.50462667  0.75218667  1
  Ti  Ti21  1  0.66666667  0.33333333  0.57552833  1
  Ti  Ti22  1  0.49537333  0.99074667  0.75218667  1
  Ti  Ti23  1  0.83796000  0.67592000  0.91448000  1
  C  C24  1  0.16666667  0.33333333  0.83333333  1
  C  C25  1  0.83333333  0.16666667  0.16666667  1
  C  C26  1  0.33333333  0.16666667  0.16666667  1
  C  C27  1  0.33333333  0.66666667  0.16666667  1
  C  C28  1  0.00000000  0.00000000  0.00000000  1
  C  C29  1  0.83333333  0.66666667  0.16666667  1
  C  C30  1  0.50000000  0.50000000  0.50000000  1
  C  C31  1  0.00000000  0.50000000  0.50000000  1
  C  C32  1  1.00000000  1.00000000  0.50000000  1
  C  C33  1  0.66666667  0.33333333  0.33333333  1
  C  C34  1  0.50000000  0.00000000  0.50000000  1
  C  C35  1  0.16666667  0.83333333  0.83333333  1
  C  C36  1  0.66666667  0.83333333  0.83333333  1
  C  C37  1  0.66666667  0.33333333  0.83333333  1
  C  C38  1  0.33333333  0.66666667  0.66666667  1
