# generated using pymatgen
data_ZrIn2
_symmetry_space_group_name_H-M   'P 1'
_cell_length_a   4.44235200
_cell_length_b   4.44235200
_cell_length_c   27.58338000
_cell_angle_alpha   90.00000000
_cell_angle_beta   90.00000000
_cell_angle_gamma   90.00000000
_symmetry_Int_Tables_number   1
_chemical_formula_structural   ZrIn2
_chemical_formula_sum   'Zr8 In16'
_cell_volume   544.34397241
_cell_formula_units_Z   8
loop_
 _symmetry_equiv_pos_site_id
 _symmetry_equiv_pos_as_xyz
  1  'x, y, z'
loop_
 _atom_site_type_symbol
 _atom_site_label
 _atom_site_symmetry_multiplicity
 _atom_site_fract_x
 _atom_site_fract_y
 _atom_site_fract_z
 _atom_site_occupancy
  Zr  Zr0  1  0.00000000  0.50000000  0.32737700  1
  Zr  Zr1  1  0.00000000  0.00000000  0.07737700  1
  Zr  Zr2  1  0.50000000  0.50000000  0.42262300  1
  Zr  Zr3  1  0.00000000  0.50000000  0.17262300  1
  Zr  Zr4  1  0.50000000  0.00000000  0.82737700  1
  Zr  Zr5  1  0.50000000  0.50000000  0.57737700  1
  Zr  Zr6  1  0.00000000  0.00000000  0.92262300  1
  Zr  Zr7  1  0.50000000  0.00000000  0.67262300  1
  In  In8  1  0.50000000  0.00000000  0.00050900  1
  In  In9  1  0.00000000  0.00000000  0.25050900  1
  In  In10  1  0.50000000  0.50000000  0.24949100  1
  In  In11  1  0.50000000  0.00000000  0.49949100  1
  In  In12  1  0.50000000  0.00000000  0.16212000  1
  In  In13  1  0.00000000  0.00000000  0.41212000  1
  In  In14  1  0.50000000  0.50000000  0.08788000  1
  In  In15  1  0.50000000  0.00000000  0.33788000  1
  In  In16  1  0.00000000  0.50000000  0.50050900  1
  In  In17  1  0.50000000  0.50000000  0.75050900  1
  In  In18  1  0.00000000  0.00000000  0.74949100  1
  In  In19  1  0.00000000  0.50000000  0.99949100  1
  In  In20  1  0.00000000  0.50000000  0.66212000  1
  In  In21  1  0.50000000  0.50000000  0.91212000  1
  In  In22  1  0.00000000  0.00000000  0.58788000  1
  In  In23  1  0.00000000  0.50000000  0.83788000  1
