# generated using pymatgen
data_YCu2
_symmetry_space_group_name_H-M   'P 1'
_cell_length_a   4.26863200
_cell_length_b   6.89664800
_cell_length_c   7.26679000
_cell_angle_alpha   90.00000000
_cell_angle_beta   90.00000000
_cell_angle_gamma   90.00000000
_symmetry_Int_Tables_number   1
_chemical_formula_structural   YCu2
_chemical_formula_sum   'Y4 Cu8'
_cell_volume   213.92886455
_cell_formula_units_Z   4
loop_
 _symmetry_equiv_pos_site_id
 _symmetry_equiv_pos_as_xyz
  1  'x, y, z'
loop_
 _atom_site_type_symbol
 _atom_site_label
 _atom_site_symmetry_multiplicity
 _atom_site_fract_x
 _atom_site_fract_y
 _atom_site_fract_z
 _atom_site_occupancy
  Y  Y0  1  0.00000000  0.75000000  0.46021700  1
  Y  Y1  1  0.00000000  0.25000000  0.53978300  1
  Y  Y2  1  0.50000000  0.25000000  0.96021700  1
  Y  Y3  1  0.50000000  0.75000000  0.03978300  1
  Cu  Cu4  1  0.50000000  0.04980500  0.33546000  1
  Cu  Cu5  1  0.50000000  0.95019500  0.66454000  1
  Cu  Cu6  1  0.00000000  0.04980500  0.16454000  1
  Cu  Cu7  1  0.00000000  0.95019500  0.83546000  1
  Cu  Cu8  1  0.00000000  0.54980500  0.83546000  1
  Cu  Cu9  1  0.00000000  0.45019500  0.16454000  1
  Cu  Cu10  1  0.50000000  0.54980500  0.66454000  1
  Cu  Cu11  1  0.50000000  0.45019500  0.33546000  1
