# generated using pymatgen
data_In2Ni3S2
_symmetry_space_group_name_H-M   'P 1'
_cell_length_a   5.43228218
_cell_length_b   5.43228218
_cell_length_c   13.60656051
_cell_angle_alpha   90.00000000
_cell_angle_beta   90.00000000
_cell_angle_gamma   120.00000000
_symmetry_Int_Tables_number   1
_chemical_formula_structural   In2Ni3S2
_chemical_formula_sum   'In6 Ni9 S6'
_cell_volume   347.73117746
_cell_formula_units_Z   3
loop_
 _symmetry_equiv_pos_site_id
 _symmetry_equiv_pos_as_xyz
  1  'x, y, z'
loop_
 _atom_site_type_symbol
 _atom_site_label
 _atom_site_symmetry_multiplicity
 _atom_site_fract_x
 _atom_site_fract_y
 _atom_site_fract_z
 _atom_site_occupancy
  In  In0  1  0.00000000  0.00000000  0.00000000  1
  In  In1  1  0.33333333  0.66666667  0.16666667  1
  In  In2  1  0.66666667  0.33333333  0.33333333  1
  In  In3  1  1.00000000  1.00000000  0.50000000  1
  In  In4  1  0.33333333  0.66666667  0.66666667  1
  In  In5  1  0.66666667  0.33333333  0.83333333  1
  Ni  Ni6  1  0.33333333  0.16666667  0.16666667  1
  Ni  Ni7  1  0.83333333  0.66666667  0.16666667  1
  Ni  Ni8  1  0.83333333  0.16666667  0.16666667  1
  Ni  Ni9  1  0.00000000  0.50000000  0.50000000  1
  Ni  Ni10  1  0.50000000  0.00000000  0.50000000  1
  Ni  Ni11  1  0.50000000  0.50000000  0.50000000  1
  Ni  Ni12  1  0.66666667  0.83333333  0.83333333  1
  Ni  Ni13  1  0.16666667  0.33333333  0.83333333  1
  Ni  Ni14  1  0.16666667  0.83333333  0.83333333  1
  S  S15  1  0.00000000  0.00000000  0.27677500  1
  S  S16  1  0.66666667  0.33333333  0.05655833  1
  S  S17  1  0.66666667  0.33333333  0.61010833  1
  S  S18  1  0.33333333  0.66666667  0.38989167  1
  S  S19  1  0.33333333  0.66666667  0.94344167  1
  S  S20  1  0.00000000  0.00000000  0.72322500  1
