# generated using pymatgen
data_Sr3(SnIr)4
_symmetry_space_group_name_H-M   'P 1'
_cell_length_a   8.18015000
_cell_length_b   8.18015000
_cell_length_c   8.18015000
_cell_angle_alpha   90.00000000
_cell_angle_beta   90.00000000
_cell_angle_gamma   90.00000000
_symmetry_Int_Tables_number   1
_chemical_formula_structural   Sr3(SnIr)4
_chemical_formula_sum   'Sr6 Sn8 Ir8'
_cell_volume   547.37354313
_cell_formula_units_Z   2
loop_
 _symmetry_equiv_pos_site_id
 _symmetry_equiv_pos_as_xyz
  1  'x, y, z'
loop_
 _atom_site_type_symbol
 _atom_site_label
 _atom_site_symmetry_multiplicity
 _atom_site_fract_x
 _atom_site_fract_y
 _atom_site_fract_z
 _atom_site_occupancy
  Sr  Sr0  1  0.00000000  0.00000000  0.50000000  1
  Sr  Sr1  1  0.50000000  0.00000000  0.00000000  1
  Sr  Sr2  1  0.00000000  0.50000000  0.00000000  1
  Sr  Sr3  1  0.50000000  0.50000000  0.00000000  1
  Sr  Sr4  1  0.00000000  0.50000000  0.50000000  1
  Sr  Sr5  1  0.50000000  0.00000000  0.50000000  1
  Sn  Sn6  1  0.80697450  0.19302550  0.19302550  1
  Sn  Sn7  1  0.19302550  0.19302550  0.80697450  1
  Sn  Sn8  1  0.19302550  0.80697450  0.19302550  1
  Sn  Sn9  1  0.30697450  0.30697450  0.30697450  1
  Sn  Sn10  1  0.30697450  0.69302550  0.69302550  1
  Sn  Sn11  1  0.69302550  0.69302550  0.30697450  1
  Sn  Sn12  1  0.69302550  0.30697450  0.69302550  1
  Sn  Sn13  1  0.80697450  0.80697450  0.80697450  1
  Ir  Ir14  1  0.37540750  0.62459250  0.37540750  1
  Ir  Ir15  1  0.37540750  0.37540750  0.62459250  1
  Ir  Ir16  1  0.12459250  0.12459250  0.12459250  1
  Ir  Ir17  1  0.62459250  0.37540750  0.37540750  1
  Ir  Ir18  1  0.87540750  0.12459250  0.87540750  1
  Ir  Ir19  1  0.87540750  0.87540750  0.12459250  1
  Ir  Ir20  1  0.62459250  0.62459250  0.62459250  1
  Ir  Ir21  1  0.12459250  0.87540750  0.87540750  1
