# generated using pymatgen
data_VSn2
_symmetry_space_group_name_H-M   'P 1'
_cell_length_a   5.53006400
_cell_length_b   9.48432800
_cell_length_c   18.79755800
_cell_angle_alpha   90.00000000
_cell_angle_beta   90.00000000
_cell_angle_gamma   90.00000000
_symmetry_Int_Tables_number   1
_chemical_formula_structural   VSn2
_chemical_formula_sum   'V16 Sn32'
_cell_volume   985.91200742
_cell_formula_units_Z   16
loop_
 _symmetry_equiv_pos_site_id
 _symmetry_equiv_pos_as_xyz
  1  'x, y, z'
loop_
 _atom_site_type_symbol
 _atom_site_label
 _atom_site_symmetry_multiplicity
 _atom_site_fract_x
 _atom_site_fract_y
 _atom_site_fract_z
 _atom_site_occupancy
  V  V0  1  0.75000000  0.25000000  0.37758400  1
  V  V1  1  0.75000000  0.25000000  0.12241600  1
  V  V2  1  0.00000000  0.00000000  0.37241600  1
  V  V3  1  0.50000000  0.00000000  0.12758400  1
  V  V4  1  0.75000000  0.75000000  0.87758400  1
  V  V5  1  0.75000000  0.75000000  0.62241600  1
  V  V6  1  0.00000000  0.50000000  0.87241600  1
  V  V7  1  0.50000000  0.50000000  0.62758400  1
  V  V8  1  0.25000000  0.25000000  0.87758400  1
  V  V9  1  0.25000000  0.25000000  0.62241600  1
  V  V10  1  0.50000000  0.00000000  0.87241600  1
  V  V11  1  0.00000000  0.00000000  0.62758400  1
  V  V12  1  0.25000000  0.75000000  0.37758400  1
  V  V13  1  0.25000000  0.75000000  0.12241600  1
  V  V14  1  0.50000000  0.50000000  0.37241600  1
  V  V15  1  0.00000000  0.50000000  0.12758400  1
  Sn  Sn16  1  0.75000000  0.41644700  0.25000000  1
  Sn  Sn17  1  0.75000000  0.08355300  0.25000000  1
  Sn  Sn18  1  0.50000000  0.83355300  0.00000000  1
  Sn  Sn19  1  0.50000000  0.16644700  0.00000000  1
  Sn  Sn20  1  0.75000000  0.75000000  0.16605000  1
  Sn  Sn21  1  0.75000000  0.75000000  0.33395000  1
  Sn  Sn22  1  0.00000000  0.00000000  0.08395000  1
  Sn  Sn23  1  0.50000000  0.00000000  0.41605000  1
  Sn  Sn24  1  0.75000000  0.91644700  0.75000000  1
  Sn  Sn25  1  0.75000000  0.58355300  0.75000000  1
  Sn  Sn26  1  0.50000000  0.33355300  0.50000000  1
  Sn  Sn27  1  0.50000000  0.66644700  0.50000000  1
  Sn  Sn28  1  0.75000000  0.25000000  0.66605000  1
  Sn  Sn29  1  0.75000000  0.25000000  0.83395000  1
  Sn  Sn30  1  0.00000000  0.50000000  0.58395000  1
  Sn  Sn31  1  0.50000000  0.50000000  0.91605000  1
  Sn  Sn32  1  0.25000000  0.41644700  0.75000000  1
  Sn  Sn33  1  0.25000000  0.08355300  0.75000000  1
  Sn  Sn34  1  0.00000000  0.83355300  0.50000000  1
  Sn  Sn35  1  0.00000000  0.16644700  0.50000000  1
  Sn  Sn36  1  0.25000000  0.75000000  0.66605000  1
  Sn  Sn37  1  0.25000000  0.75000000  0.83395000  1
  Sn  Sn38  1  0.50000000  0.00000000  0.58395000  1
  Sn  Sn39  1  0.00000000  0.00000000  0.91605000  1
  Sn  Sn40  1  0.25000000  0.91644700  0.25000000  1
  Sn  Sn41  1  0.25000000  0.58355300  0.25000000  1
  Sn  Sn42  1  0.00000000  0.33355300  0.00000000  1
  Sn  Sn43  1  0.00000000  0.66644700  0.00000000  1
  Sn  Sn44  1  0.25000000  0.25000000  0.16605000  1
  Sn  Sn45  1  0.25000000  0.25000000  0.33395000  1
  Sn  Sn46  1  0.50000000  0.50000000  0.08395000  1
  Sn  Sn47  1  0.00000000  0.50000000  0.41605000  1
