# generated using pymatgen
data_YAlGe
_symmetry_space_group_name_H-M   'P 1'
_cell_length_a   4.07319200
_cell_length_b   10.47210400
_cell_length_c   5.78627300
_cell_angle_alpha   90.00000000
_cell_angle_beta   90.00000000
_cell_angle_gamma   90.00000000
_symmetry_Int_Tables_number   1
_chemical_formula_structural   YAlGe
_chemical_formula_sum   'Y4 Al4 Ge4'
_cell_volume   246.81283969
_cell_formula_units_Z   4
loop_
 _symmetry_equiv_pos_site_id
 _symmetry_equiv_pos_as_xyz
  1  'x, y, z'
loop_
 _atom_site_type_symbol
 _atom_site_label
 _atom_site_symmetry_multiplicity
 _atom_site_fract_x
 _atom_site_fract_y
 _atom_site_fract_z
 _atom_site_occupancy
  Y  Y0  1  0.50000000  0.18974400  0.75000000  1
  Y  Y1  1  0.00000000  0.31025600  0.25000000  1
  Y  Y2  1  0.00000000  0.68974400  0.75000000  1
  Y  Y3  1  0.50000000  0.81025600  0.25000000  1
  Al  Al4  1  0.00000000  0.00000000  0.00000000  1
  Al  Al5  1  0.00000000  0.00000000  0.50000000  1
  Al  Al6  1  0.50000000  0.50000000  0.00000000  1
  Al  Al7  1  0.50000000  0.50000000  0.50000000  1
  Ge  Ge8  1  0.50000000  0.10559900  0.25000000  1
  Ge  Ge9  1  0.00000000  0.39440100  0.75000000  1
  Ge  Ge10  1  0.00000000  0.60559900  0.25000000  1
  Ge  Ge11  1  0.50000000  0.89440100  0.75000000  1
