# generated using pymatgen
data_Ba2As
_symmetry_space_group_name_H-M   'P 1'
_cell_length_a   5.10703800
_cell_length_b   5.10703800
_cell_length_c   18.05781200
_cell_angle_alpha   90.00000000
_cell_angle_beta   90.00000000
_cell_angle_gamma   90.00000000
_symmetry_Int_Tables_number   1
_chemical_formula_structural   Ba2As
_chemical_formula_sum   'Ba8 As4'
_cell_volume   470.98091157
_cell_formula_units_Z   4
loop_
 _symmetry_equiv_pos_site_id
 _symmetry_equiv_pos_as_xyz
  1  'x, y, z'
loop_
 _atom_site_type_symbol
 _atom_site_label
 _atom_site_symmetry_multiplicity
 _atom_site_fract_x
 _atom_site_fract_y
 _atom_site_fract_z
 _atom_site_occupancy
  Ba  Ba0  1  0.00000000  0.00000000  0.31593200  1
  Ba  Ba1  1  0.50000000  0.50000000  0.18406800  1
  Ba  Ba2  1  0.50000000  0.00000000  0.00000000  1
  Ba  Ba3  1  0.00000000  0.50000000  0.00000000  1
  Ba  Ba4  1  0.50000000  0.50000000  0.81593200  1
  Ba  Ba5  1  0.00000000  0.00000000  0.68406800  1
  Ba  Ba6  1  0.00000000  0.50000000  0.50000000  1
  Ba  Ba7  1  0.50000000  0.00000000  0.50000000  1
  As  As8  1  0.00000000  0.00000000  0.13224900  1
  As  As9  1  0.50000000  0.50000000  0.36775100  1
  As  As10  1  0.50000000  0.50000000  0.63224900  1
  As  As11  1  0.00000000  0.00000000  0.86775100  1
