# generated using pymatgen
data_CaIn2Pt
_symmetry_space_group_name_H-M   'P 1'
_cell_length_a   4.45175200
_cell_length_b   10.53232600
_cell_length_c   7.95823000
_cell_angle_alpha   90.00000000
_cell_angle_beta   90.00000000
_cell_angle_gamma   90.00000000
_symmetry_Int_Tables_number   1
_chemical_formula_structural   CaIn2Pt
_chemical_formula_sum   'Ca4 In8 Pt4'
_cell_volume   373.13994402
_cell_formula_units_Z   4
loop_
 _symmetry_equiv_pos_site_id
 _symmetry_equiv_pos_as_xyz
  1  'x, y, z'
loop_
 _atom_site_type_symbol
 _atom_site_label
 _atom_site_symmetry_multiplicity
 _atom_site_fract_x
 _atom_site_fract_y
 _atom_site_fract_z
 _atom_site_occupancy
  Ca  Ca0  1  0.00000000  0.06723500  0.25000000  1
  Ca  Ca1  1  0.50000000  0.43276500  0.75000000  1
  Ca  Ca2  1  0.50000000  0.56723500  0.25000000  1
  Ca  Ca3  1  0.00000000  0.93276500  0.75000000  1
  In  In4  1  0.00000000  0.35604600  0.44854500  1
  In  In5  1  0.00000000  0.35604600  0.05145500  1
  In  In6  1  0.50000000  0.14395400  0.55145500  1
  In  In7  1  0.50000000  0.14395400  0.94854500  1
  In  In8  1  0.50000000  0.85604600  0.44854500  1
  In  In9  1  0.50000000  0.85604600  0.05145500  1
  In  In10  1  0.00000000  0.64395400  0.55145500  1
  In  In11  1  0.00000000  0.64395400  0.94854500  1
  Pt  Pt12  1  0.50000000  0.28265600  0.25000000  1
  Pt  Pt13  1  0.00000000  0.21734400  0.75000000  1
  Pt  Pt14  1  0.00000000  0.78265600  0.25000000  1
  Pt  Pt15  1  0.50000000  0.71734400  0.75000000  1
