# generated using pymatgen
data_Th2Ag
_symmetry_space_group_name_H-M   'P 1'
_cell_length_a   7.59322400
_cell_length_b   7.59322400
_cell_length_c   5.89280400
_cell_angle_alpha   90.00000000
_cell_angle_beta   90.00000000
_cell_angle_gamma   90.00000000
_symmetry_Int_Tables_number   1
_chemical_formula_structural   Th2Ag
_chemical_formula_sum   'Th8 Ag4'
_cell_volume   339.76169908
_cell_formula_units_Z   4
loop_
 _symmetry_equiv_pos_site_id
 _symmetry_equiv_pos_as_xyz
  1  'x, y, z'
loop_
 _atom_site_type_symbol
 _atom_site_label
 _atom_site_symmetry_multiplicity
 _atom_site_fract_x
 _atom_site_fract_y
 _atom_site_fract_z
 _atom_site_occupancy
  Th  Th0  1  0.65411200  0.15411200  0.00000000  1
  Th  Th1  1  0.34588800  0.84588800  0.00000000  1
  Th  Th2  1  0.34588800  0.15411200  0.50000000  1
  Th  Th3  1  0.65411200  0.84588800  0.50000000  1
  Th  Th4  1  0.15411200  0.65411200  0.50000000  1
  Th  Th5  1  0.84588800  0.34588800  0.50000000  1
  Th  Th6  1  0.84588800  0.65411200  0.00000000  1
  Th  Th7  1  0.15411200  0.34588800  0.00000000  1
  Ag  Ag8  1  0.00000000  0.00000000  0.75000000  1
  Ag  Ag9  1  0.00000000  0.00000000  0.25000000  1
  Ag  Ag10  1  0.50000000  0.50000000  0.25000000  1
  Ag  Ag11  1  0.50000000  0.50000000  0.75000000  1
