# generated using pymatgen
data_SmSb2
_symmetry_space_group_name_H-M   'P 1'
_cell_length_a   6.21476600
_cell_length_b   6.22024600
_cell_length_c   18.03805500
_cell_angle_alpha   90.00000000
_cell_angle_beta   90.00000000
_cell_angle_gamma   90.00000000
_symmetry_Int_Tables_number   1
_chemical_formula_structural   SmSb2
_chemical_formula_sum   'Sm8 Sb16'
_cell_volume   697.30382669
_cell_formula_units_Z   8
loop_
 _symmetry_equiv_pos_site_id
 _symmetry_equiv_pos_as_xyz
  1  'x, y, z'
loop_
 _atom_site_type_symbol
 _atom_site_label
 _atom_site_symmetry_multiplicity
 _atom_site_fract_x
 _atom_site_fract_y
 _atom_site_fract_z
 _atom_site_occupancy
  Sm  Sm0  1  0.50000000  0.86044600  0.88956600  1
  Sm  Sm1  1  0.50000000  0.13955400  0.11043400  1
  Sm  Sm2  1  0.50000000  0.63955400  0.38956600  1
  Sm  Sm3  1  0.50000000  0.36044600  0.61043400  1
  Sm  Sm4  1  0.00000000  0.36044600  0.88956600  1
  Sm  Sm5  1  0.00000000  0.63955400  0.11043400  1
  Sm  Sm6  1  0.00000000  0.13955400  0.38956600  1
  Sm  Sm7  1  0.00000000  0.86044600  0.61043400  1
  Sb  Sb8  1  0.50000000  0.86489300  0.56420700  1
  Sb  Sb9  1  0.50000000  0.13510700  0.43579300  1
  Sb  Sb10  1  0.50000000  0.63510700  0.06420700  1
  Sb  Sb11  1  0.50000000  0.36489300  0.93579300  1
  Sb  Sb12  1  0.75000000  0.12551000  0.75000000  1
  Sb  Sb13  1  0.75000000  0.87449000  0.25000000  1
  Sb  Sb14  1  0.25000000  0.87449000  0.25000000  1
  Sb  Sb15  1  0.25000000  0.12551000  0.75000000  1
  Sb  Sb16  1  0.00000000  0.36489300  0.56420700  1
  Sb  Sb17  1  0.00000000  0.63510700  0.43579300  1
  Sb  Sb18  1  0.00000000  0.13510700  0.06420700  1
  Sb  Sb19  1  0.00000000  0.86489300  0.93579300  1
  Sb  Sb20  1  0.25000000  0.62551000  0.75000000  1
  Sb  Sb21  1  0.25000000  0.37449000  0.25000000  1
  Sb  Sb22  1  0.75000000  0.37449000  0.25000000  1
  Sb  Sb23  1  0.75000000  0.62551000  0.75000000  1
