# generated using pymatgen
data_ZrGe2
_symmetry_space_group_name_H-M   'P 1'
_cell_length_a   3.84871000
_cell_length_b   15.17083200
_cell_length_c   3.81655200
_cell_angle_alpha   90.00000000
_cell_angle_beta   90.00000000
_cell_angle_gamma   90.00000000
_symmetry_Int_Tables_number   1
_chemical_formula_structural   ZrGe2
_chemical_formula_sum   'Zr4 Ge8'
_cell_volume   222.84134512
_cell_formula_units_Z   4
loop_
 _symmetry_equiv_pos_site_id
 _symmetry_equiv_pos_as_xyz
  1  'x, y, z'
loop_
 _atom_site_type_symbol
 _atom_site_label
 _atom_site_symmetry_multiplicity
 _atom_site_fract_x
 _atom_site_fract_y
 _atom_site_fract_z
 _atom_site_occupancy
  Zr  Zr0  1  0.50000000  0.39567900  0.75000000  1
  Zr  Zr1  1  0.00000000  0.10432100  0.25000000  1
  Zr  Zr2  1  0.00000000  0.89567900  0.75000000  1
  Zr  Zr3  1  0.50000000  0.60432100  0.25000000  1
  Ge  Ge4  1  0.50000000  0.05944500  0.75000000  1
  Ge  Ge5  1  0.00000000  0.44055500  0.25000000  1
  Ge  Ge6  1  0.50000000  0.24958300  0.25000000  1
  Ge  Ge7  1  0.00000000  0.25041700  0.75000000  1
  Ge  Ge8  1  0.00000000  0.55944500  0.75000000  1
  Ge  Ge9  1  0.50000000  0.94055500  0.25000000  1
  Ge  Ge10  1  0.00000000  0.74958300  0.25000000  1
  Ge  Ge11  1  0.50000000  0.75041700  0.75000000  1
