# generated using pymatgen
data_Ce(Re2Si)2
_symmetry_space_group_name_H-M   'P 1'
_cell_length_a   4.15201600
_cell_length_b   14.00054800
_cell_length_c   4.08469000
_cell_angle_alpha   90.00000000
_cell_angle_beta   90.00000000
_cell_angle_gamma   90.00000000
_symmetry_Int_Tables_number   1
_chemical_formula_structural   Ce(Re2Si)2
_chemical_formula_sum   'Ce2 Re8 Si4'
_cell_volume   237.44506921
_cell_formula_units_Z   2
loop_
 _symmetry_equiv_pos_site_id
 _symmetry_equiv_pos_as_xyz
  1  'x, y, z'
loop_
 _atom_site_type_symbol
 _atom_site_label
 _atom_site_symmetry_multiplicity
 _atom_site_fract_x
 _atom_site_fract_y
 _atom_site_fract_z
 _atom_site_occupancy
  Ce  Ce0  1  0.00000000  0.00000000  0.00000000  1
  Ce  Ce1  1  0.50000000  0.50000000  0.00000000  1
  Re  Re2  1  0.50000000  0.31395500  0.50000000  1
  Re  Re3  1  0.50000000  0.19465100  0.00000000  1
  Re  Re4  1  0.00000000  0.18604500  0.50000000  1
  Re  Re5  1  0.00000000  0.30534900  0.00000000  1
  Re  Re6  1  0.00000000  0.81395500  0.50000000  1
  Re  Re7  1  0.00000000  0.69465100  0.00000000  1
  Re  Re8  1  0.50000000  0.68604500  0.50000000  1
  Re  Re9  1  0.50000000  0.80534900  0.00000000  1
  Si  Si10  1  0.50000000  0.08705800  0.50000000  1
  Si  Si11  1  0.00000000  0.41294200  0.50000000  1
  Si  Si12  1  0.00000000  0.58705800  0.50000000  1
  Si  Si13  1  0.50000000  0.91294200  0.50000000  1
