# generated using pymatgen
data_LaSi2
_symmetry_space_group_name_H-M   'P 1'
_cell_length_a   4.34806600
_cell_length_b   4.34806600
_cell_length_c   13.80697400
_cell_angle_alpha   90.00000000
_cell_angle_beta   90.00000000
_cell_angle_gamma   90.00000000
_symmetry_Int_Tables_number   1
_chemical_formula_structural   LaSi2
_chemical_formula_sum   'La4 Si8'
_cell_volume   261.03020377
_cell_formula_units_Z   4
loop_
 _symmetry_equiv_pos_site_id
 _symmetry_equiv_pos_as_xyz
  1  'x, y, z'
loop_
 _atom_site_type_symbol
 _atom_site_label
 _atom_site_symmetry_multiplicity
 _atom_site_fract_x
 _atom_site_fract_y
 _atom_site_fract_z
 _atom_site_occupancy
  La  La0  1  0.00000000  0.50000000  0.25000000  1
  La  La1  1  0.00000000  0.00000000  0.00000000  1
  La  La2  1  0.50000000  0.00000000  0.75000000  1
  La  La3  1  0.50000000  0.50000000  0.50000000  1
  Si  Si4  1  0.50000000  0.00000000  0.16671000  1
  Si  Si5  1  0.50000000  0.50000000  0.08329000  1
  Si  Si6  1  0.50000000  0.00000000  0.33329000  1
  Si  Si7  1  0.00000000  0.00000000  0.41671000  1
  Si  Si8  1  0.00000000  0.50000000  0.66671000  1
  Si  Si9  1  0.00000000  0.00000000  0.58329000  1
  Si  Si10  1  0.00000000  0.50000000  0.83329000  1
  Si  Si11  1  0.50000000  0.50000000  0.91671000  1
