# generated using pymatgen
data_SrSi
_symmetry_space_group_name_H-M   'P 1'
_cell_length_a   4.82997600
_cell_length_b   11.30439400
_cell_length_c   4.07762600
_cell_angle_alpha   90.00000000
_cell_angle_beta   90.00000000
_cell_angle_gamma   90.00000000
_symmetry_Int_Tables_number   1
_chemical_formula_structural   SrSi
_chemical_formula_sum   'Sr4 Si4'
_cell_volume   222.63818271
_cell_formula_units_Z   4
loop_
 _symmetry_equiv_pos_site_id
 _symmetry_equiv_pos_as_xyz
  1  'x, y, z'
loop_
 _atom_site_type_symbol
 _atom_site_label
 _atom_site_symmetry_multiplicity
 _atom_site_fract_x
 _atom_site_fract_y
 _atom_site_fract_z
 _atom_site_occupancy
  Sr  Sr0  1  0.50000000  0.13866100  0.75000000  1
  Sr  Sr1  1  0.00000000  0.36133900  0.25000000  1
  Sr  Sr2  1  0.00000000  0.63866100  0.75000000  1
  Sr  Sr3  1  0.50000000  0.86133900  0.25000000  1
  Si  Si4  1  0.50000000  0.43651100  0.75000000  1
  Si  Si5  1  0.00000000  0.06348900  0.25000000  1
  Si  Si6  1  0.00000000  0.93651100  0.75000000  1
  Si  Si7  1  0.50000000  0.56348900  0.25000000  1
