# generated using pymatgen
data_YCI
_symmetry_space_group_name_H-M   'P 1'
_cell_length_a   7.33175600
_cell_length_b   3.91420600
_cell_length_c   10.78092902
_cell_angle_alpha   90.00000000
_cell_angle_beta   93.52441321
_cell_angle_gamma   90.00000000
_symmetry_Int_Tables_number   1
_chemical_formula_structural   YCI
_chemical_formula_sum   'Y4 C4 I4'
_cell_volume   308.80598401
_cell_formula_units_Z   4
loop_
 _symmetry_equiv_pos_site_id
 _symmetry_equiv_pos_as_xyz
  1  'x, y, z'
loop_
 _atom_site_type_symbol
 _atom_site_label
 _atom_site_symmetry_multiplicity
 _atom_site_fract_x
 _atom_site_fract_y
 _atom_site_fract_z
 _atom_site_occupancy
  Y  Y0  1  0.85340500  0.00000000  0.87157900  1
  Y  Y1  1  0.64659500  0.50000000  0.12842100  1
  Y  Y2  1  0.35340500  0.50000000  0.87157900  1
  Y  Y3  1  0.14659500  0.00000000  0.12842100  1
  C  C4  1  0.92338100  0.50000000  0.02999800  1
  C  C5  1  0.57661900  0.00000000  0.97000200  1
  C  C6  1  0.42338100  0.00000000  0.02999800  1
  C  C7  1  0.07661900  0.50000000  0.97000200  1
  I  I8  1  0.82514200  0.00000000  0.32442900  1
  I  I9  1  0.67485800  0.50000000  0.67557100  1
  I  I10  1  0.32514200  0.50000000  0.32442900  1
  I  I11  1  0.17485800  0.00000000  0.67557100  1
