# generated using pymatgen
data_SrIn2Ir
_symmetry_space_group_name_H-M   'P 1'
_cell_length_a   4.34034600
_cell_length_b   11.16253000
_cell_length_c   8.18679100
_cell_angle_alpha   90.00000000
_cell_angle_beta   90.00000000
_cell_angle_gamma   90.00000000
_symmetry_Int_Tables_number   1
_chemical_formula_structural   SrIn2Ir
_chemical_formula_sum   'Sr4 In8 Ir4'
_cell_volume   396.64382193
_cell_formula_units_Z   4
loop_
 _symmetry_equiv_pos_site_id
 _symmetry_equiv_pos_as_xyz
  1  'x, y, z'
loop_
 _atom_site_type_symbol
 _atom_site_label
 _atom_site_symmetry_multiplicity
 _atom_site_fract_x
 _atom_site_fract_y
 _atom_site_fract_z
 _atom_site_occupancy
  Sr  Sr0  1  0.00000000  0.06075800  0.25000000  1
  Sr  Sr1  1  0.50000000  0.43924200  0.75000000  1
  Sr  Sr2  1  0.50000000  0.56075800  0.25000000  1
  Sr  Sr3  1  0.00000000  0.93924200  0.75000000  1
  In  In4  1  0.00000000  0.34547600  0.44733800  1
  In  In5  1  0.00000000  0.34547600  0.05266200  1
  In  In6  1  0.50000000  0.15452400  0.55266200  1
  In  In7  1  0.50000000  0.15452400  0.94733800  1
  In  In8  1  0.50000000  0.84547600  0.44733800  1
  In  In9  1  0.50000000  0.84547600  0.05266200  1
  In  In10  1  0.00000000  0.65452400  0.55266200  1
  In  In11  1  0.00000000  0.65452400  0.94733800  1
  Ir  Ir12  1  0.50000000  0.28001200  0.25000000  1
  Ir  Ir13  1  0.00000000  0.21998800  0.75000000  1
  Ir  Ir14  1  0.00000000  0.78001200  0.25000000  1
  Ir  Ir15  1  0.50000000  0.71998800  0.75000000  1
