# generated using pymatgen
data_Hf3Te2
_symmetry_space_group_name_H-M   'P 1'
_cell_length_a   3.71003000
_cell_length_b   3.71003000
_cell_length_c   19.16137000
_cell_angle_alpha   90.00000000
_cell_angle_beta   90.00000000
_cell_angle_gamma   90.00000000
_symmetry_Int_Tables_number   1
_chemical_formula_structural   Hf3Te2
_chemical_formula_sum   'Hf6 Te4'
_cell_volume   263.74327816
_cell_formula_units_Z   2
loop_
 _symmetry_equiv_pos_site_id
 _symmetry_equiv_pos_as_xyz
  1  'x, y, z'
loop_
 _atom_site_type_symbol
 _atom_site_label
 _atom_site_symmetry_multiplicity
 _atom_site_fract_x
 _atom_site_fract_y
 _atom_site_fract_z
 _atom_site_occupancy
  Hf  Hf0  1  0.00000000  0.00000000  0.41137300  1
  Hf  Hf1  1  0.50000000  0.50000000  0.08862700  1
  Hf  Hf2  1  0.00000000  0.00000000  0.00000000  1
  Hf  Hf3  1  0.50000000  0.50000000  0.91137300  1
  Hf  Hf4  1  0.00000000  0.00000000  0.58862700  1
  Hf  Hf5  1  0.50000000  0.50000000  0.50000000  1
  Te  Te6  1  0.50000000  0.50000000  0.34117000  1
  Te  Te7  1  0.00000000  0.00000000  0.15883000  1
  Te  Te8  1  0.00000000  0.00000000  0.84117000  1
  Te  Te9  1  0.50000000  0.50000000  0.65883000  1
