# generated using pymatgen
data_Ti3Cu4
_symmetry_space_group_name_H-M   'P 1'
_cell_length_a   3.13919600
_cell_length_b   3.13919600
_cell_length_c   19.86535000
_cell_angle_alpha   90.00000000
_cell_angle_beta   90.00000000
_cell_angle_gamma   90.00000000
_symmetry_Int_Tables_number   1
_chemical_formula_structural   Ti3Cu4
_chemical_formula_sum   'Ti6 Cu8'
_cell_volume   195.76411517
_cell_formula_units_Z   2
loop_
 _symmetry_equiv_pos_site_id
 _symmetry_equiv_pos_as_xyz
  1  'x, y, z'
loop_
 _atom_site_type_symbol
 _atom_site_label
 _atom_site_symmetry_multiplicity
 _atom_site_fract_x
 _atom_site_fract_y
 _atom_site_fract_z
 _atom_site_occupancy
  Ti  Ti0  1  0.50000000  0.50000000  0.20744600  1
  Ti  Ti1  1  0.00000000  0.00000000  0.29255400  1
  Ti  Ti2  1  0.00000000  0.00000000  0.00000000  1
  Ti  Ti3  1  0.00000000  0.00000000  0.70744600  1
  Ti  Ti4  1  0.50000000  0.50000000  0.79255400  1
  Ti  Ti5  1  0.50000000  0.50000000  0.50000000  1
  Cu  Cu6  1  0.50000000  0.50000000  0.07032700  1
  Cu  Cu7  1  0.00000000  0.00000000  0.42967300  1
  Cu  Cu8  1  0.50000000  0.50000000  0.36517500  1
  Cu  Cu9  1  0.00000000  0.00000000  0.13482500  1
  Cu  Cu10  1  0.00000000  0.00000000  0.57032700  1
  Cu  Cu11  1  0.50000000  0.50000000  0.92967300  1
  Cu  Cu12  1  0.00000000  0.00000000  0.86517500  1
  Cu  Cu13  1  0.50000000  0.50000000  0.63482500  1
