# generated using pymatgen
data_NbS2
_symmetry_space_group_name_H-M   'P 1'
_cell_length_a   3.35555200
_cell_length_b   5.81484000
_cell_length_c   22.97945400
_cell_angle_alpha   90.00000000
_cell_angle_beta   90.00000000
_cell_angle_gamma   90.00000000
_symmetry_Int_Tables_number   1
_chemical_formula_structural   NbS2
_chemical_formula_sum   'Nb4 S8'
_cell_volume   448.37506030
_cell_formula_units_Z   4
loop_
 _symmetry_equiv_pos_site_id
 _symmetry_equiv_pos_as_xyz
  1  'x, y, z'
loop_
 _atom_site_type_symbol
 _atom_site_label
 _atom_site_symmetry_multiplicity
 _atom_site_fract_x
 _atom_site_fract_y
 _atom_site_fract_z
 _atom_site_occupancy
  Nb  Nb0  1  0.00000000  0.92243800  0.00000000  1
  Nb  Nb1  1  0.00000000  0.42243800  0.50000000  1
  Nb  Nb2  1  0.50000000  0.42243800  0.00000000  1
  Nb  Nb3  1  0.50000000  0.92243800  0.50000000  1
  S  S4  1  0.00000000  0.75575600  0.43176000  1
  S  S5  1  0.50000000  0.75575600  0.06824000  1
  S  S6  1  0.00000000  0.25575600  0.93176000  1
  S  S7  1  0.50000000  0.25575600  0.56824000  1
  S  S8  1  0.50000000  0.25575600  0.43176000  1
  S  S9  1  0.00000000  0.25575600  0.06824000  1
  S  S10  1  0.50000000  0.75575600  0.93176000  1
  S  S11  1  0.00000000  0.75575600  0.56824000  1
