# generated using pymatgen
data_V3AsC
_symmetry_space_group_name_H-M   'P 1'
_cell_length_a   3.11909600
_cell_length_b   10.16374600
_cell_length_c   7.69123800
_cell_angle_alpha   90.00000000
_cell_angle_beta   90.00000000
_cell_angle_gamma   90.00000000
_symmetry_Int_Tables_number   1
_chemical_formula_structural   V3AsC
_chemical_formula_sum   'V12 As4 C4'
_cell_volume   243.82531581
_cell_formula_units_Z   4
loop_
 _symmetry_equiv_pos_site_id
 _symmetry_equiv_pos_as_xyz
  1  'x, y, z'
loop_
 _atom_site_type_symbol
 _atom_site_label
 _atom_site_symmetry_multiplicity
 _atom_site_fract_x
 _atom_site_fract_y
 _atom_site_fract_z
 _atom_site_occupancy
  V  V0  1  0.00000000  0.12653500  0.05094700  1
  V  V1  1  0.50000000  0.04529000  0.75000000  1
  V  V2  1  0.00000000  0.45471000  0.25000000  1
  V  V3  1  0.00000000  0.12653500  0.44905300  1
  V  V4  1  0.50000000  0.37346500  0.55094700  1
  V  V5  1  0.50000000  0.37346500  0.94905300  1
  V  V6  1  0.50000000  0.62653500  0.05094700  1
  V  V7  1  0.00000000  0.54529000  0.75000000  1
  V  V8  1  0.50000000  0.95471000  0.25000000  1
  V  V9  1  0.50000000  0.62653500  0.44905300  1
  V  V10  1  0.00000000  0.87346500  0.55094700  1
  V  V11  1  0.00000000  0.87346500  0.94905300  1
  As  As12  1  0.00000000  0.24164200  0.75000000  1
  As  As13  1  0.50000000  0.25835800  0.25000000  1
  As  As14  1  0.50000000  0.74164200  0.75000000  1
  As  As15  1  0.00000000  0.75835800  0.25000000  1
  C  C16  1  0.50000000  0.00000000  0.00000000  1
  C  C17  1  0.50000000  0.00000000  0.50000000  1
  C  C18  1  0.00000000  0.50000000  0.00000000  1
  C  C19  1  0.00000000  0.50000000  0.50000000  1
