# generated using pymatgen
data_Ba(SiNi)2
_symmetry_space_group_name_H-M   'P 1'
_cell_length_a   5.35940200
_cell_length_b   6.50498200
_cell_length_c   11.43481500
_cell_angle_alpha   90.00000000
_cell_angle_beta   90.00000000
_cell_angle_gamma   90.00000000
_symmetry_Int_Tables_number   1
_chemical_formula_structural   Ba(SiNi)2
_chemical_formula_sum   'Ba4 Si8 Ni8'
_cell_volume   398.64982322
_cell_formula_units_Z   4
loop_
 _symmetry_equiv_pos_site_id
 _symmetry_equiv_pos_as_xyz
  1  'x, y, z'
loop_
 _atom_site_type_symbol
 _atom_site_label
 _atom_site_symmetry_multiplicity
 _atom_site_fract_x
 _atom_site_fract_y
 _atom_site_fract_z
 _atom_site_occupancy
  Ba  Ba0  1  0.79616700  0.00000000  0.75000000  1
  Ba  Ba1  1  0.20383300  0.00000000  0.25000000  1
  Ba  Ba2  1  0.29616700  0.50000000  0.75000000  1
  Ba  Ba3  1  0.70383300  0.50000000  0.25000000  1
  Si  Si4  1  0.68869900  0.00000000  0.43319200  1
  Si  Si5  1  0.31130100  0.00000000  0.93319200  1
  Si  Si6  1  0.68869900  0.00000000  0.06680800  1
  Si  Si7  1  0.31130100  0.00000000  0.56680800  1
  Si  Si8  1  0.18869900  0.50000000  0.43319200  1
  Si  Si9  1  0.81130100  0.50000000  0.93319200  1
  Si  Si10  1  0.18869900  0.50000000  0.06680800  1
  Si  Si11  1  0.81130100  0.50000000  0.56680800  1
  Ni  Ni12  1  0.50000000  0.70445300  0.00000000  1
  Ni  Ni13  1  0.50000000  0.29554700  0.50000000  1
  Ni  Ni14  1  0.50000000  0.70445300  0.50000000  1
  Ni  Ni15  1  0.50000000  0.29554700  0.00000000  1
  Ni  Ni16  1  0.00000000  0.20445300  0.00000000  1
  Ni  Ni17  1  0.00000000  0.79554700  0.50000000  1
  Ni  Ni18  1  0.00000000  0.20445300  0.50000000  1
  Ni  Ni19  1  0.00000000  0.79554700  0.00000000  1
