# generated using pymatgen
data_Mg2Cu
_symmetry_space_group_name_H-M   'P 1'
_cell_length_a   5.24319800
_cell_length_b   9.04739800
_cell_length_c   18.31576800
_cell_angle_alpha   90.00000000
_cell_angle_beta   90.00000000
_cell_angle_gamma   90.00000000
_symmetry_Int_Tables_number   1
_chemical_formula_structural   Mg2Cu
_chemical_formula_sum   'Mg32 Cu16'
_cell_volume   868.85056484
_cell_formula_units_Z   16
loop_
 _symmetry_equiv_pos_site_id
 _symmetry_equiv_pos_as_xyz
  1  'x, y, z'
loop_
 _atom_site_type_symbol
 _atom_site_label
 _atom_site_symmetry_multiplicity
 _atom_site_fract_x
 _atom_site_fract_y
 _atom_site_fract_z
 _atom_site_occupancy
  Mg  Mg0  1  0.00000000  0.00000000  0.08329900  1
  Mg  Mg1  1  0.50000000  0.00000000  0.41670100  1
  Mg  Mg2  1  0.75000000  0.75000000  0.16670100  1
  Mg  Mg3  1  0.75000000  0.75000000  0.33329900  1
  Mg  Mg4  1  0.75000000  0.08424200  0.25000000  1
  Mg  Mg5  1  0.75000000  0.41575800  0.25000000  1
  Mg  Mg6  1  0.50000000  0.16575800  0.00000000  1
  Mg  Mg7  1  0.50000000  0.83424200  0.00000000  1
  Mg  Mg8  1  0.00000000  0.50000000  0.58329900  1
  Mg  Mg9  1  0.50000000  0.50000000  0.91670100  1
  Mg  Mg10  1  0.75000000  0.25000000  0.66670100  1
  Mg  Mg11  1  0.75000000  0.25000000  0.83329900  1
  Mg  Mg12  1  0.75000000  0.58424200  0.75000000  1
  Mg  Mg13  1  0.75000000  0.91575800  0.75000000  1
  Mg  Mg14  1  0.50000000  0.66575800  0.50000000  1
  Mg  Mg15  1  0.50000000  0.33424200  0.50000000  1
  Mg  Mg16  1  0.50000000  0.00000000  0.58329900  1
  Mg  Mg17  1  0.00000000  0.00000000  0.91670100  1
  Mg  Mg18  1  0.25000000  0.75000000  0.66670100  1
  Mg  Mg19  1  0.25000000  0.75000000  0.83329900  1
  Mg  Mg20  1  0.25000000  0.08424200  0.75000000  1
  Mg  Mg21  1  0.25000000  0.41575800  0.75000000  1
  Mg  Mg22  1  0.00000000  0.16575800  0.50000000  1
  Mg  Mg23  1  0.00000000  0.83424200  0.50000000  1
  Mg  Mg24  1  0.50000000  0.50000000  0.08329900  1
  Mg  Mg25  1  0.00000000  0.50000000  0.41670100  1
  Mg  Mg26  1  0.25000000  0.25000000  0.16670100  1
  Mg  Mg27  1  0.25000000  0.25000000  0.33329900  1
  Mg  Mg28  1  0.25000000  0.58424200  0.25000000  1
  Mg  Mg29  1  0.25000000  0.91575800  0.25000000  1
  Mg  Mg30  1  0.00000000  0.66575800  0.00000000  1
  Mg  Mg31  1  0.00000000  0.33424200  0.00000000  1
  Cu  Cu32  1  0.50000000  0.00000000  0.12668200  1
  Cu  Cu33  1  0.00000000  0.00000000  0.37331800  1
  Cu  Cu34  1  0.75000000  0.25000000  0.12331800  1
  Cu  Cu35  1  0.75000000  0.25000000  0.37668200  1
  Cu  Cu36  1  0.50000000  0.50000000  0.62668200  1
  Cu  Cu37  1  0.00000000  0.50000000  0.87331800  1
  Cu  Cu38  1  0.75000000  0.75000000  0.62331800  1
  Cu  Cu39  1  0.75000000  0.75000000  0.87668200  1
  Cu  Cu40  1  0.00000000  0.00000000  0.62668200  1
  Cu  Cu41  1  0.50000000  0.00000000  0.87331800  1
  Cu  Cu42  1  0.25000000  0.25000000  0.62331800  1
  Cu  Cu43  1  0.25000000  0.25000000  0.87668200  1
  Cu  Cu44  1  0.00000000  0.50000000  0.12668200  1
  Cu  Cu45  1  0.50000000  0.50000000  0.37331800  1
  Cu  Cu46  1  0.25000000  0.75000000  0.12331800  1
  Cu  Cu47  1  0.25000000  0.75000000  0.37668200  1
