# generated using pymatgen
data_BaSi
_symmetry_space_group_name_H-M   'P 1'
_cell_length_a   5.06112000
_cell_length_b   12.12076800
_cell_length_c   4.15761700
_cell_angle_alpha   90.00000000
_cell_angle_beta   90.00000000
_cell_angle_gamma   90.00000000
_symmetry_Int_Tables_number   1
_chemical_formula_structural   BaSi
_chemical_formula_sum   'Ba4 Si4'
_cell_volume   255.04760685
_cell_formula_units_Z   4
loop_
 _symmetry_equiv_pos_site_id
 _symmetry_equiv_pos_as_xyz
  1  'x, y, z'
loop_
 _atom_site_type_symbol
 _atom_site_label
 _atom_site_symmetry_multiplicity
 _atom_site_fract_x
 _atom_site_fract_y
 _atom_site_fract_z
 _atom_site_occupancy
  Ba  Ba0  1  0.50000000  0.36039500  0.75000000  1
  Ba  Ba1  1  0.00000000  0.13960500  0.25000000  1
  Ba  Ba2  1  0.00000000  0.86039500  0.75000000  1
  Ba  Ba3  1  0.50000000  0.63960500  0.25000000  1
  Si  Si4  1  0.50000000  0.05757900  0.75000000  1
  Si  Si5  1  0.00000000  0.44242100  0.25000000  1
  Si  Si6  1  0.00000000  0.55757900  0.75000000  1
  Si  Si7  1  0.50000000  0.94242100  0.25000000  1
