# generated using pymatgen
data_DySi
_symmetry_space_group_name_H-M   'P 1'
_cell_length_a   4.28546200
_cell_length_b   10.53960000
_cell_length_c   3.83474500
_cell_angle_alpha   90.00000000
_cell_angle_beta   90.00000000
_cell_angle_gamma   90.00000000
_symmetry_Int_Tables_number   1
_chemical_formula_structural   DySi
_chemical_formula_sum   'Dy4 Si4'
_cell_volume   173.20413946
_cell_formula_units_Z   4
loop_
 _symmetry_equiv_pos_site_id
 _symmetry_equiv_pos_as_xyz
  1  'x, y, z'
loop_
 _atom_site_type_symbol
 _atom_site_label
 _atom_site_symmetry_multiplicity
 _atom_site_fract_x
 _atom_site_fract_y
 _atom_site_fract_z
 _atom_site_occupancy
  Dy  Dy0  1  0.50000000  0.35986200  0.75000000  1
  Dy  Dy1  1  0.00000000  0.14013800  0.25000000  1
  Dy  Dy2  1  0.00000000  0.85986200  0.75000000  1
  Dy  Dy3  1  0.50000000  0.64013800  0.25000000  1
  Si  Si4  1  0.50000000  0.07626600  0.75000000  1
  Si  Si5  1  0.00000000  0.42373400  0.25000000  1
  Si  Si6  1  0.00000000  0.57626600  0.75000000  1
  Si  Si7  1  0.50000000  0.92373400  0.25000000  1
