# generated using pymatgen
data_Nb5Sb4
_symmetry_space_group_name_H-M   'P 1'
_cell_length_a   10.42043600
_cell_length_b   10.42043600
_cell_length_c   3.58550600
_cell_angle_alpha   90.00000000
_cell_angle_beta   90.00000000
_cell_angle_gamma   90.00000000
_symmetry_Int_Tables_number   1
_chemical_formula_structural   Nb5Sb4
_chemical_formula_sum   'Nb10 Sb8'
_cell_volume   389.33391311
_cell_formula_units_Z   2
loop_
 _symmetry_equiv_pos_site_id
 _symmetry_equiv_pos_as_xyz
  1  'x, y, z'
loop_
 _atom_site_type_symbol
 _atom_site_label
 _atom_site_symmetry_multiplicity
 _atom_site_fract_x
 _atom_site_fract_y
 _atom_site_fract_z
 _atom_site_occupancy
  Nb  Nb0  1  0.50000000  0.50000000  0.50000000  1
  Nb  Nb1  1  0.31172600  0.37247700  0.00000000  1
  Nb  Nb2  1  0.12752300  0.81172600  0.50000000  1
  Nb  Nb3  1  0.87247700  0.18827400  0.50000000  1
  Nb  Nb4  1  0.68827400  0.62752300  0.00000000  1
  Nb  Nb5  1  0.00000000  0.00000000  0.00000000  1
  Nb  Nb6  1  0.81172600  0.87247700  0.50000000  1
  Nb  Nb7  1  0.62752300  0.31172600  0.00000000  1
  Nb  Nb8  1  0.37247700  0.68827400  0.00000000  1
  Nb  Nb9  1  0.18827400  0.12752300  0.50000000  1
  Sb  Sb10  1  0.05314250  0.29327750  0.00000000  1
  Sb  Sb11  1  0.20672250  0.55314250  0.50000000  1
  Sb  Sb12  1  0.79327750  0.44685750  0.50000000  1
  Sb  Sb13  1  0.94685750  0.70672250  0.00000000  1
  Sb  Sb14  1  0.55314250  0.79327750  0.50000000  1
  Sb  Sb15  1  0.70672250  0.05314250  0.00000000  1
  Sb  Sb16  1  0.29327750  0.94685750  0.00000000  1
  Sb  Sb17  1  0.44685750  0.20672250  0.50000000  1
