# generated using pymatgen
data_NiP3W2
_symmetry_space_group_name_H-M   'P 1'
_cell_length_a   12.67283400
_cell_length_b   3.25646800
_cell_length_c   8.53993978
_cell_angle_alpha   90.00000000
_cell_angle_beta   105.03268915
_cell_angle_gamma   90.00000000
_symmetry_Int_Tables_number   1
_chemical_formula_structural   NiP3W2
_chemical_formula_sum   'Ni4 P12 W8'
_cell_volume   340.37110100
_cell_formula_units_Z   4
loop_
 _symmetry_equiv_pos_site_id
 _symmetry_equiv_pos_as_xyz
  1  'x, y, z'
loop_
 _atom_site_type_symbol
 _atom_site_label
 _atom_site_symmetry_multiplicity
 _atom_site_fract_x
 _atom_site_fract_y
 _atom_site_fract_z
 _atom_site_occupancy
  Ni  Ni0  1  0.00000000  0.00000000  0.50000000  1
  Ni  Ni1  1  0.00000000  0.50000000  0.00000000  1
  Ni  Ni2  1  0.50000000  0.50000000  0.50000000  1
  Ni  Ni3  1  0.50000000  0.00000000  0.00000000  1
  P  P4  1  0.87401700  0.50000000  0.43481900  1
  P  P5  1  0.62598300  0.00000000  0.56518100  1
  P  P6  1  0.68052700  0.00000000  0.15466800  1
  P  P7  1  0.51875500  0.50000000  0.80682300  1
  P  P8  1  0.98124500  0.00000000  0.19317700  1
  P  P9  1  0.81947300  0.50000000  0.84533200  1
  P  P10  1  0.37401700  0.00000000  0.43481900  1
  P  P11  1  0.12598300  0.50000000  0.56518100  1
  P  P12  1  0.18052700  0.50000000  0.15466800  1
  P  P13  1  0.01875500  0.00000000  0.80682300  1
  P  P14  1  0.48124500  0.50000000  0.19317700  1
  P  P15  1  0.31947300  0.00000000  0.84533200  1
  W  W16  1  0.82550600  0.00000000  0.62506400  1
  W  W17  1  0.67449400  0.50000000  0.37493600  1
  W  W18  1  0.67673200  0.00000000  0.86809700  1
  W  W19  1  0.82326800  0.50000000  0.13190300  1
  W  W20  1  0.32550600  0.50000000  0.62506400  1
  W  W21  1  0.17449400  0.00000000  0.37493600  1
  W  W22  1  0.17673200  0.50000000  0.86809700  1
  W  W23  1  0.32326800  0.00000000  0.13190300  1
