# generated using pymatgen
data_Al2B2Ru3
_symmetry_space_group_name_H-M   'P 1'
_cell_length_a   3.03895200
_cell_length_b   17.82633200
_cell_length_c   2.94262100
_cell_angle_alpha   90.00000000
_cell_angle_beta   90.00000000
_cell_angle_gamma   90.00000000
_symmetry_Int_Tables_number   1
_chemical_formula_structural   Al2B2Ru3
_chemical_formula_sum   'Al4 B4 Ru6'
_cell_volume   159.41168821
_cell_formula_units_Z   2
loop_
 _symmetry_equiv_pos_site_id
 _symmetry_equiv_pos_as_xyz
  1  'x, y, z'
loop_
 _atom_site_type_symbol
 _atom_site_label
 _atom_site_symmetry_multiplicity
 _atom_site_fract_x
 _atom_site_fract_y
 _atom_site_fract_z
 _atom_site_occupancy
  Al  Al0  1  0.50000000  0.07903500  0.50000000  1
  Al  Al1  1  0.00000000  0.42096500  0.50000000  1
  Al  Al2  1  0.00000000  0.57903500  0.50000000  1
  Al  Al3  1  0.50000000  0.92096500  0.50000000  1
  B  B4  1  0.50000000  0.22235800  0.50000000  1
  B  B5  1  0.00000000  0.27764200  0.50000000  1
  B  B6  1  0.00000000  0.72235800  0.50000000  1
  B  B7  1  0.50000000  0.77764200  0.50000000  1
  Ru  Ru8  1  0.50000000  0.32504800  0.00000000  1
  Ru  Ru9  1  0.00000000  0.00000000  0.00000000  1
  Ru  Ru10  1  0.00000000  0.17495200  0.00000000  1
  Ru  Ru11  1  0.00000000  0.82504800  0.00000000  1
  Ru  Ru12  1  0.50000000  0.50000000  0.00000000  1
  Ru  Ru13  1  0.50000000  0.67495200  0.00000000  1
