# generated using pymatgen
data_Y2B3C2
_symmetry_space_group_name_H-M   'P 1'
_cell_length_a   3.39597400
_cell_length_b   13.73901000
_cell_length_c   3.65218500
_cell_angle_alpha   90.00000000
_cell_angle_beta   90.00000000
_cell_angle_gamma   90.00000000
_symmetry_Int_Tables_number   1
_chemical_formula_structural   Y2B3C2
_chemical_formula_sum   'Y4 B6 C4'
_cell_volume   170.40116697
_cell_formula_units_Z   2
loop_
 _symmetry_equiv_pos_site_id
 _symmetry_equiv_pos_as_xyz
  1  'x, y, z'
loop_
 _atom_site_type_symbol
 _atom_site_label
 _atom_site_symmetry_multiplicity
 _atom_site_fract_x
 _atom_site_fract_y
 _atom_site_fract_z
 _atom_site_occupancy
  Y  Y0  1  0.00000000  0.63627300  0.50000000  1
  Y  Y1  1  0.50000000  0.86372700  0.50000000  1
  Y  Y2  1  0.50000000  0.13627300  0.50000000  1
  Y  Y3  1  0.00000000  0.36372700  0.50000000  1
  B  B4  1  0.00000000  0.78272500  0.00000000  1
  B  B5  1  0.00000000  0.00000000  0.00000000  1
  B  B6  1  0.50000000  0.71727500  0.00000000  1
  B  B7  1  0.50000000  0.28272500  0.00000000  1
  B  B8  1  0.50000000  0.50000000  0.00000000  1
  B  B9  1  0.00000000  0.21727500  0.00000000  1
  C  C10  1  0.00000000  0.89504400  0.00000000  1
  C  C11  1  0.50000000  0.60495600  0.00000000  1
  C  C12  1  0.50000000  0.39504400  0.00000000  1
  C  C13  1  0.00000000  0.10495600  0.00000000  1
