# generated using pymatgen
data_PdPbO2
_symmetry_space_group_name_H-M   'P 1'
_cell_length_a   4.78132800
_cell_length_b   5.52875400
_cell_length_c   9.59367800
_cell_angle_alpha   90.00000000
_cell_angle_beta   90.00000000
_cell_angle_gamma   90.00000000
_symmetry_Int_Tables_number   1
_chemical_formula_structural   PdPbO2
_chemical_formula_sum   'Pd4 Pb4 O8'
_cell_volume   253.60682781
_cell_formula_units_Z   4
loop_
 _symmetry_equiv_pos_site_id
 _symmetry_equiv_pos_as_xyz
  1  'x, y, z'
loop_
 _atom_site_type_symbol
 _atom_site_label
 _atom_site_symmetry_multiplicity
 _atom_site_fract_x
 _atom_site_fract_y
 _atom_site_fract_z
 _atom_site_occupancy
  Pd  Pd0  1  0.50000000  0.00000000  0.00000000  1
  Pd  Pd1  1  0.00000000  0.50000000  0.00000000  1
  Pd  Pd2  1  0.00000000  0.50000000  0.50000000  1
  Pd  Pd3  1  0.50000000  0.00000000  0.50000000  1
  Pb  Pb4  1  0.97816400  0.00000000  0.25000000  1
  Pb  Pb5  1  0.52183600  0.50000000  0.25000000  1
  Pb  Pb6  1  0.47816400  0.50000000  0.75000000  1
  Pb  Pb7  1  0.02183600  0.00000000  0.75000000  1
  O  O8  1  0.25000000  0.75000000  0.09979100  1
  O  O9  1  0.25000000  0.25000000  0.40020900  1
  O  O10  1  0.25000000  0.25000000  0.09979100  1
  O  O11  1  0.25000000  0.75000000  0.40020900  1
  O  O12  1  0.75000000  0.25000000  0.59979100  1
  O  O13  1  0.75000000  0.75000000  0.90020900  1
  O  O14  1  0.75000000  0.75000000  0.59979100  1
  O  O15  1  0.75000000  0.25000000  0.90020900  1
