# generated using pymatgen
data_BaGe2
_symmetry_space_group_name_H-M   'P 1'
_cell_length_a   4.82628000
_cell_length_b   4.82628000
_cell_length_c   14.91122400
_cell_angle_alpha   90.00000000
_cell_angle_beta   90.00000000
_cell_angle_gamma   90.00000000
_symmetry_Int_Tables_number   1
_chemical_formula_structural   BaGe2
_chemical_formula_sum   'Ba4 Ge8'
_cell_volume   347.32682210
_cell_formula_units_Z   4
loop_
 _symmetry_equiv_pos_site_id
 _symmetry_equiv_pos_as_xyz
  1  'x, y, z'
loop_
 _atom_site_type_symbol
 _atom_site_label
 _atom_site_symmetry_multiplicity
 _atom_site_fract_x
 _atom_site_fract_y
 _atom_site_fract_z
 _atom_site_occupancy
  Ba  Ba0  1  0.50000000  0.50000000  0.00000000  1
  Ba  Ba1  1  0.50000000  0.00000000  0.25000000  1
  Ba  Ba2  1  0.00000000  0.00000000  0.50000000  1
  Ba  Ba3  1  0.00000000  0.50000000  0.75000000  1
  Ge  Ge4  1  0.00000000  0.50000000  0.33312100  1
  Ge  Ge5  1  0.00000000  0.00000000  0.08312100  1
  Ge  Ge6  1  0.00000000  0.50000000  0.16687900  1
  Ge  Ge7  1  0.50000000  0.50000000  0.41687900  1
  Ge  Ge8  1  0.50000000  0.00000000  0.83312100  1
  Ge  Ge9  1  0.50000000  0.50000000  0.58312100  1
  Ge  Ge10  1  0.50000000  0.00000000  0.66687900  1
  Ge  Ge11  1  0.00000000  0.00000000  0.91687900  1
