# generated using pymatgen
data_Si2NiP3
_symmetry_space_group_name_H-M   'P 1'
_cell_length_a   3.51721600
_cell_length_b   5.32754200
_cell_length_c   11.15407200
_cell_angle_alpha   90.00000000
_cell_angle_beta   90.00000000
_cell_angle_gamma   90.00000000
_symmetry_Int_Tables_number   1
_chemical_formula_structural   Si2NiP3
_chemical_formula_sum   'Si4 Ni2 P6'
_cell_volume   209.00629460
_cell_formula_units_Z   2
loop_
 _symmetry_equiv_pos_site_id
 _symmetry_equiv_pos_as_xyz
  1  'x, y, z'
loop_
 _atom_site_type_symbol
 _atom_site_label
 _atom_site_symmetry_multiplicity
 _atom_site_fract_x
 _atom_site_fract_y
 _atom_site_fract_z
 _atom_site_occupancy
  Si  Si0  1  0.00000000  0.24242550  0.16520650  1
  Si  Si1  1  0.50000000  0.74242550  0.33479350  1
  Si  Si2  1  0.50000000  0.74242550  0.66520650  1
  Si  Si3  1  0.00000000  0.24242550  0.83479350  1
  Ni  Ni4  1  0.50000000  0.75235200  0.00000000  1
  Ni  Ni5  1  0.00000000  0.25235200  0.50000000  1
  P  P6  1  0.00000000  0.99618000  0.00000000  1
  P  P7  1  0.50000000  0.51160850  0.16209550  1
  P  P8  1  0.00000000  0.01160850  0.33790450  1
  P  P9  1  0.50000000  0.49618000  0.50000000  1
  P  P10  1  0.00000000  0.01160850  0.66209550  1
  P  P11  1  0.50000000  0.51160850  0.83790450  1
