# generated using pymatgen
data_LiCe2HO3
_symmetry_space_group_name_H-M   'P 1'
_cell_length_a   3.49950600
_cell_length_b   3.75013000
_cell_length_c   12.55397200
_cell_angle_alpha   90.00000000
_cell_angle_beta   90.00000000
_cell_angle_gamma   90.00000000
_symmetry_Int_Tables_number   1
_chemical_formula_structural   LiCe2HO3
_chemical_formula_sum   'Li2 Ce4 H2 O6'
_cell_volume   164.75333752
_cell_formula_units_Z   2
loop_
 _symmetry_equiv_pos_site_id
 _symmetry_equiv_pos_as_xyz
  1  'x, y, z'
loop_
 _atom_site_type_symbol
 _atom_site_label
 _atom_site_symmetry_multiplicity
 _atom_site_fract_x
 _atom_site_fract_y
 _atom_site_fract_z
 _atom_site_occupancy
  Li  Li0  1  0.00000000  0.00000000  0.00000000  1
  Li  Li1  1  0.50000000  0.50000000  0.50000000  1
  Ce  Ce2  1  0.50000000  0.50000000  0.86178500  1
  Ce  Ce3  1  0.00000000  0.00000000  0.63821500  1
  Ce  Ce4  1  0.00000000  0.00000000  0.36178500  1
  Ce  Ce5  1  0.50000000  0.50000000  0.13821500  1
  H  H6  1  0.50000000  0.00000000  0.00000000  1
  H  H7  1  0.00000000  0.50000000  0.50000000  1
  O  O8  1  0.00000000  0.50000000  0.00000000  1
  O  O9  1  0.00000000  0.00000000  0.82306200  1
  O  O10  1  0.50000000  0.50000000  0.67693800  1
  O  O11  1  0.50000000  0.00000000  0.50000000  1
  O  O12  1  0.50000000  0.50000000  0.32306200  1
  O  O13  1  0.00000000  0.00000000  0.17693800  1
