# generated using pymatgen
data_V3Sb2
_symmetry_space_group_name_H-M   'P 1'
_cell_length_a   5.51818180
_cell_length_b   5.51818180
_cell_length_c   20.48337473
_cell_angle_alpha   90.00000000
_cell_angle_beta   90.00000000
_cell_angle_gamma   120.00000000
_symmetry_Int_Tables_number   1
_chemical_formula_structural   V3Sb2
_chemical_formula_sum   'V18 Sb12'
_cell_volume   540.16215164
_cell_formula_units_Z   6
loop_
 _symmetry_equiv_pos_site_id
 _symmetry_equiv_pos_as_xyz
  1  'x, y, z'
loop_
 _atom_site_type_symbol
 _atom_site_label
 _atom_site_symmetry_multiplicity
 _atom_site_fract_x
 _atom_site_fract_y
 _atom_site_fract_z
 _atom_site_occupancy
  V  V0  1  0.17486400  0.82513600  0.22280700  1
  V  V1  1  0.17486400  0.34972800  0.22280700  1
  V  V2  1  0.65027200  0.82513600  0.22280700  1
  V  V3  1  0.49180267  0.50819733  0.11052633  1
  V  V4  1  0.49180267  0.98360533  0.11052633  1
  V  V5  1  0.01639467  0.50819733  0.11052633  1
  V  V6  1  0.84153067  0.15846933  0.55614033  1
  V  V7  1  0.84153067  0.68306133  0.55614033  1
  V  V8  1  0.31693867  0.15846933  0.55614033  1
  V  V9  1  0.15846933  0.84153067  0.44385967  1
  V  V10  1  0.15846933  0.31693867  0.44385967  1
  V  V11  1  0.68306133  0.84153067  0.44385967  1
  V  V12  1  0.50819733  0.49180267  0.88947367  1
  V  V13  1  0.50819733  0.01639467  0.88947367  1
  V  V14  1  0.98360533  0.49180267  0.88947367  1
  V  V15  1  0.82513600  0.17486400  0.77719300  1
  V  V16  1  0.82513600  0.65027200  0.77719300  1
  V  V17  1  0.34972800  0.17486400  0.77719300  1
  Sb  Sb18  1  0.66666667  0.33333333  0.22331533  1
  Sb  Sb19  1  0.00000000  0.00000000  0.11001800  1
  Sb  Sb20  1  0.66666667  0.33333333  0.00201833  1
  Sb  Sb21  1  0.00000000  0.00000000  0.33131500  1
  Sb  Sb22  1  0.33333333  0.66666667  0.55664867  1
  Sb  Sb23  1  0.66666667  0.33333333  0.44335133  1
  Sb  Sb24  1  0.33333333  0.66666667  0.33535167  1
  Sb  Sb25  1  0.66666667  0.33333333  0.66464833  1
  Sb  Sb26  1  0.00000000  0.00000000  0.88998200  1
  Sb  Sb27  1  0.33333333  0.66666667  0.77668467  1
  Sb  Sb28  1  0.00000000  0.00000000  0.66868500  1
  Sb  Sb29  1  0.33333333  0.66666667  0.99798167  1
