# generated using pymatgen
data_Ca3Cu2(ClO2)2
_symmetry_space_group_name_H-M   'P 1'
_cell_length_a   3.87748000
_cell_length_b   3.87748000
_cell_length_c   21.67595000
_cell_angle_alpha   90.00000000
_cell_angle_beta   90.00000000
_cell_angle_gamma   90.00000000
_symmetry_Int_Tables_number   1
_chemical_formula_structural   Ca3Cu2(ClO2)2
_chemical_formula_sum   'Ca6 Cu4 Cl4 O8'
_cell_volume   325.89468179
_cell_formula_units_Z   2
loop_
 _symmetry_equiv_pos_site_id
 _symmetry_equiv_pos_as_xyz
  1  'x, y, z'
loop_
 _atom_site_type_symbol
 _atom_site_label
 _atom_site_symmetry_multiplicity
 _atom_site_fract_x
 _atom_site_fract_y
 _atom_site_fract_z
 _atom_site_occupancy
  Ca  Ca0  1  0.00000000  0.00000000  0.00000000  1
  Ca  Ca1  1  0.00000000  0.00000000  0.14707700  1
  Ca  Ca2  1  0.50000000  0.50000000  0.35292300  1
  Ca  Ca3  1  0.50000000  0.50000000  0.50000000  1
  Ca  Ca4  1  0.50000000  0.50000000  0.64707700  1
  Ca  Ca5  1  0.00000000  0.00000000  0.85292300  1
  Cu  Cu6  1  0.00000000  0.00000000  0.42913000  1
  Cu  Cu7  1  0.50000000  0.50000000  0.07087000  1
  Cu  Cu8  1  0.50000000  0.50000000  0.92913000  1
  Cu  Cu9  1  0.00000000  0.00000000  0.57087000  1
  Cl  Cl10  1  0.00000000  0.00000000  0.29851900  1
  Cl  Cl11  1  0.50000000  0.50000000  0.20148100  1
  Cl  Cl12  1  0.50000000  0.50000000  0.79851900  1
  Cl  Cl13  1  0.00000000  0.00000000  0.70148100  1
  O  O14  1  0.50000000  0.00000000  0.42506600  1
  O  O15  1  0.00000000  0.50000000  0.42506600  1
  O  O16  1  0.50000000  0.00000000  0.07493400  1
  O  O17  1  0.00000000  0.50000000  0.07493400  1
  O  O18  1  0.00000000  0.50000000  0.92506600  1
  O  O19  1  0.50000000  0.00000000  0.92506600  1
  O  O20  1  0.00000000  0.50000000  0.57493400  1
  O  O21  1  0.50000000  0.00000000  0.57493400  1
