# generated using pymatgen
data_DyGe
_symmetry_space_group_name_H-M   'P 1'
_cell_length_a   4.30600200
_cell_length_b   10.75366600
_cell_length_c   3.96400500
_cell_angle_alpha   90.00000000
_cell_angle_beta   90.00000000
_cell_angle_gamma   90.00000000
_symmetry_Int_Tables_number   1
_chemical_formula_structural   DyGe
_chemical_formula_sum   'Dy4 Ge4'
_cell_volume   183.55446968
_cell_formula_units_Z   4
loop_
 _symmetry_equiv_pos_site_id
 _symmetry_equiv_pos_as_xyz
  1  'x, y, z'
loop_
 _atom_site_type_symbol
 _atom_site_label
 _atom_site_symmetry_multiplicity
 _atom_site_fract_x
 _atom_site_fract_y
 _atom_site_fract_z
 _atom_site_occupancy
  Dy  Dy0  1  0.50000000  0.36169500  0.75000000  1
  Dy  Dy1  1  0.00000000  0.13830500  0.25000000  1
  Dy  Dy2  1  0.00000000  0.86169500  0.75000000  1
  Dy  Dy3  1  0.50000000  0.63830500  0.25000000  1
  Ge  Ge4  1  0.50000000  0.08527900  0.75000000  1
  Ge  Ge5  1  0.00000000  0.41472100  0.25000000  1
  Ge  Ge6  1  0.00000000  0.58527900  0.75000000  1
  Ge  Ge7  1  0.50000000  0.91472100  0.25000000  1
