# generated using pymatgen
data_LiSn4Ir
_symmetry_space_group_name_H-M   'P 1'
_cell_length_a   6.68209400
_cell_length_b   6.68209400
_cell_length_c   11.52002600
_cell_angle_alpha   90.00000000
_cell_angle_beta   90.00000000
_cell_angle_gamma   90.00000000
_symmetry_Int_Tables_number   1
_chemical_formula_structural   LiSn4Ir
_chemical_formula_sum   'Li4 Sn16 Ir4'
_cell_volume   514.37354110
_cell_formula_units_Z   4
loop_
 _symmetry_equiv_pos_site_id
 _symmetry_equiv_pos_as_xyz
  1  'x, y, z'
loop_
 _atom_site_type_symbol
 _atom_site_label
 _atom_site_symmetry_multiplicity
 _atom_site_fract_x
 _atom_site_fract_y
 _atom_site_fract_z
 _atom_site_occupancy
  Li  Li0  1  0.50000000  0.50000000  0.00000000  1
  Li  Li1  1  0.00000000  0.00000000  0.00000000  1
  Li  Li2  1  0.00000000  0.00000000  0.50000000  1
  Li  Li3  1  0.50000000  0.50000000  0.50000000  1
  Sn  Sn4  1  0.15856600  0.34143400  0.36485700  1
  Sn  Sn5  1  0.65856600  0.15856600  0.36485700  1
  Sn  Sn6  1  0.34143400  0.84143400  0.36485700  1
  Sn  Sn7  1  0.15856600  0.65856600  0.13514300  1
  Sn  Sn8  1  0.84143400  0.34143400  0.13514300  1
  Sn  Sn9  1  0.34143400  0.15856600  0.13514300  1
  Sn  Sn10  1  0.65856600  0.84143400  0.13514300  1
  Sn  Sn11  1  0.84143400  0.65856600  0.36485700  1
  Sn  Sn12  1  0.65856600  0.84143400  0.86485700  1
  Sn  Sn13  1  0.15856600  0.65856600  0.86485700  1
  Sn  Sn14  1  0.84143400  0.34143400  0.86485700  1
  Sn  Sn15  1  0.65856600  0.15856600  0.63514300  1
  Sn  Sn16  1  0.34143400  0.84143400  0.63514300  1
  Sn  Sn17  1  0.84143400  0.65856600  0.63514300  1
  Sn  Sn18  1  0.15856600  0.34143400  0.63514300  1
  Sn  Sn19  1  0.34143400  0.15856600  0.86485700  1
  Ir  Ir20  1  0.50000000  0.50000000  0.25000000  1
  Ir  Ir21  1  0.00000000  0.00000000  0.25000000  1
  Ir  Ir22  1  0.00000000  0.00000000  0.75000000  1
  Ir  Ir23  1  0.50000000  0.50000000  0.75000000  1
