# generated using pymatgen
data_Ta2Si
_symmetry_space_group_name_H-M   'P 1'
_cell_length_a   6.19280800
_cell_length_b   6.19280800
_cell_length_c   5.08810800
_cell_angle_alpha   90.00000000
_cell_angle_beta   90.00000000
_cell_angle_gamma   90.00000000
_symmetry_Int_Tables_number   1
_chemical_formula_structural   Ta2Si
_chemical_formula_sum   'Ta8 Si4'
_cell_volume   195.13337316
_cell_formula_units_Z   4
loop_
 _symmetry_equiv_pos_site_id
 _symmetry_equiv_pos_as_xyz
  1  'x, y, z'
loop_
 _atom_site_type_symbol
 _atom_site_label
 _atom_site_symmetry_multiplicity
 _atom_site_fract_x
 _atom_site_fract_y
 _atom_site_fract_z
 _atom_site_occupancy
  Ta  Ta0  1  0.66330950  0.16330950  0.00000000  1
  Ta  Ta1  1  0.83669050  0.33669050  0.50000000  1
  Ta  Ta2  1  0.33669050  0.16330950  0.50000000  1
  Ta  Ta3  1  0.16330950  0.33669050  0.00000000  1
  Ta  Ta4  1  0.16330950  0.66330950  0.50000000  1
  Ta  Ta5  1  0.33669050  0.83669050  0.00000000  1
  Ta  Ta6  1  0.83669050  0.66330950  0.00000000  1
  Ta  Ta7  1  0.66330950  0.83669050  0.50000000  1
  Si  Si8  1  0.00000000  0.00000000  0.75000000  1
  Si  Si9  1  0.00000000  0.00000000  0.25000000  1
  Si  Si10  1  0.50000000  0.50000000  0.25000000  1
  Si  Si11  1  0.50000000  0.50000000  0.75000000  1
