# generated using pymatgen
data_UC2
_symmetry_space_group_name_H-M   'P 1'
_cell_length_a   3.51928800
_cell_length_b   3.51928800
_cell_length_c   5.96558200
_cell_angle_alpha   90.00000000
_cell_angle_beta   90.00000000
_cell_angle_gamma   90.00000000
_symmetry_Int_Tables_number   1
_chemical_formula_structural   UC2
_chemical_formula_sum   'U2 C4'
_cell_volume   73.88604788
_cell_formula_units_Z   2
loop_
 _symmetry_equiv_pos_site_id
 _symmetry_equiv_pos_as_xyz
  1  'x, y, z'
loop_
 _atom_site_type_symbol
 _atom_site_label
 _atom_site_symmetry_multiplicity
 _atom_site_fract_x
 _atom_site_fract_y
 _atom_site_fract_z
 _atom_site_occupancy
  U  U0  1  0.00000000  0.00000000  0.00000000  1
  U  U1  1  0.50000000  0.50000000  0.50000000  1
  C  C2  1  0.50000000  0.50000000  0.11565700  1
  C  C3  1  0.00000000  0.00000000  0.38434300  1
  C  C4  1  0.00000000  0.00000000  0.61565700  1
  C  C5  1  0.50000000  0.50000000  0.88434300  1
