# generated using pymatgen
data_ThB2C
_symmetry_space_group_name_H-M   'P 1'
_cell_length_a   6.69563447
_cell_length_b   6.69563447
_cell_length_c   11.47562311
_cell_angle_alpha   90.00000000
_cell_angle_beta   90.00000000
_cell_angle_gamma   120.00000000
_symmetry_Int_Tables_number   1
_chemical_formula_structural   ThB2C
_chemical_formula_sum   'Th9 B18 C9'
_cell_volume   445.54377550
_cell_formula_units_Z   9
loop_
 _symmetry_equiv_pos_site_id
 _symmetry_equiv_pos_as_xyz
  1  'x, y, z'
loop_
 _atom_site_type_symbol
 _atom_site_label
 _atom_site_symmetry_multiplicity
 _atom_site_fract_x
 _atom_site_fract_y
 _atom_site_fract_z
 _atom_site_occupancy
  Th  Th0  1  0.33333333  0.66666667  0.35086367  1
  Th  Th1  1  0.33333333  0.66666667  0.98246967  1
  Th  Th2  1  0.00000000  0.00000000  0.00000000  1
  Th  Th3  1  0.00000000  0.00000000  0.68419700  1
  Th  Th4  1  0.00000000  0.00000000  0.31580300  1
  Th  Th5  1  0.66666667  0.33333333  0.33333333  1
  Th  Th6  1  0.66666667  0.33333333  0.01753033  1
  Th  Th7  1  0.66666667  0.33333333  0.64913633  1
  Th  Th8  1  0.33333333  0.66666667  0.66666667  1
  B  B9  1  0.33333333  0.94258367  0.16666667  1
  B  B10  1  0.05741633  0.39074967  0.16666667  1
  B  B11  1  0.60925033  0.66666667  0.16666667  1
  B  B12  1  0.33333333  0.39074967  0.16666667  1
  B  B13  1  0.05741633  0.66666667  0.16666667  1
  B  B14  1  0.60925033  0.94258367  0.16666667  1
  B  B15  1  0.00000000  0.27591700  0.50000000  1
  B  B16  1  0.72408300  0.72408300  0.50000000  1
  B  B17  1  0.27591700  0.00000000  0.50000000  1
  B  B18  1  0.00000000  0.72408300  0.50000000  1
  B  B19  1  0.72408300  0.00000000  0.50000000  1
  B  B20  1  0.27591700  0.27591700  0.50000000  1
  B  B21  1  0.66666667  0.60925033  0.83333333  1
  B  B22  1  0.39074967  0.05741633  0.83333333  1
  B  B23  1  0.94258367  0.33333333  0.83333333  1
  B  B24  1  0.66666667  0.05741633  0.83333333  1
  B  B25  1  0.39074967  0.33333333  0.83333333  1
  B  B26  1  0.94258367  0.60925033  0.83333333  1
  C  C27  1  0.16666667  0.33333333  0.83333333  1
  C  C28  1  0.83333333  0.16666667  0.16666667  1
  C  C29  1  0.33333333  0.16666667  0.16666667  1
  C  C30  1  0.83333333  0.66666667  0.16666667  1
  C  C31  1  0.50000000  0.50000000  0.50000000  1
  C  C32  1  0.00000000  0.50000000  0.50000000  1
  C  C33  1  0.50000000  0.00000000  0.50000000  1
  C  C34  1  0.16666667  0.83333333  0.83333333  1
  C  C35  1  0.66666667  0.83333333  0.83333333  1
