# generated using pymatgen
data_ZrV2
_symmetry_space_group_name_H-M   'P 1'
_cell_length_a   7.36033400
_cell_length_b   7.36033400
_cell_length_c   7.36033400
_cell_angle_alpha   90.00000000
_cell_angle_beta   90.00000000
_cell_angle_gamma   90.00000000
_symmetry_Int_Tables_number   1
_chemical_formula_structural   ZrV2
_chemical_formula_sum   'Zr8 V16'
_cell_volume   398.74253640
_cell_formula_units_Z   8
loop_
 _symmetry_equiv_pos_site_id
 _symmetry_equiv_pos_as_xyz
  1  'x, y, z'
loop_
 _atom_site_type_symbol
 _atom_site_label
 _atom_site_symmetry_multiplicity
 _atom_site_fract_x
 _atom_site_fract_y
 _atom_site_fract_z
 _atom_site_occupancy
  Zr  Zr0  1  0.25000000  0.75000000  0.25000000  1
  Zr  Zr1  1  0.00000000  0.00000000  0.50000000  1
  Zr  Zr2  1  0.25000000  0.25000000  0.75000000  1
  Zr  Zr3  1  0.00000000  0.50000000  0.00000000  1
  Zr  Zr4  1  0.75000000  0.75000000  0.75000000  1
  Zr  Zr5  1  0.50000000  0.00000000  0.00000000  1
  Zr  Zr6  1  0.75000000  0.25000000  0.25000000  1
  Zr  Zr7  1  0.50000000  0.50000000  0.50000000  1
  V  V8  1  0.87500000  0.87500000  0.12500000  1
  V  V9  1  0.37500000  0.12500000  0.37500000  1
  V  V10  1  0.62500000  0.87500000  0.37500000  1
  V  V11  1  0.12500000  0.12500000  0.12500000  1
  V  V12  1  0.87500000  0.37500000  0.62500000  1
  V  V13  1  0.37500000  0.62500000  0.87500000  1
  V  V14  1  0.62500000  0.37500000  0.87500000  1
  V  V15  1  0.12500000  0.62500000  0.62500000  1
  V  V16  1  0.37500000  0.87500000  0.62500000  1
  V  V17  1  0.87500000  0.12500000  0.87500000  1
  V  V18  1  0.12500000  0.87500000  0.87500000  1
  V  V19  1  0.62500000  0.12500000  0.62500000  1
  V  V20  1  0.37500000  0.37500000  0.12500000  1
  V  V21  1  0.87500000  0.62500000  0.37500000  1
  V  V22  1  0.12500000  0.37500000  0.37500000  1
  V  V23  1  0.62500000  0.62500000  0.12500000  1
