# generated using pymatgen
data_Sn7Ir5
_symmetry_space_group_name_H-M   'P 1'
_cell_length_a   8.67671800
_cell_length_b   8.67671800
_cell_length_c   6.54765400
_cell_angle_alpha   90.00000000
_cell_angle_beta   90.00000000
_cell_angle_gamma   90.00000000
_symmetry_Int_Tables_number   1
_chemical_formula_structural   Sn7Ir5
_chemical_formula_sum   'Sn14 Ir10'
_cell_volume   492.94298127
_cell_formula_units_Z   2
loop_
 _symmetry_equiv_pos_site_id
 _symmetry_equiv_pos_as_xyz
  1  'x, y, z'
loop_
 _atom_site_type_symbol
 _atom_site_label
 _atom_site_symmetry_multiplicity
 _atom_site_fract_x
 _atom_site_fract_y
 _atom_site_fract_z
 _atom_site_occupancy
  Sn  Sn0  1  0.28549050  0.71450950  0.98854250  1
  Sn  Sn1  1  0.21450950  0.21450950  0.48854250  1
  Sn  Sn2  1  0.28549050  0.28549050  0.98854250  1
  Sn  Sn3  1  0.21450950  0.78549050  0.48854250  1
  Sn  Sn4  1  0.50000000  0.00000000  0.08506900  1
  Sn  Sn5  1  0.00000000  0.00000000  0.09896800  1
  Sn  Sn6  1  0.50000000  0.00000000  0.58506900  1
  Sn  Sn7  1  0.78549050  0.21450950  0.48854250  1
  Sn  Sn8  1  0.71450950  0.71450950  0.98854250  1
  Sn  Sn9  1  0.78549050  0.78549050  0.48854250  1
  Sn  Sn10  1  0.71450950  0.28549050  0.98854250  1
  Sn  Sn11  1  0.00000000  0.50000000  0.58506900  1
  Sn  Sn12  1  0.50000000  0.50000000  0.59896800  1
  Sn  Sn13  1  0.00000000  0.50000000  0.08506900  1
  Ir  Ir14  1  0.24348400  0.00000000  0.82264500  1
  Ir  Ir15  1  0.50000000  0.25651600  0.32264500  1
  Ir  Ir16  1  0.50000000  0.74348400  0.32264500  1
  Ir  Ir17  1  0.75651600  0.00000000  0.82264500  1
  Ir  Ir18  1  0.00000000  0.00000000  0.50014400  1
  Ir  Ir19  1  0.74348400  0.50000000  0.32264500  1
  Ir  Ir20  1  0.00000000  0.75651600  0.82264500  1
  Ir  Ir21  1  0.00000000  0.24348400  0.82264500  1
  Ir  Ir22  1  0.25651600  0.50000000  0.32264500  1
  Ir  Ir23  1  0.50000000  0.50000000  0.00014400  1
