# generated using pymatgen
data_HfAl
_symmetry_space_group_name_H-M   'P 1'
_cell_length_a   3.25251200
_cell_length_b   10.88654200
_cell_length_c   4.30016400
_cell_angle_alpha   90.00000000
_cell_angle_beta   90.00000000
_cell_angle_gamma   90.00000000
_symmetry_Int_Tables_number   1
_chemical_formula_structural   HfAl
_chemical_formula_sum   'Hf4 Al4'
_cell_volume   152.26282353
_cell_formula_units_Z   4
loop_
 _symmetry_equiv_pos_site_id
 _symmetry_equiv_pos_as_xyz
  1  'x, y, z'
loop_
 _atom_site_type_symbol
 _atom_site_label
 _atom_site_symmetry_multiplicity
 _atom_site_fract_x
 _atom_site_fract_y
 _atom_site_fract_z
 _atom_site_occupancy
  Hf  Hf0  1  0.00000000  0.83649600  0.75000000  1
  Hf  Hf1  1  0.50000000  0.66350400  0.25000000  1
  Hf  Hf2  1  0.50000000  0.33649600  0.75000000  1
  Hf  Hf3  1  0.00000000  0.16350400  0.25000000  1
  Al  Al4  1  0.00000000  0.57019200  0.75000000  1
  Al  Al5  1  0.50000000  0.92980800  0.25000000  1
  Al  Al6  1  0.50000000  0.07019200  0.75000000  1
  Al  Al7  1  0.00000000  0.42980800  0.25000000  1
