# generated using pymatgen
data_BaPb
_symmetry_space_group_name_H-M   'P 1'
_cell_length_a   5.39465600
_cell_length_b   12.93549000
_cell_length_c   4.90388300
_cell_angle_alpha   90.00000000
_cell_angle_beta   90.00000000
_cell_angle_gamma   90.00000000
_symmetry_Int_Tables_number   1
_chemical_formula_structural   BaPb
_chemical_formula_sum   'Ba4 Pb4'
_cell_volume   342.20530735
_cell_formula_units_Z   4
loop_
 _symmetry_equiv_pos_site_id
 _symmetry_equiv_pos_as_xyz
  1  'x, y, z'
loop_
 _atom_site_type_symbol
 _atom_site_label
 _atom_site_symmetry_multiplicity
 _atom_site_fract_x
 _atom_site_fract_y
 _atom_site_fract_z
 _atom_site_occupancy
  Ba  Ba0  1  0.00000000  0.13286600  0.25000000  1
  Ba  Ba1  1  0.50000000  0.36713400  0.75000000  1
  Ba  Ba2  1  0.50000000  0.63286600  0.25000000  1
  Ba  Ba3  1  0.00000000  0.86713400  0.75000000  1
  Pb  Pb4  1  0.00000000  0.42190900  0.25000000  1
  Pb  Pb5  1  0.50000000  0.07809100  0.75000000  1
  Pb  Pb6  1  0.50000000  0.92190900  0.25000000  1
  Pb  Pb7  1  0.00000000  0.57809100  0.75000000  1
