# generated using pymatgen
data_ScHCl
_symmetry_space_group_name_H-M   'P 1'
_cell_length_a   3.51012186
_cell_length_b   3.51012186
_cell_length_c   27.72359808
_cell_angle_alpha   90.00000000
_cell_angle_beta   90.00000000
_cell_angle_gamma   120.00000000
_symmetry_Int_Tables_number   1
_chemical_formula_structural   ScHCl
_chemical_formula_sum   'Sc6 H6 Cl6'
_cell_volume   295.81801210
_cell_formula_units_Z   6
loop_
 _symmetry_equiv_pos_site_id
 _symmetry_equiv_pos_as_xyz
  1  'x, y, z'
loop_
 _atom_site_type_symbol
 _atom_site_label
 _atom_site_symmetry_multiplicity
 _atom_site_fract_x
 _atom_site_fract_y
 _atom_site_fract_z
 _atom_site_occupancy
  Sc  Sc0  1  0.66666667  0.33333333  0.21199233  1
  Sc  Sc1  1  0.00000000  0.00000000  0.12134100  1
  Sc  Sc2  1  0.33333333  0.66666667  0.54532567  1
  Sc  Sc3  1  0.66666667  0.33333333  0.45467433  1
  Sc  Sc4  1  0.00000000  0.00000000  0.87865900  1
  Sc  Sc5  1  0.33333333  0.66666667  0.78800767  1
  H  H6  1  0.66666667  0.33333333  0.13970233  1
  H  H7  1  0.00000000  0.00000000  0.19363100  1
  H  H8  1  0.33333333  0.66666667  0.47303567  1
  H  H9  1  0.66666667  0.33333333  0.52696433  1
  H  H10  1  0.00000000  0.00000000  0.80636900  1
  H  H11  1  0.33333333  0.66666667  0.86029767  1
  Cl  Cl12  1  0.33333333  0.66666667  0.06308867  1
  Cl  Cl13  1  0.33333333  0.66666667  0.27024467  1
  Cl  Cl14  1  0.00000000  0.00000000  0.39642200  1
  Cl  Cl15  1  0.00000000  0.00000000  0.60357800  1
  Cl  Cl16  1  0.66666667  0.33333333  0.72975533  1
  Cl  Cl17  1  0.66666667  0.33333333  0.93691133  1
