# generated using pymatgen
data_SrAl2
_symmetry_space_group_name_H-M   'P 1'
_cell_length_a   4.80218600
_cell_length_b   7.90334600
_cell_length_c   7.93424800
_cell_angle_alpha   90.00000000
_cell_angle_beta   90.00000000
_cell_angle_gamma   90.00000000
_symmetry_Int_Tables_number   1
_chemical_formula_structural   SrAl2
_chemical_formula_sum   'Sr4 Al8'
_cell_volume   301.13119227
_cell_formula_units_Z   4
loop_
 _symmetry_equiv_pos_site_id
 _symmetry_equiv_pos_as_xyz
  1  'x, y, z'
loop_
 _atom_site_type_symbol
 _atom_site_label
 _atom_site_symmetry_multiplicity
 _atom_site_fract_x
 _atom_site_fract_y
 _atom_site_fract_z
 _atom_site_occupancy
  Sr  Sr0  1  0.00000000  0.75000000  0.44992800  1
  Sr  Sr1  1  0.00000000  0.25000000  0.55007200  1
  Sr  Sr2  1  0.50000000  0.25000000  0.94992800  1
  Sr  Sr3  1  0.50000000  0.75000000  0.05007200  1
  Al  Al4  1  0.00000000  0.93168200  0.83894600  1
  Al  Al5  1  0.00000000  0.06831800  0.16105400  1
  Al  Al6  1  0.50000000  0.93168200  0.66105400  1
  Al  Al7  1  0.50000000  0.06831800  0.33894600  1
  Al  Al8  1  0.50000000  0.43168200  0.33894600  1
  Al  Al9  1  0.50000000  0.56831800  0.66105400  1
  Al  Al10  1  0.00000000  0.43168200  0.16105400  1
  Al  Al11  1  0.00000000  0.56831800  0.83894600  1
