# generated using pymatgen
data_YAl3
_symmetry_space_group_name_H-M   'P 1'
_cell_length_a   6.19876002
_cell_length_b   6.19876002
_cell_length_c   21.18943747
_cell_angle_alpha   90.00000000
_cell_angle_beta   90.00000000
_cell_angle_gamma   120.00000000
_symmetry_Int_Tables_number   1
_chemical_formula_structural   YAl3
_chemical_formula_sum   'Y9 Al27'
_cell_volume   705.11459803
_cell_formula_units_Z   9
loop_
 _symmetry_equiv_pos_site_id
 _symmetry_equiv_pos_as_xyz
  1  'x, y, z'
loop_
 _atom_site_type_symbol
 _atom_site_label
 _atom_site_symmetry_multiplicity
 _atom_site_fract_x
 _atom_site_fract_y
 _atom_site_fract_z
 _atom_site_occupancy
  Y  Y0  1  0.00000000  0.00000000  0.21811200  1
  Y  Y1  1  0.66666667  0.33333333  0.11522133  1
  Y  Y2  1  0.00000000  0.00000000  0.00000000  1
  Y  Y3  1  0.66666667  0.33333333  0.55144533  1
  Y  Y4  1  0.33333333  0.66666667  0.44855467  1
  Y  Y5  1  0.66666667  0.33333333  0.33333333  1
  Y  Y6  1  0.33333333  0.66666667  0.88477867  1
  Y  Y7  1  0.00000000  0.00000000  0.78188800  1
  Y  Y8  1  0.33333333  0.66666667  0.66666667  1
  Al  Al9  1  0.62627400  0.81313700  0.11035600  1
  Al  Al10  1  0.18686300  0.37372600  0.11035600  1
  Al  Al11  1  0.18686300  0.81313700  0.11035600  1
  Al  Al12  1  0.00000000  0.50000000  0.00000000  1
  Al  Al13  1  0.50000000  0.50000000  0.00000000  1
  Al  Al14  1  0.50000000  0.00000000  0.00000000  1
  Al  Al15  1  0.47980367  0.95960733  0.22297733  1
  Al  Al16  1  0.04039267  0.52019633  0.22297733  1
  Al  Al17  1  0.47980367  0.52019633  0.22297733  1
  Al  Al18  1  0.29294067  0.14647033  0.44368933  1
  Al  Al19  1  0.85352967  0.70705933  0.44368933  1
  Al  Al20  1  0.85352967  0.14647033  0.44368933  1
  Al  Al21  1  0.66666667  0.83333333  0.33333333  1
  Al  Al22  1  0.16666667  0.83333333  0.33333333  1
  Al  Al23  1  0.16666667  0.33333333  0.33333333  1
  Al  Al24  1  0.14647033  0.29294067  0.55631067  1
  Al  Al25  1  0.70705933  0.85352967  0.55631067  1
  Al  Al26  1  0.14647033  0.85352967  0.55631067  1
  Al  Al27  1  0.95960733  0.47980367  0.77702267  1
  Al  Al28  1  0.52019633  0.04039267  0.77702267  1
  Al  Al29  1  0.52019633  0.47980367  0.77702267  1
  Al  Al30  1  0.33333333  0.16666667  0.66666667  1
  Al  Al31  1  0.83333333  0.16666667  0.66666667  1
  Al  Al32  1  0.83333333  0.66666667  0.66666667  1
  Al  Al33  1  0.81313700  0.62627400  0.88964400  1
  Al  Al34  1  0.37372600  0.18686300  0.88964400  1
  Al  Al35  1  0.81313700  0.18686300  0.88964400  1
