# generated using pymatgen
data_Nb3Au2
_symmetry_space_group_name_H-M   'P 1'
_cell_length_a   3.42728800
_cell_length_b   3.42728800
_cell_length_c   15.42142000
_cell_angle_alpha   90.00000000
_cell_angle_beta   90.00000000
_cell_angle_gamma   90.00000000
_symmetry_Int_Tables_number   1
_chemical_formula_structural   Nb3Au2
_chemical_formula_sum   'Nb6 Au4'
_cell_volume   181.14467255
_cell_formula_units_Z   2
loop_
 _symmetry_equiv_pos_site_id
 _symmetry_equiv_pos_as_xyz
  1  'x, y, z'
loop_
 _atom_site_type_symbol
 _atom_site_label
 _atom_site_symmetry_multiplicity
 _atom_site_fract_x
 _atom_site_fract_y
 _atom_site_fract_z
 _atom_site_occupancy
  Nb  Nb0  1  0.00000000  0.00000000  0.00000000  1
  Nb  Nb1  1  0.00000000  0.00000000  0.40088700  1
  Nb  Nb2  1  0.50000000  0.50000000  0.09911300  1
  Nb  Nb3  1  0.50000000  0.50000000  0.50000000  1
  Nb  Nb4  1  0.50000000  0.50000000  0.90088700  1
  Nb  Nb5  1  0.00000000  0.00000000  0.59911300  1
  Au  Au6  1  0.00000000  0.00000000  0.19916800  1
  Au  Au7  1  0.50000000  0.50000000  0.30083200  1
  Au  Au8  1  0.50000000  0.50000000  0.69916800  1
  Au  Au9  1  0.00000000  0.00000000  0.80083200  1
