# generated using pymatgen
data_UGePt
_symmetry_space_group_name_H-M   'P 1'
_cell_length_a   4.39192796
_cell_length_b   7.06179835
_cell_length_c   7.60755786
_cell_angle_alpha   90.00000000
_cell_angle_beta   90.00000000
_cell_angle_gamma   90.00000000
_symmetry_Int_Tables_number   1
_chemical_formula_structural   UGePt
_chemical_formula_sum   'U4 Ge4 Pt4'
_cell_volume   235.94771949
_cell_formula_units_Z   4
loop_
 _symmetry_equiv_pos_site_id
 _symmetry_equiv_pos_as_xyz
  1  'x, y, z'
loop_
 _atom_site_type_symbol
 _atom_site_label
 _atom_site_symmetry_multiplicity
 _atom_site_fract_x
 _atom_site_fract_y
 _atom_site_fract_z
 _atom_site_occupancy
  U  U0  1  0.50000000  0.00000000  0.96088600  1
  U  U1  1  0.00000000  0.00000000  0.52907000  1
  U  U2  1  0.00000000  0.50000000  0.46088600  1
  U  U3  1  0.50000000  0.50000000  0.02907000  1
  Ge  Ge4  1  0.50000000  0.77998000  0.33628700  1
  Ge  Ge5  1  0.50000000  0.22002000  0.33628700  1
  Ge  Ge6  1  0.00000000  0.27998000  0.83628700  1
  Ge  Ge7  1  0.00000000  0.72002000  0.83628700  1
  Pt  Pt8  1  0.50000000  0.28900600  0.66623500  1
  Pt  Pt9  1  0.50000000  0.71099400  0.66623500  1
  Pt  Pt10  1  0.00000000  0.78900600  0.16623500  1
  Pt  Pt11  1  0.00000000  0.21099400  0.16623500  1
