# generated using pymatgen
data_GdGa
_symmetry_space_group_name_H-M   'P 1'
_cell_length_a   4.36006000
_cell_length_b   11.08165400
_cell_length_c   4.14271200
_cell_angle_alpha   90.00000000
_cell_angle_beta   90.00000000
_cell_angle_gamma   90.00000000
_symmetry_Int_Tables_number   1
_chemical_formula_structural   GdGa
_chemical_formula_sum   'Gd4 Ga4'
_cell_volume   200.16207487
_cell_formula_units_Z   4
loop_
 _symmetry_equiv_pos_site_id
 _symmetry_equiv_pos_as_xyz
  1  'x, y, z'
loop_
 _atom_site_type_symbol
 _atom_site_label
 _atom_site_symmetry_multiplicity
 _atom_site_fract_x
 _atom_site_fract_y
 _atom_site_fract_z
 _atom_site_occupancy
  Gd  Gd0  1  0.00000000  0.14063700  0.25000000  1
  Gd  Gd1  1  0.50000000  0.35936300  0.75000000  1
  Gd  Gd2  1  0.50000000  0.64063700  0.25000000  1
  Gd  Gd3  1  0.00000000  0.85936300  0.75000000  1
  Ga  Ga4  1  0.00000000  0.42697900  0.25000000  1
  Ga  Ga5  1  0.50000000  0.07302100  0.75000000  1
  Ga  Ga6  1  0.50000000  0.92697900  0.25000000  1
  Ga  Ga7  1  0.00000000  0.57302100  0.75000000  1
