# generated using pymatgen
data_Sn4Pd
_symmetry_space_group_name_H-M   'P 1'
_cell_length_a   6.56164800
_cell_length_b   11.65285600
_cell_length_c   6.52988400
_cell_angle_alpha   90.00000000
_cell_angle_beta   90.00000000
_cell_angle_gamma   90.00000000
_symmetry_Int_Tables_number   1
_chemical_formula_structural   Sn4Pd
_chemical_formula_sum   'Sn16 Pd4'
_cell_volume   499.28759383
_cell_formula_units_Z   4
loop_
 _symmetry_equiv_pos_site_id
 _symmetry_equiv_pos_as_xyz
  1  'x, y, z'
loop_
 _atom_site_type_symbol
 _atom_site_label
 _atom_site_symmetry_multiplicity
 _atom_site_fract_x
 _atom_site_fract_y
 _atom_site_fract_z
 _atom_site_occupancy
  Sn  Sn0  1  0.32948750  0.12665150  0.32892900  1
  Sn  Sn1  1  0.67051250  0.12665150  0.67107100  1
  Sn  Sn2  1  0.82948750  0.37334850  0.67107100  1
  Sn  Sn3  1  0.17051250  0.37334850  0.32892900  1
  Sn  Sn4  1  0.32948750  0.37334850  0.82892900  1
  Sn  Sn5  1  0.67051250  0.37334850  0.17107100  1
  Sn  Sn6  1  0.82948750  0.12665150  0.17107100  1
  Sn  Sn7  1  0.17051250  0.12665150  0.82892900  1
  Sn  Sn8  1  0.82948750  0.62665150  0.32892900  1
  Sn  Sn9  1  0.17051250  0.62665150  0.67107100  1
  Sn  Sn10  1  0.32948750  0.87334850  0.67107100  1
  Sn  Sn11  1  0.67051250  0.87334850  0.32892900  1
  Sn  Sn12  1  0.82948750  0.87334850  0.82892900  1
  Sn  Sn13  1  0.17051250  0.87334850  0.17107100  1
  Sn  Sn14  1  0.32948750  0.62665150  0.17107100  1
  Sn  Sn15  1  0.67051250  0.62665150  0.82892900  1
  Pd  Pd16  1  0.50000000  0.00000000  0.00000000  1
  Pd  Pd17  1  0.00000000  0.00000000  0.50000000  1
  Pd  Pd18  1  0.00000000  0.50000000  0.00000000  1
  Pd  Pd19  1  0.50000000  0.50000000  0.50000000  1
