# generated using pymatgen
data_SrIn2Pt
_symmetry_space_group_name_H-M   'P 1'
_cell_length_a   4.54812600
_cell_length_b   11.03908800
_cell_length_c   8.01490500
_cell_angle_alpha   90.00000000
_cell_angle_beta   90.00000000
_cell_angle_gamma   90.00000000
_symmetry_Int_Tables_number   1
_chemical_formula_structural   SrIn2Pt
_chemical_formula_sum   'Sr4 In8 Pt4'
_cell_volume   402.40564296
_cell_formula_units_Z   4
loop_
 _symmetry_equiv_pos_site_id
 _symmetry_equiv_pos_as_xyz
  1  'x, y, z'
loop_
 _atom_site_type_symbol
 _atom_site_label
 _atom_site_symmetry_multiplicity
 _atom_site_fract_x
 _atom_site_fract_y
 _atom_site_fract_z
 _atom_site_occupancy
  Sr  Sr0  1  0.00000000  0.06227500  0.25000000  1
  Sr  Sr1  1  0.50000000  0.43772500  0.75000000  1
  Sr  Sr2  1  0.50000000  0.56227500  0.25000000  1
  Sr  Sr3  1  0.00000000  0.93772500  0.75000000  1
  In  In4  1  0.00000000  0.34872600  0.44629700  1
  In  In5  1  0.00000000  0.34872600  0.05370300  1
  In  In6  1  0.50000000  0.15127400  0.55370300  1
  In  In7  1  0.50000000  0.15127400  0.94629700  1
  In  In8  1  0.50000000  0.84872600  0.44629700  1
  In  In9  1  0.50000000  0.84872600  0.05370300  1
  In  In10  1  0.00000000  0.65127400  0.55370300  1
  In  In11  1  0.00000000  0.65127400  0.94629700  1
  Pt  Pt12  1  0.50000000  0.28040300  0.25000000  1
  Pt  Pt13  1  0.00000000  0.21959700  0.75000000  1
  Pt  Pt14  1  0.00000000  0.78040300  0.25000000  1
  Pt  Pt15  1  0.50000000  0.71959700  0.75000000  1
