# generated using pymatgen
data_Na3Hg
_symmetry_space_group_name_H-M   'P 1'
_cell_length_a   7.75173000
_cell_length_b   7.75173000
_cell_length_c   7.75173000
_cell_angle_alpha   90.00000000
_cell_angle_beta   90.00000000
_cell_angle_gamma   90.00000000
_symmetry_Int_Tables_number   1
_chemical_formula_structural   Na3Hg
_chemical_formula_sum   'Na12 Hg4'
_cell_volume   465.79616897
_cell_formula_units_Z   4
loop_
 _symmetry_equiv_pos_site_id
 _symmetry_equiv_pos_as_xyz
  1  'x, y, z'
loop_
 _atom_site_type_symbol
 _atom_site_label
 _atom_site_symmetry_multiplicity
 _atom_site_fract_x
 _atom_site_fract_y
 _atom_site_fract_z
 _atom_site_occupancy
  Na  Na0  1  0.50000000  0.00000000  0.00000000  1
  Na  Na1  1  0.25000000  0.25000000  0.75000000  1
  Na  Na2  1  0.25000000  0.75000000  0.75000000  1
  Na  Na3  1  0.50000000  0.50000000  0.50000000  1
  Na  Na4  1  0.25000000  0.75000000  0.25000000  1
  Na  Na5  1  0.25000000  0.25000000  0.25000000  1
  Na  Na6  1  0.00000000  0.00000000  0.50000000  1
  Na  Na7  1  0.75000000  0.25000000  0.25000000  1
  Na  Na8  1  0.75000000  0.75000000  0.25000000  1
  Na  Na9  1  0.00000000  0.50000000  0.00000000  1
  Na  Na10  1  0.75000000  0.75000000  0.75000000  1
  Na  Na11  1  0.75000000  0.25000000  0.75000000  1
  Hg  Hg12  1  0.00000000  0.00000000  0.00000000  1
  Hg  Hg13  1  0.00000000  0.50000000  0.50000000  1
  Hg  Hg14  1  0.50000000  0.00000000  0.50000000  1
  Hg  Hg15  1  0.50000000  0.50000000  0.00000000  1
