# generated using pymatgen
data_B2Mo
_symmetry_space_group_name_H-M   'P 1'
_cell_length_a   3.02795842
_cell_length_b   3.02795842
_cell_length_c   20.96578970
_cell_angle_alpha   90.00000000
_cell_angle_beta   90.00000000
_cell_angle_gamma   120.00000000
_symmetry_Int_Tables_number   1
_chemical_formula_structural   B2Mo
_chemical_formula_sum   'B12 Mo6'
_cell_volume   166.47218204
_cell_formula_units_Z   6
loop_
 _symmetry_equiv_pos_site_id
 _symmetry_equiv_pos_as_xyz
  1  'x, y, z'
loop_
 _atom_site_type_symbol
 _atom_site_label
 _atom_site_symmetry_multiplicity
 _atom_site_fract_x
 _atom_site_fract_y
 _atom_site_fract_z
 _atom_site_occupancy
  B  B0  1  0.00000000  0.00000000  0.33219600  1
  B  B1  1  0.66666667  0.33333333  0.00113733  1
  B  B2  1  0.00000000  0.00000000  0.18156300  1
  B  B3  1  0.66666667  0.33333333  0.15177033  1
  B  B4  1  0.66666667  0.33333333  0.66552933  1
  B  B5  1  0.33333333  0.66666667  0.33447067  1
  B  B6  1  0.66666667  0.33333333  0.51489633  1
  B  B7  1  0.33333333  0.66666667  0.48510367  1
  B  B8  1  0.33333333  0.66666667  0.99886267  1
  B  B9  1  0.00000000  0.00000000  0.66780400  1
  B  B10  1  0.33333333  0.66666667  0.84822967  1
  B  B11  1  0.00000000  0.00000000  0.81843700  1
  Mo  Mo12  1  0.00000000  0.00000000  0.07558100  1
  Mo  Mo13  1  0.66666667  0.33333333  0.25775233  1
  Mo  Mo14  1  0.66666667  0.33333333  0.40891433  1
  Mo  Mo15  1  0.33333333  0.66666667  0.59108567  1
  Mo  Mo16  1  0.33333333  0.66666667  0.74224767  1
  Mo  Mo17  1  0.00000000  0.00000000  0.92441900  1
