# generated using pymatgen
data_AlPd5I2
_symmetry_space_group_name_H-M   'P 1'
_cell_length_a   4.09948200
_cell_length_b   4.09948200
_cell_length_c   20.76939600
_cell_angle_alpha   90.00000000
_cell_angle_beta   90.00000000
_cell_angle_gamma   90.00000000
_symmetry_Int_Tables_number   1
_chemical_formula_structural   AlPd5I2
_chemical_formula_sum   'Al2 Pd10 I4'
_cell_volume   349.04533225
_cell_formula_units_Z   2
loop_
 _symmetry_equiv_pos_site_id
 _symmetry_equiv_pos_as_xyz
  1  'x, y, z'
loop_
 _atom_site_type_symbol
 _atom_site_label
 _atom_site_symmetry_multiplicity
 _atom_site_fract_x
 _atom_site_fract_y
 _atom_site_fract_z
 _atom_site_occupancy
  Al  Al0  1  0.50000000  0.50000000  0.00000000  1
  Al  Al1  1  0.00000000  0.00000000  0.50000000  1
  Pd  Pd2  1  0.00000000  0.50000000  0.08525300  1
  Pd  Pd3  1  0.50000000  0.00000000  0.08525300  1
  Pd  Pd4  1  0.00000000  0.50000000  0.41474700  1
  Pd  Pd5  1  0.50000000  0.00000000  0.41474700  1
  Pd  Pd6  1  0.00000000  0.00000000  0.00000000  1
  Pd  Pd7  1  0.50000000  0.00000000  0.58525300  1
  Pd  Pd8  1  0.00000000  0.50000000  0.58525300  1
  Pd  Pd9  1  0.50000000  0.00000000  0.91474700  1
  Pd  Pd10  1  0.00000000  0.50000000  0.91474700  1
  Pd  Pd11  1  0.50000000  0.50000000  0.50000000  1
  I  I12  1  0.00000000  0.00000000  0.17498200  1
  I  I13  1  0.50000000  0.50000000  0.32501800  1
  I  I14  1  0.50000000  0.50000000  0.67498200  1
  I  I15  1  0.00000000  0.00000000  0.82501800  1
