# generated using pymatgen
data_BIrPd
_symmetry_space_group_name_H-M   'P 1'
_cell_length_a   6.69799200
_cell_length_b   8.85371400
_cell_length_c   10.25067400
_cell_angle_alpha   90.00000000
_cell_angle_beta   90.00000000
_cell_angle_gamma   90.00000000
_symmetry_Int_Tables_number   1
_chemical_formula_structural   BIrPd
_chemical_formula_sum   'B16 Ir16 Pd16'
_cell_volume   607.88655143
_cell_formula_units_Z   16
loop_
 _symmetry_equiv_pos_site_id
 _symmetry_equiv_pos_as_xyz
  1  'x, y, z'
loop_
 _atom_site_type_symbol
 _atom_site_label
 _atom_site_symmetry_multiplicity
 _atom_site_fract_x
 _atom_site_fract_y
 _atom_site_fract_z
 _atom_site_occupancy
  B  B0  1  0.27063800  0.80931950  0.51526350  1
  B  B1  1  0.02063800  0.94068050  0.76526350  1
  B  B2  1  0.77063800  0.19068050  0.98473650  1
  B  B3  1  0.52063800  0.05931950  0.73473650  1
  B  B4  1  0.77063800  0.80931950  0.01526350  1
  B  B5  1  0.52063800  0.94068050  0.26526350  1
  B  B6  1  0.27063800  0.19068050  0.48473650  1
  B  B7  1  0.02063800  0.05931950  0.23473650  1
  B  B8  1  0.77063800  0.30931950  0.51526350  1
  B  B9  1  0.52063800  0.44068050  0.76526350  1
  B  B10  1  0.27063800  0.69068050  0.98473650  1
  B  B11  1  0.02063800  0.55931950  0.73473650  1
  B  B12  1  0.27063800  0.30931950  0.01526350  1
  B  B13  1  0.02063800  0.44068050  0.26526350  1
  B  B14  1  0.77063800  0.69068050  0.48473650  1
  B  B15  1  0.52063800  0.55931950  0.23473650  1
  Ir  Ir16  1  0.75096400  0.98622350  0.86763150  1
  Ir  Ir17  1  0.00096400  0.76377650  0.61763150  1
  Ir  Ir18  1  0.50096400  0.23622350  0.88236850  1
  Ir  Ir19  1  0.25096400  0.01377650  0.63236850  1
  Ir  Ir20  1  0.25096400  0.98622350  0.36763150  1
  Ir  Ir21  1  0.50096400  0.76377650  0.11763150  1
  Ir  Ir22  1  0.00096400  0.23622350  0.38236850  1
  Ir  Ir23  1  0.75096400  0.01377650  0.13236850  1
  Ir  Ir24  1  0.25096400  0.48622350  0.86763150  1
  Ir  Ir25  1  0.50096400  0.26377650  0.61763150  1
  Ir  Ir26  1  0.00096400  0.73622350  0.88236850  1
  Ir  Ir27  1  0.75096400  0.51377650  0.63236850  1
  Ir  Ir28  1  0.75096400  0.48622350  0.36763150  1
  Ir  Ir29  1  0.00096400  0.26377650  0.11763150  1
  Ir  Ir30  1  0.50096400  0.73622350  0.38236850  1
  Ir  Ir31  1  0.25096400  0.51377650  0.13236850  1
  Pd  Pd32  1  0.08959750  0.16346000  0.86548050  1
  Pd  Pd33  1  0.33959750  0.91346000  0.88451950  1
  Pd  Pd34  1  0.83959750  0.08654000  0.61548050  1
  Pd  Pd35  1  0.08959750  0.33654000  0.63451950  1
  Pd  Pd36  1  0.58959750  0.16346000  0.36548050  1
  Pd  Pd37  1  0.83959750  0.91346000  0.38451950  1
  Pd  Pd38  1  0.33959750  0.08654000  0.11548050  1
  Pd  Pd39  1  0.58959750  0.33654000  0.13451950  1
  Pd  Pd40  1  0.58959750  0.66346000  0.86548050  1
  Pd  Pd41  1  0.83959750  0.41346000  0.88451950  1
  Pd  Pd42  1  0.33959750  0.58654000  0.61548050  1
  Pd  Pd43  1  0.58959750  0.83654000  0.63451950  1
  Pd  Pd44  1  0.08959750  0.66346000  0.36548050  1
  Pd  Pd45  1  0.33959750  0.41346000  0.38451950  1
  Pd  Pd46  1  0.83959750  0.58654000  0.11548050  1
  Pd  Pd47  1  0.08959750  0.83654000  0.13451950  1
