# generated using pymatgen
data_LiSn4Ru
_symmetry_space_group_name_H-M   'P 1'
_cell_length_a   6.71599800
_cell_length_b   6.71599800
_cell_length_c   11.31415200
_cell_angle_alpha   90.00000000
_cell_angle_beta   90.00000000
_cell_angle_gamma   90.00000000
_symmetry_Int_Tables_number   1
_chemical_formula_structural   LiSn4Ru
_chemical_formula_sum   'Li4 Sn16 Ru4'
_cell_volume   510.32062995
_cell_formula_units_Z   4
loop_
 _symmetry_equiv_pos_site_id
 _symmetry_equiv_pos_as_xyz
  1  'x, y, z'
loop_
 _atom_site_type_symbol
 _atom_site_label
 _atom_site_symmetry_multiplicity
 _atom_site_fract_x
 _atom_site_fract_y
 _atom_site_fract_z
 _atom_site_occupancy
  Li  Li0  1  0.00000000  0.00000000  0.00000000  1
  Li  Li1  1  0.50000000  0.50000000  0.00000000  1
  Li  Li2  1  0.50000000  0.50000000  0.50000000  1
  Li  Li3  1  0.00000000  0.00000000  0.50000000  1
  Sn  Sn4  1  0.16006150  0.33993850  0.36262350  1
  Sn  Sn5  1  0.66006150  0.16006150  0.36262350  1
  Sn  Sn6  1  0.33993850  0.83993850  0.36262350  1
  Sn  Sn7  1  0.16006150  0.66006150  0.13737650  1
  Sn  Sn8  1  0.83993850  0.33993850  0.13737650  1
  Sn  Sn9  1  0.33993850  0.16006150  0.13737650  1
  Sn  Sn10  1  0.66006150  0.83993850  0.13737650  1
  Sn  Sn11  1  0.83993850  0.66006150  0.36262350  1
  Sn  Sn12  1  0.66006150  0.83993850  0.86262350  1
  Sn  Sn13  1  0.16006150  0.66006150  0.86262350  1
  Sn  Sn14  1  0.83993850  0.33993850  0.86262350  1
  Sn  Sn15  1  0.66006150  0.16006150  0.63737650  1
  Sn  Sn16  1  0.33993850  0.83993850  0.63737650  1
  Sn  Sn17  1  0.83993850  0.66006150  0.63737650  1
  Sn  Sn18  1  0.16006150  0.33993850  0.63737650  1
  Sn  Sn19  1  0.33993850  0.16006150  0.86262350  1
  Ru  Ru20  1  0.00000000  0.00000000  0.25000000  1
  Ru  Ru21  1  0.50000000  0.50000000  0.25000000  1
  Ru  Ru22  1  0.50000000  0.50000000  0.75000000  1
  Ru  Ru23  1  0.00000000  0.00000000  0.75000000  1
