# generated using pymatgen
data_Mo2N
_symmetry_space_group_name_H-M   'P 1'
_cell_length_a   4.26271800
_cell_length_b   4.26271800
_cell_length_c   8.08763600
_cell_angle_alpha   90.00000000
_cell_angle_beta   90.00000000
_cell_angle_gamma   90.00000000
_symmetry_Int_Tables_number   1
_chemical_formula_structural   Mo2N
_chemical_formula_sum   'Mo8 N4'
_cell_volume   146.95853112
_cell_formula_units_Z   4
loop_
 _symmetry_equiv_pos_site_id
 _symmetry_equiv_pos_as_xyz
  1  'x, y, z'
loop_
 _atom_site_type_symbol
 _atom_site_label
 _atom_site_symmetry_multiplicity
 _atom_site_fract_x
 _atom_site_fract_y
 _atom_site_fract_z
 _atom_site_occupancy
  Mo  Mo0  1  0.00000000  0.50000000  0.48980100  1
  Mo  Mo1  1  0.00000000  0.00000000  0.23980100  1
  Mo  Mo2  1  0.00000000  0.50000000  0.01019900  1
  Mo  Mo3  1  0.50000000  0.50000000  0.26019900  1
  Mo  Mo4  1  0.50000000  0.00000000  0.98980100  1
  Mo  Mo5  1  0.50000000  0.50000000  0.73980100  1
  Mo  Mo6  1  0.50000000  0.00000000  0.51019900  1
  Mo  Mo7  1  0.00000000  0.00000000  0.76019900  1
  N  N8  1  0.50000000  0.00000000  0.25000000  1
  N  N9  1  0.50000000  0.50000000  0.00000000  1
  N  N10  1  0.00000000  0.50000000  0.75000000  1
  N  N11  1  0.00000000  0.00000000  0.50000000  1
