# generated using pymatgen
data_AsPd5
_symmetry_space_group_name_H-M   'P 1'
_cell_length_a   5.61540600
_cell_length_b   7.83815000
_cell_length_c   8.59702924
_cell_angle_alpha   90.00000000
_cell_angle_beta   98.66838931
_cell_angle_gamma   90.00000000
_symmetry_Int_Tables_number   1
_chemical_formula_structural   AsPd5
_chemical_formula_sum   'As4 Pd20'
_cell_volume   374.07072470
_cell_formula_units_Z   4
loop_
 _symmetry_equiv_pos_site_id
 _symmetry_equiv_pos_as_xyz
  1  'x, y, z'
loop_
 _atom_site_type_symbol
 _atom_site_label
 _atom_site_symmetry_multiplicity
 _atom_site_fract_x
 _atom_site_fract_y
 _atom_site_fract_z
 _atom_site_occupancy
  As  As0  1  0.22734500  0.00000000  0.71268300  1
  As  As1  1  0.77265500  0.00000000  0.28731700  1
  As  As2  1  0.72734500  0.50000000  0.71268300  1
  As  As3  1  0.27265500  0.50000000  0.28731700  1
  Pd  Pd4  1  0.46364500  0.26040200  0.82588400  1
  Pd  Pd5  1  0.53635500  0.26040200  0.17411600  1
  Pd  Pd6  1  0.46364500  0.73959800  0.82588400  1
  Pd  Pd7  1  0.53635500  0.73959800  0.17411600  1
  Pd  Pd8  1  0.64581000  0.00000000  0.64798600  1
  Pd  Pd9  1  0.35419000  0.00000000  0.35201400  1
  Pd  Pd10  1  0.74326500  0.00000000  0.99312700  1
  Pd  Pd11  1  0.25673500  0.00000000  0.00687300  1
  Pd  Pd12  1  0.50000000  0.68410400  0.50000000  1
  Pd  Pd13  1  0.50000000  0.31589600  0.50000000  1
  Pd  Pd14  1  0.96364500  0.76040200  0.82588400  1
  Pd  Pd15  1  0.03635500  0.76040200  0.17411600  1
  Pd  Pd16  1  0.96364500  0.23959800  0.82588400  1
  Pd  Pd17  1  0.03635500  0.23959800  0.17411600  1
  Pd  Pd18  1  0.14581000  0.50000000  0.64798600  1
  Pd  Pd19  1  0.85419000  0.50000000  0.35201400  1
  Pd  Pd20  1  0.24326500  0.50000000  0.99312700  1
  Pd  Pd21  1  0.75673500  0.50000000  0.00687300  1
  Pd  Pd22  1  0.00000000  0.18410400  0.50000000  1
  Pd  Pd23  1  0.00000000  0.81589600  0.50000000  1
