# generated using pymatgen
data_FeSn2
_symmetry_space_group_name_H-M   'P 1'
_cell_length_a   6.60989200
_cell_length_b   6.60989200
_cell_length_c   5.33048600
_cell_angle_alpha   90.00000000
_cell_angle_beta   90.00000000
_cell_angle_gamma   90.00000000
_symmetry_Int_Tables_number   1
_chemical_formula_structural   FeSn2
_chemical_formula_sum   'Fe4 Sn8'
_cell_volume   232.89251677
_cell_formula_units_Z   4
loop_
 _symmetry_equiv_pos_site_id
 _symmetry_equiv_pos_as_xyz
  1  'x, y, z'
loop_
 _atom_site_type_symbol
 _atom_site_label
 _atom_site_symmetry_multiplicity
 _atom_site_fract_x
 _atom_site_fract_y
 _atom_site_fract_z
 _atom_site_occupancy
  Fe  Fe0  1  0.00000000  0.00000000  0.75000000  1
  Fe  Fe1  1  0.00000000  0.00000000  0.25000000  1
  Fe  Fe2  1  0.50000000  0.50000000  0.25000000  1
  Fe  Fe3  1  0.50000000  0.50000000  0.75000000  1
  Sn  Sn4  1  0.66141400  0.16141400  0.00000000  1
  Sn  Sn5  1  0.33858600  0.83858600  0.00000000  1
  Sn  Sn6  1  0.33858600  0.16141400  0.50000000  1
  Sn  Sn7  1  0.66141400  0.83858600  0.50000000  1
  Sn  Sn8  1  0.16141400  0.66141400  0.50000000  1
  Sn  Sn9  1  0.83858600  0.33858600  0.50000000  1
  Sn  Sn10  1  0.83858600  0.66141400  0.00000000  1
  Sn  Sn11  1  0.16141400  0.33858600  0.00000000  1
