# generated using pymatgen
data_Ta5Sb4
_symmetry_space_group_name_H-M   'P 1'
_cell_length_a   10.34609200
_cell_length_b   10.34609200
_cell_length_c   3.58512800
_cell_angle_alpha   90.00000000
_cell_angle_beta   90.00000000
_cell_angle_gamma   90.00000000
_symmetry_Int_Tables_number   1
_chemical_formula_structural   Ta5Sb4
_chemical_formula_sum   'Ta10 Sb8'
_cell_volume   383.75790785
_cell_formula_units_Z   2
loop_
 _symmetry_equiv_pos_site_id
 _symmetry_equiv_pos_as_xyz
  1  'x, y, z'
loop_
 _atom_site_type_symbol
 _atom_site_label
 _atom_site_symmetry_multiplicity
 _atom_site_fract_x
 _atom_site_fract_y
 _atom_site_fract_z
 _atom_site_occupancy
  Ta  Ta0  1  0.62804800  0.31337600  0.00000000  1
  Ta  Ta1  1  0.81337600  0.87195200  0.50000000  1
  Ta  Ta2  1  0.18662400  0.12804800  0.50000000  1
  Ta  Ta3  1  0.37195200  0.68662400  0.00000000  1
  Ta  Ta4  1  0.00000000  0.00000000  0.00000000  1
  Ta  Ta5  1  0.12804800  0.81337600  0.50000000  1
  Ta  Ta6  1  0.31337600  0.37195200  0.00000000  1
  Ta  Ta7  1  0.68662400  0.62804800  0.00000000  1
  Ta  Ta8  1  0.87195200  0.18662400  0.50000000  1
  Ta  Ta9  1  0.50000000  0.50000000  0.50000000  1
  Sb  Sb10  1  0.70381300  0.05217800  0.00000000  1
  Sb  Sb11  1  0.55217800  0.79618700  0.50000000  1
  Sb  Sb12  1  0.44782200  0.20381300  0.50000000  1
  Sb  Sb13  1  0.29618700  0.94782200  0.00000000  1
  Sb  Sb14  1  0.20381300  0.55217800  0.50000000  1
  Sb  Sb15  1  0.05217800  0.29618700  0.00000000  1
  Sb  Sb16  1  0.94782200  0.70381300  0.00000000  1
  Sb  Sb17  1  0.79618700  0.44782200  0.50000000  1
