# generated using pymatgen
data_Sr2Cu(ClO)2
_symmetry_space_group_name_H-M   'P 1'
_cell_length_a   3.98961000
_cell_length_b   3.98961000
_cell_length_c   16.06559200
_cell_angle_alpha   90.00000000
_cell_angle_beta   90.00000000
_cell_angle_gamma   90.00000000
_symmetry_Int_Tables_number   1
_chemical_formula_structural   Sr2Cu(ClO)2
_chemical_formula_sum   'Sr4 Cu2 Cl4 O4'
_cell_volume   255.71583431
_cell_formula_units_Z   2
loop_
 _symmetry_equiv_pos_site_id
 _symmetry_equiv_pos_as_xyz
  1  'x, y, z'
loop_
 _atom_site_type_symbol
 _atom_site_label
 _atom_site_symmetry_multiplicity
 _atom_site_fract_x
 _atom_site_fract_y
 _atom_site_fract_z
 _atom_site_occupancy
  Sr  Sr0  1  0.50000000  0.50000000  0.10645900  1
  Sr  Sr1  1  0.00000000  0.00000000  0.39354100  1
  Sr  Sr2  1  0.00000000  0.00000000  0.60645900  1
  Sr  Sr3  1  0.50000000  0.50000000  0.89354100  1
  Cu  Cu4  1  0.00000000  0.00000000  0.00000000  1
  Cu  Cu5  1  0.50000000  0.50000000  0.50000000  1
  Cl  Cl6  1  0.00000000  0.00000000  0.18240900  1
  Cl  Cl7  1  0.50000000  0.50000000  0.31759100  1
  Cl  Cl8  1  0.50000000  0.50000000  0.68240900  1
  Cl  Cl9  1  0.00000000  0.00000000  0.81759100  1
  O  O10  1  0.50000000  0.00000000  0.00000000  1
  O  O11  1  0.00000000  0.50000000  0.00000000  1
  O  O12  1  0.00000000  0.50000000  0.50000000  1
  O  O13  1  0.50000000  0.00000000  0.50000000  1
