# generated using pymatgen
data_CsAgCl3
_symmetry_space_group_name_H-M   'P 1'
_cell_length_a   7.36384800
_cell_length_b   7.36384800
_cell_length_c   11.13132000
_cell_angle_alpha   90.00000000
_cell_angle_beta   90.00000000
_cell_angle_gamma   90.00000000
_symmetry_Int_Tables_number   1
_chemical_formula_structural   CsAgCl3
_chemical_formula_sum   'Cs4 Ag4 Cl12'
_cell_volume   603.60982316
_cell_formula_units_Z   4
loop_
 _symmetry_equiv_pos_site_id
 _symmetry_equiv_pos_as_xyz
  1  'x, y, z'
loop_
 _atom_site_type_symbol
 _atom_site_label
 _atom_site_symmetry_multiplicity
 _atom_site_fract_x
 _atom_site_fract_y
 _atom_site_fract_z
 _atom_site_occupancy
  Cs  Cs0  1  0.50000000  0.00000000  0.25000000  1
  Cs  Cs1  1  0.00000000  0.50000000  0.25000000  1
  Cs  Cs2  1  0.00000000  0.50000000  0.75000000  1
  Cs  Cs3  1  0.50000000  0.00000000  0.75000000  1
  Ag  Ag4  1  0.50000000  0.50000000  0.00000000  1
  Ag  Ag5  1  0.00000000  0.00000000  0.00000000  1
  Ag  Ag6  1  0.00000000  0.00000000  0.50000000  1
  Ag  Ag7  1  0.50000000  0.50000000  0.50000000  1
  Cl  Cl8  1  0.76676400  0.76676400  0.00000000  1
  Cl  Cl9  1  0.23323600  0.76676400  0.00000000  1
  Cl  Cl10  1  0.76676400  0.23323600  0.00000000  1
  Cl  Cl11  1  0.23323600  0.23323600  0.00000000  1
  Cl  Cl12  1  0.00000000  0.00000000  0.28227000  1
  Cl  Cl13  1  0.50000000  0.50000000  0.21773000  1
  Cl  Cl14  1  0.26676400  0.26676400  0.50000000  1
  Cl  Cl15  1  0.73323600  0.26676400  0.50000000  1
  Cl  Cl16  1  0.26676400  0.73323600  0.50000000  1
  Cl  Cl17  1  0.73323600  0.73323600  0.50000000  1
  Cl  Cl18  1  0.50000000  0.50000000  0.78227000  1
  Cl  Cl19  1  0.00000000  0.00000000  0.71773000  1
