# generated using pymatgen
data_NbPS
_symmetry_space_group_name_H-M   'P 1'
_cell_length_a   3.45295800
_cell_length_b   4.73253400
_cell_length_c   12.07315000
_cell_angle_alpha   90.00000000
_cell_angle_beta   90.00000000
_cell_angle_gamma   90.00000000
_symmetry_Int_Tables_number   1
_chemical_formula_structural   NbPS
_chemical_formula_sum   'Nb4 P4 S4'
_cell_volume   197.29025542
_cell_formula_units_Z   4
loop_
 _symmetry_equiv_pos_site_id
 _symmetry_equiv_pos_as_xyz
  1  'x, y, z'
loop_
 _atom_site_type_symbol
 _atom_site_label
 _atom_site_symmetry_multiplicity
 _atom_site_fract_x
 _atom_site_fract_y
 _atom_site_fract_z
 _atom_site_occupancy
  Nb  Nb0  1  0.00000000  0.50000000  0.87577600  1
  Nb  Nb1  1  0.50000000  0.00000000  0.62422400  1
  Nb  Nb2  1  0.50000000  0.00000000  0.37577600  1
  Nb  Nb3  1  0.00000000  0.50000000  0.12422400  1
  P  P4  1  0.50000000  0.76368000  0.00000000  1
  P  P5  1  0.50000000  0.23632000  0.00000000  1
  P  P6  1  0.00000000  0.26368000  0.50000000  1
  P  P7  1  0.00000000  0.73632000  0.50000000  1
  S  S8  1  0.50000000  0.50000000  0.71268100  1
  S  S9  1  0.00000000  0.00000000  0.78731900  1
  S  S10  1  0.00000000  0.00000000  0.21268100  1
  S  S11  1  0.50000000  0.50000000  0.28731900  1
