# generated using pymatgen
data_Al2Fe3Si4
_symmetry_space_group_name_H-M   'P 1'
_cell_length_a   3.64971200
_cell_length_b   12.21533200
_cell_length_c   10.08008800
_cell_angle_alpha   90.00000000
_cell_angle_beta   90.00000000
_cell_angle_gamma   90.00000000
_symmetry_Int_Tables_number   1
_chemical_formula_structural   Al2Fe3Si4
_chemical_formula_sum   'Al8 Fe12 Si16'
_cell_volume   449.39495660
_cell_formula_units_Z   4
loop_
 _symmetry_equiv_pos_site_id
 _symmetry_equiv_pos_as_xyz
  1  'x, y, z'
loop_
 _atom_site_type_symbol
 _atom_site_label
 _atom_site_symmetry_multiplicity
 _atom_site_fract_x
 _atom_site_fract_y
 _atom_site_fract_z
 _atom_site_occupancy
  Al  Al0  1  0.00000000  0.05751800  0.39088200  1
  Al  Al1  1  0.50000000  0.44248200  0.60911800  1
  Al  Al2  1  0.00000000  0.05751800  0.10911800  1
  Al  Al3  1  0.50000000  0.44248200  0.89088200  1
  Al  Al4  1  0.50000000  0.55751800  0.39088200  1
  Al  Al5  1  0.00000000  0.94248200  0.60911800  1
  Al  Al6  1  0.50000000  0.55751800  0.10911800  1
  Al  Al7  1  0.00000000  0.94248200  0.89088200  1
  Fe  Fe8  1  0.00000000  0.14935000  0.87476300  1
  Fe  Fe9  1  0.50000000  0.35065000  0.12523700  1
  Fe  Fe10  1  0.00000000  0.14935000  0.62523700  1
  Fe  Fe11  1  0.50000000  0.35065000  0.37476300  1
  Fe  Fe12  1  0.00000000  0.35228600  0.75000000  1
  Fe  Fe13  1  0.50000000  0.14771400  0.25000000  1
  Fe  Fe14  1  0.50000000  0.64935000  0.87476300  1
  Fe  Fe15  1  0.00000000  0.85065000  0.12523700  1
  Fe  Fe16  1  0.50000000  0.64935000  0.62523700  1
  Fe  Fe17  1  0.00000000  0.85065000  0.37476300  1
  Fe  Fe18  1  0.50000000  0.85228600  0.75000000  1
  Fe  Fe19  1  0.00000000  0.64771400  0.25000000  1
  Si  Si20  1  0.00000000  0.31944000  0.98643800  1
  Si  Si21  1  0.50000000  0.18056000  0.01356200  1
  Si  Si22  1  0.00000000  0.31944000  0.51356200  1
  Si  Si23  1  0.50000000  0.18056000  0.48643800  1
  Si  Si24  1  0.50000000  0.04509100  0.75000000  1
  Si  Si25  1  0.00000000  0.45490900  0.25000000  1
  Si  Si26  1  0.50000000  0.24003100  0.75000000  1
  Si  Si27  1  0.00000000  0.25996900  0.25000000  1
  Si  Si28  1  0.50000000  0.81944000  0.98643800  1
  Si  Si29  1  0.00000000  0.68056000  0.01356200  1
  Si  Si30  1  0.50000000  0.81944000  0.51356200  1
  Si  Si31  1  0.00000000  0.68056000  0.48643800  1
  Si  Si32  1  0.00000000  0.54509100  0.75000000  1
  Si  Si33  1  0.50000000  0.95490900  0.25000000  1
  Si  Si34  1  0.00000000  0.74003100  0.75000000  1
  Si  Si35  1  0.50000000  0.75996900  0.25000000  1
