# generated using pymatgen
data_Nb2Se
_symmetry_space_group_name_H-M   'P 1'
_cell_length_a   14.11145600
_cell_length_b   3.45371600
_cell_length_c   9.36597837
_cell_angle_alpha   90.00000000
_cell_angle_beta   92.27163840
_cell_angle_gamma   90.00000000
_symmetry_Int_Tables_number   1
_chemical_formula_structural   Nb2Se
_chemical_formula_sum   'Nb16 Se8'
_cell_volume   456.11060395
_cell_formula_units_Z   8
loop_
 _symmetry_equiv_pos_site_id
 _symmetry_equiv_pos_as_xyz
  1  'x, y, z'
loop_
 _atom_site_type_symbol
 _atom_site_label
 _atom_site_symmetry_multiplicity
 _atom_site_fract_x
 _atom_site_fract_y
 _atom_site_fract_z
 _atom_site_occupancy
  Nb  Nb0  1  0.58732100  0.00000000  0.64713500  1
  Nb  Nb1  1  0.91267900  0.50000000  0.35286500  1
  Nb  Nb2  1  0.78351800  0.00000000  0.87488500  1
  Nb  Nb3  1  0.75672900  0.50000000  0.62319300  1
  Nb  Nb4  1  0.58436300  0.50000000  0.39926300  1
  Nb  Nb5  1  0.71648200  0.50000000  0.12511500  1
  Nb  Nb6  1  0.91563700  0.00000000  0.60073700  1
  Nb  Nb7  1  0.74327100  0.00000000  0.37680700  1
  Nb  Nb8  1  0.08732100  0.50000000  0.64713500  1
  Nb  Nb9  1  0.41267900  0.00000000  0.35286500  1
  Nb  Nb10  1  0.28351800  0.50000000  0.87488500  1
  Nb  Nb11  1  0.25672900  0.00000000  0.62319300  1
  Nb  Nb12  1  0.08436300  0.00000000  0.39926300  1
  Nb  Nb13  1  0.21648200  0.00000000  0.12511500  1
  Nb  Nb14  1  0.41563700  0.50000000  0.60073700  1
  Nb  Nb15  1  0.24327100  0.50000000  0.37680700  1
  Se  Se16  1  0.64027000  0.50000000  0.86209900  1
  Se  Se17  1  0.57453000  0.00000000  0.18467800  1
  Se  Se18  1  0.92547000  0.50000000  0.81532200  1
  Se  Se19  1  0.85973000  0.00000000  0.13790100  1
  Se  Se20  1  0.14027000  0.00000000  0.86209900  1
  Se  Se21  1  0.07453000  0.50000000  0.18467800  1
  Se  Se22  1  0.42547000  0.00000000  0.81532200  1
  Se  Se23  1  0.35973000  0.50000000  0.13790100  1
