# generated using pymatgen
data_Ba(FeS2)2
_symmetry_space_group_name_H-M   'P 1'
_cell_length_a   7.65093800
_cell_length_b   7.65093800
_cell_length_c   5.08585800
_cell_angle_alpha   90.00000000
_cell_angle_beta   90.00000000
_cell_angle_gamma   90.00000000
_symmetry_Int_Tables_number   1
_chemical_formula_structural   Ba(FeS2)2
_chemical_formula_sum   'Ba2 Fe4 S8'
_cell_volume   297.71011846
_cell_formula_units_Z   2
loop_
 _symmetry_equiv_pos_site_id
 _symmetry_equiv_pos_as_xyz
  1  'x, y, z'
loop_
 _atom_site_type_symbol
 _atom_site_label
 _atom_site_symmetry_multiplicity
 _atom_site_fract_x
 _atom_site_fract_y
 _atom_site_fract_z
 _atom_site_occupancy
  Ba  Ba0  1  0.00000000  0.00000000  0.00000000  1
  Ba  Ba1  1  0.50000000  0.50000000  0.50000000  1
  Fe  Fe2  1  0.50000000  0.00000000  0.25000000  1
  Fe  Fe3  1  0.50000000  0.00000000  0.75000000  1
  Fe  Fe4  1  0.00000000  0.50000000  0.75000000  1
  Fe  Fe5  1  0.00000000  0.50000000  0.25000000  1
  S  S6  1  0.69330200  0.11396400  0.50000000  1
  S  S7  1  0.61396400  0.80669800  0.00000000  1
  S  S8  1  0.38603600  0.19330200  0.00000000  1
  S  S9  1  0.30669800  0.88603600  0.50000000  1
  S  S10  1  0.19330200  0.61396400  0.00000000  1
  S  S11  1  0.11396400  0.30669800  0.50000000  1
  S  S12  1  0.88603600  0.69330200  0.50000000  1
  S  S13  1  0.80669800  0.38603600  0.00000000  1
