# generated using pymatgen
data_In2Co
_symmetry_space_group_name_H-M   'P 1'
_cell_length_a   5.25779400
_cell_length_b   9.50380000
_cell_length_c   17.88667600
_cell_angle_alpha   90.00000000
_cell_angle_beta   90.00000000
_cell_angle_gamma   90.00000000
_symmetry_Int_Tables_number   1
_chemical_formula_structural   In2Co
_chemical_formula_sum   'In32 Co16'
_cell_volume   893.77971759
_cell_formula_units_Z   16
loop_
 _symmetry_equiv_pos_site_id
 _symmetry_equiv_pos_as_xyz
  1  'x, y, z'
loop_
 _atom_site_type_symbol
 _atom_site_label
 _atom_site_symmetry_multiplicity
 _atom_site_fract_x
 _atom_site_fract_y
 _atom_site_fract_z
 _atom_site_occupancy
  In  In0  1  0.25000000  0.59100800  0.75000000  1
  In  In1  1  0.25000000  0.90899200  0.75000000  1
  In  In2  1  0.50000000  0.65899200  0.00000000  1
  In  In3  1  0.00000000  0.84100800  0.00000000  1
  In  In4  1  0.75000000  0.75000000  0.83927300  1
  In  In5  1  0.75000000  0.75000000  0.66072700  1
  In  In6  1  0.50000000  0.00000000  0.91072700  1
  In  In7  1  0.00000000  0.00000000  0.58927300  1
  In  In8  1  0.25000000  0.09100800  0.25000000  1
  In  In9  1  0.25000000  0.40899200  0.25000000  1
  In  In10  1  0.50000000  0.15899200  0.50000000  1
  In  In11  1  0.00000000  0.34100800  0.50000000  1
  In  In12  1  0.75000000  0.25000000  0.33927300  1
  In  In13  1  0.75000000  0.25000000  0.16072700  1
  In  In14  1  0.50000000  0.50000000  0.41072700  1
  In  In15  1  0.00000000  0.50000000  0.08927300  1
  In  In16  1  0.75000000  0.59100800  0.25000000  1
  In  In17  1  0.75000000  0.90899200  0.25000000  1
  In  In18  1  0.00000000  0.65899200  0.50000000  1
  In  In19  1  0.50000000  0.84100800  0.50000000  1
  In  In20  1  0.25000000  0.75000000  0.33927300  1
  In  In21  1  0.25000000  0.75000000  0.16072700  1
  In  In22  1  0.00000000  0.00000000  0.41072700  1
  In  In23  1  0.50000000  0.00000000  0.08927300  1
  In  In24  1  0.75000000  0.09100800  0.75000000  1
  In  In25  1  0.75000000  0.40899200  0.75000000  1
  In  In26  1  0.00000000  0.15899200  0.00000000  1
  In  In27  1  0.50000000  0.34100800  0.00000000  1
  In  In28  1  0.25000000  0.25000000  0.83927300  1
  In  In29  1  0.25000000  0.25000000  0.66072700  1
  In  In30  1  0.00000000  0.50000000  0.91072700  1
  In  In31  1  0.50000000  0.50000000  0.58927300  1
  Co  Co32  1  0.25000000  0.75000000  0.87834200  1
  Co  Co33  1  0.25000000  0.75000000  0.62165800  1
  Co  Co34  1  0.00000000  0.00000000  0.87165800  1
  Co  Co35  1  0.50000000  0.00000000  0.62834200  1
  Co  Co36  1  0.25000000  0.25000000  0.37834200  1
  Co  Co37  1  0.25000000  0.25000000  0.12165800  1
  Co  Co38  1  0.00000000  0.50000000  0.37165800  1
  Co  Co39  1  0.50000000  0.50000000  0.12834200  1
  Co  Co40  1  0.75000000  0.75000000  0.37834200  1
  Co  Co41  1  0.75000000  0.75000000  0.12165800  1
  Co  Co42  1  0.50000000  0.00000000  0.37165800  1
  Co  Co43  1  0.00000000  0.00000000  0.12834200  1
  Co  Co44  1  0.75000000  0.25000000  0.87834200  1
  Co  Co45  1  0.75000000  0.25000000  0.62165800  1
  Co  Co46  1  0.50000000  0.50000000  0.87165800  1
  Co  Co47  1  0.00000000  0.50000000  0.62834200  1
