# generated using pymatgen
data_ScCo2
_symmetry_space_group_name_H-M   'P 1'
_cell_length_a   6.90070200
_cell_length_b   6.90070200
_cell_length_c   6.90070200
_cell_angle_alpha   90.00000000
_cell_angle_beta   90.00000000
_cell_angle_gamma   90.00000000
_symmetry_Int_Tables_number   1
_chemical_formula_structural   ScCo2
_chemical_formula_sum   'Sc8 Co16'
_cell_volume   328.60927686
_cell_formula_units_Z   8
loop_
 _symmetry_equiv_pos_site_id
 _symmetry_equiv_pos_as_xyz
  1  'x, y, z'
loop_
 _atom_site_type_symbol
 _atom_site_label
 _atom_site_symmetry_multiplicity
 _atom_site_fract_x
 _atom_site_fract_y
 _atom_site_fract_z
 _atom_site_occupancy
  Sc  Sc0  1  0.25000000  0.75000000  0.25000000  1
  Sc  Sc1  1  0.00000000  0.00000000  0.50000000  1
  Sc  Sc2  1  0.25000000  0.25000000  0.75000000  1
  Sc  Sc3  1  0.00000000  0.50000000  0.00000000  1
  Sc  Sc4  1  0.75000000  0.75000000  0.75000000  1
  Sc  Sc5  1  0.50000000  0.00000000  0.00000000  1
  Sc  Sc6  1  0.75000000  0.25000000  0.25000000  1
  Sc  Sc7  1  0.50000000  0.50000000  0.50000000  1
  Co  Co8  1  0.87500000  0.87500000  0.12500000  1
  Co  Co9  1  0.37500000  0.12500000  0.37500000  1
  Co  Co10  1  0.62500000  0.87500000  0.37500000  1
  Co  Co11  1  0.12500000  0.12500000  0.12500000  1
  Co  Co12  1  0.87500000  0.37500000  0.62500000  1
  Co  Co13  1  0.37500000  0.62500000  0.87500000  1
  Co  Co14  1  0.62500000  0.37500000  0.87500000  1
  Co  Co15  1  0.12500000  0.62500000  0.62500000  1
  Co  Co16  1  0.37500000  0.87500000  0.62500000  1
  Co  Co17  1  0.87500000  0.12500000  0.87500000  1
  Co  Co18  1  0.12500000  0.87500000  0.87500000  1
  Co  Co19  1  0.62500000  0.12500000  0.62500000  1
  Co  Co20  1  0.37500000  0.37500000  0.12500000  1
  Co  Co21  1  0.87500000  0.62500000  0.37500000  1
  Co  Co22  1  0.12500000  0.37500000  0.37500000  1
  Co  Co23  1  0.62500000  0.62500000  0.12500000  1
