# generated using pymatgen
data_ReBiO4
_symmetry_space_group_name_H-M   'P 1'
_cell_length_a   3.86324200
_cell_length_b   15.34615800
_cell_length_c   5.60024400
_cell_angle_alpha   90.00000000
_cell_angle_beta   90.00000000
_cell_angle_gamma   90.00000000
_symmetry_Int_Tables_number   1
_chemical_formula_structural   ReBiO4
_chemical_formula_sum   'Re4 Bi4 O16'
_cell_volume   332.01562966
_cell_formula_units_Z   4
loop_
 _symmetry_equiv_pos_site_id
 _symmetry_equiv_pos_as_xyz
  1  'x, y, z'
loop_
 _atom_site_type_symbol
 _atom_site_label
 _atom_site_symmetry_multiplicity
 _atom_site_fract_x
 _atom_site_fract_y
 _atom_site_fract_z
 _atom_site_occupancy
  Re  Re0  1  0.00000000  0.91769900  0.75000000  1
  Re  Re1  1  0.50000000  0.58230100  0.25000000  1
  Re  Re2  1  0.50000000  0.41769900  0.75000000  1
  Re  Re3  1  0.00000000  0.08230100  0.25000000  1
  Bi  Bi4  1  0.00000000  0.69131100  0.75000000  1
  Bi  Bi5  1  0.50000000  0.80868900  0.25000000  1
  Bi  Bi6  1  0.50000000  0.19131100  0.75000000  1
  Bi  Bi7  1  0.00000000  0.30868900  0.25000000  1
  O  O8  1  0.00000000  0.81428000  0.98281800  1
  O  O9  1  0.50000000  0.68572000  0.01718200  1
  O  O10  1  0.50000000  0.68572000  0.48281800  1
  O  O11  1  0.00000000  0.81428000  0.51718200  1
  O  O12  1  0.00000000  0.00000000  0.00000000  1
  O  O13  1  0.00000000  0.00000000  0.50000000  1
  O  O14  1  0.50000000  0.91136000  0.75000000  1
  O  O15  1  0.00000000  0.58864000  0.25000000  1
  O  O16  1  0.50000000  0.31428000  0.98281800  1
  O  O17  1  0.00000000  0.18572000  0.01718200  1
  O  O18  1  0.00000000  0.18572000  0.48281800  1
  O  O19  1  0.50000000  0.31428000  0.51718200  1
  O  O20  1  0.50000000  0.50000000  0.00000000  1
  O  O21  1  0.50000000  0.50000000  0.50000000  1
  O  O22  1  0.00000000  0.41136000  0.75000000  1
  O  O23  1  0.50000000  0.08864000  0.25000000  1
