# generated using pymatgen
data_Fe3Sn2
_symmetry_space_group_name_H-M   'P 1'
_cell_length_a   5.33065753
_cell_length_b   5.33065753
_cell_length_c   19.79682612
_cell_angle_alpha   90.00000000
_cell_angle_beta   90.00000000
_cell_angle_gamma   120.00000000
_symmetry_Int_Tables_number   1
_chemical_formula_structural   Fe3Sn2
_chemical_formula_sum   'Fe18 Sn12'
_cell_volume   487.17810844
_cell_formula_units_Z   6
loop_
 _symmetry_equiv_pos_site_id
 _symmetry_equiv_pos_as_xyz
  1  'x, y, z'
loop_
 _atom_site_type_symbol
 _atom_site_label
 _atom_site_symmetry_multiplicity
 _atom_site_fract_x
 _atom_site_fract_y
 _atom_site_fract_z
 _atom_site_occupancy
  Fe  Fe0  1  0.01407067  0.50703533  0.11378233  1
  Fe  Fe1  1  0.49296467  0.98592933  0.11378233  1
  Fe  Fe2  1  0.49296467  0.50703533  0.11378233  1
  Fe  Fe3  1  0.17370200  0.82629800  0.21955100  1
  Fe  Fe4  1  0.65259600  0.82629800  0.21955100  1
  Fe  Fe5  1  0.17370200  0.34740400  0.21955100  1
  Fe  Fe6  1  0.68073733  0.84036867  0.44711567  1
  Fe  Fe7  1  0.15963133  0.31926267  0.44711567  1
  Fe  Fe8  1  0.15963133  0.84036867  0.44711567  1
  Fe  Fe9  1  0.84036867  0.15963133  0.55288433  1
  Fe  Fe10  1  0.31926267  0.15963133  0.55288433  1
  Fe  Fe11  1  0.84036867  0.68073733  0.55288433  1
  Fe  Fe12  1  0.34740400  0.17370200  0.78044900  1
  Fe  Fe13  1  0.82629800  0.65259600  0.78044900  1
  Fe  Fe14  1  0.82629800  0.17370200  0.78044900  1
  Fe  Fe15  1  0.50703533  0.49296467  0.88621767  1
  Fe  Fe16  1  0.98592933  0.49296467  0.88621767  1
  Fe  Fe17  1  0.50703533  0.01407067  0.88621767  1
  Sn  Sn18  1  0.00000000  0.00000000  0.10511200  1
  Sn  Sn19  1  0.66666667  0.33333333  0.22822133  1
  Sn  Sn20  1  0.00000000  0.00000000  0.33073200  1
  Sn  Sn21  1  0.66666667  0.33333333  0.00260133  1
  Sn  Sn22  1  0.66666667  0.33333333  0.43844533  1
  Sn  Sn23  1  0.33333333  0.66666667  0.56155467  1
  Sn  Sn24  1  0.66666667  0.33333333  0.66406533  1
  Sn  Sn25  1  0.33333333  0.66666667  0.33593467  1
  Sn  Sn26  1  0.33333333  0.66666667  0.77177867  1
  Sn  Sn27  1  0.00000000  0.00000000  0.89488800  1
  Sn  Sn28  1  0.33333333  0.66666667  0.99739867  1
  Sn  Sn29  1  0.00000000  0.00000000  0.66926800  1
