# generated using pymatgen
data_KBi2
_symmetry_space_group_name_H-M   'P 1'
_cell_length_a   9.60411800
_cell_length_b   9.60411800
_cell_length_c   9.60411800
_cell_angle_alpha   90.00000000
_cell_angle_beta   90.00000000
_cell_angle_gamma   90.00000000
_symmetry_Int_Tables_number   1
_chemical_formula_structural   KBi2
_chemical_formula_sum   'K8 Bi16'
_cell_volume   885.87503310
_cell_formula_units_Z   8
loop_
 _symmetry_equiv_pos_site_id
 _symmetry_equiv_pos_as_xyz
  1  'x, y, z'
loop_
 _atom_site_type_symbol
 _atom_site_label
 _atom_site_symmetry_multiplicity
 _atom_site_fract_x
 _atom_site_fract_y
 _atom_site_fract_z
 _atom_site_occupancy
  K  K0  1  0.50000000  0.00000000  0.50000000  1
  K  K1  1  0.25000000  0.25000000  0.25000000  1
  K  K2  1  0.50000000  0.50000000  0.00000000  1
  K  K3  1  0.25000000  0.75000000  0.75000000  1
  K  K4  1  0.00000000  0.00000000  0.00000000  1
  K  K5  1  0.75000000  0.25000000  0.75000000  1
  K  K6  1  0.00000000  0.50000000  0.50000000  1
  K  K7  1  0.75000000  0.75000000  0.25000000  1
  Bi  Bi8  1  0.12500000  0.87500000  0.37500000  1
  Bi  Bi9  1  0.12500000  0.62500000  0.12500000  1
  Bi  Bi10  1  0.37500000  0.87500000  0.12500000  1
  Bi  Bi11  1  0.37500000  0.62500000  0.37500000  1
  Bi  Bi12  1  0.12500000  0.37500000  0.87500000  1
  Bi  Bi13  1  0.12500000  0.12500000  0.62500000  1
  Bi  Bi14  1  0.37500000  0.37500000  0.62500000  1
  Bi  Bi15  1  0.37500000  0.12500000  0.87500000  1
  Bi  Bi16  1  0.62500000  0.87500000  0.87500000  1
  Bi  Bi17  1  0.62500000  0.62500000  0.62500000  1
  Bi  Bi18  1  0.87500000  0.87500000  0.62500000  1
  Bi  Bi19  1  0.87500000  0.62500000  0.87500000  1
  Bi  Bi20  1  0.62500000  0.37500000  0.37500000  1
  Bi  Bi21  1  0.62500000  0.12500000  0.12500000  1
  Bi  Bi22  1  0.87500000  0.37500000  0.12500000  1
  Bi  Bi23  1  0.87500000  0.12500000  0.37500000  1
