# generated using pymatgen
data_InP3
_symmetry_space_group_name_H-M   'P 1'
_cell_length_a   7.52226951
_cell_length_b   7.52226951
_cell_length_c   10.16123268
_cell_angle_alpha   90.00000000
_cell_angle_beta   90.00000000
_cell_angle_gamma   120.00000000
_symmetry_Int_Tables_number   1
_chemical_formula_structural   InP3
_chemical_formula_sum   'In6 P18'
_cell_volume   497.93746862
_cell_formula_units_Z   6
loop_
 _symmetry_equiv_pos_site_id
 _symmetry_equiv_pos_as_xyz
  1  'x, y, z'
loop_
 _atom_site_type_symbol
 _atom_site_label
 _atom_site_symmetry_multiplicity
 _atom_site_fract_x
 _atom_site_fract_y
 _atom_site_fract_z
 _atom_site_occupancy
  In  In0  1  0.33333333  0.66666667  0.94103867  1
  In  In1  1  0.33333333  0.66666667  0.39229467  1
  In  In2  1  0.00000000  0.00000000  0.27437200  1
  In  In3  1  0.00000000  0.00000000  0.72562800  1
  In  In4  1  0.66666667  0.33333333  0.60770533  1
  In  In5  1  0.66666667  0.33333333  0.05896133  1
  P  P6  1  0.51848567  0.03697133  0.27964833  1
  P  P7  1  0.51848567  0.48151433  0.27964833  1
  P  P8  1  0.96302867  0.48151433  0.27964833  1
  P  P9  1  0.70363800  0.85181900  0.05368500  1
  P  P10  1  0.14818100  0.29636200  0.05368500  1
  P  P11  1  0.14818100  0.85181900  0.05368500  1
  P  P12  1  0.18515233  0.37030467  0.61298167  1
  P  P13  1  0.18515233  0.81484767  0.61298167  1
  P  P14  1  0.62969533  0.81484767  0.61298167  1
  P  P15  1  0.37030467  0.18515233  0.38701833  1
  P  P16  1  0.81484767  0.62969533  0.38701833  1
  P  P17  1  0.81484767  0.18515233  0.38701833  1
  P  P18  1  0.85181900  0.70363800  0.94631500  1
  P  P19  1  0.85181900  0.14818100  0.94631500  1
  P  P20  1  0.29636200  0.14818100  0.94631500  1
  P  P21  1  0.03697133  0.51848567  0.72035167  1
  P  P22  1  0.48151433  0.96302867  0.72035167  1
  P  P23  1  0.48151433  0.51848567  0.72035167  1
