# generated using pymatgen
data_Li3(CuO2)2
_symmetry_space_group_name_H-M   'P 1'
_cell_length_a   4.68029400
_cell_length_b   9.46221200
_cell_length_c   4.70274100
_cell_angle_alpha   90.00000000
_cell_angle_beta   106.10344934
_cell_angle_gamma   90.00000000
_symmetry_Int_Tables_number   1
_chemical_formula_structural   Li3(CuO2)2
_chemical_formula_sum   'Li6 Cu4 O8'
_cell_volume   200.09346009
_cell_formula_units_Z   2
loop_
 _symmetry_equiv_pos_site_id
 _symmetry_equiv_pos_as_xyz
  1  'x, y, z'
loop_
 _atom_site_type_symbol
 _atom_site_label
 _atom_site_symmetry_multiplicity
 _atom_site_fract_x
 _atom_site_fract_y
 _atom_site_fract_z
 _atom_site_occupancy
  Li  Li0  1  0.50000000  0.03705000  0.50000000  1
  Li  Li1  1  0.00000000  0.03449400  0.00000000  1
  Li  Li2  1  0.50000000  0.45860600  0.50000000  1
  Li  Li3  1  0.00000000  0.53705000  0.50000000  1
  Li  Li4  1  0.50000000  0.53449400  0.00000000  1
  Li  Li5  1  0.00000000  0.95860600  0.50000000  1
  Cu  Cu6  1  0.00000000  0.25516000  0.50000000  1
  Cu  Cu7  1  0.50000000  0.24864600  0.00000000  1
  Cu  Cu8  1  0.50000000  0.75516000  0.50000000  1
  Cu  Cu9  1  0.00000000  0.74864600  0.00000000  1
  O  O10  1  0.23779050  0.11736250  0.73473700  1
  O  O11  1  0.26220300  0.38716000  0.73087400  1
  O  O12  1  0.73779700  0.38716000  0.26912600  1
  O  O13  1  0.76220950  0.11736250  0.26526300  1
  O  O14  1  0.73779050  0.61736250  0.73473700  1
  O  O15  1  0.76220300  0.88716000  0.73087400  1
  O  O16  1  0.23779700  0.88716000  0.26912600  1
  O  O17  1  0.26220950  0.61736250  0.26526300  1
