# generated using pymatgen
data_TmInNi4
_symmetry_space_group_name_H-M   'P 1'
_cell_length_a   6.99949000
_cell_length_b   6.99949000
_cell_length_c   6.99949000
_cell_angle_alpha   90.00000000
_cell_angle_beta   90.00000000
_cell_angle_gamma   90.00000000
_symmetry_Int_Tables_number   1
_chemical_formula_structural   TmInNi4
_chemical_formula_sum   'Tm4 In4 Ni16'
_cell_volume   342.92503546
_cell_formula_units_Z   4
loop_
 _symmetry_equiv_pos_site_id
 _symmetry_equiv_pos_as_xyz
  1  'x, y, z'
loop_
 _atom_site_type_symbol
 _atom_site_label
 _atom_site_symmetry_multiplicity
 _atom_site_fract_x
 _atom_site_fract_y
 _atom_site_fract_z
 _atom_site_occupancy
  Tm  Tm0  1  0.25000000  0.25000000  0.25000000  1
  Tm  Tm1  1  0.25000000  0.75000000  0.75000000  1
  Tm  Tm2  1  0.75000000  0.25000000  0.75000000  1
  Tm  Tm3  1  0.75000000  0.75000000  0.25000000  1
  In  In4  1  0.00000000  0.00000000  0.00000000  1
  In  In5  1  0.00000000  0.50000000  0.50000000  1
  In  In6  1  0.50000000  0.00000000  0.50000000  1
  In  In7  1  0.50000000  0.50000000  0.00000000  1
  Ni  Ni8  1  0.12569400  0.37430600  0.87430600  1
  Ni  Ni9  1  0.37430600  0.12569400  0.87430600  1
  Ni  Ni10  1  0.87430600  0.37430600  0.12569400  1
  Ni  Ni11  1  0.62569400  0.12569400  0.12569400  1
  Ni  Ni12  1  0.12569400  0.87430600  0.37430600  1
  Ni  Ni13  1  0.37430600  0.62569400  0.37430600  1
  Ni  Ni14  1  0.87430600  0.87430600  0.62569400  1
  Ni  Ni15  1  0.62569400  0.62569400  0.62569400  1
  Ni  Ni16  1  0.62569400  0.37430600  0.37430600  1
  Ni  Ni17  1  0.87430600  0.12569400  0.37430600  1
  Ni  Ni18  1  0.37430600  0.37430600  0.62569400  1
  Ni  Ni19  1  0.12569400  0.12569400  0.62569400  1
  Ni  Ni20  1  0.62569400  0.87430600  0.87430600  1
  Ni  Ni21  1  0.87430600  0.62569400  0.87430600  1
  Ni  Ni22  1  0.37430600  0.87430600  0.12569400  1
  Ni  Ni23  1  0.12569400  0.62569400  0.12569400  1
