# generated using pymatgen
data_NbAs
_symmetry_space_group_name_H-M   'P 1'
_cell_length_a   3.48467800
_cell_length_b   3.48467800
_cell_length_c   11.76149000
_cell_angle_alpha   90.00000000
_cell_angle_beta   90.00000000
_cell_angle_gamma   90.00000000
_symmetry_Int_Tables_number   1
_chemical_formula_structural   NbAs
_chemical_formula_sum   'Nb4 As4'
_cell_volume   142.81954682
_cell_formula_units_Z   4
loop_
 _symmetry_equiv_pos_site_id
 _symmetry_equiv_pos_as_xyz
  1  'x, y, z'
loop_
 _atom_site_type_symbol
 _atom_site_label
 _atom_site_symmetry_multiplicity
 _atom_site_fract_x
 _atom_site_fract_y
 _atom_site_fract_z
 _atom_site_occupancy
  Nb  Nb0  1  0.50000000  0.50000000  0.99934300  1
  Nb  Nb1  1  0.50000000  0.00000000  0.24934300  1
  Nb  Nb2  1  0.00000000  0.00000000  0.49934300  1
  Nb  Nb3  1  0.00000000  0.50000000  0.74934300  1
  As  As4  1  0.00000000  0.00000000  0.91765700  1
  As  As5  1  0.00000000  0.50000000  0.16765700  1
  As  As6  1  0.50000000  0.50000000  0.41765700  1
  As  As7  1  0.50000000  0.00000000  0.66765700  1
