# generated using pymatgen
data_Sn4Pt
_symmetry_space_group_name_H-M   'P 1'
_cell_length_a   6.53413400
_cell_length_b   11.57861600
_cell_length_c   6.51897600
_cell_angle_alpha   90.00000000
_cell_angle_beta   90.00000000
_cell_angle_gamma   90.00000000
_symmetry_Int_Tables_number   1
_chemical_formula_structural   Sn4Pt
_chemical_formula_sum   'Sn16 Pt4'
_cell_volume   493.20113770
_cell_formula_units_Z   4
loop_
 _symmetry_equiv_pos_site_id
 _symmetry_equiv_pos_as_xyz
  1  'x, y, z'
loop_
 _atom_site_type_symbol
 _atom_site_label
 _atom_site_symmetry_multiplicity
 _atom_site_fract_x
 _atom_site_fract_y
 _atom_site_fract_z
 _atom_site_occupancy
  Sn  Sn0  1  0.66628600  0.12540300  0.16662600  1
  Sn  Sn1  1  0.83371400  0.37459700  0.16662600  1
  Sn  Sn2  1  0.66628600  0.37459700  0.66662600  1
  Sn  Sn3  1  0.83371400  0.12540300  0.66662600  1
  Sn  Sn4  1  0.16628600  0.12540300  0.33337400  1
  Sn  Sn5  1  0.33371400  0.37459700  0.33337400  1
  Sn  Sn6  1  0.33371400  0.12540300  0.83337400  1
  Sn  Sn7  1  0.16628600  0.37459700  0.83337400  1
  Sn  Sn8  1  0.16628600  0.62540300  0.16662600  1
  Sn  Sn9  1  0.33371400  0.87459700  0.16662600  1
  Sn  Sn10  1  0.16628600  0.87459700  0.66662600  1
  Sn  Sn11  1  0.33371400  0.62540300  0.66662600  1
  Sn  Sn12  1  0.66628600  0.62540300  0.33337400  1
  Sn  Sn13  1  0.83371400  0.87459700  0.33337400  1
  Sn  Sn14  1  0.83371400  0.62540300  0.83337400  1
  Sn  Sn15  1  0.66628600  0.87459700  0.83337400  1
  Pt  Pt16  1  0.00000000  0.00000000  0.00000000  1
  Pt  Pt17  1  0.50000000  0.00000000  0.50000000  1
  Pt  Pt18  1  0.50000000  0.50000000  0.00000000  1
  Pt  Pt19  1  0.00000000  0.50000000  0.50000000  1
