# generated using pymatgen
data_TiZn16
_symmetry_space_group_name_H-M   'P 1'
_cell_length_a   7.70726800
_cell_length_b   11.51885400
_cell_length_c   11.67330700
_cell_angle_alpha   90.00000000
_cell_angle_beta   90.00000000
_cell_angle_gamma   90.00000000
_symmetry_Int_Tables_number   1
_chemical_formula_structural   TiZn16
_chemical_formula_sum   'Ti4 Zn64'
_cell_volume   1036.34329448
_cell_formula_units_Z   4
loop_
 _symmetry_equiv_pos_site_id
 _symmetry_equiv_pos_as_xyz
  1  'x, y, z'
loop_
 _atom_site_type_symbol
 _atom_site_label
 _atom_site_symmetry_multiplicity
 _atom_site_fract_x
 _atom_site_fract_y
 _atom_site_fract_z
 _atom_site_occupancy
  Ti  Ti0  1  0.50000000  0.45289600  0.25000000  1
  Ti  Ti1  1  0.50000000  0.54710400  0.75000000  1
  Ti  Ti2  1  0.00000000  0.95289600  0.25000000  1
  Ti  Ti3  1  0.00000000  0.04710400  0.75000000  1
  Zn  Zn4  1  0.66814450  0.31476750  0.43075200  1
  Zn  Zn5  1  0.33185550  0.68523250  0.93075200  1
  Zn  Zn6  1  0.66814450  0.68523250  0.56924800  1
  Zn  Zn7  1  0.33185550  0.31476750  0.06924800  1
  Zn  Zn8  1  0.33185550  0.68523250  0.56924800  1
  Zn  Zn9  1  0.66814450  0.31476750  0.06924800  1
  Zn  Zn10  1  0.33185550  0.31476750  0.43075200  1
  Zn  Zn11  1  0.66814450  0.68523250  0.93075200  1
  Zn  Zn12  1  0.70569050  0.05296350  0.36496800  1
  Zn  Zn13  1  0.29430950  0.94703650  0.86496800  1
  Zn  Zn14  1  0.70569050  0.94703650  0.63503200  1
  Zn  Zn15  1  0.29430950  0.05296350  0.13503200  1
  Zn  Zn16  1  0.29430950  0.94703650  0.63503200  1
  Zn  Zn17  1  0.70569050  0.05296350  0.13503200  1
  Zn  Zn18  1  0.29430950  0.05296350  0.36496800  1
  Zn  Zn19  1  0.70569050  0.94703650  0.86496800  1
  Zn  Zn20  1  0.33463950  0.85742750  0.25000000  1
  Zn  Zn21  1  0.66536050  0.14257250  0.75000000  1
  Zn  Zn22  1  0.33463950  0.14257250  0.75000000  1
  Zn  Zn23  1  0.66536050  0.85742750  0.25000000  1
  Zn  Zn24  1  0.50000000  0.32402600  0.85913100  1
  Zn  Zn25  1  0.50000000  0.67597400  0.35913100  1
  Zn  Zn26  1  0.50000000  0.67597400  0.14086900  1
  Zn  Zn27  1  0.50000000  0.32402600  0.64086900  1
  Zn  Zn28  1  0.50000000  0.87932600  0.46923800  1
  Zn  Zn29  1  0.50000000  0.12067400  0.96923800  1
  Zn  Zn30  1  0.50000000  0.12067400  0.53076200  1
  Zn  Zn31  1  0.50000000  0.87932600  0.03076200  1
  Zn  Zn32  1  0.50000000  0.21124100  0.25000000  1
  Zn  Zn33  1  0.50000000  0.78875900  0.75000000  1
  Zn  Zn34  1  0.00000000  0.00000000  0.50000000  1
  Zn  Zn35  1  0.00000000  0.00000000  0.00000000  1
  Zn  Zn36  1  0.16814450  0.81476750  0.43075200  1
  Zn  Zn37  1  0.83185550  0.18523250  0.93075200  1
  Zn  Zn38  1  0.16814450  0.18523250  0.56924800  1
  Zn  Zn39  1  0.83185550  0.81476750  0.06924800  1
  Zn  Zn40  1  0.83185550  0.18523250  0.56924800  1
  Zn  Zn41  1  0.16814450  0.81476750  0.06924800  1
  Zn  Zn42  1  0.83185550  0.81476750  0.43075200  1
  Zn  Zn43  1  0.16814450  0.18523250  0.93075200  1
  Zn  Zn44  1  0.20569050  0.55296350  0.36496800  1
  Zn  Zn45  1  0.79430950  0.44703650  0.86496800  1
  Zn  Zn46  1  0.20569050  0.44703650  0.63503200  1
  Zn  Zn47  1  0.79430950  0.55296350  0.13503200  1
  Zn  Zn48  1  0.79430950  0.44703650  0.63503200  1
  Zn  Zn49  1  0.20569050  0.55296350  0.13503200  1
  Zn  Zn50  1  0.79430950  0.55296350  0.36496800  1
  Zn  Zn51  1  0.20569050  0.44703650  0.86496800  1
  Zn  Zn52  1  0.83463950  0.35742750  0.25000000  1
  Zn  Zn53  1  0.16536050  0.64257250  0.75000000  1
  Zn  Zn54  1  0.83463950  0.64257250  0.75000000  1
  Zn  Zn55  1  0.16536050  0.35742750  0.25000000  1
  Zn  Zn56  1  0.00000000  0.82402600  0.85913100  1
  Zn  Zn57  1  0.00000000  0.17597400  0.35913100  1
  Zn  Zn58  1  0.00000000  0.17597400  0.14086900  1
  Zn  Zn59  1  0.00000000  0.82402600  0.64086900  1
  Zn  Zn60  1  0.00000000  0.37932600  0.46923800  1
  Zn  Zn61  1  0.00000000  0.62067400  0.96923800  1
  Zn  Zn62  1  0.00000000  0.62067400  0.53076200  1
  Zn  Zn63  1  0.00000000  0.37932600  0.03076200  1
  Zn  Zn64  1  0.00000000  0.71124100  0.25000000  1
  Zn  Zn65  1  0.00000000  0.28875900  0.75000000  1
  Zn  Zn66  1  0.50000000  0.50000000  0.50000000  1
  Zn  Zn67  1  0.50000000  0.50000000  0.00000000  1
