# generated using pymatgen
data_Na3(GePt)4
_symmetry_space_group_name_H-M   'P 1'
_cell_length_a   7.72383800
_cell_length_b   7.72383800
_cell_length_c   7.72383800
_cell_angle_alpha   90.00000000
_cell_angle_beta   90.00000000
_cell_angle_gamma   90.00000000
_symmetry_Int_Tables_number   1
_chemical_formula_structural   Na3(GePt)4
_chemical_formula_sum   'Na6 Ge8 Pt8'
_cell_volume   460.78620519
_cell_formula_units_Z   2
loop_
 _symmetry_equiv_pos_site_id
 _symmetry_equiv_pos_as_xyz
  1  'x, y, z'
loop_
 _atom_site_type_symbol
 _atom_site_label
 _atom_site_symmetry_multiplicity
 _atom_site_fract_x
 _atom_site_fract_y
 _atom_site_fract_z
 _atom_site_occupancy
  Na  Na0  1  0.00000000  0.00000000  0.50000000  1
  Na  Na1  1  0.50000000  0.00000000  0.00000000  1
  Na  Na2  1  0.00000000  0.50000000  0.00000000  1
  Na  Na3  1  0.50000000  0.50000000  0.00000000  1
  Na  Na4  1  0.00000000  0.50000000  0.50000000  1
  Na  Na5  1  0.50000000  0.00000000  0.50000000  1
  Ge  Ge6  1  0.81648200  0.18351800  0.18351800  1
  Ge  Ge7  1  0.18351800  0.18351800  0.81648200  1
  Ge  Ge8  1  0.18351800  0.81648200  0.18351800  1
  Ge  Ge9  1  0.31648200  0.31648200  0.31648200  1
  Ge  Ge10  1  0.31648200  0.68351800  0.68351800  1
  Ge  Ge11  1  0.68351800  0.68351800  0.31648200  1
  Ge  Ge12  1  0.68351800  0.31648200  0.68351800  1
  Ge  Ge13  1  0.81648200  0.81648200  0.81648200  1
  Pt  Pt14  1  0.36116400  0.63883600  0.36116400  1
  Pt  Pt15  1  0.36116400  0.36116400  0.63883600  1
  Pt  Pt16  1  0.13883600  0.13883600  0.13883600  1
  Pt  Pt17  1  0.63883600  0.36116400  0.36116400  1
  Pt  Pt18  1  0.86116400  0.13883600  0.86116400  1
  Pt  Pt19  1  0.86116400  0.86116400  0.13883600  1
  Pt  Pt20  1  0.63883600  0.63883600  0.63883600  1
  Pt  Pt21  1  0.13883600  0.86116400  0.86116400  1
