# generated using pymatgen
data_TbZn2
_symmetry_space_group_name_H-M   'P 1'
_cell_length_a   4.49230200
_cell_length_b   7.17468600
_cell_length_c   7.58208800
_cell_angle_alpha   90.00000000
_cell_angle_beta   90.00000000
_cell_angle_gamma   90.00000000
_symmetry_Int_Tables_number   1
_chemical_formula_structural   TbZn2
_chemical_formula_sum   'Tb4 Zn8'
_cell_volume   244.37718853
_cell_formula_units_Z   4
loop_
 _symmetry_equiv_pos_site_id
 _symmetry_equiv_pos_as_xyz
  1  'x, y, z'
loop_
 _atom_site_type_symbol
 _atom_site_label
 _atom_site_symmetry_multiplicity
 _atom_site_fract_x
 _atom_site_fract_y
 _atom_site_fract_z
 _atom_site_occupancy
  Tb  Tb0  1  0.00000000  0.75000000  0.47011500  1
  Tb  Tb1  1  0.00000000  0.25000000  0.52988500  1
  Tb  Tb2  1  0.50000000  0.25000000  0.97011500  1
  Tb  Tb3  1  0.50000000  0.75000000  0.02988500  1
  Zn  Zn4  1  0.00000000  0.04375600  0.16586300  1
  Zn  Zn5  1  0.00000000  0.95624400  0.83413700  1
  Zn  Zn6  1  0.50000000  0.95624400  0.66586300  1
  Zn  Zn7  1  0.50000000  0.04375600  0.33413700  1
  Zn  Zn8  1  0.50000000  0.54375600  0.66586300  1
  Zn  Zn9  1  0.50000000  0.45624400  0.33413700  1
  Zn  Zn10  1  0.00000000  0.45624400  0.16586300  1
  Zn  Zn11  1  0.00000000  0.54375600  0.83413700  1
