# generated using pymatgen
data_Ba(NiP2)2
_symmetry_space_group_name_H-M   'P 1'
_cell_length_a   6.57760600
_cell_length_b   6.57760600
_cell_length_c   5.78066800
_cell_angle_alpha   90.00000000
_cell_angle_beta   90.00000000
_cell_angle_gamma   90.00000000
_symmetry_Int_Tables_number   1
_chemical_formula_structural   Ba(NiP2)2
_chemical_formula_sum   'Ba2 Ni4 P8'
_cell_volume   250.10002695
_cell_formula_units_Z   2
loop_
 _symmetry_equiv_pos_site_id
 _symmetry_equiv_pos_as_xyz
  1  'x, y, z'
loop_
 _atom_site_type_symbol
 _atom_site_label
 _atom_site_symmetry_multiplicity
 _atom_site_fract_x
 _atom_site_fract_y
 _atom_site_fract_z
 _atom_site_occupancy
  Ba  Ba0  1  0.00000000  0.00000000  0.00000000  1
  Ba  Ba1  1  0.50000000  0.50000000  0.50000000  1
  Ni  Ni2  1  0.50000000  0.00000000  0.25000000  1
  Ni  Ni3  1  0.00000000  0.50000000  0.25000000  1
  Ni  Ni4  1  0.00000000  0.50000000  0.75000000  1
  Ni  Ni5  1  0.50000000  0.00000000  0.75000000  1
  P  P6  1  0.00000000  0.24194200  0.50000000  1
  P  P7  1  0.24194200  0.00000000  0.50000000  1
  P  P8  1  0.25805800  0.50000000  0.00000000  1
  P  P9  1  0.50000000  0.25805800  0.00000000  1
  P  P10  1  0.50000000  0.74194200  0.00000000  1
  P  P11  1  0.74194200  0.50000000  0.00000000  1
  P  P12  1  0.75805800  0.00000000  0.50000000  1
  P  P13  1  0.00000000  0.75805800  0.50000000  1
