# generated using pymatgen
data_NbSeI
_symmetry_space_group_name_H-M   'P 1'
_cell_length_a   10.95048200
_cell_length_b   10.95048200
_cell_length_c   10.95048200
_cell_angle_alpha   90.00000000
_cell_angle_beta   90.00000000
_cell_angle_gamma   90.00000000
_symmetry_Int_Tables_number   1
_chemical_formula_structural   NbSeI
_chemical_formula_sum   'Nb16 Se16 I16'
_cell_volume   1313.10576165
_cell_formula_units_Z   16
loop_
 _symmetry_equiv_pos_site_id
 _symmetry_equiv_pos_as_xyz
  1  'x, y, z'
loop_
 _atom_site_type_symbol
 _atom_site_label
 _atom_site_symmetry_multiplicity
 _atom_site_fract_x
 _atom_site_fract_y
 _atom_site_fract_z
 _atom_site_occupancy
  Nb  Nb0  1  0.40182000  0.09818000  0.90182000  1
  Nb  Nb1  1  0.09818000  0.40182000  0.90182000  1
  Nb  Nb2  1  0.90182000  0.40182000  0.09818000  1
  Nb  Nb3  1  0.59818000  0.09818000  0.09818000  1
  Nb  Nb4  1  0.40182000  0.59818000  0.40182000  1
  Nb  Nb5  1  0.09818000  0.90182000  0.40182000  1
  Nb  Nb6  1  0.90182000  0.90182000  0.59818000  1
  Nb  Nb7  1  0.59818000  0.59818000  0.59818000  1
  Nb  Nb8  1  0.90182000  0.09818000  0.40182000  1
  Nb  Nb9  1  0.59818000  0.40182000  0.40182000  1
  Nb  Nb10  1  0.40182000  0.40182000  0.59818000  1
  Nb  Nb11  1  0.09818000  0.09818000  0.59818000  1
  Nb  Nb12  1  0.90182000  0.59818000  0.90182000  1
  Nb  Nb13  1  0.59818000  0.90182000  0.90182000  1
  Nb  Nb14  1  0.40182000  0.90182000  0.09818000  1
  Nb  Nb15  1  0.09818000  0.59818000  0.09818000  1
  Se  Se16  1  0.36910767  0.13089233  0.13089233  1
  Se  Se17  1  0.86910767  0.36910767  0.86910767  1
  Se  Se18  1  0.63089233  0.13089233  0.86910767  1
  Se  Se19  1  0.13089233  0.36910767  0.13089233  1
  Se  Se20  1  0.36910767  0.63089233  0.63089233  1
  Se  Se21  1  0.86910767  0.86910767  0.36910767  1
  Se  Se22  1  0.63089233  0.63089233  0.36910767  1
  Se  Se23  1  0.13089233  0.86910767  0.63089233  1
  Se  Se24  1  0.86910767  0.13089233  0.63089233  1
  Se  Se25  1  0.36910767  0.36910767  0.36910767  1
  Se  Se26  1  0.13089233  0.13089233  0.36910767  1
  Se  Se27  1  0.63089233  0.36910767  0.63089233  1
  Se  Se28  1  0.86910767  0.63089233  0.13089233  1
  Se  Se29  1  0.36910767  0.86910767  0.86910767  1
  Se  Se30  1  0.13089233  0.63089233  0.86910767  1
  Se  Se31  1  0.63089233  0.86910767  0.13089233  1
  I  I32  1  0.12780900  0.37219100  0.62780900  1
  I  I33  1  0.12780900  0.12780900  0.87219100  1
  I  I34  1  0.37219100  0.12780900  0.62780900  1
  I  I35  1  0.37219100  0.37219100  0.87219100  1
  I  I36  1  0.12780900  0.87219100  0.12780900  1
  I  I37  1  0.12780900  0.62780900  0.37219100  1
  I  I38  1  0.37219100  0.62780900  0.12780900  1
  I  I39  1  0.37219100  0.87219100  0.37219100  1
  I  I40  1  0.62780900  0.37219100  0.12780900  1
  I  I41  1  0.62780900  0.12780900  0.37219100  1
  I  I42  1  0.87219100  0.12780900  0.12780900  1
  I  I43  1  0.87219100  0.37219100  0.37219100  1
  I  I44  1  0.62780900  0.87219100  0.62780900  1
  I  I45  1  0.62780900  0.62780900  0.87219100  1
  I  I46  1  0.87219100  0.62780900  0.62780900  1
  I  I47  1  0.87219100  0.87219100  0.87219100  1
