# generated using pymatgen
data_Na5OsO6
_symmetry_space_group_name_H-M   'P 1'
_cell_length_a   5.74615400
_cell_length_b   9.83912200
_cell_length_c   5.65379139
_cell_angle_alpha   90.00000000
_cell_angle_beta   110.95751262
_cell_angle_gamma   90.00000000
_symmetry_Int_Tables_number   1
_chemical_formula_structural   Na5OsO6
_chemical_formula_sum   'Na10 Os2 O12'
_cell_volume   298.50293851
_cell_formula_units_Z   2
loop_
 _symmetry_equiv_pos_site_id
 _symmetry_equiv_pos_as_xyz
  1  'x, y, z'
loop_
 _atom_site_type_symbol
 _atom_site_label
 _atom_site_symmetry_multiplicity
 _atom_site_fract_x
 _atom_site_fract_y
 _atom_site_fract_z
 _atom_site_occupancy
  Na  Na0  1  0.50000000  0.83297500  0.00000000  1
  Na  Na1  1  0.50000000  0.32595600  0.50000000  1
  Na  Na2  1  0.50000000  0.00000000  0.50000000  1
  Na  Na3  1  0.50000000  0.16702500  0.00000000  1
  Na  Na4  1  0.50000000  0.67404400  0.50000000  1
  Na  Na5  1  0.00000000  0.33297500  0.00000000  1
  Na  Na6  1  0.00000000  0.82595600  0.50000000  1
  Na  Na7  1  0.00000000  0.50000000  0.50000000  1
  Na  Na8  1  0.00000000  0.66702500  0.00000000  1
  Na  Na9  1  0.00000000  0.17404400  0.50000000  1
  Os  Os10  1  0.00000000  0.00000000  0.00000000  1
  Os  Os11  1  0.50000000  0.50000000  0.00000000  1
  O  O12  1  0.20149100  0.00000000  0.79668200  1
  O  O13  1  0.79850900  0.00000000  0.20331800  1
  O  O14  1  0.78980050  0.13927050  0.78415500  1
  O  O15  1  0.21019950  0.13927050  0.21584500  1
  O  O16  1  0.21019950  0.86072950  0.21584500  1
  O  O17  1  0.78980050  0.86072950  0.78415500  1
  O  O18  1  0.70149100  0.50000000  0.79668200  1
  O  O19  1  0.29850900  0.50000000  0.20331800  1
  O  O20  1  0.28980050  0.63927050  0.78415500  1
  O  O21  1  0.71019950  0.63927050  0.21584500  1
  O  O22  1  0.71019950  0.36072950  0.21584500  1
  O  O23  1  0.28980050  0.36072950  0.78415500  1
