# generated using pymatgen
data_SrZnBi2
_symmetry_space_group_name_H-M   'P 1'
_cell_length_a   4.63437600
_cell_length_b   4.63437600
_cell_length_c   22.63546200
_cell_angle_alpha   90.00000000
_cell_angle_beta   90.00000000
_cell_angle_gamma   90.00000000
_symmetry_Int_Tables_number   1
_chemical_formula_structural   SrZnBi2
_chemical_formula_sum   'Sr4 Zn4 Bi8'
_cell_volume   486.15179756
_cell_formula_units_Z   4
loop_
 _symmetry_equiv_pos_site_id
 _symmetry_equiv_pos_as_xyz
  1  'x, y, z'
loop_
 _atom_site_type_symbol
 _atom_site_label
 _atom_site_symmetry_multiplicity
 _atom_site_fract_x
 _atom_site_fract_y
 _atom_site_fract_z
 _atom_site_occupancy
  Sr  Sr0  1  0.50000000  0.50000000  0.37884900  1
  Sr  Sr1  1  0.00000000  0.00000000  0.12115100  1
  Sr  Sr2  1  0.00000000  0.00000000  0.87884900  1
  Sr  Sr3  1  0.50000000  0.50000000  0.62115100  1
  Zn  Zn4  1  0.00000000  0.50000000  0.25000000  1
  Zn  Zn5  1  0.50000000  0.00000000  0.25000000  1
  Zn  Zn6  1  0.50000000  0.00000000  0.75000000  1
  Zn  Zn7  1  0.00000000  0.50000000  0.75000000  1
  Bi  Bi8  1  0.00000000  0.00000000  0.32823000  1
  Bi  Bi9  1  0.50000000  0.50000000  0.17177000  1
  Bi  Bi10  1  0.50000000  0.00000000  0.00000000  1
  Bi  Bi11  1  0.00000000  0.50000000  0.00000000  1
  Bi  Bi12  1  0.50000000  0.50000000  0.82823000  1
  Bi  Bi13  1  0.00000000  0.00000000  0.67177000  1
  Bi  Bi14  1  0.00000000  0.50000000  0.50000000  1
  Bi  Bi15  1  0.50000000  0.00000000  0.50000000  1
