# generated using pymatgen
data_CaSi2
_symmetry_space_group_name_H-M   'P 1'
_cell_length_a   3.87491813
_cell_length_b   3.87491813
_cell_length_c   30.39994148
_cell_angle_alpha   90.00000000
_cell_angle_beta   90.00000000
_cell_angle_gamma   120.00000000
_symmetry_Int_Tables_number   1
_chemical_formula_structural   CaSi2
_chemical_formula_sum   'Ca6 Si12'
_cell_volume   395.30148127
_cell_formula_units_Z   6
loop_
 _symmetry_equiv_pos_site_id
 _symmetry_equiv_pos_as_xyz
  1  'x, y, z'
loop_
 _atom_site_type_symbol
 _atom_site_label
 _atom_site_symmetry_multiplicity
 _atom_site_fract_x
 _atom_site_fract_y
 _atom_site_fract_z
 _atom_site_occupancy
  Ca  Ca0  1  0.00000000  0.00000000  0.07995500  1
  Ca  Ca1  1  0.66666667  0.33333333  0.25337833  1
  Ca  Ca2  1  0.66666667  0.33333333  0.41328833  1
  Ca  Ca3  1  0.33333333  0.66666667  0.58671167  1
  Ca  Ca4  1  0.33333333  0.66666667  0.74662167  1
  Ca  Ca5  1  0.00000000  0.00000000  0.92004500  1
  Si  Si6  1  0.00000000  0.00000000  0.18260500  1
  Si  Si7  1  0.66666667  0.33333333  0.15072833  1
  Si  Si8  1  0.33333333  0.66666667  0.01373267  1
  Si  Si9  1  0.33333333  0.66666667  0.31960067  1
  Si  Si10  1  0.66666667  0.33333333  0.51593833  1
  Si  Si11  1  0.33333333  0.66666667  0.48406167  1
  Si  Si12  1  0.00000000  0.00000000  0.34706600  1
  Si  Si13  1  0.00000000  0.00000000  0.65293400  1
  Si  Si14  1  0.33333333  0.66666667  0.84927167  1
  Si  Si15  1  0.00000000  0.00000000  0.81739500  1
  Si  Si16  1  0.66666667  0.33333333  0.68039933  1
  Si  Si17  1  0.66666667  0.33333333  0.98626733  1
