# generated using pymatgen
data_Ca(Cu2As)2
_symmetry_space_group_name_H-M   'P 1'
_cell_length_a   4.16397363
_cell_length_b   4.16397363
_cell_length_c   22.59108878
_cell_angle_alpha   90.00000000
_cell_angle_beta   90.00000000
_cell_angle_gamma   120.00000000
_symmetry_Int_Tables_number   1
_chemical_formula_structural   Ca(Cu2As)2
_chemical_formula_sum   'Ca3 Cu12 As6'
_cell_volume   339.22178504
_cell_formula_units_Z   3
loop_
 _symmetry_equiv_pos_site_id
 _symmetry_equiv_pos_as_xyz
  1  'x, y, z'
loop_
 _atom_site_type_symbol
 _atom_site_label
 _atom_site_symmetry_multiplicity
 _atom_site_fract_x
 _atom_site_fract_y
 _atom_site_fract_z
 _atom_site_occupancy
  Ca  Ca0  1  0.00000000  0.00000000  0.00000000  1
  Ca  Ca1  1  0.66666667  0.33333333  0.33333333  1
  Ca  Ca2  1  0.33333333  0.66666667  0.66666667  1
  Cu  Cu3  1  0.00000000  0.00000000  0.14423300  1
  Cu  Cu4  1  0.33333333  0.66666667  0.22984267  1
  Cu  Cu5  1  0.66666667  0.33333333  0.18910033  1
  Cu  Cu6  1  0.33333333  0.66666667  0.10349067  1
  Cu  Cu7  1  0.66666667  0.33333333  0.47756633  1
  Cu  Cu8  1  0.00000000  0.00000000  0.56317600  1
  Cu  Cu9  1  0.33333333  0.66666667  0.52243367  1
  Cu  Cu10  1  0.00000000  0.00000000  0.43682400  1
  Cu  Cu11  1  0.33333333  0.66666667  0.81089967  1
  Cu  Cu12  1  0.66666667  0.33333333  0.89650933  1
  Cu  Cu13  1  0.00000000  0.00000000  0.85576700  1
  Cu  Cu14  1  0.66666667  0.33333333  0.77015733  1
  As  As15  1  0.00000000  0.00000000  0.25318200  1
  As  As16  1  0.66666667  0.33333333  0.08015133  1
  As  As17  1  0.66666667  0.33333333  0.58651533  1
  As  As18  1  0.33333333  0.66666667  0.41348467  1
  As  As19  1  0.33333333  0.66666667  0.91984867  1
  As  As20  1  0.00000000  0.00000000  0.74681800  1
