# generated using pymatgen
data_BaFe2S3
_symmetry_space_group_name_H-M   'P 1'
_cell_length_a   8.75324200
_cell_length_b   10.74732600
_cell_length_c   5.16512400
_cell_angle_alpha   90.00000000
_cell_angle_beta   90.00000000
_cell_angle_gamma   90.00000000
_symmetry_Int_Tables_number   1
_chemical_formula_structural   BaFe2S3
_chemical_formula_sum   'Ba4 Fe8 S12'
_cell_volume   485.90359280
_cell_formula_units_Z   4
loop_
 _symmetry_equiv_pos_site_id
 _symmetry_equiv_pos_as_xyz
  1  'x, y, z'
loop_
 _atom_site_type_symbol
 _atom_site_label
 _atom_site_symmetry_multiplicity
 _atom_site_fract_x
 _atom_site_fract_y
 _atom_site_fract_z
 _atom_site_occupancy
  Ba  Ba0  1  0.50000000  0.81711400  0.25000000  1
  Ba  Ba1  1  0.50000000  0.18288600  0.75000000  1
  Ba  Ba2  1  0.00000000  0.31711400  0.25000000  1
  Ba  Ba3  1  0.00000000  0.68288600  0.75000000  1
  Fe  Fe4  1  0.14517500  0.00000000  0.00000000  1
  Fe  Fe5  1  0.85482500  0.00000000  0.00000000  1
  Fe  Fe6  1  0.85482500  0.00000000  0.50000000  1
  Fe  Fe7  1  0.14517500  0.00000000  0.50000000  1
  Fe  Fe8  1  0.64517500  0.50000000  0.00000000  1
  Fe  Fe9  1  0.35482500  0.50000000  0.00000000  1
  Fe  Fe10  1  0.35482500  0.50000000  0.50000000  1
  Fe  Fe11  1  0.64517500  0.50000000  0.50000000  1
  S  S12  1  0.70970000  0.89031000  0.75000000  1
  S  S13  1  0.29030000  0.10969000  0.25000000  1
  S  S14  1  0.70970000  0.10969000  0.25000000  1
  S  S15  1  0.29030000  0.89031000  0.75000000  1
  S  S16  1  0.50000000  0.61017500  0.75000000  1
  S  S17  1  0.50000000  0.38982500  0.25000000  1
  S  S18  1  0.20970000  0.39031000  0.75000000  1
  S  S19  1  0.79030000  0.60969000  0.25000000  1
  S  S20  1  0.20970000  0.60969000  0.25000000  1
  S  S21  1  0.79030000  0.39031000  0.75000000  1
  S  S22  1  0.00000000  0.11017500  0.75000000  1
  S  S23  1  0.00000000  0.88982500  0.25000000  1
