# generated using pymatgen
data_VPt3
_symmetry_space_group_name_H-M   'P 1'
_cell_length_a   3.89251400
_cell_length_b   3.89251400
_cell_length_c   7.93846400
_cell_angle_alpha   90.00000000
_cell_angle_beta   90.00000000
_cell_angle_gamma   90.00000000
_symmetry_Int_Tables_number   1
_chemical_formula_structural   VPt3
_chemical_formula_sum   'V2 Pt6'
_cell_volume   120.28094905
_cell_formula_units_Z   2
loop_
 _symmetry_equiv_pos_site_id
 _symmetry_equiv_pos_as_xyz
  1  'x, y, z'
loop_
 _atom_site_type_symbol
 _atom_site_label
 _atom_site_symmetry_multiplicity
 _atom_site_fract_x
 _atom_site_fract_y
 _atom_site_fract_z
 _atom_site_occupancy
  V  V0  1  0.00000000  0.00000000  0.00000000  1
  V  V1  1  0.50000000  0.50000000  0.50000000  1
  Pt  Pt2  1  0.00000000  0.50000000  0.25000000  1
  Pt  Pt3  1  0.50000000  0.00000000  0.25000000  1
  Pt  Pt4  1  0.50000000  0.50000000  0.00000000  1
  Pt  Pt5  1  0.50000000  0.00000000  0.75000000  1
  Pt  Pt6  1  0.00000000  0.50000000  0.75000000  1
  Pt  Pt7  1  0.00000000  0.00000000  0.50000000  1
