# generated using pymatgen
data_Na2H2Pd
_symmetry_space_group_name_H-M   'P 1'
_cell_length_a   3.58954800
_cell_length_b   3.58954800
_cell_length_c   11.43438400
_cell_angle_alpha   90.00000000
_cell_angle_beta   90.00000000
_cell_angle_gamma   90.00000000
_symmetry_Int_Tables_number   1
_chemical_formula_structural   Na2H2Pd
_chemical_formula_sum   'Na4 H4 Pd2'
_cell_volume   147.33037807
_cell_formula_units_Z   2
loop_
 _symmetry_equiv_pos_site_id
 _symmetry_equiv_pos_as_xyz
  1  'x, y, z'
loop_
 _atom_site_type_symbol
 _atom_site_label
 _atom_site_symmetry_multiplicity
 _atom_site_fract_x
 _atom_site_fract_y
 _atom_site_fract_z
 _atom_site_occupancy
  Na  Na0  1  0.50000000  0.50000000  0.13983600  1
  Na  Na1  1  0.00000000  0.00000000  0.36016400  1
  Na  Na2  1  0.00000000  0.00000000  0.63983600  1
  Na  Na3  1  0.50000000  0.50000000  0.86016400  1
  H  H4  1  0.50000000  0.50000000  0.35130800  1
  H  H5  1  0.00000000  0.00000000  0.14869200  1
  H  H6  1  0.00000000  0.00000000  0.85130800  1
  H  H7  1  0.50000000  0.50000000  0.64869200  1
  Pd  Pd8  1  0.00000000  0.00000000  0.00000000  1
  Pd  Pd9  1  0.50000000  0.50000000  0.50000000  1
