# generated using pymatgen
data_Y2Co3Si5
_symmetry_space_group_name_H-M   'P 1'
_cell_length_a   5.53974600
_cell_length_b   9.52681200
_cell_length_c   11.27007200
_cell_angle_alpha   90.00000000
_cell_angle_beta   90.00000000
_cell_angle_gamma   90.00000000
_symmetry_Int_Tables_number   1
_chemical_formula_structural   Y2Co3Si5
_chemical_formula_sum   'Y8 Co12 Si20'
_cell_volume   594.79065729
_cell_formula_units_Z   4
loop_
 _symmetry_equiv_pos_site_id
 _symmetry_equiv_pos_as_xyz
  1  'x, y, z'
loop_
 _atom_site_type_symbol
 _atom_site_label
 _atom_site_symmetry_multiplicity
 _atom_site_fract_x
 _atom_site_fract_y
 _atom_site_fract_z
 _atom_site_occupancy
  Y  Y0  1  0.50000000  0.26624700  0.86617600  1
  Y  Y1  1  0.50000000  0.73375300  0.13382400  1
  Y  Y2  1  0.00000000  0.26624700  0.13382400  1
  Y  Y3  1  0.00000000  0.73375300  0.86617600  1
  Y  Y4  1  0.00000000  0.76624700  0.36617600  1
  Y  Y5  1  0.00000000  0.23375300  0.63382400  1
  Y  Y6  1  0.50000000  0.76624700  0.63382400  1
  Y  Y7  1  0.50000000  0.23375300  0.36617600  1
  Co  Co8  1  0.25000000  0.00000000  0.00000000  1
  Co  Co9  1  0.00000000  0.39194350  0.86213650  1
  Co  Co10  1  0.50000000  0.60805650  0.86213650  1
  Co  Co11  1  0.50000000  0.39194350  0.13786350  1
  Co  Co12  1  0.75000000  0.00000000  0.00000000  1
  Co  Co13  1  0.00000000  0.60805650  0.13786350  1
  Co  Co14  1  0.75000000  0.50000000  0.50000000  1
  Co  Co15  1  0.50000000  0.89194350  0.36213650  1
  Co  Co16  1  0.00000000  0.10805650  0.36213650  1
  Co  Co17  1  0.00000000  0.89194350  0.63786350  1
  Co  Co18  1  0.25000000  0.50000000  0.50000000  1
  Co  Co19  1  0.50000000  0.10805650  0.63786350  1
  Si  Si20  1  0.00000000  0.84185000  0.10069000  1
  Si  Si21  1  0.00000000  0.15815000  0.89931000  1
  Si  Si22  1  0.50000000  0.84185000  0.89931000  1
  Si  Si23  1  0.50000000  0.15815000  0.10069000  1
  Si  Si24  1  0.25000000  0.50000000  0.27355500  1
  Si  Si25  1  0.25000000  0.50000000  0.72644500  1
  Si  Si26  1  0.75000000  0.50000000  0.72644500  1
  Si  Si27  1  0.25000000  0.50000000  0.00000000  1
  Si  Si28  1  0.75000000  0.50000000  0.00000000  1
  Si  Si29  1  0.75000000  0.50000000  0.27355500  1
  Si  Si30  1  0.50000000  0.34185000  0.60069000  1
  Si  Si31  1  0.50000000  0.65815000  0.39931000  1
  Si  Si32  1  0.00000000  0.34185000  0.39931000  1
  Si  Si33  1  0.00000000  0.65815000  0.60069000  1
  Si  Si34  1  0.75000000  0.00000000  0.77355500  1
  Si  Si35  1  0.75000000  0.00000000  0.22644500  1
  Si  Si36  1  0.25000000  0.00000000  0.22644500  1
  Si  Si37  1  0.75000000  0.00000000  0.50000000  1
  Si  Si38  1  0.25000000  0.00000000  0.50000000  1
  Si  Si39  1  0.25000000  0.00000000  0.77355500  1
