# generated using pymatgen
data_NiGePt2
_symmetry_space_group_name_H-M   'P 1'
_cell_length_a   7.42146400
_cell_length_b   7.77271600
_cell_length_c   7.91211000
_cell_angle_alpha   90.00000000
_cell_angle_beta   90.00000000
_cell_angle_gamma   90.00000000
_symmetry_Int_Tables_number   1
_chemical_formula_structural   NiGePt2
_chemical_formula_sum   'Ni8 Ge8 Pt16'
_cell_volume   456.40952714
_cell_formula_units_Z   8
loop_
 _symmetry_equiv_pos_site_id
 _symmetry_equiv_pos_as_xyz
  1  'x, y, z'
loop_
 _atom_site_type_symbol
 _atom_site_label
 _atom_site_symmetry_multiplicity
 _atom_site_fract_x
 _atom_site_fract_y
 _atom_site_fract_z
 _atom_site_occupancy
  Ni  Ni0  1  0.50000000  0.29861800  0.00000000  1
  Ni  Ni1  1  0.50000000  0.70138200  0.00000000  1
  Ni  Ni2  1  0.50000000  0.79861800  0.50000000  1
  Ni  Ni3  1  0.50000000  0.20138200  0.50000000  1
  Ni  Ni4  1  0.00000000  0.29861800  0.50000000  1
  Ni  Ni5  1  0.00000000  0.70138200  0.50000000  1
  Ni  Ni6  1  0.00000000  0.79861800  0.00000000  1
  Ni  Ni7  1  0.00000000  0.20138200  0.00000000  1
  Ge  Ge8  1  0.50000000  0.00000000  0.26735500  1
  Ge  Ge9  1  0.00000000  0.00000000  0.23264500  1
  Ge  Ge10  1  0.50000000  0.50000000  0.76735500  1
  Ge  Ge11  1  0.00000000  0.50000000  0.73264500  1
  Ge  Ge12  1  0.00000000  0.00000000  0.76735500  1
  Ge  Ge13  1  0.50000000  0.00000000  0.73264500  1
  Ge  Ge14  1  0.00000000  0.50000000  0.26735500  1
  Ge  Ge15  1  0.50000000  0.50000000  0.23264500  1
  Pt  Pt16  1  0.69796000  0.00000000  0.00000000  1
  Pt  Pt17  1  0.75000000  0.25000000  0.25000000  1
  Pt  Pt18  1  0.30204000  0.00000000  0.00000000  1
  Pt  Pt19  1  0.75000000  0.75000000  0.25000000  1
  Pt  Pt20  1  0.69796000  0.50000000  0.50000000  1
  Pt  Pt21  1  0.75000000  0.75000000  0.75000000  1
  Pt  Pt22  1  0.30204000  0.50000000  0.50000000  1
  Pt  Pt23  1  0.75000000  0.25000000  0.75000000  1
  Pt  Pt24  1  0.19796000  0.00000000  0.50000000  1
  Pt  Pt25  1  0.25000000  0.25000000  0.75000000  1
  Pt  Pt26  1  0.80204000  0.00000000  0.50000000  1
  Pt  Pt27  1  0.25000000  0.75000000  0.75000000  1
  Pt  Pt28  1  0.19796000  0.50000000  0.00000000  1
  Pt  Pt29  1  0.25000000  0.75000000  0.25000000  1
  Pt  Pt30  1  0.80204000  0.50000000  0.00000000  1
  Pt  Pt31  1  0.25000000  0.25000000  0.25000000  1
