# generated using pymatgen
data_CuBIr
_symmetry_space_group_name_H-M   'P 1'
_cell_length_a   6.55430400
_cell_length_b   8.74316400
_cell_length_c   10.00342600
_cell_angle_alpha   90.00000000
_cell_angle_beta   90.00000000
_cell_angle_gamma   90.00000000
_symmetry_Int_Tables_number   1
_chemical_formula_structural   CuBIr
_chemical_formula_sum   'Cu16 B16 Ir16'
_cell_volume   573.24987592
_cell_formula_units_Z   16
loop_
 _symmetry_equiv_pos_site_id
 _symmetry_equiv_pos_as_xyz
  1  'x, y, z'
loop_
 _atom_site_type_symbol
 _atom_site_label
 _atom_site_symmetry_multiplicity
 _atom_site_fract_x
 _atom_site_fract_y
 _atom_site_fract_z
 _atom_site_occupancy
  Cu  Cu0  1  0.08844700  0.16304500  0.86515900  1
  Cu  Cu1  1  0.33844700  0.91304500  0.88484100  1
  Cu  Cu2  1  0.83844700  0.08695500  0.61515900  1
  Cu  Cu3  1  0.08844700  0.33695500  0.63484100  1
  Cu  Cu4  1  0.58844700  0.16304500  0.36515900  1
  Cu  Cu5  1  0.83844700  0.91304500  0.38484100  1
  Cu  Cu6  1  0.33844700  0.08695500  0.11515900  1
  Cu  Cu7  1  0.58844700  0.33695500  0.13484100  1
  Cu  Cu8  1  0.58844700  0.66304500  0.86515900  1
  Cu  Cu9  1  0.83844700  0.41304500  0.88484100  1
  Cu  Cu10  1  0.33844700  0.58695500  0.61515900  1
  Cu  Cu11  1  0.58844700  0.83695500  0.63484100  1
  Cu  Cu12  1  0.08844700  0.66304500  0.36515900  1
  Cu  Cu13  1  0.33844700  0.41304500  0.38484100  1
  Cu  Cu14  1  0.83844700  0.58695500  0.11515900  1
  Cu  Cu15  1  0.08844700  0.83695500  0.13484100  1
  B  B16  1  0.27380250  0.80947850  0.51773600  1
  B  B17  1  0.02380250  0.94052150  0.76773600  1
  B  B18  1  0.77380250  0.19052150  0.98226400  1
  B  B19  1  0.52380250  0.05947850  0.73226400  1
  B  B20  1  0.77380250  0.80947850  0.01773600  1
  B  B21  1  0.52380250  0.94052150  0.26773600  1
  B  B22  1  0.27380250  0.19052150  0.48226400  1
  B  B23  1  0.02380250  0.05947850  0.23226400  1
  B  B24  1  0.77380250  0.30947850  0.51773600  1
  B  B25  1  0.52380250  0.44052150  0.76773600  1
  B  B26  1  0.27380250  0.69052150  0.98226400  1
  B  B27  1  0.02380250  0.55947850  0.73226400  1
  B  B28  1  0.27380250  0.30947850  0.01773600  1
  B  B29  1  0.02380250  0.44052150  0.26773600  1
  B  B30  1  0.77380250  0.69052150  0.48226400  1
  B  B31  1  0.52380250  0.55947850  0.23226400  1
  Ir  Ir32  1  0.75015100  0.98411650  0.86338550  1
  Ir  Ir33  1  0.00015100  0.76588350  0.61338550  1
  Ir  Ir34  1  0.50015100  0.23411650  0.88661450  1
  Ir  Ir35  1  0.25015100  0.01588350  0.63661450  1
  Ir  Ir36  1  0.25015100  0.98411650  0.36338550  1
  Ir  Ir37  1  0.50015100  0.76588350  0.11338550  1
  Ir  Ir38  1  0.00015100  0.23411650  0.38661450  1
  Ir  Ir39  1  0.75015100  0.01588350  0.13661450  1
  Ir  Ir40  1  0.25015100  0.48411650  0.86338550  1
  Ir  Ir41  1  0.50015100  0.26588350  0.61338550  1
  Ir  Ir42  1  0.00015100  0.73411650  0.88661450  1
  Ir  Ir43  1  0.75015100  0.51588350  0.63661450  1
  Ir  Ir44  1  0.75015100  0.48411650  0.36338550  1
  Ir  Ir45  1  0.00015100  0.26588350  0.11338550  1
  Ir  Ir46  1  0.50015100  0.73411650  0.38661450  1
  Ir  Ir47  1  0.25015100  0.51588350  0.13661450  1
