# generated using pymatgen
data_NaHg
_symmetry_space_group_name_H-M   'P 1'
_cell_length_a   7.30058400
_cell_length_b   10.86628600
_cell_length_c   5.39605100
_cell_angle_alpha   90.00000000
_cell_angle_beta   90.00000000
_cell_angle_gamma   90.00000000
_symmetry_Int_Tables_number   1
_chemical_formula_structural   NaHg
_chemical_formula_sum   'Na8 Hg8'
_cell_volume   428.06998695
_cell_formula_units_Z   8
loop_
 _symmetry_equiv_pos_site_id
 _symmetry_equiv_pos_as_xyz
  1  'x, y, z'
loop_
 _atom_site_type_symbol
 _atom_site_label
 _atom_site_symmetry_multiplicity
 _atom_site_fract_x
 _atom_site_fract_y
 _atom_site_fract_z
 _atom_site_occupancy
  Na  Na0  1  0.50000000  0.67366300  0.75000000  1
  Na  Na1  1  0.50000000  0.32633700  0.25000000  1
  Na  Na2  1  0.50000000  0.12608500  0.75000000  1
  Na  Na3  1  0.50000000  0.87391500  0.25000000  1
  Na  Na4  1  0.00000000  0.17366300  0.75000000  1
  Na  Na5  1  0.00000000  0.82633700  0.25000000  1
  Na  Na6  1  0.00000000  0.62608500  0.75000000  1
  Na  Na7  1  0.00000000  0.37391500  0.25000000  1
  Hg  Hg8  1  0.78726150  0.09372250  0.25000000  1
  Hg  Hg9  1  0.21273850  0.90627750  0.75000000  1
  Hg  Hg10  1  0.78726150  0.90627750  0.75000000  1
  Hg  Hg11  1  0.21273850  0.09372250  0.25000000  1
  Hg  Hg12  1  0.28726150  0.59372250  0.25000000  1
  Hg  Hg13  1  0.71273850  0.40627750  0.75000000  1
  Hg  Hg14  1  0.28726150  0.40627750  0.75000000  1
  Hg  Hg15  1  0.71273850  0.59372250  0.25000000  1
