# generated using pymatgen
data_Li9Ge4
_symmetry_space_group_name_H-M   'P 1'
_cell_length_a   4.44303600
_cell_length_b   7.76685400
_cell_length_c   23.74006800
_cell_angle_alpha   90.00000000
_cell_angle_beta   90.00000000
_cell_angle_gamma   90.00000000
_symmetry_Int_Tables_number   1
_chemical_formula_structural   Li9Ge4
_chemical_formula_sum   'Li36 Ge16'
_cell_volume   819.23204576
_cell_formula_units_Z   4
loop_
 _symmetry_equiv_pos_site_id
 _symmetry_equiv_pos_as_xyz
  1  'x, y, z'
loop_
 _atom_site_type_symbol
 _atom_site_label
 _atom_site_symmetry_multiplicity
 _atom_site_fract_x
 _atom_site_fract_y
 _atom_site_fract_z
 _atom_site_occupancy
  Li  Li0  1  0.00000000  0.15339500  0.75000000  1
  Li  Li1  1  0.50000000  0.34660500  0.25000000  1
  Li  Li2  1  0.50000000  0.33680200  0.01710800  1
  Li  Li3  1  0.00000000  0.16319800  0.98289200  1
  Li  Li4  1  0.00000000  0.16319800  0.51710800  1
  Li  Li5  1  0.50000000  0.33680200  0.48289200  1
  Li  Li6  1  0.50000000  0.34758200  0.13186200  1
  Li  Li7  1  0.00000000  0.15241800  0.86813800  1
  Li  Li8  1  0.00000000  0.17723600  0.09298400  1
  Li  Li9  1  0.50000000  0.32276400  0.90701600  1
  Li  Li10  1  0.50000000  0.32276400  0.59298400  1
  Li  Li11  1  0.00000000  0.17723600  0.40701600  1
  Li  Li12  1  0.50000000  0.01257800  0.32340200  1
  Li  Li13  1  0.00000000  0.48742200  0.67659800  1
  Li  Li14  1  0.00000000  0.48742200  0.82340200  1
  Li  Li15  1  0.50000000  0.01257800  0.17659800  1
  Li  Li16  1  0.50000000  0.34758200  0.36813800  1
  Li  Li17  1  0.00000000  0.15241800  0.63186200  1
  Li  Li18  1  0.50000000  0.65339500  0.75000000  1
  Li  Li19  1  0.00000000  0.84660500  0.25000000  1
  Li  Li20  1  0.00000000  0.83680200  0.01710800  1
  Li  Li21  1  0.50000000  0.66319800  0.98289200  1
  Li  Li22  1  0.50000000  0.66319800  0.51710800  1
  Li  Li23  1  0.00000000  0.83680200  0.48289200  1
  Li  Li24  1  0.00000000  0.84758200  0.13186200  1
  Li  Li25  1  0.50000000  0.65241800  0.86813800  1
  Li  Li26  1  0.50000000  0.67723600  0.09298400  1
  Li  Li27  1  0.00000000  0.82276400  0.90701600  1
  Li  Li28  1  0.00000000  0.82276400  0.59298400  1
  Li  Li29  1  0.50000000  0.67723600  0.40701600  1
  Li  Li30  1  0.00000000  0.51257800  0.32340200  1
  Li  Li31  1  0.50000000  0.98742200  0.67659800  1
  Li  Li32  1  0.50000000  0.98742200  0.82340200  1
  Li  Li33  1  0.00000000  0.51257800  0.17659800  1
  Li  Li34  1  0.00000000  0.84758200  0.36813800  1
  Li  Li35  1  0.50000000  0.65241800  0.63186200  1
  Ge  Ge36  1  0.50000000  0.00607900  0.05447200  1
  Ge  Ge37  1  0.00000000  0.49392100  0.94552800  1
  Ge  Ge38  1  0.00000000  0.49392100  0.55447200  1
  Ge  Ge39  1  0.50000000  0.00607900  0.44552800  1
  Ge  Ge40  1  0.00000000  0.17946600  0.19919500  1
  Ge  Ge41  1  0.50000000  0.32053400  0.80080500  1
  Ge  Ge42  1  0.50000000  0.32053400  0.69919500  1
  Ge  Ge43  1  0.00000000  0.17946600  0.30080500  1
  Ge  Ge44  1  0.00000000  0.50607900  0.05447200  1
  Ge  Ge45  1  0.50000000  0.99392100  0.94552800  1
  Ge  Ge46  1  0.50000000  0.99392100  0.55447200  1
  Ge  Ge47  1  0.00000000  0.50607900  0.44552800  1
  Ge  Ge48  1  0.50000000  0.67946600  0.19919500  1
  Ge  Ge49  1  0.00000000  0.82053400  0.80080500  1
  Ge  Ge50  1  0.00000000  0.82053400  0.69919500  1
  Ge  Ge51  1  0.50000000  0.67946600  0.30080500  1
