# generated using pymatgen
data_Ca5Zn3
_symmetry_space_group_name_H-M   'P 1'
_cell_length_a   7.89523800
_cell_length_b   7.89523800
_cell_length_c   15.29327200
_cell_angle_alpha   90.00000000
_cell_angle_beta   90.00000000
_cell_angle_gamma   90.00000000
_symmetry_Int_Tables_number   1
_chemical_formula_structural   Ca5Zn3
_chemical_formula_sum   'Ca20 Zn12'
_cell_volume   953.30279265
_cell_formula_units_Z   4
loop_
 _symmetry_equiv_pos_site_id
 _symmetry_equiv_pos_as_xyz
  1  'x, y, z'
loop_
 _atom_site_type_symbol
 _atom_site_label
 _atom_site_symmetry_multiplicity
 _atom_site_fract_x
 _atom_site_fract_y
 _atom_site_fract_z
 _atom_site_occupancy
  Ca  Ca0  1  0.00000000  0.00000000  0.00000000  1
  Ca  Ca1  1  0.50000000  0.50000000  0.00000000  1
  Ca  Ca2  1  0.17044400  0.67044400  0.14709300  1
  Ca  Ca3  1  0.32955600  0.17044400  0.14709300  1
  Ca  Ca4  1  0.67044400  0.82955600  0.14709300  1
  Ca  Ca5  1  0.17044400  0.32955600  0.35290700  1
  Ca  Ca6  1  0.82955600  0.67044400  0.35290700  1
  Ca  Ca7  1  0.67044400  0.17044400  0.35290700  1
  Ca  Ca8  1  0.32955600  0.82955600  0.35290700  1
  Ca  Ca9  1  0.82955600  0.32955600  0.14709300  1
  Ca  Ca10  1  0.50000000  0.50000000  0.50000000  1
  Ca  Ca11  1  0.00000000  0.00000000  0.50000000  1
  Ca  Ca12  1  0.67044400  0.17044400  0.64709300  1
  Ca  Ca13  1  0.82955600  0.67044400  0.64709300  1
  Ca  Ca14  1  0.17044400  0.32955600  0.64709300  1
  Ca  Ca15  1  0.67044400  0.82955600  0.85290700  1
  Ca  Ca16  1  0.32955600  0.17044400  0.85290700  1
  Ca  Ca17  1  0.17044400  0.67044400  0.85290700  1
  Ca  Ca18  1  0.82955600  0.32955600  0.85290700  1
  Ca  Ca19  1  0.32955600  0.82955600  0.64709300  1
  Zn  Zn20  1  0.00000000  0.00000000  0.25000000  1
  Zn  Zn21  1  0.50000000  0.50000000  0.25000000  1
  Zn  Zn22  1  0.88269450  0.38269450  0.50000000  1
  Zn  Zn23  1  0.11730550  0.38269450  0.00000000  1
  Zn  Zn24  1  0.88269450  0.61730550  0.00000000  1
  Zn  Zn25  1  0.61730550  0.11730550  0.00000000  1
  Zn  Zn26  1  0.50000000  0.50000000  0.75000000  1
  Zn  Zn27  1  0.00000000  0.00000000  0.75000000  1
  Zn  Zn28  1  0.38269450  0.88269450  0.00000000  1
  Zn  Zn29  1  0.61730550  0.88269450  0.50000000  1
  Zn  Zn30  1  0.38269450  0.11730550  0.50000000  1
  Zn  Zn31  1  0.11730550  0.61730550  0.50000000  1
