# generated using pymatgen
data_Nb6C5
_symmetry_space_group_name_H-M   'P 1'
_cell_length_a   5.52108000
_cell_length_b   9.53733800
_cell_length_c   5.51213825
_cell_angle_alpha   90.00000000
_cell_angle_beta   109.67778032
_cell_angle_gamma   90.00000000
_symmetry_Int_Tables_number   1
_chemical_formula_structural   Nb6C5
_chemical_formula_sum   'Nb12 C10'
_cell_volume   273.29917449
_cell_formula_units_Z   2
loop_
 _symmetry_equiv_pos_site_id
 _symmetry_equiv_pos_as_xyz
  1  'x, y, z'
loop_
 _atom_site_type_symbol
 _atom_site_label
 _atom_site_symmetry_multiplicity
 _atom_site_fract_x
 _atom_site_fract_y
 _atom_site_fract_z
 _atom_site_occupancy
  Nb  Nb0  1  0.26443500  0.00000000  0.73558100  1
  Nb  Nb1  1  0.73556500  0.00000000  0.26441900  1
  Nb  Nb2  1  0.74031450  0.17659450  0.74632800  1
  Nb  Nb3  1  0.25968550  0.17659450  0.25367200  1
  Nb  Nb4  1  0.25968550  0.82340550  0.25367200  1
  Nb  Nb5  1  0.74031450  0.82340550  0.74632800  1
  Nb  Nb6  1  0.76443500  0.50000000  0.73558100  1
  Nb  Nb7  1  0.23556500  0.50000000  0.26441900  1
  Nb  Nb8  1  0.24031450  0.67659450  0.74632800  1
  Nb  Nb9  1  0.75968550  0.67659450  0.25367200  1
  Nb  Nb10  1  0.75968550  0.32340550  0.25367200  1
  Nb  Nb11  1  0.24031450  0.32340550  0.74632800  1
  C  C12  1  0.50000000  0.00000000  0.50000000  1
  C  C13  1  0.50000000  0.83518900  0.00000000  1
  C  C14  1  0.50000000  0.16481100  0.00000000  1
  C  C15  1  0.50000000  0.66675800  0.50000000  1
  C  C16  1  0.50000000  0.33324200  0.50000000  1
  C  C17  1  0.00000000  0.50000000  0.50000000  1
  C  C18  1  0.00000000  0.33518900  0.00000000  1
  C  C19  1  0.00000000  0.66481100  0.00000000  1
  C  C20  1  0.00000000  0.16675800  0.50000000  1
  C  C21  1  0.00000000  0.83324200  0.50000000  1
