# generated using pymatgen
data_YCd3
_symmetry_space_group_name_H-M   'P 1'
_cell_length_a   7.16285200
_cell_length_b   10.97026800
_cell_length_c   4.90342100
_cell_angle_alpha   90.00000000
_cell_angle_beta   90.00000000
_cell_angle_gamma   90.00000000
_symmetry_Int_Tables_number   1
_chemical_formula_structural   YCd3
_chemical_formula_sum   'Y4 Cd12'
_cell_volume   385.30300654
_cell_formula_units_Z   4
loop_
 _symmetry_equiv_pos_site_id
 _symmetry_equiv_pos_as_xyz
  1  'x, y, z'
loop_
 _atom_site_type_symbol
 _atom_site_label
 _atom_site_symmetry_multiplicity
 _atom_site_fract_x
 _atom_site_fract_y
 _atom_site_fract_z
 _atom_site_occupancy
  Y  Y0  1  0.50000000  0.13621300  0.75000000  1
  Y  Y1  1  0.50000000  0.86378700  0.25000000  1
  Y  Y2  1  0.00000000  0.63621300  0.75000000  1
  Y  Y3  1  0.00000000  0.36378700  0.25000000  1
  Cd  Cd4  1  0.21561300  0.09413100  0.25000000  1
  Cd  Cd5  1  0.78438700  0.90586900  0.75000000  1
  Cd  Cd6  1  0.21561300  0.90586900  0.75000000  1
  Cd  Cd7  1  0.78438700  0.09413100  0.25000000  1
  Cd  Cd8  1  0.50000000  0.67537700  0.75000000  1
  Cd  Cd9  1  0.50000000  0.32462300  0.25000000  1
  Cd  Cd10  1  0.71561300  0.59413100  0.25000000  1
  Cd  Cd11  1  0.28438700  0.40586900  0.75000000  1
  Cd  Cd12  1  0.71561300  0.40586900  0.75000000  1
  Cd  Cd13  1  0.28438700  0.59413100  0.25000000  1
  Cd  Cd14  1  0.00000000  0.17537700  0.75000000  1
  Cd  Cd15  1  0.00000000  0.82462300  0.25000000  1
