# generated using pymatgen
data_ZrMo2
_symmetry_space_group_name_H-M   'P 1'
_cell_length_a   7.62898000
_cell_length_b   7.62898000
_cell_length_c   7.62898000
_cell_angle_alpha   90.00000000
_cell_angle_beta   90.00000000
_cell_angle_gamma   90.00000000
_symmetry_Int_Tables_number   1
_chemical_formula_structural   ZrMo2
_chemical_formula_sum   'Zr8 Mo16'
_cell_volume   444.01682710
_cell_formula_units_Z   8
loop_
 _symmetry_equiv_pos_site_id
 _symmetry_equiv_pos_as_xyz
  1  'x, y, z'
loop_
 _atom_site_type_symbol
 _atom_site_label
 _atom_site_symmetry_multiplicity
 _atom_site_fract_x
 _atom_site_fract_y
 _atom_site_fract_z
 _atom_site_occupancy
  Zr  Zr0  1  0.25000000  0.25000000  0.25000000  1
  Zr  Zr1  1  0.50000000  0.00000000  0.50000000  1
  Zr  Zr2  1  0.25000000  0.75000000  0.75000000  1
  Zr  Zr3  1  0.50000000  0.50000000  0.00000000  1
  Zr  Zr4  1  0.75000000  0.25000000  0.75000000  1
  Zr  Zr5  1  0.00000000  0.00000000  0.00000000  1
  Zr  Zr6  1  0.75000000  0.75000000  0.25000000  1
  Zr  Zr7  1  0.00000000  0.50000000  0.50000000  1
  Mo  Mo8  1  0.37500000  0.62500000  0.37500000  1
  Mo  Mo9  1  0.37500000  0.87500000  0.12500000  1
  Mo  Mo10  1  0.12500000  0.87500000  0.37500000  1
  Mo  Mo11  1  0.12500000  0.62500000  0.12500000  1
  Mo  Mo12  1  0.37500000  0.12500000  0.87500000  1
  Mo  Mo13  1  0.37500000  0.37500000  0.62500000  1
  Mo  Mo14  1  0.12500000  0.37500000  0.87500000  1
  Mo  Mo15  1  0.12500000  0.12500000  0.62500000  1
  Mo  Mo16  1  0.87500000  0.62500000  0.87500000  1
  Mo  Mo17  1  0.87500000  0.87500000  0.62500000  1
  Mo  Mo18  1  0.62500000  0.87500000  0.87500000  1
  Mo  Mo19  1  0.62500000  0.62500000  0.62500000  1
  Mo  Mo20  1  0.87500000  0.12500000  0.37500000  1
  Mo  Mo21  1  0.87500000  0.37500000  0.12500000  1
  Mo  Mo22  1  0.62500000  0.37500000  0.37500000  1
  Mo  Mo23  1  0.62500000  0.12500000  0.12500000  1
