# generated using pymatgen
data_Co(BW)3
_symmetry_space_group_name_H-M   'P 1'
_cell_length_a   3.18731200
_cell_length_b   8.47992400
_cell_length_c   10.80454400
_cell_angle_alpha   90.00000000
_cell_angle_beta   90.00000000
_cell_angle_gamma   90.00000000
_symmetry_Int_Tables_number   1
_chemical_formula_structural   Co(BW)3
_chemical_formula_sum   'Co4 B12 W12'
_cell_volume   292.02698204
_cell_formula_units_Z   4
loop_
 _symmetry_equiv_pos_site_id
 _symmetry_equiv_pos_as_xyz
  1  'x, y, z'
loop_
 _atom_site_type_symbol
 _atom_site_label
 _atom_site_symmetry_multiplicity
 _atom_site_fract_x
 _atom_site_fract_y
 _atom_site_fract_z
 _atom_site_occupancy
  Co  Co0  1  0.50000000  0.00000000  0.50000000  1
  Co  Co1  1  0.50000000  0.00000000  0.00000000  1
  Co  Co2  1  0.00000000  0.50000000  0.50000000  1
  Co  Co3  1  0.00000000  0.50000000  0.00000000  1
  B  B4  1  0.00000000  0.20920700  0.75000000  1
  B  B5  1  0.50000000  0.29079300  0.25000000  1
  B  B6  1  0.50000000  0.41388500  0.10273300  1
  B  B7  1  0.00000000  0.08611500  0.89726700  1
  B  B8  1  0.00000000  0.08611500  0.60273300  1
  B  B9  1  0.50000000  0.41388500  0.39726700  1
  B  B10  1  0.50000000  0.70920700  0.75000000  1
  B  B11  1  0.00000000  0.79079300  0.25000000  1
  B  B12  1  0.00000000  0.91388500  0.10273300  1
  B  B13  1  0.50000000  0.58611500  0.89726700  1
  B  B14  1  0.50000000  0.58611500  0.60273300  1
  B  B15  1  0.00000000  0.91388500  0.39726700  1
  W  W16  1  0.50000000  0.00228500  0.75000000  1
  W  W17  1  0.00000000  0.49771500  0.25000000  1
  W  W18  1  0.00000000  0.21141800  0.10691900  1
  W  W19  1  0.50000000  0.28858200  0.89308100  1
  W  W20  1  0.50000000  0.28858200  0.60691900  1
  W  W21  1  0.00000000  0.21141800  0.39308100  1
  W  W22  1  0.00000000  0.50228500  0.75000000  1
  W  W23  1  0.50000000  0.99771500  0.25000000  1
  W  W24  1  0.50000000  0.71141800  0.10691900  1
  W  W25  1  0.00000000  0.78858200  0.89308100  1
  W  W26  1  0.00000000  0.78858200  0.60691900  1
  W  W27  1  0.50000000  0.71141800  0.39308100  1
