# generated using pymatgen
data_Fe3Se4
_symmetry_space_group_name_H-M   'P 1'
_cell_length_a   12.20821600
_cell_length_b   3.45171400
_cell_length_c   6.08209106
_cell_angle_alpha   90.00000000
_cell_angle_beta   116.55981871
_cell_angle_gamma   90.00000000
_symmetry_Int_Tables_number   1
_chemical_formula_structural   Fe3Se4
_chemical_formula_sum   'Fe6 Se8'
_cell_volume   229.24757412
_cell_formula_units_Z   2
loop_
 _symmetry_equiv_pos_site_id
 _symmetry_equiv_pos_as_xyz
  1  'x, y, z'
loop_
 _atom_site_type_symbol
 _atom_site_label
 _atom_site_symmetry_multiplicity
 _atom_site_fract_x
 _atom_site_fract_y
 _atom_site_fract_z
 _atom_site_occupancy
  Fe  Fe0  1  0.00000000  0.00000000  0.00000000  1
  Fe  Fe1  1  0.26144500  0.00000000  0.30973700  1
  Fe  Fe2  1  0.23855500  0.50000000  0.69026300  1
  Fe  Fe3  1  0.50000000  0.50000000  0.00000000  1
  Fe  Fe4  1  0.76144500  0.50000000  0.30973700  1
  Fe  Fe5  1  0.73855500  0.00000000  0.69026300  1
  Se  Se6  1  0.36505500  0.00000000  0.02245300  1
  Se  Se7  1  0.13494500  0.50000000  0.97754700  1
  Se  Se8  1  0.10486200  0.00000000  0.43980900  1
  Se  Se9  1  0.39513800  0.50000000  0.56019100  1
  Se  Se10  1  0.86505500  0.50000000  0.02245300  1
  Se  Se11  1  0.63494500  0.00000000  0.97754700  1
  Se  Se12  1  0.60486200  0.50000000  0.43980900  1
  Se  Se13  1  0.89513800  0.00000000  0.56019100  1
