# generated using pymatgen
data_Sm2Ge2Ru
_symmetry_space_group_name_H-M   'P 1'
_cell_length_a   11.07744000
_cell_length_b   4.33954800
_cell_length_c   10.48151752
_cell_angle_alpha   90.00000000
_cell_angle_beta   119.19210020
_cell_angle_gamma   90.00000000
_symmetry_Int_Tables_number   1
_chemical_formula_structural   Sm2Ge2Ru
_chemical_formula_sum   'Sm8 Ge8 Ru4'
_cell_volume   439.86256775
_cell_formula_units_Z   4
loop_
 _symmetry_equiv_pos_site_id
 _symmetry_equiv_pos_as_xyz
  1  'x, y, z'
loop_
 _atom_site_type_symbol
 _atom_site_label
 _atom_site_symmetry_multiplicity
 _atom_site_fract_x
 _atom_site_fract_y
 _atom_site_fract_z
 _atom_site_occupancy
  Sm  Sm0  1  0.18487600  0.50000000  0.11020500  1
  Sm  Sm1  1  0.81512400  0.50000000  0.88979500  1
  Sm  Sm2  1  0.50189600  0.00000000  0.67387800  1
  Sm  Sm3  1  0.49810400  0.00000000  0.32612200  1
  Sm  Sm4  1  0.68487600  0.00000000  0.11020500  1
  Sm  Sm5  1  0.31512400  0.00000000  0.88979500  1
  Sm  Sm6  1  0.00189600  0.50000000  0.67387800  1
  Sm  Sm7  1  0.99810400  0.50000000  0.32612200  1
  Ge  Ge8  1  0.49388700  0.50000000  0.12659600  1
  Ge  Ge9  1  0.50611300  0.50000000  0.87340400  1
  Ge  Ge10  1  0.65017100  0.50000000  0.56659500  1
  Ge  Ge11  1  0.34982900  0.50000000  0.43340500  1
  Ge  Ge12  1  0.99388700  0.00000000  0.12659600  1
  Ge  Ge13  1  0.00611300  0.00000000  0.87340400  1
  Ge  Ge14  1  0.15017100  0.00000000  0.56659500  1
  Ge  Ge15  1  0.84982900  0.00000000  0.43340500  1
  Ru  Ru16  1  0.77343200  0.00000000  0.62479100  1
  Ru  Ru17  1  0.22656800  0.00000000  0.37520900  1
  Ru  Ru18  1  0.27343200  0.50000000  0.62479100  1
  Ru  Ru19  1  0.72656800  0.50000000  0.37520900  1
