# generated using pymatgen
data_LaSi3Ir
_symmetry_space_group_name_H-M   'P 1'
_cell_length_a   4.29529200
_cell_length_b   4.29529200
_cell_length_c   9.92303200
_cell_angle_alpha   90.00000000
_cell_angle_beta   90.00000000
_cell_angle_gamma   90.00000000
_symmetry_Int_Tables_number   1
_chemical_formula_structural   LaSi3Ir
_chemical_formula_sum   'La2 Si6 Ir2'
_cell_volume   183.07530997
_cell_formula_units_Z   2
loop_
 _symmetry_equiv_pos_site_id
 _symmetry_equiv_pos_as_xyz
  1  'x, y, z'
loop_
 _atom_site_type_symbol
 _atom_site_label
 _atom_site_symmetry_multiplicity
 _atom_site_fract_x
 _atom_site_fract_y
 _atom_site_fract_z
 _atom_site_occupancy
  La  La0  1  0.50000000  0.50000000  0.49802200  1
  La  La1  1  0.00000000  0.00000000  0.99802200  1
  Si  Si2  1  0.50000000  0.00000000  0.26239000  1
  Si  Si3  1  0.00000000  0.50000000  0.26239000  1
  Si  Si4  1  0.00000000  0.00000000  0.41264500  1
  Si  Si5  1  0.00000000  0.50000000  0.76239000  1
  Si  Si6  1  0.50000000  0.00000000  0.76239000  1
  Si  Si7  1  0.50000000  0.50000000  0.91264500  1
  Ir  Ir8  1  0.50000000  0.50000000  0.15405200  1
  Ir  Ir9  1  0.00000000  0.00000000  0.65405200  1
