# generated using pymatgen
data_Y2Si2Rh
_symmetry_space_group_name_H-M   'P 1'
_cell_length_a   10.59819600
_cell_length_b   4.22241400
_cell_length_c   10.09690071
_cell_angle_alpha   90.00000000
_cell_angle_beta   118.62352123
_cell_angle_gamma   90.00000000
_symmetry_Int_Tables_number   1
_chemical_formula_structural   Y2Si2Rh
_chemical_formula_sum   'Y8 Si8 Rh4'
_cell_volume   396.61550394
_cell_formula_units_Z   4
loop_
 _symmetry_equiv_pos_site_id
 _symmetry_equiv_pos_as_xyz
  1  'x, y, z'
loop_
 _atom_site_type_symbol
 _atom_site_label
 _atom_site_symmetry_multiplicity
 _atom_site_fract_x
 _atom_site_fract_y
 _atom_site_fract_z
 _atom_site_occupancy
  Y  Y0  1  0.49804100  0.50000000  0.32435500  1
  Y  Y1  1  0.81501300  0.00000000  0.89114300  1
  Y  Y2  1  0.50195900  0.50000000  0.67564500  1
  Y  Y3  1  0.18498700  0.00000000  0.10885700  1
  Y  Y4  1  0.99804100  0.00000000  0.32435500  1
  Y  Y5  1  0.31501300  0.50000000  0.89114300  1
  Y  Y6  1  0.00195900  0.00000000  0.67564500  1
  Y  Y7  1  0.68498700  0.50000000  0.10885700  1
  Si  Si8  1  0.64080300  0.00000000  0.56544300  1
  Si  Si9  1  0.51147500  0.00000000  0.87958900  1
  Si  Si10  1  0.35919700  0.00000000  0.43455700  1
  Si  Si11  1  0.48852500  0.00000000  0.12041100  1
  Si  Si12  1  0.14080300  0.50000000  0.56544300  1
  Si  Si13  1  0.01147500  0.50000000  0.87958900  1
  Si  Si14  1  0.85919700  0.50000000  0.43455700  1
  Si  Si15  1  0.98852500  0.50000000  0.12041100  1
  Rh  Rh16  1  0.77410800  0.50000000  0.62711100  1
  Rh  Rh17  1  0.22589200  0.50000000  0.37288900  1
  Rh  Rh18  1  0.27410800  0.00000000  0.62711100  1
  Rh  Rh19  1  0.72589200  0.00000000  0.37288900  1
