# generated using pymatgen
data_ErCoSi2
_symmetry_space_group_name_H-M   'P 1'
_cell_length_a   3.99761200
_cell_length_b   16.23841600
_cell_length_c   3.96470000
_cell_angle_alpha   90.00000000
_cell_angle_beta   90.00000000
_cell_angle_gamma   90.00000000
_symmetry_Int_Tables_number   1
_chemical_formula_structural   ErCoSi2
_chemical_formula_sum   'Er4 Co4 Si8'
_cell_volume   257.36805115
_cell_formula_units_Z   4
loop_
 _symmetry_equiv_pos_site_id
 _symmetry_equiv_pos_as_xyz
  1  'x, y, z'
loop_
 _atom_site_type_symbol
 _atom_site_label
 _atom_site_symmetry_multiplicity
 _atom_site_fract_x
 _atom_site_fract_y
 _atom_site_fract_z
 _atom_site_occupancy
  Er  Er0  1  0.50000000  0.39249300  0.75000000  1
  Er  Er1  1  0.00000000  0.10750700  0.25000000  1
  Er  Er2  1  0.00000000  0.89249300  0.75000000  1
  Er  Er3  1  0.50000000  0.60750700  0.25000000  1
  Co  Co4  1  0.00000000  0.32155700  0.25000000  1
  Co  Co5  1  0.50000000  0.17844300  0.75000000  1
  Co  Co6  1  0.50000000  0.82155700  0.25000000  1
  Co  Co7  1  0.00000000  0.67844300  0.75000000  1
  Si  Si8  1  0.00000000  0.24990600  0.75000000  1
  Si  Si9  1  0.50000000  0.25009400  0.25000000  1
  Si  Si10  1  0.00000000  0.45788000  0.25000000  1
  Si  Si11  1  0.50000000  0.04212000  0.75000000  1
  Si  Si12  1  0.50000000  0.74990600  0.75000000  1
  Si  Si13  1  0.00000000  0.75009400  0.25000000  1
  Si  Si14  1  0.50000000  0.95788000  0.25000000  1
  Si  Si15  1  0.00000000  0.54212000  0.75000000  1
