# generated using pymatgen
data_HfNbB4
_symmetry_space_group_name_H-M   'P 1'
_cell_length_a   3.13276400
_cell_length_b   5.41532600
_cell_length_c   6.81923200
_cell_angle_alpha   90.00000000
_cell_angle_beta   90.00000000
_cell_angle_gamma   90.00000000
_symmetry_Int_Tables_number   1
_chemical_formula_structural   HfNbB4
_chemical_formula_sum   'Hf2 Nb2 B8'
_cell_volume   115.68785041
_cell_formula_units_Z   2
loop_
 _symmetry_equiv_pos_site_id
 _symmetry_equiv_pos_as_xyz
  1  'x, y, z'
loop_
 _atom_site_type_symbol
 _atom_site_label
 _atom_site_symmetry_multiplicity
 _atom_site_fract_x
 _atom_site_fract_y
 _atom_site_fract_z
 _atom_site_occupancy
  Hf  Hf0  1  0.50000000  0.50000000  0.00000000  1
  Hf  Hf1  1  0.00000000  0.00000000  0.50000000  1
  Nb  Nb2  1  0.00000000  0.00000000  0.00000000  1
  Nb  Nb3  1  0.50000000  0.50000000  0.50000000  1
  B  B4  1  0.00000000  0.33378400  0.74992100  1
  B  B5  1  0.00000000  0.66621600  0.74992100  1
  B  B6  1  0.00000000  0.66621600  0.25007900  1
  B  B7  1  0.00000000  0.33378400  0.25007900  1
  B  B8  1  0.50000000  0.83378400  0.24992100  1
  B  B9  1  0.50000000  0.16621600  0.24992100  1
  B  B10  1  0.50000000  0.16621600  0.75007900  1
  B  B11  1  0.50000000  0.83378400  0.75007900  1
