# generated using pymatgen
data_Be17Ru3
_symmetry_space_group_name_H-M   'P 1'
_cell_length_a   11.32284200
_cell_length_b   11.32284200
_cell_length_c   11.32284200
_cell_angle_alpha   90.00000000
_cell_angle_beta   90.00000000
_cell_angle_gamma   90.00000000
_symmetry_Int_Tables_number   1
_chemical_formula_structural   Be17Ru3
_chemical_formula_sum   'Be136 Ru24'
_cell_volume   1451.66478442
_cell_formula_units_Z   8
loop_
 _symmetry_equiv_pos_site_id
 _symmetry_equiv_pos_as_xyz
  1  'x, y, z'
loop_
 _atom_site_type_symbol
 _atom_site_label
 _atom_site_symmetry_multiplicity
 _atom_site_fract_x
 _atom_site_fract_y
 _atom_site_fract_z
 _atom_site_occupancy
  Be  Be0  1  0.00000000  0.40300400  0.00000000  1
  Be  Be1  1  0.00000000  0.00000000  0.40300400  1
  Be  Be2  1  0.59699600  0.00000000  0.00000000  1
  Be  Be3  1  0.00000000  0.00000000  0.59699600  1
  Be  Be4  1  0.40300400  0.00000000  0.00000000  1
  Be  Be5  1  0.00000000  0.59699600  0.00000000  1
  Be  Be6  1  0.00000000  0.19463900  0.50000000  1
  Be  Be7  1  0.50000000  0.00000000  0.19463900  1
  Be  Be8  1  0.30536100  0.00000000  0.50000000  1
  Be  Be9  1  0.00000000  0.50000000  0.30536100  1
  Be  Be10  1  0.19463900  0.50000000  0.00000000  1
  Be  Be11  1  0.50000000  0.30536100  0.00000000  1
  Be  Be12  1  0.16507050  0.16507050  0.83492950  1
  Be  Be13  1  0.16507050  0.83492950  0.16507050  1
  Be  Be14  1  0.33492950  0.33492950  0.33492950  1
  Be  Be15  1  0.83492950  0.16507050  0.16507050  1
  Be  Be16  1  0.33492950  0.33492950  0.66507050  1
  Be  Be17  1  0.33492950  0.66507050  0.33492950  1
  Be  Be18  1  0.16507050  0.16507050  0.16507050  1
  Be  Be19  1  0.66507050  0.33492950  0.33492950  1
  Be  Be20  1  0.73133400  0.50000000  0.40651200  1
  Be  Be21  1  0.09348800  0.76866600  0.00000000  1
  Be  Be22  1  0.50000000  0.40651200  0.26866600  1
  Be  Be23  1  0.40651200  0.26866600  0.50000000  1
  Be  Be24  1  0.00000000  0.09348800  0.23133400  1
  Be  Be25  1  0.40651200  0.73133400  0.50000000  1
  Be  Be26  1  0.50000000  0.40651200  0.73133400  1
  Be  Be27  1  0.00000000  0.09348800  0.76866600  1
  Be  Be28  1  0.09348800  0.23133400  0.00000000  1
  Be  Be29  1  0.26866600  0.50000000  0.40651200  1
  Be  Be30  1  0.23133400  0.00000000  0.09348800  1
  Be  Be31  1  0.76866600  0.00000000  0.09348800  1
  Be  Be32  1  0.90474200  0.50000000  0.15099500  1
  Be  Be33  1  0.34900500  0.59525800  0.00000000  1
  Be  Be34  1  0.50000000  0.15099500  0.09525800  1
  Be  Be35  1  0.15099500  0.09525800  0.50000000  1
  Be  Be36  1  0.00000000  0.34900500  0.40474200  1
  Be  Be37  1  0.15099500  0.90474200  0.50000000  1
  Be  Be38  1  0.50000000  0.15099500  0.90474200  1
  Be  Be39  1  0.00000000  0.34900500  0.59525800  1
  Be  Be40  1  0.34900500  0.40474200  0.00000000  1
  Be  Be41  1  0.09525800  0.50000000  0.15099500  1
  Be  Be42  1  0.40474200  0.00000000  0.34900500  1
  Be  Be43  1  0.59525800  0.00000000  0.34900500  1
  Be  Be44  1  0.11383650  0.20102550  0.65830950  1
  Be  Be45  1  0.34169050  0.88616350  0.20102550  1
  Be  Be46  1  0.29897450  0.15830950  0.38616350  1
  Be  Be47  1  0.15830950  0.38616350  0.29897450  1
  Be  Be48  1  0.29897450  0.84169050  0.61383650  1
  Be  Be49  1  0.65830950  0.11383650  0.20102550  1
  Be  Be50  1  0.20102550  0.65830950  0.11383650  1
  Be  Be51  1  0.20102550  0.34169050  0.88616350  1
  Be  Be52  1  0.84169050  0.61383650  0.29897450  1
  Be  Be53  1  0.38616350  0.29897450  0.15830950  1
  Be  Be54  1  0.61383650  0.29897450  0.84169050  1
  Be  Be55  1  0.88616350  0.20102550  0.34169050  1
  Be  Be56  1  0.38616350  0.29897450  0.84169050  1
  Be  Be57  1  0.15830950  0.61383650  0.29897450  1
  Be  Be58  1  0.20102550  0.34169050  0.11383650  1
  Be  Be59  1  0.34169050  0.11383650  0.20102550  1
  Be  Be60  1  0.20102550  0.65830950  0.88616350  1
  Be  Be61  1  0.84169050  0.38616350  0.29897450  1
  Be  Be62  1  0.29897450  0.84169050  0.38616350  1
  Be  Be63  1  0.29897450  0.15830950  0.61383650  1
  Be  Be64  1  0.65830950  0.88616350  0.20102550  1
  Be  Be65  1  0.11383650  0.20102550  0.34169050  1
  Be  Be66  1  0.88616350  0.20102550  0.65830950  1
  Be  Be67  1  0.61383650  0.29897450  0.15830950  1
  Be  Be68  1  0.50000000  0.90300400  0.50000000  1
  Be  Be69  1  0.50000000  0.50000000  0.90300400  1
  Be  Be70  1  0.09699600  0.50000000  0.50000000  1
  Be  Be71  1  0.50000000  0.50000000  0.09699600  1
  Be  Be72  1  0.90300400  0.50000000  0.50000000  1
  Be  Be73  1  0.50000000  0.09699600  0.50000000  1
  Be  Be74  1  0.50000000  0.69463900  0.00000000  1
  Be  Be75  1  0.00000000  0.50000000  0.69463900  1
  Be  Be76  1  0.80536100  0.50000000  0.00000000  1
  Be  Be77  1  0.50000000  0.00000000  0.80536100  1
  Be  Be78  1  0.69463900  0.00000000  0.50000000  1
  Be  Be79  1  0.00000000  0.80536100  0.50000000  1
  Be  Be80  1  0.66507050  0.66507050  0.33492950  1
  Be  Be81  1  0.66507050  0.33492950  0.66507050  1
  Be  Be82  1  0.83492950  0.83492950  0.83492950  1
  Be  Be83  1  0.33492950  0.66507050  0.66507050  1
  Be  Be84  1  0.83492950  0.83492950  0.16507050  1
  Be  Be85  1  0.83492950  0.16507050  0.83492950  1
  Be  Be86  1  0.66507050  0.66507050  0.66507050  1
  Be  Be87  1  0.16507050  0.83492950  0.83492950  1
  Be  Be88  1  0.23133400  0.00000000  0.90651200  1
  Be  Be89  1  0.59348800  0.26866600  0.50000000  1
  Be  Be90  1  0.00000000  0.90651200  0.76866600  1
  Be  Be91  1  0.90651200  0.76866600  0.00000000  1
  Be  Be92  1  0.50000000  0.59348800  0.73133400  1
  Be  Be93  1  0.90651200  0.23133400  0.00000000  1
  Be  Be94  1  0.00000000  0.90651200  0.23133400  1
  Be  Be95  1  0.50000000  0.59348800  0.26866600  1
  Be  Be96  1  0.59348800  0.73133400  0.50000000  1
  Be  Be97  1  0.76866600  0.00000000  0.90651200  1
  Be  Be98  1  0.73133400  0.50000000  0.59348800  1
  Be  Be99  1  0.26866600  0.50000000  0.59348800  1
  Be  Be100  1  0.40474200  0.00000000  0.65099500  1
  Be  Be101  1  0.84900500  0.09525800  0.50000000  1
  Be  Be102  1  0.00000000  0.65099500  0.59525800  1
  Be  Be103  1  0.65099500  0.59525800  0.00000000  1
  Be  Be104  1  0.50000000  0.84900500  0.90474200  1
  Be  Be105  1  0.65099500  0.40474200  0.00000000  1
  Be  Be106  1  0.00000000  0.65099500  0.40474200  1
  Be  Be107  1  0.50000000  0.84900500  0.09525800  1
  Be  Be108  1  0.84900500  0.90474200  0.50000000  1
  Be  Be109  1  0.59525800  0.00000000  0.65099500  1
  Be  Be110  1  0.90474200  0.50000000  0.84900500  1
  Be  Be111  1  0.09525800  0.50000000  0.84900500  1
  Be  Be112  1  0.61383650  0.70102550  0.15830950  1
  Be  Be113  1  0.84169050  0.38616350  0.70102550  1
  Be  Be114  1  0.79897450  0.65830950  0.88616350  1
  Be  Be115  1  0.65830950  0.88616350  0.79897450  1
  Be  Be116  1  0.79897450  0.34169050  0.11383650  1
  Be  Be117  1  0.15830950  0.61383650  0.70102550  1
  Be  Be118  1  0.70102550  0.15830950  0.61383650  1
  Be  Be119  1  0.70102550  0.84169050  0.38616350  1
  Be  Be120  1  0.34169050  0.11383650  0.79897450  1
  Be  Be121  1  0.88616350  0.79897450  0.65830950  1
  Be  Be122  1  0.11383650  0.79897450  0.34169050  1
  Be  Be123  1  0.38616350  0.70102550  0.84169050  1
  Be  Be124  1  0.88616350  0.79897450  0.34169050  1
  Be  Be125  1  0.65830950  0.11383650  0.79897450  1
  Be  Be126  1  0.70102550  0.84169050  0.61383650  1
  Be  Be127  1  0.84169050  0.61383650  0.70102550  1
  Be  Be128  1  0.70102550  0.15830950  0.38616350  1
  Be  Be129  1  0.34169050  0.88616350  0.79897450  1
  Be  Be130  1  0.79897450  0.34169050  0.88616350  1
  Be  Be131  1  0.79897450  0.65830950  0.11383650  1
  Be  Be132  1  0.15830950  0.38616350  0.70102550  1
  Be  Be133  1  0.61383650  0.70102550  0.84169050  1
  Be  Be134  1  0.38616350  0.70102550  0.15830950  1
  Be  Be135  1  0.11383650  0.79897450  0.65830950  1
  Ru  Ru136  1  0.18806800  0.00000000  0.69873800  1
  Ru  Ru137  1  0.80126200  0.31193200  0.50000000  1
  Ru  Ru138  1  0.50000000  0.19873800  0.31193200  1
  Ru  Ru139  1  0.19873800  0.31193200  0.50000000  1
  Ru  Ru140  1  0.00000000  0.30126200  0.18806800  1
  Ru  Ru141  1  0.69873800  0.18806800  0.00000000  1
  Ru  Ru142  1  0.00000000  0.69873800  0.18806800  1
  Ru  Ru143  1  0.50000000  0.80126200  0.31193200  1
  Ru  Ru144  1  0.30126200  0.18806800  0.00000000  1
  Ru  Ru145  1  0.31193200  0.50000000  0.19873800  1
  Ru  Ru146  1  0.18806800  0.00000000  0.30126200  1
  Ru  Ru147  1  0.31193200  0.50000000  0.80126200  1
  Ru  Ru148  1  0.68806800  0.50000000  0.19873800  1
  Ru  Ru149  1  0.30126200  0.81193200  0.00000000  1
  Ru  Ru150  1  0.00000000  0.69873800  0.81193200  1
  Ru  Ru151  1  0.69873800  0.81193200  0.00000000  1
  Ru  Ru152  1  0.50000000  0.80126200  0.68806800  1
  Ru  Ru153  1  0.19873800  0.68806800  0.50000000  1
  Ru  Ru154  1  0.50000000  0.19873800  0.68806800  1
  Ru  Ru155  1  0.00000000  0.30126200  0.81193200  1
  Ru  Ru156  1  0.80126200  0.68806800  0.50000000  1
  Ru  Ru157  1  0.81193200  0.00000000  0.69873800  1
  Ru  Ru158  1  0.68806800  0.50000000  0.80126200  1
  Ru  Ru159  1  0.81193200  0.00000000  0.30126200  1
