# generated using pymatgen
data_Mn(FeO2)2
_symmetry_space_group_name_H-M   'P 1'
_cell_length_a   6.19240200
_cell_length_b   6.26836000
_cell_length_c   8.25944800
_cell_angle_alpha   90.00000000
_cell_angle_beta   90.00000000
_cell_angle_gamma   90.00000000
_symmetry_Int_Tables_number   1
_chemical_formula_structural   Mn(FeO2)2
_chemical_formula_sum   'Mn4 Fe8 O16'
_cell_volume   320.60042676
_cell_formula_units_Z   4
loop_
 _symmetry_equiv_pos_site_id
 _symmetry_equiv_pos_as_xyz
  1  'x, y, z'
loop_
 _atom_site_type_symbol
 _atom_site_label
 _atom_site_symmetry_multiplicity
 _atom_site_fract_x
 _atom_site_fract_y
 _atom_site_fract_z
 _atom_site_occupancy
  Mn  Mn0  1  0.50000000  0.00000000  0.00000000  1
  Mn  Mn1  1  0.00000000  0.00000000  0.50000000  1
  Mn  Mn2  1  0.00000000  0.50000000  0.50000000  1
  Mn  Mn3  1  0.50000000  0.50000000  0.00000000  1
  Fe  Fe4  1  0.50000000  0.25000000  0.37192200  1
  Fe  Fe5  1  0.00000000  0.25000000  0.12807800  1
  Fe  Fe6  1  0.25000000  0.75000000  0.25000000  1
  Fe  Fe7  1  0.25000000  0.25000000  0.75000000  1
  Fe  Fe8  1  0.00000000  0.75000000  0.87192200  1
  Fe  Fe9  1  0.50000000  0.75000000  0.62807800  1
  Fe  Fe10  1  0.75000000  0.25000000  0.75000000  1
  Fe  Fe11  1  0.75000000  0.75000000  0.25000000  1
  O  O12  1  0.72994950  0.25000000  0.99050250  1
  O  O13  1  0.00000000  0.52768700  0.26438300  1
  O  O14  1  0.27005050  0.25000000  0.99050250  1
  O  O15  1  0.50000000  0.47231300  0.76438300  1
  O  O16  1  0.00000000  0.02768700  0.73561700  1
  O  O17  1  0.50000000  0.97231300  0.23561700  1
  O  O18  1  0.22994950  0.25000000  0.50949750  1
  O  O19  1  0.77005050  0.25000000  0.50949750  1
  O  O20  1  0.22994950  0.75000000  0.49050250  1
  O  O21  1  0.50000000  0.02768700  0.76438300  1
  O  O22  1  0.77005050  0.75000000  0.49050250  1
  O  O23  1  0.00000000  0.97231300  0.26438300  1
  O  O24  1  0.50000000  0.52768700  0.23561700  1
  O  O25  1  0.00000000  0.47231300  0.73561700  1
  O  O26  1  0.72994950  0.75000000  0.00949750  1
  O  O27  1  0.27005050  0.75000000  0.00949750  1
