# generated using pymatgen
data_Sm2O
_symmetry_space_group_name_H-M   'P 1'
_cell_length_a   4.90925000
_cell_length_b   4.90925000
_cell_length_c   10.94468600
_cell_angle_alpha   90.00000000
_cell_angle_beta   90.00000000
_cell_angle_gamma   90.00000000
_symmetry_Int_Tables_number   1
_chemical_formula_structural   Sm2O
_chemical_formula_sum   'Sm8 O4'
_cell_volume   263.77498310
_cell_formula_units_Z   4
loop_
 _symmetry_equiv_pos_site_id
 _symmetry_equiv_pos_as_xyz
  1  'x, y, z'
loop_
 _atom_site_type_symbol
 _atom_site_label
 _atom_site_symmetry_multiplicity
 _atom_site_fract_x
 _atom_site_fract_y
 _atom_site_fract_z
 _atom_site_occupancy
  Sm  Sm0  1  0.50000000  0.50000000  0.23469300  1
  Sm  Sm1  1  0.00000000  0.00000000  0.26530700  1
  Sm  Sm2  1  0.50000000  0.00000000  0.01530700  1
  Sm  Sm3  1  0.50000000  0.00000000  0.48469300  1
  Sm  Sm4  1  0.00000000  0.00000000  0.73469300  1
  Sm  Sm5  1  0.50000000  0.50000000  0.76530700  1
  Sm  Sm6  1  0.00000000  0.50000000  0.51530700  1
  Sm  Sm7  1  0.00000000  0.50000000  0.98469300  1
  O  O8  1  0.50000000  0.50000000  0.00000000  1
  O  O9  1  0.50000000  0.00000000  0.25000000  1
  O  O10  1  0.00000000  0.00000000  0.50000000  1
  O  O11  1  0.00000000  0.50000000  0.75000000  1
