# generated using pymatgen
data_ZrBi
_symmetry_space_group_name_H-M   'P 1'
_cell_length_a   3.87798600
_cell_length_b   10.91630400
_cell_length_c   14.54583000
_cell_angle_alpha   90.00000000
_cell_angle_beta   90.00000000
_cell_angle_gamma   90.00000000
_symmetry_Int_Tables_number   1
_chemical_formula_structural   ZrBi
_chemical_formula_sum   'Zr12 Bi12'
_cell_volume   615.77260817
_cell_formula_units_Z   12
loop_
 _symmetry_equiv_pos_site_id
 _symmetry_equiv_pos_as_xyz
  1  'x, y, z'
loop_
 _atom_site_type_symbol
 _atom_site_label
 _atom_site_symmetry_multiplicity
 _atom_site_fract_x
 _atom_site_fract_y
 _atom_site_fract_z
 _atom_site_occupancy
  Zr  Zr0  1  0.00000000  0.07102600  0.38989000  1
  Zr  Zr1  1  0.50000000  0.42897400  0.61011000  1
  Zr  Zr2  1  0.50000000  0.42897400  0.88989000  1
  Zr  Zr3  1  0.00000000  0.07102600  0.11011000  1
  Zr  Zr4  1  0.00000000  0.39233000  0.25000000  1
  Zr  Zr5  1  0.50000000  0.10767000  0.75000000  1
  Zr  Zr6  1  0.50000000  0.57102600  0.38989000  1
  Zr  Zr7  1  0.00000000  0.92897400  0.61011000  1
  Zr  Zr8  1  0.00000000  0.92897400  0.88989000  1
  Zr  Zr9  1  0.50000000  0.57102600  0.11011000  1
  Zr  Zr10  1  0.50000000  0.89233000  0.25000000  1
  Zr  Zr11  1  0.00000000  0.60767000  0.75000000  1
  Bi  Bi12  1  0.50000000  0.17788200  0.25000000  1
  Bi  Bi13  1  0.00000000  0.32211800  0.75000000  1
  Bi  Bi14  1  0.50000000  0.14130100  0.95040300  1
  Bi  Bi15  1  0.00000000  0.35869900  0.04959700  1
  Bi  Bi16  1  0.00000000  0.35869900  0.45040300  1
  Bi  Bi17  1  0.50000000  0.14130100  0.54959700  1
  Bi  Bi18  1  0.00000000  0.67788200  0.25000000  1
  Bi  Bi19  1  0.50000000  0.82211800  0.75000000  1
  Bi  Bi20  1  0.00000000  0.64130100  0.95040300  1
  Bi  Bi21  1  0.50000000  0.85869900  0.04959700  1
  Bi  Bi22  1  0.50000000  0.85869900  0.45040300  1
  Bi  Bi23  1  0.00000000  0.64130100  0.54959700  1
