# generated using pymatgen
data_SrSn3Pd
_symmetry_space_group_name_H-M   'P 1'
_cell_length_a   4.88611200
_cell_length_b   4.88611200
_cell_length_c   11.36492200
_cell_angle_alpha   90.00000000
_cell_angle_beta   90.00000000
_cell_angle_gamma   90.00000000
_symmetry_Int_Tables_number   1
_chemical_formula_structural   SrSn3Pd
_chemical_formula_sum   'Sr2 Sn6 Pd2'
_cell_volume   271.32717609
_cell_formula_units_Z   2
loop_
 _symmetry_equiv_pos_site_id
 _symmetry_equiv_pos_as_xyz
  1  'x, y, z'
loop_
 _atom_site_type_symbol
 _atom_site_label
 _atom_site_symmetry_multiplicity
 _atom_site_fract_x
 _atom_site_fract_y
 _atom_site_fract_z
 _atom_site_occupancy
  Sr  Sr0  1  0.00000000  0.00000000  0.00228400  1
  Sr  Sr1  1  0.50000000  0.50000000  0.50228400  1
  Sn  Sn2  1  0.50000000  0.50000000  0.09041700  1
  Sn  Sn3  1  0.50000000  0.00000000  0.25393600  1
  Sn  Sn4  1  0.00000000  0.50000000  0.25393600  1
  Sn  Sn5  1  0.00000000  0.00000000  0.59041700  1
  Sn  Sn6  1  0.00000000  0.50000000  0.75393600  1
  Sn  Sn7  1  0.50000000  0.00000000  0.75393600  1
  Pd  Pd8  1  0.00000000  0.00000000  0.35842700  1
  Pd  Pd9  1  0.50000000  0.50000000  0.85842700  1
