# generated using pymatgen
data_Y(Al2Cr)4
_symmetry_space_group_name_H-M   'P 1'
_cell_length_a   8.91872800
_cell_length_b   8.91872800
_cell_length_c   5.05361800
_cell_angle_alpha   90.00000000
_cell_angle_beta   90.00000000
_cell_angle_gamma   90.00000000
_symmetry_Int_Tables_number   1
_chemical_formula_structural   Y(Al2Cr)4
_chemical_formula_sum   'Y2 Al16 Cr8'
_cell_volume   401.98352029
_cell_formula_units_Z   2
loop_
 _symmetry_equiv_pos_site_id
 _symmetry_equiv_pos_as_xyz
  1  'x, y, z'
loop_
 _atom_site_type_symbol
 _atom_site_label
 _atom_site_symmetry_multiplicity
 _atom_site_fract_x
 _atom_site_fract_y
 _atom_site_fract_z
 _atom_site_occupancy
  Y  Y0  1  0.00000000  0.00000000  0.00000000  1
  Y  Y1  1  0.50000000  0.50000000  0.50000000  1
  Al  Al2  1  0.50000000  0.16299800  0.50000000  1
  Al  Al3  1  0.66299800  0.00000000  0.00000000  1
  Al  Al4  1  0.33700200  0.00000000  0.00000000  1
  Al  Al5  1  0.50000000  0.83700200  0.50000000  1
  Al  Al6  1  0.50000000  0.72269300  0.00000000  1
  Al  Al7  1  0.22269300  0.00000000  0.50000000  1
  Al  Al8  1  0.77730700  0.00000000  0.50000000  1
  Al  Al9  1  0.50000000  0.27730700  0.00000000  1
  Al  Al10  1  0.00000000  0.66299800  0.00000000  1
  Al  Al11  1  0.16299800  0.50000000  0.50000000  1
  Al  Al12  1  0.83700200  0.50000000  0.50000000  1
  Al  Al13  1  0.00000000  0.33700200  0.00000000  1
  Al  Al14  1  0.00000000  0.22269300  0.50000000  1
  Al  Al15  1  0.72269300  0.50000000  0.00000000  1
  Al  Al16  1  0.27730700  0.50000000  0.00000000  1
  Al  Al17  1  0.00000000  0.77730700  0.50000000  1
  Cr  Cr18  1  0.75000000  0.75000000  0.75000000  1
  Cr  Cr19  1  0.75000000  0.25000000  0.75000000  1
  Cr  Cr20  1  0.75000000  0.25000000  0.25000000  1
  Cr  Cr21  1  0.75000000  0.75000000  0.25000000  1
  Cr  Cr22  1  0.25000000  0.25000000  0.25000000  1
  Cr  Cr23  1  0.25000000  0.75000000  0.25000000  1
  Cr  Cr24  1  0.25000000  0.75000000  0.75000000  1
  Cr  Cr25  1  0.25000000  0.25000000  0.75000000  1
