# generated using pymatgen
data_BaCu3O4
_symmetry_space_group_name_H-M   'P 1'
_cell_length_a   5.55196200
_cell_length_b   11.10341200
_cell_length_c   4.03736900
_cell_angle_alpha   90.00000000
_cell_angle_beta   90.00000000
_cell_angle_gamma   90.00000000
_symmetry_Int_Tables_number   1
_chemical_formula_structural   BaCu3O4
_chemical_formula_sum   'Ba2 Cu6 O8'
_cell_volume   248.88652494
_cell_formula_units_Z   2
loop_
 _symmetry_equiv_pos_site_id
 _symmetry_equiv_pos_as_xyz
  1  'x, y, z'
loop_
 _atom_site_type_symbol
 _atom_site_label
 _atom_site_symmetry_multiplicity
 _atom_site_fract_x
 _atom_site_fract_y
 _atom_site_fract_z
 _atom_site_occupancy
  Ba  Ba0  1  0.00000000  0.00000000  0.50000000  1
  Ba  Ba1  1  0.50000000  0.50000000  0.50000000  1
  Cu  Cu2  1  0.50000000  0.00000000  0.00000000  1
  Cu  Cu3  1  0.00000000  0.24763900  0.00000000  1
  Cu  Cu4  1  0.50000000  0.25236100  0.00000000  1
  Cu  Cu5  1  0.00000000  0.50000000  0.00000000  1
  Cu  Cu6  1  0.50000000  0.74763900  0.00000000  1
  Cu  Cu7  1  0.00000000  0.75236100  0.00000000  1
  O  O8  1  0.25494250  0.12926950  0.00000000  1
  O  O9  1  0.24505750  0.37073050  0.00000000  1
  O  O10  1  0.75494250  0.37073050  0.00000000  1
  O  O11  1  0.74505750  0.12926950  0.00000000  1
  O  O12  1  0.75494250  0.62926950  0.00000000  1
  O  O13  1  0.74505750  0.87073050  0.00000000  1
  O  O14  1  0.25494250  0.87073050  0.00000000  1
  O  O15  1  0.24505750  0.62926950  0.00000000  1
