# generated using pymatgen
data_ErAg2
_symmetry_space_group_name_H-M   'P 1'
_cell_length_a   3.73021000
_cell_length_b   3.73021000
_cell_length_c   9.19564400
_cell_angle_alpha   90.00000000
_cell_angle_beta   90.00000000
_cell_angle_gamma   90.00000000
_symmetry_Int_Tables_number   1
_chemical_formula_structural   ErAg2
_chemical_formula_sum   'Er2 Ag4'
_cell_volume   127.95248171
_cell_formula_units_Z   2
loop_
 _symmetry_equiv_pos_site_id
 _symmetry_equiv_pos_as_xyz
  1  'x, y, z'
loop_
 _atom_site_type_symbol
 _atom_site_label
 _atom_site_symmetry_multiplicity
 _atom_site_fract_x
 _atom_site_fract_y
 _atom_site_fract_z
 _atom_site_occupancy
  Er  Er0  1  0.00000000  0.00000000  0.00000000  1
  Er  Er1  1  0.50000000  0.50000000  0.50000000  1
  Ag  Ag2  1  0.00000000  0.00000000  0.33159000  1
  Ag  Ag3  1  0.50000000  0.50000000  0.16841000  1
  Ag  Ag4  1  0.50000000  0.50000000  0.83159000  1
  Ag  Ag5  1  0.00000000  0.00000000  0.66841000  1
