# generated using pymatgen
data_ErSn2
_symmetry_space_group_name_H-M   'P 1'
_cell_length_a   4.40302800
_cell_length_b   16.27194600
_cell_length_c   4.35474400
_cell_angle_alpha   90.00000000
_cell_angle_beta   90.00000000
_cell_angle_gamma   90.00000000
_symmetry_Int_Tables_number   1
_chemical_formula_structural   ErSn2
_chemical_formula_sum   'Er4 Sn8'
_cell_volume   311.99926509
_cell_formula_units_Z   4
loop_
 _symmetry_equiv_pos_site_id
 _symmetry_equiv_pos_as_xyz
  1  'x, y, z'
loop_
 _atom_site_type_symbol
 _atom_site_label
 _atom_site_symmetry_multiplicity
 _atom_site_fract_x
 _atom_site_fract_y
 _atom_site_fract_z
 _atom_site_occupancy
  Er  Er0  1  0.50000000  0.40136900  0.75000000  1
  Er  Er1  1  0.00000000  0.09863100  0.25000000  1
  Er  Er2  1  0.00000000  0.90136900  0.75000000  1
  Er  Er3  1  0.50000000  0.59863100  0.25000000  1
  Sn  Sn4  1  0.00000000  0.25004600  0.75000000  1
  Sn  Sn5  1  0.50000000  0.24995400  0.25000000  1
  Sn  Sn6  1  0.00000000  0.43587800  0.25000000  1
  Sn  Sn7  1  0.50000000  0.06412200  0.75000000  1
  Sn  Sn8  1  0.50000000  0.75004600  0.75000000  1
  Sn  Sn9  1  0.00000000  0.74995400  0.25000000  1
  Sn  Sn10  1  0.50000000  0.93587800  0.25000000  1
  Sn  Sn11  1  0.00000000  0.56412200  0.75000000  1
