# generated using pymatgen
data_Zr3Fe
_symmetry_space_group_name_H-M   'P 1'
_cell_length_a   3.24435000
_cell_length_b   10.92681400
_cell_length_c   9.06765100
_cell_angle_alpha   90.00000000
_cell_angle_beta   90.00000000
_cell_angle_gamma   90.00000000
_symmetry_Int_Tables_number   1
_chemical_formula_structural   Zr3Fe
_chemical_formula_sum   'Zr12 Fe4'
_cell_volume   321.45193663
_cell_formula_units_Z   4
loop_
 _symmetry_equiv_pos_site_id
 _symmetry_equiv_pos_as_xyz
  1  'x, y, z'
loop_
 _atom_site_type_symbol
 _atom_site_label
 _atom_site_symmetry_multiplicity
 _atom_site_fract_x
 _atom_site_fract_y
 _atom_site_fract_z
 _atom_site_occupancy
  Zr  Zr0  1  0.00000000  0.13693300  0.94110700  1
  Zr  Zr1  1  0.50000000  0.36306700  0.05889300  1
  Zr  Zr2  1  0.00000000  0.13693300  0.55889300  1
  Zr  Zr3  1  0.50000000  0.36306700  0.44110700  1
  Zr  Zr4  1  0.00000000  0.42674100  0.75000000  1
  Zr  Zr5  1  0.50000000  0.07325900  0.25000000  1
  Zr  Zr6  1  0.50000000  0.63693300  0.94110700  1
  Zr  Zr7  1  0.00000000  0.86306700  0.05889300  1
  Zr  Zr8  1  0.50000000  0.63693300  0.55889300  1
  Zr  Zr9  1  0.00000000  0.86306700  0.44110700  1
  Zr  Zr10  1  0.50000000  0.92674100  0.75000000  1
  Zr  Zr11  1  0.00000000  0.57325900  0.25000000  1
  Fe  Fe12  1  0.50000000  0.23443200  0.75000000  1
  Fe  Fe13  1  0.00000000  0.26556800  0.25000000  1
  Fe  Fe14  1  0.00000000  0.73443200  0.75000000  1
  Fe  Fe15  1  0.50000000  0.76556800  0.25000000  1
