# generated using pymatgen
data_BiPd2Pb
_symmetry_space_group_name_H-M   'P 1'
_cell_length_a   7.33198000
_cell_length_b   8.85295600
_cell_length_c   5.66882028
_cell_angle_alpha   90.00000000
_cell_angle_beta   108.53574970
_cell_angle_gamma   90.00000000
_symmetry_Int_Tables_number   1
_chemical_formula_structural   BiPd2Pb
_chemical_formula_sum   'Bi4 Pd8 Pb4'
_cell_volume   348.87358509
_cell_formula_units_Z   4
loop_
 _symmetry_equiv_pos_site_id
 _symmetry_equiv_pos_as_xyz
  1  'x, y, z'
loop_
 _atom_site_type_symbol
 _atom_site_label
 _atom_site_symmetry_multiplicity
 _atom_site_fract_x
 _atom_site_fract_y
 _atom_site_fract_z
 _atom_site_occupancy
  Bi  Bi0  1  0.27978400  0.22580900  0.57268800  1
  Bi  Bi1  1  0.27978400  0.77419100  0.57268800  1
  Bi  Bi2  1  0.77978400  0.72580900  0.57268800  1
  Bi  Bi3  1  0.77978400  0.27419100  0.57268800  1
  Pd  Pd4  1  0.41495500  0.75632700  0.12964000  1
  Pd  Pd5  1  0.41495500  0.24367300  0.12964000  1
  Pd  Pd6  1  0.96030900  0.00000000  0.46426100  1
  Pd  Pd7  1  0.55219100  0.00000000  0.47663600  1
  Pd  Pd8  1  0.91495500  0.25632700  0.12964000  1
  Pd  Pd9  1  0.91495500  0.74367300  0.12964000  1
  Pd  Pd10  1  0.46030900  0.50000000  0.46426100  1
  Pd  Pd11  1  0.05219100  0.50000000  0.47663600  1
  Pb  Pb12  1  0.12701200  0.00000000  0.01110900  1
  Pb  Pb13  1  0.64001000  0.00000000  0.00733700  1
  Pb  Pb14  1  0.62701200  0.50000000  0.01110900  1
  Pb  Pb15  1  0.14001000  0.50000000  0.00733700  1
