# generated using pymatgen
data_ZrAl3
_symmetry_space_group_name_H-M   'P 1'
_cell_length_a   4.01798200
_cell_length_b   4.01798200
_cell_length_c   17.33564400
_cell_angle_alpha   90.00000000
_cell_angle_beta   90.00000000
_cell_angle_gamma   90.00000000
_symmetry_Int_Tables_number   1
_chemical_formula_structural   ZrAl3
_chemical_formula_sum   'Zr4 Al12'
_cell_volume   279.86974592
_cell_formula_units_Z   4
loop_
 _symmetry_equiv_pos_site_id
 _symmetry_equiv_pos_as_xyz
  1  'x, y, z'
loop_
 _atom_site_type_symbol
 _atom_site_label
 _atom_site_symmetry_multiplicity
 _atom_site_fract_x
 _atom_site_fract_y
 _atom_site_fract_z
 _atom_site_occupancy
  Zr  Zr0  1  0.00000000  0.00000000  0.11874500  1
  Zr  Zr1  1  0.50000000  0.50000000  0.38125500  1
  Zr  Zr2  1  0.50000000  0.50000000  0.61874500  1
  Zr  Zr3  1  0.00000000  0.00000000  0.88125500  1
  Al  Al4  1  0.50000000  0.00000000  0.00000000  1
  Al  Al5  1  0.00000000  0.50000000  0.00000000  1
  Al  Al6  1  0.50000000  0.00000000  0.25000000  1
  Al  Al7  1  0.00000000  0.50000000  0.25000000  1
  Al  Al8  1  0.00000000  0.00000000  0.37480700  1
  Al  Al9  1  0.50000000  0.50000000  0.12519300  1
  Al  Al10  1  0.00000000  0.50000000  0.50000000  1
  Al  Al11  1  0.50000000  0.00000000  0.50000000  1
  Al  Al12  1  0.00000000  0.50000000  0.75000000  1
  Al  Al13  1  0.50000000  0.00000000  0.75000000  1
  Al  Al14  1  0.50000000  0.50000000  0.87480700  1
  Al  Al15  1  0.00000000  0.00000000  0.62519300  1
