# generated using pymatgen
data_SrCuSn2
_symmetry_space_group_name_H-M   'P 1'
_cell_length_a   4.63729800
_cell_length_b   19.58991800
_cell_length_c   4.57739400
_cell_angle_alpha   90.00000000
_cell_angle_beta   90.00000000
_cell_angle_gamma   90.00000000
_symmetry_Int_Tables_number   1
_chemical_formula_structural   SrCuSn2
_chemical_formula_sum   'Sr4 Cu4 Sn8'
_cell_volume   415.83009682
_cell_formula_units_Z   4
loop_
 _symmetry_equiv_pos_site_id
 _symmetry_equiv_pos_as_xyz
  1  'x, y, z'
loop_
 _atom_site_type_symbol
 _atom_site_label
 _atom_site_symmetry_multiplicity
 _atom_site_fract_x
 _atom_site_fract_y
 _atom_site_fract_z
 _atom_site_occupancy
  Sr  Sr0  1  0.00000000  0.39191100  0.25000000  1
  Sr  Sr1  1  0.50000000  0.10808900  0.75000000  1
  Sr  Sr2  1  0.50000000  0.89191100  0.25000000  1
  Sr  Sr3  1  0.00000000  0.60808900  0.75000000  1
  Cu  Cu4  1  0.00000000  0.17515900  0.25000000  1
  Cu  Cu5  1  0.50000000  0.32484100  0.75000000  1
  Cu  Cu6  1  0.50000000  0.67515900  0.25000000  1
  Cu  Cu7  1  0.00000000  0.82484100  0.75000000  1
  Sn  Sn8  1  0.00000000  0.24965400  0.75000000  1
  Sn  Sn9  1  0.50000000  0.45674500  0.75000000  1
  Sn  Sn10  1  0.50000000  0.25034600  0.25000000  1
  Sn  Sn11  1  0.00000000  0.04325500  0.25000000  1
  Sn  Sn12  1  0.50000000  0.74965400  0.75000000  1
  Sn  Sn13  1  0.00000000  0.95674500  0.75000000  1
  Sn  Sn14  1  0.00000000  0.75034600  0.25000000  1
  Sn  Sn15  1  0.50000000  0.54325500  0.25000000  1
