# generated using pymatgen
data_Dy2Al3Si2
_symmetry_space_group_name_H-M   'P 1'
_cell_length_a   10.21939000
_cell_length_b   4.04043400
_cell_length_c   6.62936119
_cell_angle_alpha   90.00000000
_cell_angle_beta   101.03397190
_cell_angle_gamma   90.00000000
_symmetry_Int_Tables_number   1
_chemical_formula_structural   Dy2Al3Si2
_chemical_formula_sum   'Dy4 Al6 Si4'
_cell_volume   268.67120045
_cell_formula_units_Z   2
loop_
 _symmetry_equiv_pos_site_id
 _symmetry_equiv_pos_as_xyz
  1  'x, y, z'
loop_
 _atom_site_type_symbol
 _atom_site_label
 _atom_site_symmetry_multiplicity
 _atom_site_fract_x
 _atom_site_fract_y
 _atom_site_fract_z
 _atom_site_occupancy
  Dy  Dy0  1  0.61976900  0.00000000  0.32271700  1
  Dy  Dy1  1  0.88023100  0.50000000  0.67728300  1
  Dy  Dy2  1  0.11976900  0.50000000  0.32271700  1
  Dy  Dy3  1  0.38023100  0.00000000  0.67728300  1
  Al  Al4  1  0.80540400  0.50000000  0.13352800  1
  Al  Al5  1  0.00000000  0.00000000  0.00000000  1
  Al  Al6  1  0.69459600  0.00000000  0.86647200  1
  Al  Al7  1  0.30540400  0.00000000  0.13352800  1
  Al  Al8  1  0.50000000  0.50000000  0.00000000  1
  Al  Al9  1  0.19459600  0.50000000  0.86647200  1
  Si  Si10  1  0.59300500  0.50000000  0.64021100  1
  Si  Si11  1  0.90699500  0.00000000  0.35978900  1
  Si  Si12  1  0.09300500  0.00000000  0.64021100  1
  Si  Si13  1  0.40699500  0.50000000  0.35978900  1
