# generated using pymatgen
data_ZrGa2
_symmetry_space_group_name_H-M   'P 1'
_cell_length_a   4.01626400
_cell_length_b   13.01654400
_cell_length_c   4.15715500
_cell_angle_alpha   90.00000000
_cell_angle_beta   90.00000000
_cell_angle_gamma   90.00000000
_symmetry_Int_Tables_number   1
_chemical_formula_structural   ZrGa2
_chemical_formula_sum   'Zr4 Ga8'
_cell_volume   217.32723806
_cell_formula_units_Z   4
loop_
 _symmetry_equiv_pos_site_id
 _symmetry_equiv_pos_as_xyz
  1  'x, y, z'
loop_
 _atom_site_type_symbol
 _atom_site_label
 _atom_site_symmetry_multiplicity
 _atom_site_fract_x
 _atom_site_fract_y
 _atom_site_fract_z
 _atom_site_occupancy
  Zr  Zr0  1  0.50000000  0.84994400  0.00000000  1
  Zr  Zr1  1  0.00000000  0.65005600  0.00000000  1
  Zr  Zr2  1  0.00000000  0.34994400  0.00000000  1
  Zr  Zr3  1  0.50000000  0.15005600  0.00000000  1
  Ga  Ga4  1  0.00000000  0.00000000  0.00000000  1
  Ga  Ga5  1  0.50000000  0.00000000  0.50000000  1
  Ga  Ga6  1  0.50000000  0.67801600  0.50000000  1
  Ga  Ga7  1  0.00000000  0.82198400  0.50000000  1
  Ga  Ga8  1  0.50000000  0.50000000  0.00000000  1
  Ga  Ga9  1  0.00000000  0.50000000  0.50000000  1
  Ga  Ga10  1  0.00000000  0.17801600  0.50000000  1
  Ga  Ga11  1  0.50000000  0.32198400  0.50000000  1
