# generated using pymatgen
data_Nb10C7
_symmetry_space_group_name_H-M   'P 1'
_cell_length_a   5.50302000
_cell_length_b   15.76275400
_cell_length_c   5.51650587
_cell_angle_alpha   90.00000000
_cell_angle_beta   109.73511881
_cell_angle_gamma   90.00000000
_symmetry_Int_Tables_number   1
_chemical_formula_structural   Nb10C7
_chemical_formula_sum   'Nb20 C14'
_cell_volume   450.41060440
_cell_formula_units_Z   2
loop_
 _symmetry_equiv_pos_site_id
 _symmetry_equiv_pos_as_xyz
  1  'x, y, z'
loop_
 _atom_site_type_symbol
 _atom_site_label
 _atom_site_symmetry_multiplicity
 _atom_site_fract_x
 _atom_site_fract_y
 _atom_site_fract_z
 _atom_site_occupancy
  Nb  Nb0  1  0.25656050  0.30427250  0.73154400  1
  Nb  Nb1  1  0.75656050  0.19572750  0.73154400  1
  Nb  Nb2  1  0.74343950  0.30427250  0.26845600  1
  Nb  Nb3  1  0.25062900  0.10218800  0.75860300  1
  Nb  Nb4  1  0.24343950  0.19572750  0.26845600  1
  Nb  Nb5  1  0.73622100  0.00000000  0.76397900  1
  Nb  Nb6  1  0.74937100  0.10218800  0.24139700  1
  Nb  Nb7  1  0.75062900  0.39781200  0.75860300  1
  Nb  Nb8  1  0.26377900  0.00000000  0.23602100  1
  Nb  Nb9  1  0.24937100  0.39781200  0.24139700  1
  Nb  Nb10  1  0.75656050  0.80427250  0.73154400  1
  Nb  Nb11  1  0.25656050  0.69572750  0.73154400  1
  Nb  Nb12  1  0.24343950  0.80427250  0.26845600  1
  Nb  Nb13  1  0.75062900  0.60218800  0.75860300  1
  Nb  Nb14  1  0.74343950  0.69572750  0.26845600  1
  Nb  Nb15  1  0.23622100  0.50000000  0.76397900  1
  Nb  Nb16  1  0.24937100  0.60218800  0.24139700  1
  Nb  Nb17  1  0.25062900  0.89781200  0.75860300  1
  Nb  Nb18  1  0.76377900  0.50000000  0.23602100  1
  Nb  Nb19  1  0.74937100  0.89781200  0.24139700  1
  C  C20  1  0.50000000  0.30035400  0.50000000  1
  C  C21  1  0.00000000  0.19964600  0.50000000  1
  C  C22  1  0.50000000  0.10110100  0.50000000  1
  C  C23  1  0.00000000  0.10072200  0.00000000  1
  C  C24  1  0.00000000  0.39889900  0.50000000  1
  C  C25  1  0.50000000  0.00000000  0.00000000  1
  C  C26  1  0.50000000  0.39927800  0.00000000  1
  C  C27  1  0.00000000  0.80035400  0.50000000  1
  C  C28  1  0.50000000  0.69964600  0.50000000  1
  C  C29  1  0.00000000  0.60110100  0.50000000  1
  C  C30  1  0.50000000  0.60072200  0.00000000  1
  C  C31  1  0.50000000  0.89889900  0.50000000  1
  C  C32  1  0.00000000  0.50000000  0.00000000  1
  C  C33  1  0.00000000  0.89927800  0.00000000  1
