# generated using pymatgen
data_Sc3FeC4
_symmetry_space_group_name_H-M   'P 1'
_cell_length_a   3.39362400
_cell_length_b   4.35623000
_cell_length_c   12.11357200
_cell_angle_alpha   90.00000000
_cell_angle_beta   90.00000000
_cell_angle_gamma   90.00000000
_symmetry_Int_Tables_number   1
_chemical_formula_structural   Sc3FeC4
_chemical_formula_sum   'Sc6 Fe2 C8'
_cell_volume   179.07986119
_cell_formula_units_Z   2
loop_
 _symmetry_equiv_pos_site_id
 _symmetry_equiv_pos_as_xyz
  1  'x, y, z'
loop_
 _atom_site_type_symbol
 _atom_site_label
 _atom_site_symmetry_multiplicity
 _atom_site_fract_x
 _atom_site_fract_y
 _atom_site_fract_z
 _atom_site_occupancy
  Sc  Sc0  1  0.00000000  0.50000000  0.00000000  1
  Sc  Sc1  1  0.50000000  0.50000000  0.68850000  1
  Sc  Sc2  1  0.00000000  0.00000000  0.81150000  1
  Sc  Sc3  1  0.50000000  0.00000000  0.50000000  1
  Sc  Sc4  1  0.00000000  0.00000000  0.18850000  1
  Sc  Sc5  1  0.50000000  0.50000000  0.31150000  1
  Fe  Fe6  1  0.50000000  0.00000000  0.00000000  1
  Fe  Fe7  1  0.00000000  0.50000000  0.50000000  1
  C  C8  1  0.50000000  0.33419900  0.87608400  1
  C  C9  1  0.00000000  0.16580100  0.62391600  1
  C  C10  1  0.00000000  0.83419900  0.62391600  1
  C  C11  1  0.50000000  0.66580100  0.87608400  1
  C  C12  1  0.00000000  0.83419900  0.37608400  1
  C  C13  1  0.50000000  0.66580100  0.12391600  1
  C  C14  1  0.50000000  0.33419900  0.12391600  1
  C  C15  1  0.00000000  0.16580100  0.37608400  1
