# generated using pymatgen
data_ScUS2
_symmetry_space_group_name_H-M   'P 1'
_cell_length_a   5.34572200
_cell_length_b   5.34572200
_cell_length_c   10.66053200
_cell_angle_alpha   90.00000000
_cell_angle_beta   90.00000000
_cell_angle_gamma   90.00000000
_symmetry_Int_Tables_number   1
_chemical_formula_structural   ScUS2
_chemical_formula_sum   'Sc4 U4 S8'
_cell_volume   304.64329068
_cell_formula_units_Z   4
loop_
 _symmetry_equiv_pos_site_id
 _symmetry_equiv_pos_as_xyz
  1  'x, y, z'
loop_
 _atom_site_type_symbol
 _atom_site_label
 _atom_site_symmetry_multiplicity
 _atom_site_fract_x
 _atom_site_fract_y
 _atom_site_fract_z
 _atom_site_occupancy
  Sc  Sc0  1  0.50000000  0.50000000  0.00000000  1
  Sc  Sc1  1  0.50000000  0.00000000  0.25000000  1
  Sc  Sc2  1  0.00000000  0.00000000  0.50000000  1
  Sc  Sc3  1  0.00000000  0.50000000  0.75000000  1
  U  U4  1  0.00000000  0.00000000  0.00000000  1
  U  U5  1  0.00000000  0.50000000  0.25000000  1
  U  U6  1  0.50000000  0.50000000  0.50000000  1
  U  U7  1  0.50000000  0.00000000  0.75000000  1
  S  S8  1  0.50000000  0.00000000  0.49454500  1
  S  S9  1  0.50000000  0.00000000  0.00545500  1
  S  S10  1  0.50000000  0.50000000  0.24454500  1
  S  S11  1  0.00000000  0.00000000  0.25545500  1
  S  S12  1  0.00000000  0.50000000  0.99454500  1
  S  S13  1  0.00000000  0.50000000  0.50545500  1
  S  S14  1  0.00000000  0.00000000  0.74454500  1
  S  S15  1  0.50000000  0.50000000  0.75545500  1
