# generated using pymatgen
data_KFeS2
_symmetry_space_group_name_H-M   'P 1'
_cell_length_a   7.02187400
_cell_length_b   11.28858000
_cell_length_c   5.37102030
_cell_angle_alpha   90.00000000
_cell_angle_beta   112.24872746
_cell_angle_gamma   90.00000000
_symmetry_Int_Tables_number   1
_chemical_formula_structural   KFeS2
_chemical_formula_sum   'K4 Fe4 S8'
_cell_volume   394.04744530
_cell_formula_units_Z   4
loop_
 _symmetry_equiv_pos_site_id
 _symmetry_equiv_pos_as_xyz
  1  'x, y, z'
loop_
 _atom_site_type_symbol
 _atom_site_label
 _atom_site_symmetry_multiplicity
 _atom_site_fract_x
 _atom_site_fract_y
 _atom_site_fract_z
 _atom_site_occupancy
  K  K0  1  0.50000000  0.85811800  0.75000000  1
  K  K1  1  0.50000000  0.14188200  0.25000000  1
  K  K2  1  0.00000000  0.35811800  0.75000000  1
  K  K3  1  0.00000000  0.64188200  0.25000000  1
  Fe  Fe4  1  0.50000000  0.50208000  0.25000000  1
  Fe  Fe5  1  0.50000000  0.49792000  0.75000000  1
  Fe  Fe6  1  0.00000000  0.00208000  0.25000000  1
  Fe  Fe7  1  0.00000000  0.99792000  0.75000000  1
  S  S8  1  0.80944750  0.89388150  0.40275800  1
  S  S9  1  0.19055250  0.89388150  0.09724200  1
  S  S10  1  0.80944750  0.10611850  0.90275800  1
  S  S11  1  0.19055250  0.10611850  0.59724200  1
  S  S12  1  0.30944750  0.39388150  0.40275800  1
  S  S13  1  0.69055250  0.39388150  0.09724200  1
  S  S14  1  0.30944750  0.60611850  0.90275800  1
  S  S15  1  0.69055250  0.60611850  0.59724200  1
