# generated using pymatgen
data_Ti2Cd
_symmetry_space_group_name_H-M   'P 1'
_cell_length_a   2.86327000
_cell_length_b   2.86327000
_cell_length_c   13.56481200
_cell_angle_alpha   90.00000000
_cell_angle_beta   90.00000000
_cell_angle_gamma   90.00000000
_symmetry_Int_Tables_number   1
_chemical_formula_structural   Ti2Cd
_chemical_formula_sum   'Ti4 Cd2'
_cell_volume   111.20860295
_cell_formula_units_Z   2
loop_
 _symmetry_equiv_pos_site_id
 _symmetry_equiv_pos_as_xyz
  1  'x, y, z'
loop_
 _atom_site_type_symbol
 _atom_site_label
 _atom_site_symmetry_multiplicity
 _atom_site_fract_x
 _atom_site_fract_y
 _atom_site_fract_z
 _atom_site_occupancy
  Ti  Ti0  1  0.50000000  0.50000000  0.17792200  1
  Ti  Ti1  1  0.00000000  0.00000000  0.32207800  1
  Ti  Ti2  1  0.00000000  0.00000000  0.67792200  1
  Ti  Ti3  1  0.50000000  0.50000000  0.82207800  1
  Cd  Cd4  1  0.00000000  0.00000000  0.00000000  1
  Cd  Cd5  1  0.50000000  0.50000000  0.50000000  1
