# generated using pymatgen
data_Ca2SiIr2
_symmetry_space_group_name_H-M   'P 1'
_cell_length_a   9.76007000
_cell_length_b   5.85886600
_cell_length_c   7.33574815
_cell_angle_alpha   90.00000000
_cell_angle_beta   100.39855486
_cell_angle_gamma   90.00000000
_symmetry_Int_Tables_number   1
_chemical_formula_structural   Ca2SiIr2
_chemical_formula_sum   'Ca8 Si4 Ir8'
_cell_volume   412.59013922
_cell_formula_units_Z   4
loop_
 _symmetry_equiv_pos_site_id
 _symmetry_equiv_pos_as_xyz
  1  'x, y, z'
loop_
 _atom_site_type_symbol
 _atom_site_label
 _atom_site_symmetry_multiplicity
 _atom_site_fract_x
 _atom_site_fract_y
 _atom_site_fract_z
 _atom_site_occupancy
  Ca  Ca0  1  0.14626750  0.87033150  0.14022200  1
  Ca  Ca1  1  0.85373250  0.87033150  0.35977800  1
  Ca  Ca2  1  0.85373250  0.12966850  0.85977800  1
  Ca  Ca3  1  0.14626750  0.12966850  0.64022200  1
  Ca  Ca4  1  0.64626750  0.37033150  0.14022200  1
  Ca  Ca5  1  0.35373250  0.37033150  0.35977800  1
  Ca  Ca6  1  0.35373250  0.62966850  0.85977800  1
  Ca  Ca7  1  0.64626750  0.62966850  0.64022200  1
  Si  Si8  1  0.50000000  0.06548200  0.75000000  1
  Si  Si9  1  0.50000000  0.93451800  0.25000000  1
  Si  Si10  1  0.00000000  0.56548200  0.75000000  1
  Si  Si11  1  0.00000000  0.43451800  0.25000000  1
  Ir  Ir12  1  0.36765200  0.14217900  0.99010800  1
  Ir  Ir13  1  0.63234800  0.14217900  0.50989200  1
  Ir  Ir14  1  0.63234800  0.85782100  0.00989200  1
  Ir  Ir15  1  0.36765200  0.85782100  0.49010800  1
  Ir  Ir16  1  0.86765200  0.64217900  0.99010800  1
  Ir  Ir17  1  0.13234800  0.64217900  0.50989200  1
  Ir  Ir18  1  0.13234800  0.35782100  0.00989200  1
  Ir  Ir19  1  0.86765200  0.35782100  0.49010800  1
