# generated using pymatgen
data_Ce4B2N5
_symmetry_space_group_name_H-M   'P 1'
_cell_length_a   12.13571000
_cell_length_b   3.54653200
_cell_length_c   8.91975088
_cell_angle_alpha   90.00000000
_cell_angle_beta   129.45054223
_cell_angle_gamma   90.00000000
_symmetry_Int_Tables_number   1
_chemical_formula_structural   Ce4B2N5
_chemical_formula_sum   'Ce8 B4 N10'
_cell_volume   296.43986830
_cell_formula_units_Z   2
loop_
 _symmetry_equiv_pos_site_id
 _symmetry_equiv_pos_as_xyz
  1  'x, y, z'
loop_
 _atom_site_type_symbol
 _atom_site_label
 _atom_site_symmetry_multiplicity
 _atom_site_fract_x
 _atom_site_fract_y
 _atom_site_fract_z
 _atom_site_occupancy
  Ce  Ce0  1  0.42533600  0.50000000  0.65215600  1
  Ce  Ce1  1  0.57466400  0.50000000  0.34784400  1
  Ce  Ce2  1  0.81260500  0.50000000  0.88724100  1
  Ce  Ce3  1  0.18739500  0.50000000  0.11275900  1
  Ce  Ce4  1  0.92533600  0.00000000  0.65215600  1
  Ce  Ce5  1  0.07466400  0.00000000  0.34784400  1
  Ce  Ce6  1  0.31260500  0.00000000  0.88724100  1
  Ce  Ce7  1  0.68739500  0.00000000  0.11275900  1
  B  B8  1  0.58886100  0.00000000  0.60954900  1
  B  B9  1  0.41113900  0.00000000  0.39045100  1
  B  B10  1  0.08886100  0.50000000  0.60954900  1
  B  B11  1  0.91113900  0.50000000  0.39045100  1
  N  N12  1  0.70840400  0.00000000  0.60331600  1
  N  N13  1  0.29159600  0.00000000  0.39668400  1
  N  N14  1  0.00000000  0.00000000  0.00000000  1
  N  N15  1  0.62035400  0.00000000  0.80118300  1
  N  N16  1  0.37964600  0.00000000  0.19881700  1
  N  N17  1  0.20840400  0.50000000  0.60331600  1
  N  N18  1  0.79159600  0.50000000  0.39668400  1
  N  N19  1  0.50000000  0.50000000  0.00000000  1
  N  N20  1  0.12035400  0.50000000  0.80118300  1
  N  N21  1  0.87964600  0.50000000  0.19881700  1
