# generated using pymatgen
data_MgAu3
_symmetry_space_group_name_H-M   'P 1'
_cell_length_a   5.90333200
_cell_length_b   20.21041200
_cell_length_c   9.60060800
_cell_angle_alpha   90.00000000
_cell_angle_beta   90.00000000
_cell_angle_gamma   90.00000000
_symmetry_Int_Tables_number   1
_chemical_formula_structural   MgAu3
_chemical_formula_sum   'Mg16 Au48'
_cell_volume   1145.43674990
_cell_formula_units_Z   16
loop_
 _symmetry_equiv_pos_site_id
 _symmetry_equiv_pos_as_xyz
  1  'x, y, z'
loop_
 _atom_site_type_symbol
 _atom_site_label
 _atom_site_symmetry_multiplicity
 _atom_site_fract_x
 _atom_site_fract_y
 _atom_site_fract_z
 _atom_site_occupancy
  Mg  Mg0  1  0.50000000  0.62368700  0.50083400  1
  Mg  Mg1  1  0.00000000  0.87631300  0.49916600  1
  Mg  Mg2  1  0.00000000  0.87631300  0.00083400  1
  Mg  Mg3  1  0.50000000  0.62368700  0.99916600  1
  Mg  Mg4  1  0.50000000  0.95943100  0.75000000  1
  Mg  Mg5  1  0.00000000  0.54056900  0.25000000  1
  Mg  Mg6  1  0.00000000  0.70689500  0.75000000  1
  Mg  Mg7  1  0.50000000  0.79310500  0.25000000  1
  Mg  Mg8  1  0.00000000  0.12368700  0.50083400  1
  Mg  Mg9  1  0.50000000  0.37631300  0.49916600  1
  Mg  Mg10  1  0.50000000  0.37631300  0.00083400  1
  Mg  Mg11  1  0.00000000  0.12368700  0.99916600  1
  Mg  Mg12  1  0.00000000  0.45943100  0.75000000  1
  Mg  Mg13  1  0.50000000  0.04056900  0.25000000  1
  Mg  Mg14  1  0.50000000  0.20689500  0.75000000  1
  Mg  Mg15  1  0.00000000  0.29310500  0.25000000  1
  Au  Au16  1  0.25159400  0.00000000  0.00000000  1
  Au  Au17  1  0.74840600  0.00000000  0.50000000  1
  Au  Au18  1  0.74840600  0.00000000  0.00000000  1
  Au  Au19  1  0.25159400  0.00000000  0.50000000  1
  Au  Au20  1  0.50000000  0.87423000  0.99850600  1
  Au  Au21  1  0.00000000  0.62577000  0.00149400  1
  Au  Au22  1  0.00000000  0.62577000  0.49850600  1
  Au  Au23  1  0.50000000  0.87423000  0.50149400  1
  Au  Au24  1  0.74768850  0.66687750  0.25000000  1
  Au  Au25  1  0.24768850  0.83312250  0.75000000  1
  Au  Au26  1  0.75231150  0.83312250  0.75000000  1
  Au  Au27  1  0.25231150  0.66687750  0.25000000  1
  Au  Au28  1  0.25007650  0.91635650  0.25000000  1
  Au  Au29  1  0.75007650  0.58364350  0.75000000  1
  Au  Au30  1  0.24992350  0.58364350  0.75000000  1
  Au  Au31  1  0.74992350  0.91635650  0.25000000  1
  Au  Au32  1  0.25000000  0.75000000  0.50000000  1
  Au  Au33  1  0.75000000  0.75000000  0.50000000  1
  Au  Au34  1  0.25000000  0.75000000  0.00000000  1
  Au  Au35  1  0.75000000  0.75000000  0.00000000  1
  Au  Au36  1  0.50000000  0.70780600  0.75000000  1
  Au  Au37  1  0.00000000  0.79219400  0.25000000  1
  Au  Au38  1  0.00000000  0.95586000  0.75000000  1
  Au  Au39  1  0.50000000  0.54414000  0.25000000  1
  Au  Au40  1  0.75159400  0.50000000  0.00000000  1
  Au  Au41  1  0.24840600  0.50000000  0.50000000  1
  Au  Au42  1  0.24840600  0.50000000  0.00000000  1
  Au  Au43  1  0.75159400  0.50000000  0.50000000  1
  Au  Au44  1  0.00000000  0.37423000  0.99850600  1
  Au  Au45  1  0.50000000  0.12577000  0.00149400  1
  Au  Au46  1  0.50000000  0.12577000  0.49850600  1
  Au  Au47  1  0.00000000  0.37423000  0.50149400  1
  Au  Au48  1  0.24768850  0.16687750  0.25000000  1
  Au  Au49  1  0.74768850  0.33312250  0.75000000  1
  Au  Au50  1  0.25231150  0.33312250  0.75000000  1
  Au  Au51  1  0.75231150  0.16687750  0.25000000  1
  Au  Au52  1  0.75007650  0.41635650  0.25000000  1
  Au  Au53  1  0.25007650  0.08364350  0.75000000  1
  Au  Au54  1  0.74992350  0.08364350  0.75000000  1
  Au  Au55  1  0.24992350  0.41635650  0.25000000  1
  Au  Au56  1  0.75000000  0.25000000  0.50000000  1
  Au  Au57  1  0.25000000  0.25000000  0.50000000  1
  Au  Au58  1  0.75000000  0.25000000  0.00000000  1
  Au  Au59  1  0.25000000  0.25000000  0.00000000  1
  Au  Au60  1  0.00000000  0.20780600  0.75000000  1
  Au  Au61  1  0.50000000  0.29219400  0.25000000  1
  Au  Au62  1  0.50000000  0.45586000  0.75000000  1
  Au  Au63  1  0.00000000  0.04414000  0.25000000  1
