# generated using pymatgen
data_BaZn5
_symmetry_space_group_name_H-M   'P 1'
_cell_length_a   8.48935800
_cell_length_b   10.92533200
_cell_length_c   5.33743500
_cell_angle_alpha   90.00000000
_cell_angle_beta   90.00000000
_cell_angle_gamma   90.00000000
_symmetry_Int_Tables_number   1
_chemical_formula_structural   BaZn5
_chemical_formula_sum   'Ba4 Zn20'
_cell_volume   495.04205033
_cell_formula_units_Z   4
loop_
 _symmetry_equiv_pos_site_id
 _symmetry_equiv_pos_as_xyz
  1  'x, y, z'
loop_
 _atom_site_type_symbol
 _atom_site_label
 _atom_site_symmetry_multiplicity
 _atom_site_fract_x
 _atom_site_fract_y
 _atom_site_fract_z
 _atom_site_occupancy
  Ba  Ba0  1  0.66837800  0.00000000  0.25000000  1
  Ba  Ba1  1  0.33162200  0.00000000  0.75000000  1
  Ba  Ba2  1  0.16837800  0.50000000  0.25000000  1
  Ba  Ba3  1  0.83162200  0.50000000  0.75000000  1
  Zn  Zn4  1  0.50000000  0.29496500  0.50000000  1
  Zn  Zn5  1  0.50000000  0.70503500  0.00000000  1
  Zn  Zn6  1  0.92162000  0.00000000  0.75000000  1
  Zn  Zn7  1  0.07838000  0.00000000  0.25000000  1
  Zn  Zn8  1  0.72765500  0.80818900  0.75000000  1
  Zn  Zn9  1  0.27234500  0.19181100  0.25000000  1
  Zn  Zn10  1  0.72765500  0.19181100  0.75000000  1
  Zn  Zn11  1  0.27234500  0.80818900  0.25000000  1
  Zn  Zn12  1  0.50000000  0.29496500  0.00000000  1
  Zn  Zn13  1  0.50000000  0.70503500  0.50000000  1
  Zn  Zn14  1  0.00000000  0.79496500  0.50000000  1
  Zn  Zn15  1  0.00000000  0.20503500  0.00000000  1
  Zn  Zn16  1  0.42162000  0.50000000  0.75000000  1
  Zn  Zn17  1  0.57838000  0.50000000  0.25000000  1
  Zn  Zn18  1  0.22765500  0.30818900  0.75000000  1
  Zn  Zn19  1  0.77234500  0.69181100  0.25000000  1
  Zn  Zn20  1  0.22765500  0.69181100  0.75000000  1
  Zn  Zn21  1  0.77234500  0.30818900  0.25000000  1
  Zn  Zn22  1  0.00000000  0.79496500  0.00000000  1
  Zn  Zn23  1  0.00000000  0.20503500  0.50000000  1
