# generated using pymatgen
data_Ga4Ni3
_symmetry_space_group_name_H-M   'P 1'
_cell_length_a   11.47964800
_cell_length_b   11.47964800
_cell_length_c   11.47964800
_cell_angle_alpha   90.00000000
_cell_angle_beta   90.00000000
_cell_angle_gamma   90.00000000
_symmetry_Int_Tables_number   1
_chemical_formula_structural   Ga4Ni3
_chemical_formula_sum   'Ga64 Ni48'
_cell_volume   1512.81462560
_cell_formula_units_Z   16
loop_
 _symmetry_equiv_pos_site_id
 _symmetry_equiv_pos_as_xyz
  1  'x, y, z'
loop_
 _atom_site_type_symbol
 _atom_site_label
 _atom_site_symmetry_multiplicity
 _atom_site_fract_x
 _atom_site_fract_y
 _atom_site_fract_z
 _atom_site_occupancy
  Ga  Ga0  1  0.75000000  0.25000000  0.25000000  1
  Ga  Ga1  1  0.00000000  0.00000000  0.50000000  1
  Ga  Ga2  1  0.50000000  0.00000000  0.00000000  1
  Ga  Ga3  1  0.00000000  0.00000000  0.00000000  1
  Ga  Ga4  1  0.25000000  0.25000000  0.75000000  1
  Ga  Ga5  1  0.25000000  0.25000000  0.25000000  1
  Ga  Ga6  1  0.25000000  0.75000000  0.25000000  1
  Ga  Ga7  1  0.00000000  0.50000000  0.00000000  1
  Ga  Ga8  1  0.25000000  0.76230350  0.50000000  1
  Ga  Ga9  1  0.01230350  0.00000000  0.25000000  1
  Ga  Ga10  1  0.98769650  0.50000000  0.25000000  1
  Ga  Ga11  1  0.00000000  0.25000000  0.01230350  1
  Ga  Ga12  1  0.50000000  0.25000000  0.98769650  1
  Ga  Ga13  1  0.25000000  0.01230350  0.00000000  1
  Ga  Ga14  1  0.50000000  0.25000000  0.76230350  1
  Ga  Ga15  1  0.23769650  0.00000000  0.25000000  1
  Ga  Ga16  1  0.00000000  0.25000000  0.23769650  1
  Ga  Ga17  1  0.76230350  0.50000000  0.25000000  1
  Ga  Ga18  1  0.25000000  0.23769650  0.00000000  1
  Ga  Ga19  1  0.25000000  0.98769650  0.50000000  1
  Ga  Ga20  1  0.25000000  0.73769650  0.00000000  1
  Ga  Ga21  1  0.48769650  0.50000000  0.25000000  1
  Ga  Ga22  1  0.51230350  0.00000000  0.25000000  1
  Ga  Ga23  1  0.50000000  0.25000000  0.48769650  1
  Ga  Ga24  1  0.00000000  0.25000000  0.51230350  1
  Ga  Ga25  1  0.25000000  0.48769650  0.50000000  1
  Ga  Ga26  1  0.00000000  0.25000000  0.73769650  1
  Ga  Ga27  1  0.26230350  0.50000000  0.25000000  1
  Ga  Ga28  1  0.50000000  0.25000000  0.26230350  1
  Ga  Ga29  1  0.73769650  0.00000000  0.25000000  1
  Ga  Ga30  1  0.25000000  0.26230350  0.50000000  1
  Ga  Ga31  1  0.25000000  0.51230350  0.00000000  1
  Ga  Ga32  1  0.25000000  0.75000000  0.75000000  1
  Ga  Ga33  1  0.50000000  0.50000000  0.00000000  1
  Ga  Ga34  1  0.00000000  0.50000000  0.50000000  1
  Ga  Ga35  1  0.50000000  0.50000000  0.50000000  1
  Ga  Ga36  1  0.75000000  0.75000000  0.25000000  1
  Ga  Ga37  1  0.75000000  0.75000000  0.75000000  1
  Ga  Ga38  1  0.75000000  0.25000000  0.75000000  1
  Ga  Ga39  1  0.50000000  0.00000000  0.50000000  1
  Ga  Ga40  1  0.75000000  0.26230350  0.00000000  1
  Ga  Ga41  1  0.51230350  0.50000000  0.75000000  1
  Ga  Ga42  1  0.48769650  0.00000000  0.75000000  1
  Ga  Ga43  1  0.50000000  0.75000000  0.51230350  1
  Ga  Ga44  1  0.00000000  0.75000000  0.48769650  1
  Ga  Ga45  1  0.75000000  0.51230350  0.50000000  1
  Ga  Ga46  1  0.00000000  0.75000000  0.26230350  1
  Ga  Ga47  1  0.73769650  0.50000000  0.75000000  1
  Ga  Ga48  1  0.50000000  0.75000000  0.73769650  1
  Ga  Ga49  1  0.26230350  0.00000000  0.75000000  1
  Ga  Ga50  1  0.75000000  0.73769650  0.50000000  1
  Ga  Ga51  1  0.75000000  0.48769650  0.00000000  1
  Ga  Ga52  1  0.75000000  0.23769650  0.50000000  1
  Ga  Ga53  1  0.98769650  0.00000000  0.75000000  1
  Ga  Ga54  1  0.01230350  0.50000000  0.75000000  1
  Ga  Ga55  1  0.00000000  0.75000000  0.98769650  1
  Ga  Ga56  1  0.50000000  0.75000000  0.01230350  1
  Ga  Ga57  1  0.75000000  0.98769650  0.00000000  1
  Ga  Ga58  1  0.50000000  0.75000000  0.23769650  1
  Ga  Ga59  1  0.76230350  0.00000000  0.75000000  1
  Ga  Ga60  1  0.00000000  0.75000000  0.76230350  1
  Ga  Ga61  1  0.23769650  0.50000000  0.75000000  1
  Ga  Ga62  1  0.75000000  0.76230350  0.00000000  1
  Ga  Ga63  1  0.75000000  0.01230350  0.50000000  1
  Ni  Ni64  1  0.11690400  0.37500000  0.36690400  1
  Ni  Ni65  1  0.62500000  0.13309600  0.11690400  1
  Ni  Ni66  1  0.37500000  0.36690400  0.11690400  1
  Ni  Ni67  1  0.36690400  0.88309600  0.12500000  1
  Ni  Ni68  1  0.36690400  0.11690400  0.37500000  1
  Ni  Ni69  1  0.11690400  0.62500000  0.13309600  1
  Ni  Ni70  1  0.88309600  0.12500000  0.36690400  1
  Ni  Ni71  1  0.63309600  0.38309600  0.37500000  1
  Ni  Ni72  1  0.12500000  0.36690400  0.88309600  1
  Ni  Ni73  1  0.37500000  0.63309600  0.38309600  1
  Ni  Ni74  1  0.13309600  0.11690400  0.62500000  1
  Ni  Ni75  1  0.38309600  0.37500000  0.63309600  1
  Ni  Ni76  1  0.38309600  0.12500000  0.13309600  1
  Ni  Ni77  1  0.87500000  0.36690400  0.38309600  1
  Ni  Ni78  1  0.12500000  0.13309600  0.38309600  1
  Ni  Ni79  1  0.13309600  0.61690400  0.37500000  1
  Ni  Ni80  1  0.13309600  0.38309600  0.12500000  1
  Ni  Ni81  1  0.38309600  0.87500000  0.36690400  1
  Ni  Ni82  1  0.61690400  0.37500000  0.13309600  1
  Ni  Ni83  1  0.86690400  0.11690400  0.12500000  1
  Ni  Ni84  1  0.37500000  0.13309600  0.61690400  1
  Ni  Ni85  1  0.12500000  0.86690400  0.11690400  1
  Ni  Ni86  1  0.36690400  0.38309600  0.87500000  1
  Ni  Ni87  1  0.11690400  0.12500000  0.86690400  1
  Ni  Ni88  1  0.61690400  0.87500000  0.86690400  1
  Ni  Ni89  1  0.12500000  0.63309600  0.61690400  1
  Ni  Ni90  1  0.87500000  0.86690400  0.61690400  1
  Ni  Ni91  1  0.86690400  0.38309600  0.62500000  1
  Ni  Ni92  1  0.86690400  0.61690400  0.87500000  1
  Ni  Ni93  1  0.61690400  0.12500000  0.63309600  1
  Ni  Ni94  1  0.38309600  0.62500000  0.86690400  1
  Ni  Ni95  1  0.13309600  0.88309600  0.87500000  1
  Ni  Ni96  1  0.62500000  0.86690400  0.38309600  1
  Ni  Ni97  1  0.87500000  0.13309600  0.88309600  1
  Ni  Ni98  1  0.63309600  0.61690400  0.12500000  1
  Ni  Ni99  1  0.88309600  0.87500000  0.13309600  1
  Ni  Ni100  1  0.88309600  0.62500000  0.63309600  1
  Ni  Ni101  1  0.37500000  0.86690400  0.88309600  1
  Ni  Ni102  1  0.62500000  0.63309600  0.88309600  1
  Ni  Ni103  1  0.63309600  0.11690400  0.87500000  1
  Ni  Ni104  1  0.63309600  0.88309600  0.62500000  1
  Ni  Ni105  1  0.88309600  0.37500000  0.86690400  1
  Ni  Ni106  1  0.11690400  0.87500000  0.63309600  1
  Ni  Ni107  1  0.36690400  0.61690400  0.62500000  1
  Ni  Ni108  1  0.87500000  0.63309600  0.11690400  1
  Ni  Ni109  1  0.62500000  0.36690400  0.61690400  1
  Ni  Ni110  1  0.86690400  0.88309600  0.37500000  1
  Ni  Ni111  1  0.61690400  0.62500000  0.36690400  1
