# generated using pymatgen
data_NaVSe2
_symmetry_space_group_name_H-M   'P 1'
_cell_length_a   3.78033007
_cell_length_b   3.78033007
_cell_length_c   20.59620757
_cell_angle_alpha   90.00000000
_cell_angle_beta   90.00000000
_cell_angle_gamma   120.00000000
_symmetry_Int_Tables_number   1
_chemical_formula_structural   NaVSe2
_chemical_formula_sum   'Na3 V3 Se6'
_cell_volume   254.90440126
_cell_formula_units_Z   3
loop_
 _symmetry_equiv_pos_site_id
 _symmetry_equiv_pos_as_xyz
  1  'x, y, z'
loop_
 _atom_site_type_symbol
 _atom_site_label
 _atom_site_symmetry_multiplicity
 _atom_site_fract_x
 _atom_site_fract_y
 _atom_site_fract_z
 _atom_site_occupancy
  Na  Na0  1  0.33333333  0.66666667  0.16666667  1
  Na  Na1  1  1.00000000  1.00000000  0.50000000  1
  Na  Na2  1  0.66666667  0.33333333  0.83333333  1
  V  V3  1  0.00000000  0.00000000  0.00000000  1
  V  V4  1  0.66666667  0.33333333  0.33333333  1
  V  V5  1  0.33333333  0.66666667  0.66666667  1
  Se  Se6  1  0.00000000  0.00000000  0.26516500  1
  Se  Se7  1  0.66666667  0.33333333  0.06816833  1
  Se  Se8  1  0.66666667  0.33333333  0.59849833  1
  Se  Se9  1  0.33333333  0.66666667  0.40150167  1
  Se  Se10  1  0.33333333  0.66666667  0.93183167  1
  Se  Se11  1  0.00000000  0.00000000  0.73483500  1
