# generated using pymatgen
data_Li7Sn2
_symmetry_space_group_name_H-M   'P 1'
_cell_length_a   9.79970000
_cell_length_b   13.83364400
_cell_length_c   4.71086700
_cell_angle_alpha   90.00000000
_cell_angle_beta   90.00000000
_cell_angle_gamma   90.00000000
_symmetry_Int_Tables_number   1
_chemical_formula_structural   Li7Sn2
_chemical_formula_sum   'Li28 Sn8'
_cell_volume   638.63132815
_cell_formula_units_Z   4
loop_
 _symmetry_equiv_pos_site_id
 _symmetry_equiv_pos_as_xyz
  1  'x, y, z'
loop_
 _atom_site_type_symbol
 _atom_site_label
 _atom_site_symmetry_multiplicity
 _atom_site_fract_x
 _atom_site_fract_y
 _atom_site_fract_z
 _atom_site_occupancy
  Li  Li0  1  0.00000000  0.00000000  0.00000000  1
  Li  Li1  1  0.50000000  0.00000000  0.50000000  1
  Li  Li2  1  0.65309100  0.00000000  0.00000000  1
  Li  Li3  1  0.34690900  0.00000000  0.00000000  1
  Li  Li4  1  0.50000000  0.67254400  0.50000000  1
  Li  Li5  1  0.50000000  0.32745600  0.50000000  1
  Li  Li6  1  0.81336800  0.15733700  0.00000000  1
  Li  Li7  1  0.18663200  0.84266300  0.00000000  1
  Li  Li8  1  0.81336800  0.84266300  0.00000000  1
  Li  Li9  1  0.18663200  0.15733700  0.00000000  1
  Li  Li10  1  0.65809350  0.16151950  0.50000000  1
  Li  Li11  1  0.34190650  0.83848050  0.50000000  1
  Li  Li12  1  0.65809350  0.83848050  0.50000000  1
  Li  Li13  1  0.34190650  0.16151950  0.50000000  1
  Li  Li14  1  0.50000000  0.50000000  0.00000000  1
  Li  Li15  1  0.00000000  0.50000000  0.50000000  1
  Li  Li16  1  0.15309100  0.50000000  0.00000000  1
  Li  Li17  1  0.84690900  0.50000000  0.00000000  1
  Li  Li18  1  0.00000000  0.17254400  0.50000000  1
  Li  Li19  1  0.00000000  0.82745600  0.50000000  1
  Li  Li20  1  0.31336800  0.65733700  0.00000000  1
  Li  Li21  1  0.68663200  0.34266300  0.00000000  1
  Li  Li22  1  0.31336800  0.34266300  0.00000000  1
  Li  Li23  1  0.68663200  0.65733700  0.00000000  1
  Li  Li24  1  0.15809350  0.66151950  0.50000000  1
  Li  Li25  1  0.84190650  0.33848050  0.50000000  1
  Li  Li26  1  0.15809350  0.33848050  0.50000000  1
  Li  Li27  1  0.84190650  0.66151950  0.50000000  1
  Sn  Sn28  1  0.83528400  0.00000000  0.50000000  1
  Sn  Sn29  1  0.16471600  0.00000000  0.50000000  1
  Sn  Sn30  1  0.50000000  0.81767650  0.00000000  1
  Sn  Sn31  1  0.50000000  0.18232350  0.00000000  1
  Sn  Sn32  1  0.33528400  0.50000000  0.50000000  1
  Sn  Sn33  1  0.66471600  0.50000000  0.50000000  1
  Sn  Sn34  1  0.00000000  0.31767650  0.00000000  1
  Sn  Sn35  1  0.00000000  0.68232350  0.00000000  1
