# generated using pymatgen
data_Ca2GaCu2
_symmetry_space_group_name_H-M   'P 1'
_cell_length_a   4.23074600
_cell_length_b   5.49870400
_cell_length_c   9.01270600
_cell_angle_alpha   90.00000000
_cell_angle_beta   90.00000000
_cell_angle_gamma   90.00000000
_symmetry_Int_Tables_number   1
_chemical_formula_structural   Ca2GaCu2
_chemical_formula_sum   'Ca4 Ga2 Cu4'
_cell_volume   209.66816713
_cell_formula_units_Z   2
loop_
 _symmetry_equiv_pos_site_id
 _symmetry_equiv_pos_as_xyz
  1  'x, y, z'
loop_
 _atom_site_type_symbol
 _atom_site_label
 _atom_site_symmetry_multiplicity
 _atom_site_fract_x
 _atom_site_fract_y
 _atom_site_fract_z
 _atom_site_occupancy
  Ca  Ca0  1  0.00000000  0.50000000  0.80396700  1
  Ca  Ca1  1  0.50000000  0.00000000  0.69603300  1
  Ca  Ca2  1  0.50000000  0.00000000  0.30396700  1
  Ca  Ca3  1  0.00000000  0.50000000  0.19603300  1
  Ga  Ga4  1  0.00000000  0.00000000  0.00000000  1
  Ga  Ga5  1  0.50000000  0.50000000  0.50000000  1
  Cu  Cu6  1  0.50000000  0.73986500  0.00000000  1
  Cu  Cu7  1  0.50000000  0.26013500  0.00000000  1
  Cu  Cu8  1  0.00000000  0.23986500  0.50000000  1
  Cu  Cu9  1  0.00000000  0.76013500  0.50000000  1
