# generated using pymatgen
data_LaMgNi4
_symmetry_space_group_name_H-M   'P 1'
_cell_length_a   7.12195000
_cell_length_b   7.12195000
_cell_length_c   7.12195000
_cell_angle_alpha   90.00000000
_cell_angle_beta   90.00000000
_cell_angle_gamma   90.00000000
_symmetry_Int_Tables_number   1
_chemical_formula_structural   LaMgNi4
_chemical_formula_sum   'La4 Mg4 Ni16'
_cell_volume   361.24077147
_cell_formula_units_Z   4
loop_
 _symmetry_equiv_pos_site_id
 _symmetry_equiv_pos_as_xyz
  1  'x, y, z'
loop_
 _atom_site_type_symbol
 _atom_site_label
 _atom_site_symmetry_multiplicity
 _atom_site_fract_x
 _atom_site_fract_y
 _atom_site_fract_z
 _atom_site_occupancy
  La  La0  1  0.00000000  0.00000000  0.00000000  1
  La  La1  1  0.00000000  0.50000000  0.50000000  1
  La  La2  1  0.50000000  0.00000000  0.50000000  1
  La  La3  1  0.50000000  0.50000000  0.00000000  1
  Mg  Mg4  1  0.25000000  0.25000000  0.75000000  1
  Mg  Mg5  1  0.25000000  0.75000000  0.25000000  1
  Mg  Mg6  1  0.75000000  0.25000000  0.25000000  1
  Mg  Mg7  1  0.75000000  0.75000000  0.75000000  1
  Ni  Ni8  1  0.12334800  0.37665200  0.12334800  1
  Ni  Ni9  1  0.87665200  0.37665200  0.87665200  1
  Ni  Ni10  1  0.62334800  0.12334800  0.87665200  1
  Ni  Ni11  1  0.37665200  0.12334800  0.12334800  1
  Ni  Ni12  1  0.12334800  0.87665200  0.62334800  1
  Ni  Ni13  1  0.87665200  0.87665200  0.37665200  1
  Ni  Ni14  1  0.62334800  0.62334800  0.37665200  1
  Ni  Ni15  1  0.37665200  0.62334800  0.62334800  1
  Ni  Ni16  1  0.62334800  0.37665200  0.62334800  1
  Ni  Ni17  1  0.37665200  0.37665200  0.37665200  1
  Ni  Ni18  1  0.12334800  0.12334800  0.37665200  1
  Ni  Ni19  1  0.87665200  0.12334800  0.62334800  1
  Ni  Ni20  1  0.62334800  0.87665200  0.12334800  1
  Ni  Ni21  1  0.37665200  0.87665200  0.87665200  1
  Ni  Ni22  1  0.12334800  0.62334800  0.87665200  1
  Ni  Ni23  1  0.87665200  0.62334800  0.12334800  1
