# generated using pymatgen
data_Ba4Bi3
_symmetry_space_group_name_H-M   'P 1'
_cell_length_a   10.74505800
_cell_length_b   10.74505800
_cell_length_c   10.74505800
_cell_angle_alpha   90.00000000
_cell_angle_beta   90.00000000
_cell_angle_gamma   90.00000000
_symmetry_Int_Tables_number   1
_chemical_formula_structural   Ba4Bi3
_chemical_formula_sum   'Ba16 Bi12'
_cell_volume   1240.58433291
_cell_formula_units_Z   4
loop_
 _symmetry_equiv_pos_site_id
 _symmetry_equiv_pos_as_xyz
  1  'x, y, z'
loop_
 _atom_site_type_symbol
 _atom_site_label
 _atom_site_symmetry_multiplicity
 _atom_site_fract_x
 _atom_site_fract_y
 _atom_site_fract_z
 _atom_site_occupancy
  Ba  Ba0  1  0.07189450  0.57189450  0.92810550  1
  Ba  Ba1  1  0.17810550  0.82189450  0.32189450  1
  Ba  Ba2  1  0.17810550  0.17810550  0.17810550  1
  Ba  Ba3  1  0.32189450  0.17810550  0.82189450  1
  Ba  Ba4  1  0.42810550  0.42810550  0.42810550  1
  Ba  Ba5  1  0.57189450  0.92810550  0.07189450  1
  Ba  Ba6  1  0.82189450  0.32189450  0.17810550  1
  Ba  Ba7  1  0.92810550  0.07189450  0.57189450  1
  Ba  Ba8  1  0.57189450  0.07189450  0.42810550  1
  Ba  Ba9  1  0.67810550  0.32189450  0.82189450  1
  Ba  Ba10  1  0.67810550  0.67810550  0.67810550  1
  Ba  Ba11  1  0.82189450  0.67810550  0.32189450  1
  Ba  Ba12  1  0.92810550  0.92810550  0.92810550  1
  Ba  Ba13  1  0.07189450  0.42810550  0.57189450  1
  Ba  Ba14  1  0.32189450  0.82189450  0.67810550  1
  Ba  Ba15  1  0.42810550  0.57189450  0.07189450  1
  Bi  Bi16  1  0.75000000  0.37500000  0.50000000  1
  Bi  Bi17  1  0.50000000  0.75000000  0.37500000  1
  Bi  Bi18  1  0.50000000  0.25000000  0.12500000  1
  Bi  Bi19  1  0.37500000  0.50000000  0.75000000  1
  Bi  Bi20  1  0.12500000  0.50000000  0.25000000  1
  Bi  Bi21  1  0.25000000  0.12500000  0.50000000  1
  Bi  Bi22  1  0.25000000  0.87500000  0.00000000  1
  Bi  Bi23  1  0.00000000  0.25000000  0.87500000  1
  Bi  Bi24  1  0.00000000  0.75000000  0.62500000  1
  Bi  Bi25  1  0.87500000  0.00000000  0.25000000  1
  Bi  Bi26  1  0.62500000  0.00000000  0.75000000  1
  Bi  Bi27  1  0.75000000  0.62500000  0.00000000  1
