# generated using pymatgen
data_Sr3Ag2
_symmetry_space_group_name_H-M   'P 1'
_cell_length_a   10.01988396
_cell_length_b   10.01988396
_cell_length_c   18.76014478
_cell_angle_alpha   90.00000000
_cell_angle_beta   90.00000000
_cell_angle_gamma   120.00000000
_symmetry_Int_Tables_number   1
_chemical_formula_structural   Sr3Ag2
_chemical_formula_sum   'Sr27 Ag18'
_cell_volume   1631.14361910
_cell_formula_units_Z   9
loop_
 _symmetry_equiv_pos_site_id
 _symmetry_equiv_pos_as_xyz
  1  'x, y, z'
loop_
 _atom_site_type_symbol
 _atom_site_label
 _atom_site_symmetry_multiplicity
 _atom_site_fract_x
 _atom_site_fract_y
 _atom_site_fract_z
 _atom_site_occupancy
  Sr  Sr0  1  0.74327633  0.75791167  0.09401367  1
  Sr  Sr1  1  0.01463533  0.25672367  0.09401367  1
  Sr  Sr2  1  0.24208833  0.98536467  0.09401367  1
  Sr  Sr3  1  0.92339033  0.57542167  0.23931967  1
  Sr  Sr4  1  0.65203133  0.07660967  0.23931967  1
  Sr  Sr5  1  0.42457833  0.34796867  0.23931967  1
  Sr  Sr6  1  0.33333333  0.66666667  0.16666667  1
  Sr  Sr7  1  0.33333333  0.66666667  0.37224667  1
  Sr  Sr8  1  0.33333333  0.66666667  0.96108667  1
  Sr  Sr9  1  0.40994300  0.09124500  0.42734700  1
  Sr  Sr10  1  0.68130200  0.59005700  0.42734700  1
  Sr  Sr11  1  0.90875500  0.31869800  0.42734700  1
  Sr  Sr12  1  0.59005700  0.90875500  0.57265300  1
  Sr  Sr13  1  0.31869800  0.40994300  0.57265300  1
  Sr  Sr14  1  0.09124500  0.68130200  0.57265300  1
  Sr  Sr15  1  1.00000000  0.00000000  0.50000000  1
  Sr  Sr16  1  0.00000000  0.00000000  0.70558000  1
  Sr  Sr17  1  0.00000000  0.00000000  0.29442000  1
  Sr  Sr18  1  0.07660967  0.42457833  0.76068033  1
  Sr  Sr19  1  0.34796867  0.92339033  0.76068033  1
  Sr  Sr20  1  0.57542167  0.65203133  0.76068033  1
  Sr  Sr21  1  0.25672367  0.24208833  0.90598633  1
  Sr  Sr22  1  0.98536467  0.74327633  0.90598633  1
  Sr  Sr23  1  0.75791167  0.01463533  0.90598633  1
  Sr  Sr24  1  0.66666667  0.33333333  0.83333333  1
  Sr  Sr25  1  0.66666667  0.33333333  0.03891333  1
  Sr  Sr26  1  0.66666667  0.33333333  0.62775333  1
  Ag  Ag27  1  0.39543333  0.42103467  0.06330867  1
  Ag  Ag28  1  0.02560133  0.60456667  0.06330867  1
  Ag  Ag29  1  0.57896533  0.97439867  0.06330867  1
  Ag  Ag30  1  0.27123333  0.91229867  0.27002467  1
  Ag  Ag31  1  0.64106533  0.72876667  0.27002467  1
  Ag  Ag32  1  0.08770133  0.35893467  0.27002467  1
  Ag  Ag33  1  0.06210000  0.75436800  0.39664200  1
  Ag  Ag34  1  0.69226800  0.93790000  0.39664200  1
  Ag  Ag35  1  0.24563200  0.30773200  0.39664200  1
  Ag  Ag36  1  0.93790000  0.24563200  0.60335800  1
  Ag  Ag37  1  0.30773200  0.06210000  0.60335800  1
  Ag  Ag38  1  0.75436800  0.69226800  0.60335800  1
  Ag  Ag39  1  0.72876667  0.08770133  0.72997533  1
  Ag  Ag40  1  0.35893467  0.27123333  0.72997533  1
  Ag  Ag41  1  0.91229867  0.64106533  0.72997533  1
  Ag  Ag42  1  0.60456667  0.57896533  0.93669133  1
  Ag  Ag43  1  0.97439867  0.39543333  0.93669133  1
  Ag  Ag44  1  0.42103467  0.02560133  0.93669133  1
