# generated using pymatgen
data_Ti2Pd3
_symmetry_space_group_name_H-M   'P 1'
_cell_length_a   4.74663000
_cell_length_b   14.35349200
_cell_length_c   4.62988000
_cell_angle_alpha   90.00000000
_cell_angle_beta   90.00000000
_cell_angle_gamma   90.00000000
_symmetry_Int_Tables_number   1
_chemical_formula_structural   Ti2Pd3
_chemical_formula_sum   'Ti8 Pd12'
_cell_volume   315.43703815
_cell_formula_units_Z   4
loop_
 _symmetry_equiv_pos_site_id
 _symmetry_equiv_pos_as_xyz
  1  'x, y, z'
loop_
 _atom_site_type_symbol
 _atom_site_label
 _atom_site_symmetry_multiplicity
 _atom_site_fract_x
 _atom_site_fract_y
 _atom_site_fract_z
 _atom_site_occupancy
  Ti  Ti0  1  0.77294350  0.10783050  0.25000000  1
  Ti  Ti1  1  0.72705650  0.39216950  0.75000000  1
  Ti  Ti2  1  0.27294350  0.39216950  0.25000000  1
  Ti  Ti3  1  0.22705650  0.10783050  0.75000000  1
  Ti  Ti4  1  0.27294350  0.60783050  0.25000000  1
  Ti  Ti5  1  0.22705650  0.89216950  0.75000000  1
  Ti  Ti6  1  0.77294350  0.89216950  0.25000000  1
  Ti  Ti7  1  0.72705650  0.60783050  0.75000000  1
  Pd  Pd8  1  0.21389000  0.30518800  0.75000000  1
  Pd  Pd9  1  0.28611000  0.19481200  0.25000000  1
  Pd  Pd10  1  0.78611000  0.30518800  0.25000000  1
  Pd  Pd11  1  0.71389000  0.19481200  0.75000000  1
  Pd  Pd12  1  0.29706100  0.00000000  0.25000000  1
  Pd  Pd13  1  0.70293900  0.00000000  0.75000000  1
  Pd  Pd14  1  0.71389000  0.80518800  0.75000000  1
  Pd  Pd15  1  0.78611000  0.69481200  0.25000000  1
  Pd  Pd16  1  0.28611000  0.80518800  0.25000000  1
  Pd  Pd17  1  0.21389000  0.69481200  0.75000000  1
  Pd  Pd18  1  0.79706100  0.50000000  0.25000000  1
  Pd  Pd19  1  0.20293900  0.50000000  0.75000000  1
