# generated using pymatgen
data_UGeTe
_symmetry_space_group_name_H-M   'P 1'
_cell_length_a   4.11133400
_cell_length_b   4.11133400
_cell_length_c   17.52337000
_cell_angle_alpha   90.00000000
_cell_angle_beta   90.00000000
_cell_angle_gamma   90.00000000
_symmetry_Int_Tables_number   1
_chemical_formula_structural   UGeTe
_chemical_formula_sum   'U4 Ge4 Te4'
_cell_volume   296.19870172
_cell_formula_units_Z   4
loop_
 _symmetry_equiv_pos_site_id
 _symmetry_equiv_pos_as_xyz
  1  'x, y, z'
loop_
 _atom_site_type_symbol
 _atom_site_label
 _atom_site_symmetry_multiplicity
 _atom_site_fract_x
 _atom_site_fract_y
 _atom_site_fract_z
 _atom_site_occupancy
  U  U0  1  0.50000000  0.50000000  0.37740300  1
  U  U1  1  0.00000000  0.00000000  0.12259700  1
  U  U2  1  0.00000000  0.00000000  0.87740300  1
  U  U3  1  0.50000000  0.50000000  0.62259700  1
  Ge  Ge4  1  0.00000000  0.50000000  0.00000000  1
  Ge  Ge5  1  0.50000000  0.00000000  0.00000000  1
  Ge  Ge6  1  0.50000000  0.00000000  0.50000000  1
  Ge  Ge7  1  0.00000000  0.50000000  0.50000000  1
  Te  Te8  1  0.00000000  0.00000000  0.31526100  1
  Te  Te9  1  0.50000000  0.50000000  0.18473900  1
  Te  Te10  1  0.50000000  0.50000000  0.81526100  1
  Te  Te11  1  0.00000000  0.00000000  0.68473900  1
