# generated using pymatgen
data_NdZn2
_symmetry_space_group_name_H-M   'P 1'
_cell_length_a   4.60794800
_cell_length_b   7.45989800
_cell_length_c   7.56177200
_cell_angle_alpha   90.00000000
_cell_angle_beta   90.00000000
_cell_angle_gamma   90.00000000
_symmetry_Int_Tables_number   1
_chemical_formula_structural   NdZn2
_chemical_formula_sum   'Nd4 Zn8'
_cell_volume   259.93456703
_cell_formula_units_Z   4
loop_
 _symmetry_equiv_pos_site_id
 _symmetry_equiv_pos_as_xyz
  1  'x, y, z'
loop_
 _atom_site_type_symbol
 _atom_site_label
 _atom_site_symmetry_multiplicity
 _atom_site_fract_x
 _atom_site_fract_y
 _atom_site_fract_z
 _atom_site_occupancy
  Nd  Nd0  1  0.00000000  0.75000000  0.46107600  1
  Nd  Nd1  1  0.00000000  0.25000000  0.53892400  1
  Nd  Nd2  1  0.50000000  0.25000000  0.96107600  1
  Nd  Nd3  1  0.50000000  0.75000000  0.03892400  1
  Zn  Zn4  1  0.00000000  0.05499100  0.16538800  1
  Zn  Zn5  1  0.00000000  0.94500900  0.83461200  1
  Zn  Zn6  1  0.50000000  0.94500900  0.66538800  1
  Zn  Zn7  1  0.50000000  0.05499100  0.33461200  1
  Zn  Zn8  1  0.50000000  0.55499100  0.66538800  1
  Zn  Zn9  1  0.50000000  0.44500900  0.33461200  1
  Zn  Zn10  1  0.00000000  0.44500900  0.16538800  1
  Zn  Zn11  1  0.00000000  0.55499100  0.83461200  1
