# generated using pymatgen
data_NaAg2
_symmetry_space_group_name_H-M   'P 1'
_cell_length_a   8.05110600
_cell_length_b   8.05110600
_cell_length_c   8.05110600
_cell_angle_alpha   90.00000000
_cell_angle_beta   90.00000000
_cell_angle_gamma   90.00000000
_symmetry_Int_Tables_number   1
_chemical_formula_structural   NaAg2
_chemical_formula_sum   'Na8 Ag16'
_cell_volume   521.87516924
_cell_formula_units_Z   8
loop_
 _symmetry_equiv_pos_site_id
 _symmetry_equiv_pos_as_xyz
  1  'x, y, z'
loop_
 _atom_site_type_symbol
 _atom_site_label
 _atom_site_symmetry_multiplicity
 _atom_site_fract_x
 _atom_site_fract_y
 _atom_site_fract_z
 _atom_site_occupancy
  Na  Na0  1  0.50000000  0.00000000  0.50000000  1
  Na  Na1  1  0.25000000  0.25000000  0.25000000  1
  Na  Na2  1  0.50000000  0.50000000  0.00000000  1
  Na  Na3  1  0.25000000  0.75000000  0.75000000  1
  Na  Na4  1  0.00000000  0.00000000  0.00000000  1
  Na  Na5  1  0.75000000  0.25000000  0.75000000  1
  Na  Na6  1  0.00000000  0.50000000  0.50000000  1
  Na  Na7  1  0.75000000  0.75000000  0.25000000  1
  Ag  Ag8  1  0.12500000  0.87500000  0.37500000  1
  Ag  Ag9  1  0.12500000  0.62500000  0.12500000  1
  Ag  Ag10  1  0.37500000  0.87500000  0.12500000  1
  Ag  Ag11  1  0.37500000  0.62500000  0.37500000  1
  Ag  Ag12  1  0.12500000  0.37500000  0.87500000  1
  Ag  Ag13  1  0.12500000  0.12500000  0.62500000  1
  Ag  Ag14  1  0.37500000  0.37500000  0.62500000  1
  Ag  Ag15  1  0.37500000  0.12500000  0.87500000  1
  Ag  Ag16  1  0.62500000  0.87500000  0.87500000  1
  Ag  Ag17  1  0.62500000  0.62500000  0.62500000  1
  Ag  Ag18  1  0.87500000  0.87500000  0.62500000  1
  Ag  Ag19  1  0.87500000  0.62500000  0.87500000  1
  Ag  Ag20  1  0.62500000  0.37500000  0.37500000  1
  Ag  Ag21  1  0.62500000  0.12500000  0.12500000  1
  Ag  Ag22  1  0.87500000  0.37500000  0.12500000  1
  Ag  Ag23  1  0.87500000  0.12500000  0.37500000  1
