# generated using pymatgen
data_BaCdBi2
_symmetry_space_group_name_H-M   'P 1'
_cell_length_a   4.77249000
_cell_length_b   4.77249000
_cell_length_c   24.57550600
_cell_angle_alpha   90.00000000
_cell_angle_beta   90.00000000
_cell_angle_gamma   90.00000000
_symmetry_Int_Tables_number   1
_chemical_formula_structural   BaCdBi2
_chemical_formula_sum   'Ba4 Cd4 Bi8'
_cell_volume   559.74796415
_cell_formula_units_Z   4
loop_
 _symmetry_equiv_pos_site_id
 _symmetry_equiv_pos_as_xyz
  1  'x, y, z'
loop_
 _atom_site_type_symbol
 _atom_site_label
 _atom_site_symmetry_multiplicity
 _atom_site_fract_x
 _atom_site_fract_y
 _atom_site_fract_z
 _atom_site_occupancy
  Ba  Ba0  1  0.50000000  0.50000000  0.38432600  1
  Ba  Ba1  1  0.00000000  0.00000000  0.11567400  1
  Ba  Ba2  1  0.00000000  0.00000000  0.88432600  1
  Ba  Ba3  1  0.50000000  0.50000000  0.61567400  1
  Cd  Cd4  1  0.00000000  0.50000000  0.25000000  1
  Cd  Cd5  1  0.50000000  0.00000000  0.25000000  1
  Cd  Cd6  1  0.50000000  0.00000000  0.75000000  1
  Cd  Cd7  1  0.00000000  0.50000000  0.75000000  1
  Bi  Bi8  1  0.00000000  0.50000000  0.00000000  1
  Bi  Bi9  1  0.50000000  0.50000000  0.17086300  1
  Bi  Bi10  1  0.50000000  0.00000000  0.00000000  1
  Bi  Bi11  1  0.00000000  0.00000000  0.32913700  1
  Bi  Bi12  1  0.50000000  0.00000000  0.50000000  1
  Bi  Bi13  1  0.00000000  0.00000000  0.67086300  1
  Bi  Bi14  1  0.00000000  0.50000000  0.50000000  1
  Bi  Bi15  1  0.50000000  0.50000000  0.82913700  1
