# generated using pymatgen
data_SrNiSn3
_symmetry_space_group_name_H-M   'P 1'
_cell_length_a   4.79041000
_cell_length_b   4.79041000
_cell_length_c   10.97847000
_cell_angle_alpha   90.00000000
_cell_angle_beta   90.00000000
_cell_angle_gamma   90.00000000
_symmetry_Int_Tables_number   1
_chemical_formula_structural   SrNiSn3
_chemical_formula_sum   'Sr2 Ni2 Sn6'
_cell_volume   251.93423661
_cell_formula_units_Z   2
loop_
 _symmetry_equiv_pos_site_id
 _symmetry_equiv_pos_as_xyz
  1  'x, y, z'
loop_
 _atom_site_type_symbol
 _atom_site_label
 _atom_site_symmetry_multiplicity
 _atom_site_fract_x
 _atom_site_fract_y
 _atom_site_fract_z
 _atom_site_occupancy
  Sr  Sr0  1  0.00000000  0.00000000  0.00004800  1
  Sr  Sr1  1  0.50000000  0.50000000  0.50004800  1
  Ni  Ni2  1  0.00000000  0.00000000  0.34125800  1
  Ni  Ni3  1  0.50000000  0.50000000  0.84125800  1
  Sn  Sn4  1  0.50000000  0.50000000  0.07001500  1
  Sn  Sn5  1  0.50000000  0.00000000  0.25034000  1
  Sn  Sn6  1  0.00000000  0.50000000  0.25034000  1
  Sn  Sn7  1  0.00000000  0.00000000  0.57001500  1
  Sn  Sn8  1  0.00000000  0.50000000  0.75034000  1
  Sn  Sn9  1  0.50000000  0.00000000  0.75034000  1
