# generated using pymatgen
data_Be22W
_symmetry_space_group_name_H-M   'P 1'
_cell_length_a   11.56430600
_cell_length_b   11.56430600
_cell_length_c   11.56430600
_cell_angle_alpha   90.00000000
_cell_angle_beta   90.00000000
_cell_angle_gamma   90.00000000
_symmetry_Int_Tables_number   1
_chemical_formula_structural   Be22W
_chemical_formula_sum   'Be176 W8'
_cell_volume   1546.53133795
_cell_formula_units_Z   8
loop_
 _symmetry_equiv_pos_site_id
 _symmetry_equiv_pos_as_xyz
  1  'x, y, z'
loop_
 _atom_site_type_symbol
 _atom_site_label
 _atom_site_symmetry_multiplicity
 _atom_site_fract_x
 _atom_site_fract_y
 _atom_site_fract_z
 _atom_site_occupancy
  Be  Be0  1  0.37500000  0.12500000  0.37500000  1
  Be  Be1  1  0.87500000  0.87500000  0.12500000  1
  Be  Be2  1  0.62500000  0.87500000  0.37500000  1
  Be  Be3  1  0.12500000  0.12500000  0.12500000  1
  Be  Be4  1  0.37500000  0.62500000  0.37500000  1
  Be  Be5  1  0.37500000  0.87500000  0.12500000  1
  Be  Be6  1  0.12500000  0.87500000  0.37500000  1
  Be  Be7  1  0.12500000  0.62500000  0.12500000  1
  Be  Be8  1  0.25000000  0.25000000  0.38497600  1
  Be  Be9  1  0.36502400  0.00000000  0.50000000  1
  Be  Be10  1  0.63497600  0.00000000  0.50000000  1
  Be  Be11  1  0.00000000  0.00000000  0.13497600  1
  Be  Be12  1  0.50000000  0.13497600  0.50000000  1
  Be  Be13  1  0.50000000  0.86502400  0.50000000  1
  Be  Be14  1  0.25000000  0.11502400  0.25000000  1
  Be  Be15  1  0.38497600  0.25000000  0.25000000  1
  Be  Be16  1  0.11502400  0.25000000  0.25000000  1
  Be  Be17  1  0.25000000  0.38497600  0.25000000  1
  Be  Be18  1  0.50000000  0.00000000  0.36502400  1
  Be  Be19  1  0.25000000  0.25000000  0.11502400  1
  Be  Be20  1  0.55082500  0.18475150  0.31524850  1
  Be  Be21  1  0.93475150  0.93475150  0.30082500  1
  Be  Be22  1  0.56524850  0.93475150  0.19917500  1
  Be  Be23  1  0.06524850  0.30082500  0.06524850  1
  Be  Be24  1  0.93475150  0.69917500  0.06524850  1
  Be  Be25  1  0.30082500  0.06524850  0.06524850  1
  Be  Be26  1  0.80082500  0.93475150  0.43475150  1
  Be  Be27  1  0.81524850  0.18475150  0.05082500  1
  Be  Be28  1  0.31524850  0.94917500  0.31524850  1
  Be  Be29  1  0.68475150  0.05082500  0.31524850  1
  Be  Be30  1  0.68475150  0.18475150  0.44917500  1
  Be  Be31  1  0.18475150  0.81524850  0.05082500  1
  Be  Be32  1  0.81524850  0.05082500  0.18475150  1
  Be  Be33  1  0.31524850  0.81524850  0.44917500  1
  Be  Be34  1  0.18475150  0.94917500  0.18475150  1
  Be  Be35  1  0.56524850  0.69917500  0.43475150  1
  Be  Be36  1  0.06524850  0.06524850  0.30082500  1
  Be  Be37  1  0.69917500  0.93475150  0.06524850  1
  Be  Be38  1  0.19917500  0.06524850  0.43475150  1
  Be  Be39  1  0.43475150  0.06524850  0.19917500  1
  Be  Be40  1  0.43475150  0.30082500  0.43475150  1
  Be  Be41  1  0.94917500  0.18475150  0.18475150  1
  Be  Be42  1  0.44917500  0.81524850  0.31524850  1
  Be  Be43  1  0.05082500  0.81524850  0.18475150  1
  Be  Be44  1  0.37500000  0.62500000  0.87500000  1
  Be  Be45  1  0.87500000  0.37500000  0.62500000  1
  Be  Be46  1  0.62500000  0.37500000  0.87500000  1
  Be  Be47  1  0.12500000  0.62500000  0.62500000  1
  Be  Be48  1  0.37500000  0.12500000  0.87500000  1
  Be  Be49  1  0.37500000  0.37500000  0.62500000  1
  Be  Be50  1  0.12500000  0.37500000  0.87500000  1
  Be  Be51  1  0.12500000  0.12500000  0.62500000  1
  Be  Be52  1  0.25000000  0.75000000  0.88497600  1
  Be  Be53  1  0.36502400  0.50000000  0.00000000  1
  Be  Be54  1  0.63497600  0.50000000  0.00000000  1
  Be  Be55  1  0.00000000  0.50000000  0.63497600  1
  Be  Be56  1  0.50000000  0.63497600  0.00000000  1
  Be  Be57  1  0.50000000  0.36502400  0.00000000  1
  Be  Be58  1  0.25000000  0.61502400  0.75000000  1
  Be  Be59  1  0.38497600  0.75000000  0.75000000  1
  Be  Be60  1  0.11502400  0.75000000  0.75000000  1
  Be  Be61  1  0.25000000  0.88497600  0.75000000  1
  Be  Be62  1  0.50000000  0.50000000  0.86502400  1
  Be  Be63  1  0.25000000  0.75000000  0.61502400  1
  Be  Be64  1  0.55082500  0.68475150  0.81524850  1
  Be  Be65  1  0.93475150  0.43475150  0.80082500  1
  Be  Be66  1  0.56524850  0.43475150  0.69917500  1
  Be  Be67  1  0.06524850  0.80082500  0.56524850  1
  Be  Be68  1  0.93475150  0.19917500  0.56524850  1
  Be  Be69  1  0.30082500  0.56524850  0.56524850  1
  Be  Be70  1  0.80082500  0.43475150  0.93475150  1
  Be  Be71  1  0.81524850  0.68475150  0.55082500  1
  Be  Be72  1  0.31524850  0.44917500  0.81524850  1
  Be  Be73  1  0.68475150  0.55082500  0.81524850  1
  Be  Be74  1  0.68475150  0.68475150  0.94917500  1
  Be  Be75  1  0.18475150  0.31524850  0.55082500  1
  Be  Be76  1  0.81524850  0.55082500  0.68475150  1
  Be  Be77  1  0.31524850  0.31524850  0.94917500  1
  Be  Be78  1  0.18475150  0.44917500  0.68475150  1
  Be  Be79  1  0.56524850  0.19917500  0.93475150  1
  Be  Be80  1  0.06524850  0.56524850  0.80082500  1
  Be  Be81  1  0.69917500  0.43475150  0.56524850  1
  Be  Be82  1  0.19917500  0.56524850  0.93475150  1
  Be  Be83  1  0.43475150  0.56524850  0.69917500  1
  Be  Be84  1  0.43475150  0.80082500  0.93475150  1
  Be  Be85  1  0.94917500  0.68475150  0.68475150  1
  Be  Be86  1  0.44917500  0.31524850  0.81524850  1
  Be  Be87  1  0.05082500  0.31524850  0.68475150  1
  Be  Be88  1  0.87500000  0.12500000  0.87500000  1
  Be  Be89  1  0.37500000  0.87500000  0.62500000  1
  Be  Be90  1  0.12500000  0.87500000  0.87500000  1
  Be  Be91  1  0.62500000  0.12500000  0.62500000  1
  Be  Be92  1  0.87500000  0.62500000  0.87500000  1
  Be  Be93  1  0.87500000  0.87500000  0.62500000  1
  Be  Be94  1  0.62500000  0.87500000  0.87500000  1
  Be  Be95  1  0.62500000  0.62500000  0.62500000  1
  Be  Be96  1  0.75000000  0.25000000  0.88497600  1
  Be  Be97  1  0.86502400  0.00000000  0.00000000  1
  Be  Be98  1  0.13497600  0.00000000  0.00000000  1
  Be  Be99  1  0.50000000  0.00000000  0.63497600  1
  Be  Be100  1  0.00000000  0.13497600  0.00000000  1
  Be  Be101  1  0.00000000  0.86502400  0.00000000  1
  Be  Be102  1  0.75000000  0.11502400  0.75000000  1
  Be  Be103  1  0.88497600  0.25000000  0.75000000  1
  Be  Be104  1  0.61502400  0.25000000  0.75000000  1
  Be  Be105  1  0.75000000  0.38497600  0.75000000  1
  Be  Be106  1  0.00000000  0.00000000  0.86502400  1
  Be  Be107  1  0.75000000  0.25000000  0.61502400  1
  Be  Be108  1  0.05082500  0.18475150  0.81524850  1
  Be  Be109  1  0.43475150  0.93475150  0.80082500  1
  Be  Be110  1  0.06524850  0.93475150  0.69917500  1
  Be  Be111  1  0.56524850  0.30082500  0.56524850  1
  Be  Be112  1  0.43475150  0.69917500  0.56524850  1
  Be  Be113  1  0.80082500  0.06524850  0.56524850  1
  Be  Be114  1  0.30082500  0.93475150  0.93475150  1
  Be  Be115  1  0.31524850  0.18475150  0.55082500  1
  Be  Be116  1  0.81524850  0.94917500  0.81524850  1
  Be  Be117  1  0.18475150  0.05082500  0.81524850  1
  Be  Be118  1  0.18475150  0.18475150  0.94917500  1
  Be  Be119  1  0.68475150  0.81524850  0.55082500  1
  Be  Be120  1  0.31524850  0.05082500  0.68475150  1
  Be  Be121  1  0.81524850  0.81524850  0.94917500  1
  Be  Be122  1  0.68475150  0.94917500  0.68475150  1
  Be  Be123  1  0.06524850  0.69917500  0.93475150  1
  Be  Be124  1  0.56524850  0.06524850  0.80082500  1
  Be  Be125  1  0.19917500  0.93475150  0.56524850  1
  Be  Be126  1  0.69917500  0.06524850  0.93475150  1
  Be  Be127  1  0.93475150  0.06524850  0.69917500  1
  Be  Be128  1  0.93475150  0.30082500  0.93475150  1
  Be  Be129  1  0.44917500  0.18475150  0.68475150  1
  Be  Be130  1  0.94917500  0.81524850  0.81524850  1
  Be  Be131  1  0.55082500  0.81524850  0.68475150  1
  Be  Be132  1  0.87500000  0.62500000  0.37500000  1
  Be  Be133  1  0.37500000  0.37500000  0.12500000  1
  Be  Be134  1  0.12500000  0.37500000  0.37500000  1
  Be  Be135  1  0.62500000  0.62500000  0.12500000  1
  Be  Be136  1  0.87500000  0.12500000  0.37500000  1
  Be  Be137  1  0.87500000  0.37500000  0.12500000  1
  Be  Be138  1  0.62500000  0.37500000  0.37500000  1
  Be  Be139  1  0.62500000  0.12500000  0.12500000  1
  Be  Be140  1  0.75000000  0.75000000  0.38497600  1
  Be  Be141  1  0.86502400  0.50000000  0.50000000  1
  Be  Be142  1  0.13497600  0.50000000  0.50000000  1
  Be  Be143  1  0.50000000  0.50000000  0.13497600  1
  Be  Be144  1  0.00000000  0.63497600  0.50000000  1
  Be  Be145  1  0.00000000  0.36502400  0.50000000  1
  Be  Be146  1  0.75000000  0.61502400  0.25000000  1
  Be  Be147  1  0.88497600  0.75000000  0.25000000  1
  Be  Be148  1  0.61502400  0.75000000  0.25000000  1
  Be  Be149  1  0.75000000  0.88497600  0.25000000  1
  Be  Be150  1  0.00000000  0.50000000  0.36502400  1
  Be  Be151  1  0.75000000  0.75000000  0.11502400  1
  Be  Be152  1  0.05082500  0.68475150  0.31524850  1
  Be  Be153  1  0.43475150  0.43475150  0.30082500  1
  Be  Be154  1  0.06524850  0.43475150  0.19917500  1
  Be  Be155  1  0.56524850  0.80082500  0.06524850  1
  Be  Be156  1  0.43475150  0.19917500  0.06524850  1
  Be  Be157  1  0.80082500  0.56524850  0.06524850  1
  Be  Be158  1  0.30082500  0.43475150  0.43475150  1
  Be  Be159  1  0.31524850  0.68475150  0.05082500  1
  Be  Be160  1  0.81524850  0.44917500  0.31524850  1
  Be  Be161  1  0.18475150  0.55082500  0.31524850  1
  Be  Be162  1  0.18475150  0.68475150  0.44917500  1
  Be  Be163  1  0.68475150  0.31524850  0.05082500  1
  Be  Be164  1  0.31524850  0.55082500  0.18475150  1
  Be  Be165  1  0.81524850  0.31524850  0.44917500  1
  Be  Be166  1  0.68475150  0.44917500  0.18475150  1
  Be  Be167  1  0.06524850  0.19917500  0.43475150  1
  Be  Be168  1  0.56524850  0.56524850  0.30082500  1
  Be  Be169  1  0.19917500  0.43475150  0.06524850  1
  Be  Be170  1  0.69917500  0.56524850  0.43475150  1
  Be  Be171  1  0.93475150  0.56524850  0.19917500  1
  Be  Be172  1  0.93475150  0.80082500  0.43475150  1
  Be  Be173  1  0.44917500  0.68475150  0.18475150  1
  Be  Be174  1  0.94917500  0.31524850  0.31524850  1
  Be  Be175  1  0.55082500  0.31524850  0.18475150  1
  W  W176  1  0.25000000  0.75000000  0.25000000  1
  W  W177  1  0.00000000  0.00000000  0.50000000  1
  W  W178  1  0.25000000  0.25000000  0.75000000  1
  W  W179  1  0.00000000  0.50000000  0.00000000  1
  W  W180  1  0.75000000  0.75000000  0.75000000  1
  W  W181  1  0.50000000  0.00000000  0.00000000  1
  W  W182  1  0.75000000  0.25000000  0.25000000  1
  W  W183  1  0.50000000  0.50000000  0.50000000  1
