# generated using pymatgen
data_Tb2Al3Si2
_symmetry_space_group_name_H-M   'P 1'
_cell_length_a   10.26213800
_cell_length_b   4.05375400
_cell_length_c   6.64692115
_cell_angle_alpha   90.00000000
_cell_angle_beta   101.17029695
_cell_angle_gamma   90.00000000
_symmetry_Int_Tables_number   1
_chemical_formula_structural   Tb2Al3Si2
_chemical_formula_sum   'Tb4 Al6 Si4'
_cell_volume   271.27479312
_cell_formula_units_Z   2
loop_
 _symmetry_equiv_pos_site_id
 _symmetry_equiv_pos_as_xyz
  1  'x, y, z'
loop_
 _atom_site_type_symbol
 _atom_site_label
 _atom_site_symmetry_multiplicity
 _atom_site_fract_x
 _atom_site_fract_y
 _atom_site_fract_z
 _atom_site_occupancy
  Tb  Tb0  1  0.61987000  0.00000000  0.32256600  1
  Tb  Tb1  1  0.88013000  0.50000000  0.67743400  1
  Tb  Tb2  1  0.11987000  0.50000000  0.32256600  1
  Tb  Tb3  1  0.38013000  0.00000000  0.67743400  1
  Al  Al4  1  0.80559100  0.50000000  0.13363500  1
  Al  Al5  1  0.00000000  0.00000000  0.00000000  1
  Al  Al6  1  0.69440900  0.00000000  0.86636500  1
  Al  Al7  1  0.30559100  0.00000000  0.13363500  1
  Al  Al8  1  0.50000000  0.50000000  0.00000000  1
  Al  Al9  1  0.19440900  0.50000000  0.86636500  1
  Si  Si10  1  0.59268000  0.50000000  0.64060700  1
  Si  Si11  1  0.90732000  0.00000000  0.35939300  1
  Si  Si12  1  0.09268000  0.00000000  0.64060700  1
  Si  Si13  1  0.40732000  0.50000000  0.35939300  1
