# generated using pymatgen
data_Ca(AlZn)2
_symmetry_space_group_name_H-M   'P 1'
_cell_length_a   4.14821400
_cell_length_b   4.14821400
_cell_length_c   11.34419200
_cell_angle_alpha   90.00000000
_cell_angle_beta   90.00000000
_cell_angle_gamma   90.00000000
_symmetry_Int_Tables_number   1
_chemical_formula_structural   Ca(AlZn)2
_chemical_formula_sum   'Ca2 Al4 Zn4'
_cell_volume   195.20721887
_cell_formula_units_Z   2
loop_
 _symmetry_equiv_pos_site_id
 _symmetry_equiv_pos_as_xyz
  1  'x, y, z'
loop_
 _atom_site_type_symbol
 _atom_site_label
 _atom_site_symmetry_multiplicity
 _atom_site_fract_x
 _atom_site_fract_y
 _atom_site_fract_z
 _atom_site_occupancy
  Ca  Ca0  1  0.00000000  0.00000000  0.00000000  1
  Ca  Ca1  1  0.50000000  0.50000000  0.50000000  1
  Al  Al2  1  0.50000000  0.00000000  0.25000000  1
  Al  Al3  1  0.00000000  0.50000000  0.25000000  1
  Al  Al4  1  0.00000000  0.50000000  0.75000000  1
  Al  Al5  1  0.50000000  0.00000000  0.75000000  1
  Zn  Zn6  1  0.00000000  0.00000000  0.39061100  1
  Zn  Zn7  1  0.50000000  0.50000000  0.10938900  1
  Zn  Zn8  1  0.50000000  0.50000000  0.89061100  1
  Zn  Zn9  1  0.00000000  0.00000000  0.60938900  1
