# generated using pymatgen
data_Sr2In3Rh2
_symmetry_space_group_name_H-M   'P 1'
_cell_length_a   11.15595000
_cell_length_b   4.32980400
_cell_length_c   8.01495426
_cell_angle_alpha   90.00000000
_cell_angle_beta   115.25751719
_cell_angle_gamma   90.00000000
_symmetry_Int_Tables_number   1
_chemical_formula_structural   Sr2In3Rh2
_chemical_formula_sum   'Sr4 In6 Rh4'
_cell_volume   350.13538323
_cell_formula_units_Z   2
loop_
 _symmetry_equiv_pos_site_id
 _symmetry_equiv_pos_as_xyz
  1  'x, y, z'
loop_
 _atom_site_type_symbol
 _atom_site_label
 _atom_site_symmetry_multiplicity
 _atom_site_fract_x
 _atom_site_fract_y
 _atom_site_fract_z
 _atom_site_occupancy
  Sr  Sr0  1  0.85617700  0.00000000  0.22363700  1
  Sr  Sr1  1  0.14382300  0.00000000  0.77636300  1
  Sr  Sr2  1  0.35617700  0.50000000  0.22363700  1
  Sr  Sr3  1  0.64382300  0.50000000  0.77636300  1
  In  In4  1  0.00000000  0.50000000  0.00000000  1
  In  In5  1  0.14139800  0.50000000  0.44353000  1
  In  In6  1  0.85860200  0.50000000  0.55647000  1
  In  In7  1  0.50000000  0.00000000  0.00000000  1
  In  In8  1  0.64139800  0.00000000  0.44353000  1
  In  In9  1  0.35860200  0.00000000  0.55647000  1
  Rh  Rh10  1  0.37181300  0.50000000  0.79338700  1
  Rh  Rh11  1  0.62818700  0.50000000  0.20661300  1
  Rh  Rh12  1  0.87181300  0.00000000  0.79338700  1
  Rh  Rh13  1  0.12818700  0.00000000  0.20661300  1
