# generated using pymatgen
data_Al4Mo
_symmetry_space_group_name_H-M   'P 1'
_cell_length_a   5.27677600
_cell_length_b   17.84168400
_cell_length_c   5.23831366
_cell_angle_alpha   90.00000000
_cell_angle_beta   99.97710328
_cell_angle_gamma   90.00000000
_symmetry_Int_Tables_number   1
_chemical_formula_structural   Al4Mo
_chemical_formula_sum   'Al24 Mo6'
_cell_volume   485.71109820
_cell_formula_units_Z   6
loop_
 _symmetry_equiv_pos_site_id
 _symmetry_equiv_pos_as_xyz
  1  'x, y, z'
loop_
 _atom_site_type_symbol
 _atom_site_label
 _atom_site_symmetry_multiplicity
 _atom_site_fract_x
 _atom_site_fract_y
 _atom_site_fract_z
 _atom_site_occupancy
  Al  Al0  1  0.83760700  0.00000000  0.47991000  1
  Al  Al1  1  0.48254000  0.00000000  0.84115200  1
  Al  Al2  1  0.82209550  0.57689450  0.30381800  1
  Al  Al3  1  0.32209550  0.92310550  0.30381800  1
  Al  Al4  1  0.66601900  0.61777200  0.77422800  1
  Al  Al5  1  0.16601900  0.88222800  0.77422800  1
  Al  Al6  1  0.29840000  0.62290300  0.17804500  1
  Al  Al7  1  0.79840000  0.87709700  0.17804500  1
  Al  Al8  1  0.79488000  0.73516600  0.40521200  1
  Al  Al9  1  0.29488000  0.76483400  0.40521200  1
  Al  Al10  1  0.95840700  0.74979100  0.91470900  1
  Al  Al11  1  0.45840700  0.75020900  0.91470900  1
  Al  Al12  1  0.33760700  0.50000000  0.47991000  1
  Al  Al13  1  0.98254000  0.50000000  0.84115200  1
  Al  Al14  1  0.32209550  0.07689450  0.30381800  1
  Al  Al15  1  0.82209550  0.42310550  0.30381800  1
  Al  Al16  1  0.16601900  0.11777200  0.77422800  1
  Al  Al17  1  0.66601900  0.38222800  0.77422800  1
  Al  Al18  1  0.79840000  0.12290300  0.17804500  1
  Al  Al19  1  0.29840000  0.37709700  0.17804500  1
  Al  Al20  1  0.29488000  0.23516600  0.40521200  1
  Al  Al21  1  0.79488000  0.26483400  0.40521200  1
  Al  Al22  1  0.45840700  0.24979100  0.91470900  1
  Al  Al23  1  0.95840700  0.25020900  0.91470900  1
  Mo  Mo24  1  0.99351300  0.00000000  0.99749600  1
  Mo  Mo25  1  0.15126800  0.63741900  0.65640800  1
  Mo  Mo26  1  0.65126800  0.86258100  0.65640800  1
  Mo  Mo27  1  0.49351300  0.50000000  0.99749600  1
  Mo  Mo28  1  0.65126800  0.13741900  0.65640800  1
  Mo  Mo29  1  0.15126800  0.36258100  0.65640800  1
