# generated using pymatgen
data_ZrCu5
_symmetry_space_group_name_H-M   'P 1'
_cell_length_a   6.83868800
_cell_length_b   6.83868800
_cell_length_c   6.83868800
_cell_angle_alpha   90.00000000
_cell_angle_beta   90.00000000
_cell_angle_gamma   90.00000000
_symmetry_Int_Tables_number   1
_chemical_formula_structural   ZrCu5
_chemical_formula_sum   'Zr4 Cu20'
_cell_volume   319.82939120
_cell_formula_units_Z   4
loop_
 _symmetry_equiv_pos_site_id
 _symmetry_equiv_pos_as_xyz
  1  'x, y, z'
loop_
 _atom_site_type_symbol
 _atom_site_label
 _atom_site_symmetry_multiplicity
 _atom_site_fract_x
 _atom_site_fract_y
 _atom_site_fract_z
 _atom_site_occupancy
  Zr  Zr0  1  0.00000000  0.00000000  0.00000000  1
  Zr  Zr1  1  0.00000000  0.50000000  0.50000000  1
  Zr  Zr2  1  0.50000000  0.00000000  0.50000000  1
  Zr  Zr3  1  0.50000000  0.50000000  0.00000000  1
  Cu  Cu4  1  0.25000000  0.25000000  0.75000000  1
  Cu  Cu5  1  0.87551367  0.37551367  0.87551367  1
  Cu  Cu6  1  0.37551367  0.12448633  0.12448633  1
  Cu  Cu7  1  0.62448633  0.12448633  0.87551367  1
  Cu  Cu8  1  0.12448633  0.37551367  0.12448633  1
  Cu  Cu9  1  0.25000000  0.75000000  0.25000000  1
  Cu  Cu10  1  0.87551367  0.87551367  0.37551367  1
  Cu  Cu11  1  0.37551367  0.62448633  0.62448633  1
  Cu  Cu12  1  0.62448633  0.62448633  0.37551367  1
  Cu  Cu13  1  0.12448633  0.87551367  0.62448633  1
  Cu  Cu14  1  0.75000000  0.25000000  0.25000000  1
  Cu  Cu15  1  0.37551367  0.37551367  0.37551367  1
  Cu  Cu16  1  0.87551367  0.12448633  0.62448633  1
  Cu  Cu17  1  0.12448633  0.12448633  0.37551367  1
  Cu  Cu18  1  0.62448633  0.37551367  0.62448633  1
  Cu  Cu19  1  0.75000000  0.75000000  0.75000000  1
  Cu  Cu20  1  0.37551367  0.87551367  0.87551367  1
  Cu  Cu21  1  0.87551367  0.62448633  0.12448633  1
  Cu  Cu22  1  0.12448633  0.62448633  0.87551367  1
  Cu  Cu23  1  0.62448633  0.87551367  0.12448633  1
