# generated using pymatgen
data_Y(CoB)2
_symmetry_space_group_name_H-M   'P 1'
_cell_length_a   3.55184000
_cell_length_b   3.55184000
_cell_length_c   9.44086800
_cell_angle_alpha   90.00000000
_cell_angle_beta   90.00000000
_cell_angle_gamma   90.00000000
_symmetry_Int_Tables_number   1
_chemical_formula_structural   Y(CoB)2
_chemical_formula_sum   'Y2 Co4 B4'
_cell_volume   119.10190643
_cell_formula_units_Z   2
loop_
 _symmetry_equiv_pos_site_id
 _symmetry_equiv_pos_as_xyz
  1  'x, y, z'
loop_
 _atom_site_type_symbol
 _atom_site_label
 _atom_site_symmetry_multiplicity
 _atom_site_fract_x
 _atom_site_fract_y
 _atom_site_fract_z
 _atom_site_occupancy
  Y  Y0  1  0.00000000  0.00000000  0.00000000  1
  Y  Y1  1  0.50000000  0.50000000  0.50000000  1
  Co  Co2  1  0.00000000  0.50000000  0.25000000  1
  Co  Co3  1  0.50000000  0.00000000  0.25000000  1
  Co  Co4  1  0.50000000  0.00000000  0.75000000  1
  Co  Co5  1  0.00000000  0.50000000  0.75000000  1
  B  B6  1  0.50000000  0.50000000  0.15228000  1
  B  B7  1  0.00000000  0.00000000  0.34772000  1
  B  B8  1  0.00000000  0.00000000  0.65228000  1
  B  B9  1  0.50000000  0.50000000  0.84772000  1
