# generated using pymatgen
data_Li2In
_symmetry_space_group_name_H-M   'P 1'
_cell_length_a   4.71331200
_cell_length_b   10.03153200
_cell_length_c   4.73428000
_cell_angle_alpha   90.00000000
_cell_angle_beta   90.00000000
_cell_angle_gamma   90.00000000
_symmetry_Int_Tables_number   1
_chemical_formula_structural   Li2In
_chemical_formula_sum   'Li8 In4'
_cell_volume   223.84499678
_cell_formula_units_Z   4
loop_
 _symmetry_equiv_pos_site_id
 _symmetry_equiv_pos_as_xyz
  1  'x, y, z'
loop_
 _atom_site_type_symbol
 _atom_site_label
 _atom_site_symmetry_multiplicity
 _atom_site_fract_x
 _atom_site_fract_y
 _atom_site_fract_z
 _atom_site_occupancy
  Li  Li0  1  0.00000000  0.75752900  0.25000000  1
  Li  Li1  1  0.50000000  0.74247100  0.75000000  1
  Li  Li2  1  0.50000000  0.91064100  0.25000000  1
  Li  Li3  1  0.00000000  0.58935900  0.75000000  1
  Li  Li4  1  0.50000000  0.25752900  0.25000000  1
  Li  Li5  1  0.00000000  0.24247100  0.75000000  1
  Li  Li6  1  0.00000000  0.41064100  0.25000000  1
  Li  Li7  1  0.50000000  0.08935900  0.75000000  1
  In  In8  1  0.50000000  0.58922500  0.25000000  1
  In  In9  1  0.00000000  0.91077500  0.75000000  1
  In  In10  1  0.00000000  0.08922500  0.25000000  1
  In  In11  1  0.50000000  0.41077500  0.75000000  1
