# generated using pymatgen
data_CeAl4Ni
_symmetry_space_group_name_H-M   'P 1'
_cell_length_a   4.12011600
_cell_length_b   15.59610800
_cell_length_c   6.59465200
_cell_angle_alpha   90.00000000
_cell_angle_beta   90.00000000
_cell_angle_gamma   90.00000000
_symmetry_Int_Tables_number   1
_chemical_formula_structural   CeAl4Ni
_chemical_formula_sum   'Ce4 Al16 Ni4'
_cell_volume   423.75765854
_cell_formula_units_Z   4
loop_
 _symmetry_equiv_pos_site_id
 _symmetry_equiv_pos_as_xyz
  1  'x, y, z'
loop_
 _atom_site_type_symbol
 _atom_site_label
 _atom_site_symmetry_multiplicity
 _atom_site_fract_x
 _atom_site_fract_y
 _atom_site_fract_z
 _atom_site_occupancy
  Ce  Ce0  1  0.50000000  0.61448200  0.25000000  1
  Ce  Ce1  1  0.00000000  0.88551800  0.75000000  1
  Ce  Ce2  1  0.00000000  0.11448200  0.25000000  1
  Ce  Ce3  1  0.50000000  0.38551800  0.75000000  1
  Al  Al4  1  0.50000000  0.00000000  0.00000000  1
  Al  Al5  1  0.50000000  0.00000000  0.50000000  1
  Al  Al6  1  0.50000000  0.57738300  0.75000000  1
  Al  Al7  1  0.00000000  0.92261700  0.25000000  1
  Al  Al8  1  0.00000000  0.68919300  0.94753600  1
  Al  Al9  1  0.50000000  0.81080700  0.05246400  1
  Al  Al10  1  0.50000000  0.81080700  0.44753600  1
  Al  Al11  1  0.00000000  0.68919300  0.55246400  1
  Al  Al12  1  0.00000000  0.50000000  0.00000000  1
  Al  Al13  1  0.00000000  0.50000000  0.50000000  1
  Al  Al14  1  0.00000000  0.07738300  0.75000000  1
  Al  Al15  1  0.50000000  0.42261700  0.25000000  1
  Al  Al16  1  0.50000000  0.18919300  0.94753600  1
  Al  Al17  1  0.00000000  0.31080700  0.05246400  1
  Al  Al18  1  0.00000000  0.31080700  0.44753600  1
  Al  Al19  1  0.50000000  0.18919300  0.55246400  1
  Ni  Ni20  1  0.00000000  0.77399300  0.25000000  1
  Ni  Ni21  1  0.50000000  0.72600700  0.75000000  1
  Ni  Ni22  1  0.50000000  0.27399300  0.25000000  1
  Ni  Ni23  1  0.00000000  0.22600700  0.75000000  1
