# generated using pymatgen
data_Si3W5
_symmetry_space_group_name_H-M   'P 1'
_cell_length_a   9.66950800
_cell_length_b   9.66950800
_cell_length_c   4.99879400
_cell_angle_alpha   90.00000000
_cell_angle_beta   90.00000000
_cell_angle_gamma   90.00000000
_symmetry_Int_Tables_number   1
_chemical_formula_structural   Si3W5
_chemical_formula_sum   'Si12 W20'
_cell_volume   467.38416455
_cell_formula_units_Z   4
loop_
 _symmetry_equiv_pos_site_id
 _symmetry_equiv_pos_as_xyz
  1  'x, y, z'
loop_
 _atom_site_type_symbol
 _atom_site_label
 _atom_site_symmetry_multiplicity
 _atom_site_fract_x
 _atom_site_fract_y
 _atom_site_fract_z
 _atom_site_occupancy
  Si  Si0  1  0.00000000  0.00000000  0.25000000  1
  Si  Si1  1  0.00000000  0.00000000  0.75000000  1
  Si  Si2  1  0.33200300  0.16799700  0.50000000  1
  Si  Si3  1  0.33200300  0.83200300  0.00000000  1
  Si  Si4  1  0.66799700  0.16799700  0.00000000  1
  Si  Si5  1  0.66799700  0.83200300  0.50000000  1
  Si  Si6  1  0.50000000  0.50000000  0.75000000  1
  Si  Si7  1  0.50000000  0.50000000  0.25000000  1
  Si  Si8  1  0.83200300  0.66799700  0.00000000  1
  Si  Si9  1  0.83200300  0.33200300  0.50000000  1
  Si  Si10  1  0.16799700  0.66799700  0.50000000  1
  Si  Si11  1  0.16799700  0.33200300  0.00000000  1
  W  W12  1  0.22398400  0.07503500  0.00000000  1
  W  W13  1  0.77601600  0.92496500  0.00000000  1
  W  W14  1  0.50000000  0.00000000  0.75000000  1
  W  W15  1  0.50000000  0.00000000  0.25000000  1
  W  W16  1  0.57503500  0.27601600  0.50000000  1
  W  W17  1  0.42496500  0.72398400  0.50000000  1
  W  W18  1  0.77601600  0.07503500  0.50000000  1
  W  W19  1  0.42496500  0.27601600  0.00000000  1
  W  W20  1  0.57503500  0.72398400  0.00000000  1
  W  W21  1  0.22398400  0.92496500  0.50000000  1
  W  W22  1  0.72398400  0.57503500  0.50000000  1
  W  W23  1  0.27601600  0.42496500  0.50000000  1
  W  W24  1  0.00000000  0.50000000  0.25000000  1
  W  W25  1  0.00000000  0.50000000  0.75000000  1
  W  W26  1  0.07503500  0.77601600  0.00000000  1
  W  W27  1  0.92496500  0.22398400  0.00000000  1
  W  W28  1  0.27601600  0.57503500  0.00000000  1
  W  W29  1  0.92496500  0.77601600  0.50000000  1
  W  W30  1  0.07503500  0.22398400  0.50000000  1
  W  W31  1  0.72398400  0.42496500  0.00000000  1
