# generated using pymatgen
data_BaSn3Pt
_symmetry_space_group_name_H-M   'P 1'
_cell_length_a   4.97391000
_cell_length_b   4.97391000
_cell_length_c   11.29094600
_cell_angle_alpha   90.00000000
_cell_angle_beta   90.00000000
_cell_angle_gamma   90.00000000
_symmetry_Int_Tables_number   1
_chemical_formula_structural   BaSn3Pt
_chemical_formula_sum   'Ba2 Sn6 Pt2'
_cell_volume   279.33552780
_cell_formula_units_Z   2
loop_
 _symmetry_equiv_pos_site_id
 _symmetry_equiv_pos_as_xyz
  1  'x, y, z'
loop_
 _atom_site_type_symbol
 _atom_site_label
 _atom_site_symmetry_multiplicity
 _atom_site_fract_x
 _atom_site_fract_y
 _atom_site_fract_z
 _atom_site_occupancy
  Ba  Ba0  1  0.00000000  0.00000000  0.00171000  1
  Ba  Ba1  1  0.50000000  0.50000000  0.50171000  1
  Sn  Sn2  1  0.50000000  0.00000000  0.25336700  1
  Sn  Sn3  1  0.00000000  0.50000000  0.25336700  1
  Sn  Sn4  1  0.00000000  0.00000000  0.41707600  1
  Sn  Sn5  1  0.00000000  0.50000000  0.75336700  1
  Sn  Sn6  1  0.50000000  0.00000000  0.75336700  1
  Sn  Sn7  1  0.50000000  0.50000000  0.91707600  1
  Pt  Pt8  1  0.50000000  0.50000000  0.15358000  1
  Pt  Pt9  1  0.00000000  0.00000000  0.65358000  1
