# generated using pymatgen
data_Co(ReO4)2
_symmetry_space_group_name_H-M   'P 1'
_cell_length_a   5.80644581
_cell_length_b   5.80644581
_cell_length_c   6.73265834
_cell_angle_alpha   90.00000000
_cell_angle_beta   90.00000000
_cell_angle_gamma   120.00000000
_symmetry_Int_Tables_number   1
_chemical_formula_structural   Co(ReO4)2
_chemical_formula_sum   'Co1 Re2 O8'
_cell_volume   196.57938052
_cell_formula_units_Z   1
loop_
 _symmetry_equiv_pos_site_id
 _symmetry_equiv_pos_as_xyz
  1  'x, y, z'
loop_
 _atom_site_type_symbol
 _atom_site_label
 _atom_site_symmetry_multiplicity
 _atom_site_fract_x
 _atom_site_fract_y
 _atom_site_fract_z
 _atom_site_occupancy
  Co  Co0  1  0.00000000  0.00000000  0.00000000  1
  Re  Re1  1  0.33333333  0.66666667  0.26503600  1
  Re  Re2  1  0.66666667  0.33333333  0.73496400  1
  O  O3  1  0.66666667  0.33333333  0.47738350  1
  O  O4  1  0.33333333  0.66666667  0.52261650  1
  O  O5  1  0.83157675  0.16842325  0.82183950  1
  O  O6  1  0.16842325  0.33684650  0.17816050  1
  O  O7  1  0.66315350  0.83157675  0.17816050  1
  O  O8  1  0.16842325  0.83157675  0.17816050  1
  O  O9  1  0.83157675  0.66315350  0.82183950  1
  O  O10  1  0.33684650  0.16842325  0.82183950  1
