# generated using pymatgen
data_TlFeS2
_symmetry_space_group_name_H-M   'P 1'
_cell_length_a   11.96873000
_cell_length_b   5.09845400
_cell_length_c   6.84423668
_cell_angle_alpha   90.00000000
_cell_angle_beta   117.91338156
_cell_angle_gamma   90.00000000
_symmetry_Int_Tables_number   1
_chemical_formula_structural   TlFeS2
_chemical_formula_sum   'Tl4 Fe4 S8'
_cell_volume   369.05830495
_cell_formula_units_Z   4
loop_
 _symmetry_equiv_pos_site_id
 _symmetry_equiv_pos_as_xyz
  1  'x, y, z'
loop_
 _atom_site_type_symbol
 _atom_site_label
 _atom_site_symmetry_multiplicity
 _atom_site_fract_x
 _atom_site_fract_y
 _atom_site_fract_z
 _atom_site_occupancy
  Tl  Tl0  1  0.31736400  0.00000000  0.35920500  1
  Tl  Tl1  1  0.18263600  0.50000000  0.64079500  1
  Tl  Tl2  1  0.81736400  0.50000000  0.35920500  1
  Tl  Tl3  1  0.68263600  0.00000000  0.64079500  1
  Fe  Fe4  1  0.00000000  0.74944300  0.00000000  1
  Fe  Fe5  1  0.00000000  0.25055700  0.00000000  1
  Fe  Fe6  1  0.50000000  0.24944300  0.00000000  1
  Fe  Fe7  1  0.50000000  0.75055700  0.00000000  1
  S  S8  1  0.15661600  0.50000000  0.06647600  1
  S  S9  1  0.34338400  0.00000000  0.93352400  1
  S  S10  1  0.45967800  0.50000000  0.72520700  1
  S  S11  1  0.04032200  0.00000000  0.27479300  1
  S  S12  1  0.65661600  0.00000000  0.06647600  1
  S  S13  1  0.84338400  0.50000000  0.93352400  1
  S  S14  1  0.95967800  0.00000000  0.72520700  1
  S  S15  1  0.54032200  0.50000000  0.27479300  1
