# generated using pymatgen
data_Ga3Pd7
_symmetry_space_group_name_H-M   'P 1'
_cell_length_a   13.77153600
_cell_length_b   4.11814400
_cell_length_c   5.53947642
_cell_angle_alpha   90.00000000
_cell_angle_beta   105.02899937
_cell_angle_gamma   90.00000000
_symmetry_Int_Tables_number   1
_chemical_formula_structural   Ga3Pd7
_chemical_formula_sum   'Ga6 Pd14'
_cell_volume   303.41528053
_cell_formula_units_Z   2
loop_
 _symmetry_equiv_pos_site_id
 _symmetry_equiv_pos_as_xyz
  1  'x, y, z'
loop_
 _atom_site_type_symbol
 _atom_site_label
 _atom_site_symmetry_multiplicity
 _atom_site_fract_x
 _atom_site_fract_y
 _atom_site_fract_z
 _atom_site_occupancy
  Ga  Ga0  1  0.00000000  0.00000000  0.00000000  1
  Ga  Ga1  1  0.19100900  0.00000000  0.66227800  1
  Ga  Ga2  1  0.30899100  0.50000000  0.33772200  1
  Ga  Ga3  1  0.50000000  0.50000000  0.00000000  1
  Ga  Ga4  1  0.69100900  0.50000000  0.66227800  1
  Ga  Ga5  1  0.80899100  0.00000000  0.33772200  1
  Pd  Pd6  1  0.00000000  0.00000000  0.50000000  1
  Pd  Pd7  1  0.20611200  0.00000000  0.13845400  1
  Pd  Pd8  1  0.29388800  0.50000000  0.86154600  1
  Pd  Pd9  1  0.37438500  0.00000000  0.61491500  1
  Pd  Pd10  1  0.12561500  0.50000000  0.38508500  1
  Pd  Pd11  1  0.41782700  0.00000000  0.14455300  1
  Pd  Pd12  1  0.08217300  0.50000000  0.85544700  1
  Pd  Pd13  1  0.50000000  0.50000000  0.50000000  1
  Pd  Pd14  1  0.70611200  0.50000000  0.13845400  1
  Pd  Pd15  1  0.79388800  0.00000000  0.86154600  1
  Pd  Pd16  1  0.87438500  0.50000000  0.61491500  1
  Pd  Pd17  1  0.62561500  0.00000000  0.38508500  1
  Pd  Pd18  1  0.91782700  0.50000000  0.14455300  1
  Pd  Pd19  1  0.58217300  0.00000000  0.85544700  1
