# generated using pymatgen
data_LiIr3
_symmetry_space_group_name_H-M   'P 1'
_cell_length_a   2.70059800
_cell_length_b   4.69972400
_cell_length_c   8.79215200
_cell_angle_alpha   90.00000000
_cell_angle_beta   90.00000000
_cell_angle_gamma   90.00000000
_symmetry_Int_Tables_number   1
_chemical_formula_structural   LiIr3
_chemical_formula_sum   'Li2 Ir6'
_cell_volume   111.59056674
_cell_formula_units_Z   2
loop_
 _symmetry_equiv_pos_site_id
 _symmetry_equiv_pos_as_xyz
  1  'x, y, z'
loop_
 _atom_site_type_symbol
 _atom_site_label
 _atom_site_symmetry_multiplicity
 _atom_site_fract_x
 _atom_site_fract_y
 _atom_site_fract_z
 _atom_site_occupancy
  Li  Li0  1  0.50000000  0.51718100  0.00000000  1
  Li  Li1  1  0.00000000  0.01718100  0.50000000  1
  Ir  Ir2  1  0.00000000  0.69254000  0.25960100  1
  Ir  Ir3  1  0.50000000  0.19254000  0.24039900  1
  Ir  Ir4  1  0.00000000  0.00174000  0.00000000  1
  Ir  Ir5  1  0.50000000  0.19254000  0.75960100  1
  Ir  Ir6  1  0.00000000  0.69254000  0.74039900  1
  Ir  Ir7  1  0.50000000  0.50174000  0.50000000  1
