# generated using pymatgen
data_HoZrSb
_symmetry_space_group_name_H-M   'P 1'
_cell_length_a   4.26957800
_cell_length_b   4.26957800
_cell_length_c   16.59125000
_cell_angle_alpha   90.00000000
_cell_angle_beta   90.00000000
_cell_angle_gamma   90.00000000
_symmetry_Int_Tables_number   1
_chemical_formula_structural   HoZrSb
_chemical_formula_sum   'Ho4 Zr4 Sb4'
_cell_volume   302.44681221
_cell_formula_units_Z   4
loop_
 _symmetry_equiv_pos_site_id
 _symmetry_equiv_pos_as_xyz
  1  'x, y, z'
loop_
 _atom_site_type_symbol
 _atom_site_label
 _atom_site_symmetry_multiplicity
 _atom_site_fract_x
 _atom_site_fract_y
 _atom_site_fract_z
 _atom_site_occupancy
  Ho  Ho0  1  0.50000000  0.50000000  0.17647800  1
  Ho  Ho1  1  0.00000000  0.00000000  0.32352200  1
  Ho  Ho2  1  0.00000000  0.00000000  0.67647800  1
  Ho  Ho3  1  0.50000000  0.50000000  0.82352200  1
  Zr  Zr4  1  0.00000000  0.50000000  0.00000000  1
  Zr  Zr5  1  0.50000000  0.00000000  0.00000000  1
  Zr  Zr6  1  0.50000000  0.00000000  0.50000000  1
  Zr  Zr7  1  0.00000000  0.50000000  0.50000000  1
  Sb  Sb8  1  0.00000000  0.00000000  0.13401800  1
  Sb  Sb9  1  0.50000000  0.50000000  0.36598200  1
  Sb  Sb10  1  0.50000000  0.50000000  0.63401800  1
  Sb  Sb11  1  0.00000000  0.00000000  0.86598200  1
