# generated using pymatgen
data_Sn4Ir
_symmetry_space_group_name_H-M   'P 1'
_cell_length_a   6.41742800
_cell_length_b   6.41742800
_cell_length_c   23.21174200
_cell_angle_alpha   90.00000000
_cell_angle_beta   90.00000000
_cell_angle_gamma   90.00000000
_symmetry_Int_Tables_number   1
_chemical_formula_structural   Sn4Ir
_chemical_formula_sum   'Sn32 Ir8'
_cell_volume   955.93804081
_cell_formula_units_Z   8
loop_
 _symmetry_equiv_pos_site_id
 _symmetry_equiv_pos_as_xyz
  1  'x, y, z'
loop_
 _atom_site_type_symbol
 _atom_site_label
 _atom_site_symmetry_multiplicity
 _atom_site_fract_x
 _atom_site_fract_y
 _atom_site_fract_z
 _atom_site_occupancy
  Sn  Sn0  1  0.17377600  0.67302000  0.31299100  1
  Sn  Sn1  1  0.67302000  0.17377600  0.18700900  1
  Sn  Sn2  1  0.32698000  0.82622400  0.18700900  1
  Sn  Sn3  1  0.17377600  0.82698000  0.43700900  1
  Sn  Sn4  1  0.67377600  0.67302000  0.43700900  1
  Sn  Sn5  1  0.82698000  0.67377600  0.18700900  1
  Sn  Sn6  1  0.17302000  0.32622400  0.18700900  1
  Sn  Sn7  1  0.67377600  0.82698000  0.31299100  1
  Sn  Sn8  1  0.32622400  0.17302000  0.31299100  1
  Sn  Sn9  1  0.67302000  0.67377600  0.06299100  1
  Sn  Sn10  1  0.32698000  0.32622400  0.06299100  1
  Sn  Sn11  1  0.32622400  0.32698000  0.43700900  1
  Sn  Sn12  1  0.82622400  0.32698000  0.31299100  1
  Sn  Sn13  1  0.17302000  0.82622400  0.06299100  1
  Sn  Sn14  1  0.82698000  0.17377600  0.06299100  1
  Sn  Sn15  1  0.82622400  0.17302000  0.43700900  1
  Sn  Sn16  1  0.67377600  0.17302000  0.81299100  1
  Sn  Sn17  1  0.17302000  0.67377600  0.68700900  1
  Sn  Sn18  1  0.82698000  0.32622400  0.68700900  1
  Sn  Sn19  1  0.67377600  0.32698000  0.93700900  1
  Sn  Sn20  1  0.17377600  0.17302000  0.93700900  1
  Sn  Sn21  1  0.32698000  0.17377600  0.68700900  1
  Sn  Sn22  1  0.67302000  0.82622400  0.68700900  1
  Sn  Sn23  1  0.17377600  0.32698000  0.81299100  1
  Sn  Sn24  1  0.82622400  0.67302000  0.81299100  1
  Sn  Sn25  1  0.17302000  0.17377600  0.56299100  1
  Sn  Sn26  1  0.82698000  0.82622400  0.56299100  1
  Sn  Sn27  1  0.82622400  0.82698000  0.93700900  1
  Sn  Sn28  1  0.32622400  0.82698000  0.81299100  1
  Sn  Sn29  1  0.67302000  0.32622400  0.56299100  1
  Sn  Sn30  1  0.32698000  0.67377600  0.56299100  1
  Sn  Sn31  1  0.32622400  0.67302000  0.93700900  1
  Ir  Ir32  1  0.00000000  0.50000000  0.00000000  1
  Ir  Ir33  1  0.50000000  0.50000000  0.25000000  1
  Ir  Ir34  1  0.00000000  0.00000000  0.25000000  1
  Ir  Ir35  1  0.50000000  0.00000000  0.00000000  1
  Ir  Ir36  1  0.50000000  0.00000000  0.50000000  1
  Ir  Ir37  1  0.00000000  0.00000000  0.75000000  1
  Ir  Ir38  1  0.50000000  0.50000000  0.75000000  1
  Ir  Ir39  1  0.00000000  0.50000000  0.50000000  1
