# generated using pymatgen
data_Zr2Ga3
_symmetry_space_group_name_H-M   'P 1'
_cell_length_a   5.55851200
_cell_length_b   9.51672800
_cell_length_c   13.84957400
_cell_angle_alpha   90.00000000
_cell_angle_beta   90.00000000
_cell_angle_gamma   90.00000000
_symmetry_Int_Tables_number   1
_chemical_formula_structural   Zr2Ga3
_chemical_formula_sum   'Zr16 Ga24'
_cell_volume   732.62649312
_cell_formula_units_Z   8
loop_
 _symmetry_equiv_pos_site_id
 _symmetry_equiv_pos_as_xyz
  1  'x, y, z'
loop_
 _atom_site_type_symbol
 _atom_site_label
 _atom_site_symmetry_multiplicity
 _atom_site_fract_x
 _atom_site_fract_y
 _atom_site_fract_z
 _atom_site_occupancy
  Zr  Zr0  1  0.23420400  0.93071900  0.69770800  1
  Zr  Zr1  1  0.23420400  0.56928100  0.80229200  1
  Zr  Zr2  1  0.48420400  0.31928100  0.94770800  1
  Zr  Zr3  1  0.98420400  0.68071900  0.55229200  1
  Zr  Zr4  1  0.73420400  0.93071900  0.19770800  1
  Zr  Zr5  1  0.73420400  0.56928100  0.30229200  1
  Zr  Zr6  1  0.98420400  0.31928100  0.44770800  1
  Zr  Zr7  1  0.48420400  0.68071900  0.05229200  1
  Zr  Zr8  1  0.73420400  0.43071900  0.69770800  1
  Zr  Zr9  1  0.73420400  0.06928100  0.80229200  1
  Zr  Zr10  1  0.98420400  0.81928100  0.94770800  1
  Zr  Zr11  1  0.48420400  0.18071900  0.55229200  1
  Zr  Zr12  1  0.23420400  0.43071900  0.19770800  1
  Zr  Zr13  1  0.23420400  0.06928100  0.30229200  1
  Zr  Zr14  1  0.48420400  0.81928100  0.44770800  1
  Zr  Zr15  1  0.98420400  0.18071900  0.05229200  1
  Ga  Ga16  1  0.35331900  0.25000000  0.75000000  1
  Ga  Ga17  1  0.10331900  0.00000000  0.50000000  1
  Ga  Ga18  1  0.72413600  0.92973400  0.61491300  1
  Ga  Ga19  1  0.22413600  0.07026600  0.88508700  1
  Ga  Ga20  1  0.47413600  0.82026600  0.86491300  1
  Ga  Ga21  1  0.97413600  0.17973400  0.63508700  1
  Ga  Ga22  1  0.85331900  0.25000000  0.25000000  1
  Ga  Ga23  1  0.60331900  0.00000000  0.00000000  1
  Ga  Ga24  1  0.22413600  0.92973400  0.11491300  1
  Ga  Ga25  1  0.72413600  0.07026600  0.38508700  1
  Ga  Ga26  1  0.97413600  0.82026600  0.36491300  1
  Ga  Ga27  1  0.47413600  0.17973400  0.13508700  1
  Ga  Ga28  1  0.85331900  0.75000000  0.75000000  1
  Ga  Ga29  1  0.60331900  0.50000000  0.50000000  1
  Ga  Ga30  1  0.22413600  0.42973400  0.61491300  1
  Ga  Ga31  1  0.72413600  0.57026600  0.88508700  1
  Ga  Ga32  1  0.97413600  0.32026600  0.86491300  1
  Ga  Ga33  1  0.47413600  0.67973400  0.63508700  1
  Ga  Ga34  1  0.35331900  0.75000000  0.25000000  1
  Ga  Ga35  1  0.10331900  0.50000000  0.00000000  1
  Ga  Ga36  1  0.72413600  0.42973400  0.11491300  1
  Ga  Ga37  1  0.22413600  0.57026600  0.38508700  1
  Ga  Ga38  1  0.47413600  0.32026600  0.36491300  1
  Ga  Ga39  1  0.97413600  0.67973400  0.13508700  1
