# generated using pymatgen
data_K2TaCl6
_symmetry_space_group_name_H-M   'P 1'
_cell_length_a   10.11294400
_cell_length_b   10.11294400
_cell_length_c   10.11294400
_cell_angle_alpha   90.00000000
_cell_angle_beta   90.00000000
_cell_angle_gamma   90.00000000
_symmetry_Int_Tables_number   1
_chemical_formula_structural   K2TaCl6
_chemical_formula_sum   'K8 Ta4 Cl24'
_cell_volume   1034.26733117
_cell_formula_units_Z   4
loop_
 _symmetry_equiv_pos_site_id
 _symmetry_equiv_pos_as_xyz
  1  'x, y, z'
loop_
 _atom_site_type_symbol
 _atom_site_label
 _atom_site_symmetry_multiplicity
 _atom_site_fract_x
 _atom_site_fract_y
 _atom_site_fract_z
 _atom_site_occupancy
  K  K0  1  0.25000000  0.75000000  0.75000000  1
  K  K1  1  0.25000000  0.25000000  0.75000000  1
  K  K2  1  0.25000000  0.25000000  0.25000000  1
  K  K3  1  0.25000000  0.75000000  0.25000000  1
  K  K4  1  0.75000000  0.75000000  0.25000000  1
  K  K5  1  0.75000000  0.25000000  0.25000000  1
  K  K6  1  0.75000000  0.25000000  0.75000000  1
  K  K7  1  0.75000000  0.75000000  0.75000000  1
  Ta  Ta8  1  0.00000000  0.00000000  0.00000000  1
  Ta  Ta9  1  0.00000000  0.50000000  0.50000000  1
  Ta  Ta10  1  0.50000000  0.00000000  0.50000000  1
  Ta  Ta11  1  0.50000000  0.50000000  0.00000000  1
  Cl  Cl12  1  0.00000000  0.00000000  0.76076800  1
  Cl  Cl13  1  0.50000000  0.73923200  0.00000000  1
  Cl  Cl14  1  0.76076800  0.00000000  0.00000000  1
  Cl  Cl15  1  0.50000000  0.00000000  0.73923200  1
  Cl  Cl16  1  0.23923200  0.00000000  0.00000000  1
  Cl  Cl17  1  0.50000000  0.26076800  0.00000000  1
  Cl  Cl18  1  0.00000000  0.50000000  0.26076800  1
  Cl  Cl19  1  0.50000000  0.23923200  0.50000000  1
  Cl  Cl20  1  0.76076800  0.50000000  0.50000000  1
  Cl  Cl21  1  0.50000000  0.50000000  0.23923200  1
  Cl  Cl22  1  0.23923200  0.50000000  0.50000000  1
  Cl  Cl23  1  0.50000000  0.76076800  0.50000000  1
  Cl  Cl24  1  0.50000000  0.00000000  0.26076800  1
  Cl  Cl25  1  0.00000000  0.73923200  0.50000000  1
  Cl  Cl26  1  0.26076800  0.00000000  0.50000000  1
  Cl  Cl27  1  0.00000000  0.00000000  0.23923200  1
  Cl  Cl28  1  0.73923200  0.00000000  0.50000000  1
  Cl  Cl29  1  0.00000000  0.26076800  0.50000000  1
  Cl  Cl30  1  0.50000000  0.50000000  0.76076800  1
  Cl  Cl31  1  0.00000000  0.23923200  0.00000000  1
  Cl  Cl32  1  0.26076800  0.50000000  0.00000000  1
  Cl  Cl33  1  0.00000000  0.50000000  0.73923200  1
  Cl  Cl34  1  0.73923200  0.50000000  0.00000000  1
  Cl  Cl35  1  0.00000000  0.76076800  0.00000000  1
