# generated using pymatgen
data_Li2Sn2Au
_symmetry_space_group_name_H-M   'P 1'
_cell_length_a   4.63487400
_cell_length_b   4.63487400
_cell_length_c   19.90039800
_cell_angle_alpha   90.00000000
_cell_angle_beta   90.00000000
_cell_angle_gamma   90.00000000
_symmetry_Int_Tables_number   1
_chemical_formula_structural   Li2Sn2Au
_chemical_formula_sum   'Li8 Sn8 Au4'
_cell_volume   427.50148408
_cell_formula_units_Z   4
loop_
 _symmetry_equiv_pos_site_id
 _symmetry_equiv_pos_as_xyz
  1  'x, y, z'
loop_
 _atom_site_type_symbol
 _atom_site_label
 _atom_site_symmetry_multiplicity
 _atom_site_fract_x
 _atom_site_fract_y
 _atom_site_fract_z
 _atom_site_occupancy
  Li  Li0  1  0.00000000  0.00000000  0.32440000  1
  Li  Li1  1  0.50000000  0.00000000  0.07440000  1
  Li  Li2  1  0.50000000  0.00000000  0.42560000  1
  Li  Li3  1  0.50000000  0.50000000  0.17560000  1
  Li  Li4  1  0.50000000  0.50000000  0.82440000  1
  Li  Li5  1  0.00000000  0.50000000  0.57440000  1
  Li  Li6  1  0.00000000  0.50000000  0.92560000  1
  Li  Li7  1  0.00000000  0.00000000  0.67560000  1
  Sn  Sn8  1  0.50000000  0.50000000  0.32722200  1
  Sn  Sn9  1  0.00000000  0.50000000  0.07722200  1
  Sn  Sn10  1  0.00000000  0.50000000  0.42277800  1
  Sn  Sn11  1  0.00000000  0.00000000  0.17277800  1
  Sn  Sn12  1  0.00000000  0.00000000  0.82722200  1
  Sn  Sn13  1  0.50000000  0.00000000  0.57722200  1
  Sn  Sn14  1  0.50000000  0.00000000  0.92277800  1
  Sn  Sn15  1  0.50000000  0.50000000  0.67277800  1
  Au  Au16  1  0.50000000  0.00000000  0.25000000  1
  Au  Au17  1  0.50000000  0.50000000  0.00000000  1
  Au  Au18  1  0.00000000  0.50000000  0.75000000  1
  Au  Au19  1  0.00000000  0.00000000  0.50000000  1
