# generated using pymatgen
data_Ti3Pt5
_symmetry_space_group_name_H-M   'P 1'
_cell_length_a   5.49384000
_cell_length_b   8.25654400
_cell_length_c   11.07004400
_cell_angle_alpha   90.00000000
_cell_angle_beta   90.00000000
_cell_angle_gamma   90.00000000
_symmetry_Int_Tables_number   1
_chemical_formula_structural   Ti3Pt5
_chemical_formula_sum   'Ti12 Pt20'
_cell_volume   502.13865364
_cell_formula_units_Z   4
loop_
 _symmetry_equiv_pos_site_id
 _symmetry_equiv_pos_as_xyz
  1  'x, y, z'
loop_
 _atom_site_type_symbol
 _atom_site_label
 _atom_site_symmetry_multiplicity
 _atom_site_fract_x
 _atom_site_fract_y
 _atom_site_fract_z
 _atom_site_occupancy
  Ti  Ti0  1  0.70950100  0.50000000  0.85517000  1
  Ti  Ti1  1  0.20950100  0.50000000  0.64483000  1
  Ti  Ti2  1  0.29049900  0.50000000  0.14483000  1
  Ti  Ti3  1  0.79049900  0.50000000  0.35517000  1
  Ti  Ti4  1  0.00000000  0.25000000  0.00000000  1
  Ti  Ti5  1  0.00000000  0.75000000  0.00000000  1
  Ti  Ti6  1  0.20950100  0.00000000  0.35517000  1
  Ti  Ti7  1  0.70950100  0.00000000  0.14483000  1
  Ti  Ti8  1  0.79049900  0.00000000  0.64483000  1
  Ti  Ti9  1  0.29049900  0.00000000  0.85517000  1
  Ti  Ti10  1  0.50000000  0.75000000  0.50000000  1
  Ti  Ti11  1  0.50000000  0.25000000  0.50000000  1
  Pt  Pt12  1  0.28724800  0.50000000  0.39607600  1
  Pt  Pt13  1  0.78724800  0.50000000  0.10392400  1
  Pt  Pt14  1  0.71275200  0.50000000  0.60392400  1
  Pt  Pt15  1  0.21275200  0.50000000  0.89607600  1
  Pt  Pt16  1  0.00000000  0.25000000  0.75689900  1
  Pt  Pt17  1  0.00000000  0.25000000  0.24310100  1
  Pt  Pt18  1  0.00000000  0.75000000  0.24310100  1
  Pt  Pt19  1  0.00000000  0.75000000  0.75689900  1
  Pt  Pt20  1  0.50000000  0.75000000  0.00000000  1
  Pt  Pt21  1  0.50000000  0.25000000  0.00000000  1
  Pt  Pt22  1  0.78724800  0.00000000  0.89607600  1
  Pt  Pt23  1  0.28724800  0.00000000  0.60392400  1
  Pt  Pt24  1  0.21275200  0.00000000  0.10392400  1
  Pt  Pt25  1  0.71275200  0.00000000  0.39607600  1
  Pt  Pt26  1  0.50000000  0.75000000  0.25689900  1
  Pt  Pt27  1  0.50000000  0.75000000  0.74310100  1
  Pt  Pt28  1  0.50000000  0.25000000  0.74310100  1
  Pt  Pt29  1  0.50000000  0.25000000  0.25689900  1
  Pt  Pt30  1  0.00000000  0.25000000  0.50000000  1
  Pt  Pt31  1  0.00000000  0.75000000  0.50000000  1
