# generated using pymatgen
data_V5Sb4
_symmetry_space_group_name_H-M   'P 1'
_cell_length_a   9.89129000
_cell_length_b   9.89129000
_cell_length_c   3.44433800
_cell_angle_alpha   90.00000000
_cell_angle_beta   90.00000000
_cell_angle_gamma   90.00000000
_symmetry_Int_Tables_number   1
_chemical_formula_structural   V5Sb4
_chemical_formula_sum   'V10 Sb8'
_cell_volume   336.98582504
_cell_formula_units_Z   2
loop_
 _symmetry_equiv_pos_site_id
 _symmetry_equiv_pos_as_xyz
  1  'x, y, z'
loop_
 _atom_site_type_symbol
 _atom_site_label
 _atom_site_symmetry_multiplicity
 _atom_site_fract_x
 _atom_site_fract_y
 _atom_site_fract_z
 _atom_site_occupancy
  V  V0  1  0.00000000  0.00000000  0.00000000  1
  V  V1  1  0.81807900  0.88582800  0.50000000  1
  V  V2  1  0.61417200  0.31807900  0.00000000  1
  V  V3  1  0.38582800  0.68192100  0.00000000  1
  V  V4  1  0.18192100  0.11417200  0.50000000  1
  V  V5  1  0.50000000  0.50000000  0.50000000  1
  V  V6  1  0.31807900  0.38582800  0.00000000  1
  V  V7  1  0.11417200  0.81807900  0.50000000  1
  V  V8  1  0.88582800  0.18192100  0.50000000  1
  V  V9  1  0.68192100  0.61417200  0.00000000  1
  Sb  Sb10  1  0.56302200  0.79003600  0.50000000  1
  Sb  Sb11  1  0.70996400  0.06302200  0.00000000  1
  Sb  Sb12  1  0.29003600  0.93697800  0.00000000  1
  Sb  Sb13  1  0.43697800  0.20996400  0.50000000  1
  Sb  Sb14  1  0.06302200  0.29003600  0.00000000  1
  Sb  Sb15  1  0.20996400  0.56302200  0.50000000  1
  Sb  Sb16  1  0.79003600  0.43697800  0.50000000  1
  Sb  Sb17  1  0.93697800  0.70996400  0.00000000  1
