# generated using pymatgen
data_ErAl2Ni
_symmetry_space_group_name_H-M   'P 1'
_cell_length_a   4.05377200
_cell_length_b   10.05593200
_cell_length_c   6.85229300
_cell_angle_alpha   90.00000000
_cell_angle_beta   90.00000000
_cell_angle_gamma   90.00000000
_symmetry_Int_Tables_number   1
_chemical_formula_structural   ErAl2Ni
_chemical_formula_sum   'Er4 Al8 Ni4'
_cell_volume   279.32999359
_cell_formula_units_Z   4
loop_
 _symmetry_equiv_pos_site_id
 _symmetry_equiv_pos_as_xyz
  1  'x, y, z'
loop_
 _atom_site_type_symbol
 _atom_site_label
 _atom_site_symmetry_multiplicity
 _atom_site_fract_x
 _atom_site_fract_y
 _atom_site_fract_z
 _atom_site_occupancy
  Er  Er0  1  0.00000000  0.06292500  0.25000000  1
  Er  Er1  1  0.50000000  0.43707500  0.75000000  1
  Er  Er2  1  0.50000000  0.56292500  0.25000000  1
  Er  Er3  1  0.00000000  0.93707500  0.75000000  1
  Al  Al4  1  0.00000000  0.34596500  0.44623500  1
  Al  Al5  1  0.50000000  0.15403500  0.55376500  1
  Al  Al6  1  0.50000000  0.15403500  0.94623500  1
  Al  Al7  1  0.00000000  0.34596500  0.05376500  1
  Al  Al8  1  0.50000000  0.84596500  0.44623500  1
  Al  Al9  1  0.00000000  0.65403500  0.55376500  1
  Al  Al10  1  0.00000000  0.65403500  0.94623500  1
  Al  Al11  1  0.50000000  0.84596500  0.05376500  1
  Ni  Ni12  1  0.50000000  0.28533200  0.25000000  1
  Ni  Ni13  1  0.00000000  0.21466800  0.75000000  1
  Ni  Ni14  1  0.00000000  0.78533200  0.25000000  1
  Ni  Ni15  1  0.50000000  0.71466800  0.75000000  1
