# generated using pymatgen
data_UGeSe
_symmetry_space_group_name_H-M   'P 1'
_cell_length_a   3.95930400
_cell_length_b   3.95930400
_cell_length_c   16.54996600
_cell_angle_alpha   90.00000000
_cell_angle_beta   90.00000000
_cell_angle_gamma   90.00000000
_symmetry_Int_Tables_number   1
_chemical_formula_structural   UGeSe
_chemical_formula_sum   'U4 Ge4 Se4'
_cell_volume   259.43872613
_cell_formula_units_Z   4
loop_
 _symmetry_equiv_pos_site_id
 _symmetry_equiv_pos_as_xyz
  1  'x, y, z'
loop_
 _atom_site_type_symbol
 _atom_site_label
 _atom_site_symmetry_multiplicity
 _atom_site_fract_x
 _atom_site_fract_y
 _atom_site_fract_z
 _atom_site_occupancy
  U  U0  1  0.50000000  0.50000000  0.36350400  1
  U  U1  1  0.00000000  0.00000000  0.13649600  1
  U  U2  1  0.00000000  0.00000000  0.86350400  1
  U  U3  1  0.50000000  0.50000000  0.63649600  1
  Ge  Ge4  1  0.00000000  0.50000000  0.00000000  1
  Ge  Ge5  1  0.50000000  0.00000000  0.00000000  1
  Ge  Ge6  1  0.50000000  0.00000000  0.50000000  1
  Ge  Ge7  1  0.00000000  0.50000000  0.50000000  1
  Se  Se8  1  0.00000000  0.00000000  0.31748300  1
  Se  Se9  1  0.50000000  0.50000000  0.18251700  1
  Se  Se10  1  0.50000000  0.50000000  0.81748300  1
  Se  Se11  1  0.00000000  0.00000000  0.68251700  1
