# generated using pymatgen
data_VAu2
_symmetry_space_group_name_H-M   'P 1'
_cell_length_a   4.83671200
_cell_length_b   8.71240200
_cell_length_c   4.81207900
_cell_angle_alpha   90.00000000
_cell_angle_beta   90.00000000
_cell_angle_gamma   90.00000000
_symmetry_Int_Tables_number   1
_chemical_formula_structural   VAu2
_chemical_formula_sum   'V4 Au8'
_cell_volume   202.77802221
_cell_formula_units_Z   4
loop_
 _symmetry_equiv_pos_site_id
 _symmetry_equiv_pos_as_xyz
  1  'x, y, z'
loop_
 _atom_site_type_symbol
 _atom_site_label
 _atom_site_symmetry_multiplicity
 _atom_site_fract_x
 _atom_site_fract_y
 _atom_site_fract_z
 _atom_site_occupancy
  V  V0  1  0.21834400  0.00000000  0.25000000  1
  V  V1  1  0.78165600  0.00000000  0.75000000  1
  V  V2  1  0.71834400  0.50000000  0.25000000  1
  V  V3  1  0.28165600  0.50000000  0.75000000  1
  Au  Au4  1  0.22112150  0.33856550  0.25000000  1
  Au  Au5  1  0.72112150  0.16143450  0.25000000  1
  Au  Au6  1  0.27887850  0.16143450  0.75000000  1
  Au  Au7  1  0.77887850  0.33856550  0.75000000  1
  Au  Au8  1  0.72112150  0.83856550  0.25000000  1
  Au  Au9  1  0.22112150  0.66143450  0.25000000  1
  Au  Au10  1  0.77887850  0.66143450  0.75000000  1
  Au  Au11  1  0.27887850  0.83856550  0.75000000  1
