# generated using pymatgen
data_ScCd7
_symmetry_space_group_name_H-M   'P 1'
_cell_length_a   7.44830000
_cell_length_b   10.19494200
_cell_length_c   9.43415800
_cell_angle_alpha   90.00000000
_cell_angle_beta   90.00000000
_cell_angle_gamma   90.00000000
_symmetry_Int_Tables_number   1
_chemical_formula_structural   ScCd7
_chemical_formula_sum   'Sc4 Cd28'
_cell_volume   716.38266036
_cell_formula_units_Z   4
loop_
 _symmetry_equiv_pos_site_id
 _symmetry_equiv_pos_as_xyz
  1  'x, y, z'
loop_
 _atom_site_type_symbol
 _atom_site_label
 _atom_site_symmetry_multiplicity
 _atom_site_fract_x
 _atom_site_fract_y
 _atom_site_fract_z
 _atom_site_occupancy
  Sc  Sc0  1  0.50000000  0.97847600  0.25000000  1
  Sc  Sc1  1  0.50000000  0.02152400  0.75000000  1
  Sc  Sc2  1  0.00000000  0.47847600  0.25000000  1
  Sc  Sc3  1  0.00000000  0.52152400  0.75000000  1
  Cd  Cd4  1  0.79715800  0.20042300  0.25000000  1
  Cd  Cd5  1  0.20284200  0.79957700  0.75000000  1
  Cd  Cd6  1  0.79715800  0.79957700  0.75000000  1
  Cd  Cd7  1  0.20284200  0.20042300  0.25000000  1
  Cd  Cd8  1  0.50000000  0.20910200  0.48253000  1
  Cd  Cd9  1  0.50000000  0.79089800  0.98253000  1
  Cd  Cd10  1  0.50000000  0.79089800  0.51747000  1
  Cd  Cd11  1  0.50000000  0.20910200  0.01747000  1
  Cd  Cd12  1  0.21184800  0.00000000  0.50000000  1
  Cd  Cd13  1  0.78815200  0.00000000  0.00000000  1
  Cd  Cd14  1  0.78815200  0.00000000  0.50000000  1
  Cd  Cd15  1  0.21184800  0.00000000  0.00000000  1
  Cd  Cd16  1  0.50000000  0.41522700  0.25000000  1
  Cd  Cd17  1  0.50000000  0.58477300  0.75000000  1
  Cd  Cd18  1  0.29715800  0.70042300  0.25000000  1
  Cd  Cd19  1  0.70284200  0.29957700  0.75000000  1
  Cd  Cd20  1  0.29715800  0.29957700  0.75000000  1
  Cd  Cd21  1  0.70284200  0.70042300  0.25000000  1
  Cd  Cd22  1  0.00000000  0.70910200  0.48253000  1
  Cd  Cd23  1  0.00000000  0.29089800  0.98253000  1
  Cd  Cd24  1  0.00000000  0.29089800  0.51747000  1
  Cd  Cd25  1  0.00000000  0.70910200  0.01747000  1
  Cd  Cd26  1  0.71184800  0.50000000  0.50000000  1
  Cd  Cd27  1  0.28815200  0.50000000  0.00000000  1
  Cd  Cd28  1  0.28815200  0.50000000  0.50000000  1
  Cd  Cd29  1  0.71184800  0.50000000  0.00000000  1
  Cd  Cd30  1  0.00000000  0.91522700  0.25000000  1
  Cd  Cd31  1  0.00000000  0.08477300  0.75000000  1
