# generated using pymatgen
data_V4Zn5
_symmetry_space_group_name_H-M   'P 1'
_cell_length_a   8.91203000
_cell_length_b   8.91203000
_cell_length_c   3.18295200
_cell_angle_alpha   90.00000000
_cell_angle_beta   90.00000000
_cell_angle_gamma   90.00000000
_symmetry_Int_Tables_number   1
_chemical_formula_structural   V4Zn5
_chemical_formula_sum   'V8 Zn10'
_cell_volume   252.80366680
_cell_formula_units_Z   2
loop_
 _symmetry_equiv_pos_site_id
 _symmetry_equiv_pos_as_xyz
  1  'x, y, z'
loop_
 _atom_site_type_symbol
 _atom_site_label
 _atom_site_symmetry_multiplicity
 _atom_site_fract_x
 _atom_site_fract_y
 _atom_site_fract_z
 _atom_site_occupancy
  V  V0  1  0.50000000  0.84436800  0.50000000  1
  V  V1  1  0.50000000  0.15563200  0.50000000  1
  V  V2  1  0.65563200  0.00000000  0.00000000  1
  V  V3  1  0.34436800  0.00000000  0.00000000  1
  V  V4  1  0.00000000  0.34436800  0.00000000  1
  V  V5  1  0.00000000  0.65563200  0.00000000  1
  V  V6  1  0.15563200  0.50000000  0.50000000  1
  V  V7  1  0.84436800  0.50000000  0.50000000  1
  Zn  Zn8  1  0.00000000  0.00000000  0.00000000  1
  Zn  Zn9  1  0.82971500  0.82971500  0.50000000  1
  Zn  Zn10  1  0.67028500  0.67028500  0.00000000  1
  Zn  Zn11  1  0.67028500  0.32971500  0.00000000  1
  Zn  Zn12  1  0.82971500  0.17028500  0.50000000  1
  Zn  Zn13  1  0.50000000  0.50000000  0.50000000  1
  Zn  Zn14  1  0.32971500  0.32971500  0.00000000  1
  Zn  Zn15  1  0.17028500  0.17028500  0.50000000  1
  Zn  Zn16  1  0.17028500  0.82971500  0.50000000  1
  Zn  Zn17  1  0.32971500  0.67028500  0.00000000  1
