# generated using pymatgen
data_Nb5Te4
_symmetry_space_group_name_H-M   'P 1'
_cell_length_a   10.43634400
_cell_length_b   10.43634400
_cell_length_c   3.68959800
_cell_angle_alpha   90.00000000
_cell_angle_beta   90.00000000
_cell_angle_gamma   90.00000000
_symmetry_Int_Tables_number   1
_chemical_formula_structural   Nb5Te4
_chemical_formula_sum   'Nb10 Te8'
_cell_volume   401.86096401
_cell_formula_units_Z   2
loop_
 _symmetry_equiv_pos_site_id
 _symmetry_equiv_pos_as_xyz
  1  'x, y, z'
loop_
 _atom_site_type_symbol
 _atom_site_label
 _atom_site_symmetry_multiplicity
 _atom_site_fract_x
 _atom_site_fract_y
 _atom_site_fract_z
 _atom_site_occupancy
  Nb  Nb0  1  0.00000000  0.00000000  0.00000000  1
  Nb  Nb1  1  0.81118950  0.88009250  0.50000000  1
  Nb  Nb2  1  0.61990750  0.31118950  0.00000000  1
  Nb  Nb3  1  0.38009250  0.68881050  0.00000000  1
  Nb  Nb4  1  0.18881050  0.11990750  0.50000000  1
  Nb  Nb5  1  0.50000000  0.50000000  0.50000000  1
  Nb  Nb6  1  0.31118950  0.38009250  0.00000000  1
  Nb  Nb7  1  0.11990750  0.81118950  0.50000000  1
  Nb  Nb8  1  0.88009250  0.18881050  0.50000000  1
  Nb  Nb9  1  0.68881050  0.61990750  0.00000000  1
  Te  Te10  1  0.56049150  0.78501350  0.50000000  1
  Te  Te11  1  0.71498650  0.06049150  0.00000000  1
  Te  Te12  1  0.28501350  0.93950850  0.00000000  1
  Te  Te13  1  0.43950850  0.21498650  0.50000000  1
  Te  Te14  1  0.06049150  0.28501350  0.00000000  1
  Te  Te15  1  0.21498650  0.56049150  0.50000000  1
  Te  Te16  1  0.78501350  0.43950850  0.50000000  1
  Te  Te17  1  0.93950850  0.71498650  0.00000000  1
