# generated using pymatgen
data_TmCd3
_symmetry_space_group_name_H-M   'P 1'
_cell_length_a   7.20015200
_cell_length_b   10.76080600
_cell_length_c   4.85820800
_cell_angle_alpha   90.00000000
_cell_angle_beta   90.00000000
_cell_angle_gamma   90.00000000
_symmetry_Int_Tables_number   1
_chemical_formula_structural   TmCd3
_chemical_formula_sum   'Tm4 Cd12'
_cell_volume   376.41122962
_cell_formula_units_Z   4
loop_
 _symmetry_equiv_pos_site_id
 _symmetry_equiv_pos_as_xyz
  1  'x, y, z'
loop_
 _atom_site_type_symbol
 _atom_site_label
 _atom_site_symmetry_multiplicity
 _atom_site_fract_x
 _atom_site_fract_y
 _atom_site_fract_z
 _atom_site_occupancy
  Tm  Tm0  1  0.50000000  0.86858700  0.25000000  1
  Tm  Tm1  1  0.50000000  0.13141300  0.75000000  1
  Tm  Tm2  1  0.00000000  0.36858700  0.25000000  1
  Tm  Tm3  1  0.00000000  0.63141300  0.75000000  1
  Cd  Cd4  1  0.50000000  0.32249600  0.25000000  1
  Cd  Cd5  1  0.50000000  0.67750400  0.75000000  1
  Cd  Cd6  1  0.21551050  0.09627450  0.25000000  1
  Cd  Cd7  1  0.78448950  0.90372550  0.75000000  1
  Cd  Cd8  1  0.21551050  0.90372550  0.75000000  1
  Cd  Cd9  1  0.78448950  0.09627450  0.25000000  1
  Cd  Cd10  1  0.00000000  0.82249600  0.25000000  1
  Cd  Cd11  1  0.00000000  0.17750400  0.75000000  1
  Cd  Cd12  1  0.71551050  0.59627450  0.25000000  1
  Cd  Cd13  1  0.28448950  0.40372550  0.75000000  1
  Cd  Cd14  1  0.71551050  0.40372550  0.75000000  1
  Cd  Cd15  1  0.28448950  0.59627450  0.25000000  1
