# generated using pymatgen
data_Be17Nb2
_symmetry_space_group_name_H-M   'P 1'
_cell_length_a   7.38070040
_cell_length_b   7.38070040
_cell_length_c   10.72349457
_cell_angle_alpha   90.00000000
_cell_angle_beta   90.00000000
_cell_angle_gamma   120.00000000
_symmetry_Int_Tables_number   1
_chemical_formula_structural   Be17Nb2
_chemical_formula_sum   'Be51 Nb6'
_cell_volume   505.89701968
_cell_formula_units_Z   3
loop_
 _symmetry_equiv_pos_site_id
 _symmetry_equiv_pos_as_xyz
  1  'x, y, z'
loop_
 _atom_site_type_symbol
 _atom_site_label
 _atom_site_symmetry_multiplicity
 _atom_site_fract_x
 _atom_site_fract_y
 _atom_site_fract_z
 _atom_site_occupancy
  Be  Be0  1  0.33333333  0.66666667  0.06774867  1
  Be  Be1  1  0.33333333  0.66666667  0.26558467  1
  Be  Be2  1  0.16666667  0.83333333  0.33333333  1
  Be  Be3  1  0.00000000  0.50000000  0.00000000  1
  Be  Be4  1  0.50000000  0.00000000  0.00000000  1
  Be  Be5  1  0.62700433  0.66666667  0.16666667  1
  Be  Be6  1  0.03966233  0.37299567  0.16666667  1
  Be  Be7  1  0.33333333  0.96033767  0.16666667  1
  Be  Be8  1  0.03966233  0.66666667  0.16666667  1
  Be  Be9  1  0.62700433  0.96033767  0.16666667  1
  Be  Be10  1  0.33333333  0.37299567  0.16666667  1
  Be  Be11  1  0.16425867  0.32851733  0.98900833  1
  Be  Be12  1  0.16425867  0.83574133  0.98900833  1
  Be  Be13  1  0.67148267  0.83574133  0.98900833  1
  Be  Be14  1  0.99518400  0.49759200  0.34432500  1
  Be  Be15  1  0.50240800  0.00481600  0.34432500  1
  Be  Be16  1  0.50240800  0.49759200  0.34432500  1
  Be  Be17  1  0.00000000  0.00000000  0.40108200  1
  Be  Be18  1  0.00000000  0.00000000  0.59891800  1
  Be  Be19  1  0.83333333  0.16666667  0.66666667  1
  Be  Be20  1  0.66666667  0.83333333  0.33333333  1
  Be  Be21  1  0.16666667  0.33333333  0.33333333  1
  Be  Be22  1  0.29367100  0.00000000  0.50000000  1
  Be  Be23  1  0.70632900  0.70632900  0.50000000  1
  Be  Be24  1  0.00000000  0.29367100  0.50000000  1
  Be  Be25  1  0.70632900  0.00000000  0.50000000  1
  Be  Be26  1  0.29367100  0.29367100  0.50000000  1
  Be  Be27  1  0.00000000  0.70632900  0.50000000  1
  Be  Be28  1  0.83092533  0.66185067  0.32234167  1
  Be  Be29  1  0.83092533  0.16907467  0.32234167  1
  Be  Be30  1  0.33814933  0.16907467  0.32234167  1
  Be  Be31  1  0.66185067  0.83092533  0.67765833  1
  Be  Be32  1  0.16907467  0.33814933  0.67765833  1
  Be  Be33  1  0.16907467  0.83092533  0.67765833  1
  Be  Be34  1  0.66666667  0.33333333  0.73441533  1
  Be  Be35  1  0.66666667  0.33333333  0.93225133  1
  Be  Be36  1  0.50000000  0.50000000  0.00000000  1
  Be  Be37  1  0.33333333  0.16666667  0.66666667  1
  Be  Be38  1  0.83333333  0.66666667  0.66666667  1
  Be  Be39  1  0.96033767  0.33333333  0.83333333  1
  Be  Be40  1  0.37299567  0.03966233  0.83333333  1
  Be  Be41  1  0.66666667  0.62700433  0.83333333  1
  Be  Be42  1  0.37299567  0.33333333  0.83333333  1
  Be  Be43  1  0.96033767  0.62700433  0.83333333  1
  Be  Be44  1  0.66666667  0.03966233  0.83333333  1
  Be  Be45  1  0.49759200  0.99518400  0.65567500  1
  Be  Be46  1  0.49759200  0.50240800  0.65567500  1
  Be  Be47  1  0.00481600  0.50240800  0.65567500  1
  Be  Be48  1  0.32851733  0.16425867  0.01099167  1
  Be  Be49  1  0.83574133  0.67148267  0.01099167  1
  Be  Be50  1  0.83574133  0.16425867  0.01099167  1
  Nb  Nb51  1  0.33333333  0.66666667  0.82554967  1
  Nb  Nb52  1  0.33333333  0.66666667  0.50778367  1
  Nb  Nb53  1  0.00000000  0.00000000  0.15888300  1
  Nb  Nb54  1  0.00000000  0.00000000  0.84111700  1
  Nb  Nb55  1  0.66666667  0.33333333  0.49221633  1
  Nb  Nb56  1  0.66666667  0.33333333  0.17445033  1
