# generated using pymatgen
data_Sc(MnAl2)4
_symmetry_space_group_name_H-M   'P 1'
_cell_length_a   8.67153000
_cell_length_b   8.67153000
_cell_length_c   5.15753800
_cell_angle_alpha   90.00000000
_cell_angle_beta   90.00000000
_cell_angle_gamma   90.00000000
_symmetry_Int_Tables_number   1
_chemical_formula_structural   Sc(MnAl2)4
_chemical_formula_sum   'Sc2 Mn8 Al16'
_cell_volume   387.82330076
_cell_formula_units_Z   2
loop_
 _symmetry_equiv_pos_site_id
 _symmetry_equiv_pos_as_xyz
  1  'x, y, z'
loop_
 _atom_site_type_symbol
 _atom_site_label
 _atom_site_symmetry_multiplicity
 _atom_site_fract_x
 _atom_site_fract_y
 _atom_site_fract_z
 _atom_site_occupancy
  Sc  Sc0  1  0.00000000  0.00000000  0.00000000  1
  Sc  Sc1  1  0.50000000  0.50000000  0.50000000  1
  Mn  Mn2  1  0.75000000  0.25000000  0.75000000  1
  Mn  Mn3  1  0.75000000  0.75000000  0.25000000  1
  Mn  Mn4  1  0.75000000  0.75000000  0.75000000  1
  Mn  Mn5  1  0.75000000  0.25000000  0.25000000  1
  Mn  Mn6  1  0.25000000  0.75000000  0.25000000  1
  Mn  Mn7  1  0.25000000  0.25000000  0.75000000  1
  Mn  Mn8  1  0.25000000  0.25000000  0.25000000  1
  Mn  Mn9  1  0.25000000  0.75000000  0.75000000  1
  Al  Al10  1  0.66854700  0.00000000  0.00000000  1
  Al  Al11  1  0.50000000  0.83145300  0.50000000  1
  Al  Al12  1  0.50000000  0.16854700  0.50000000  1
  Al  Al13  1  0.33145300  0.00000000  0.00000000  1
  Al  Al14  1  0.22284700  0.00000000  0.50000000  1
  Al  Al15  1  0.50000000  0.27715300  0.00000000  1
  Al  Al16  1  0.50000000  0.72284700  0.00000000  1
  Al  Al17  1  0.77715300  0.00000000  0.50000000  1
  Al  Al18  1  0.16854700  0.50000000  0.50000000  1
  Al  Al19  1  0.00000000  0.33145300  0.00000000  1
  Al  Al20  1  0.00000000  0.66854700  0.00000000  1
  Al  Al21  1  0.83145300  0.50000000  0.50000000  1
  Al  Al22  1  0.72284700  0.50000000  0.00000000  1
  Al  Al23  1  0.00000000  0.77715300  0.50000000  1
  Al  Al24  1  0.00000000  0.22284700  0.50000000  1
  Al  Al25  1  0.27715300  0.50000000  0.00000000  1
