# generated using pymatgen
data_ZrTiAs
_symmetry_space_group_name_H-M   'P 1'
_cell_length_a   3.79039400
_cell_length_b   3.79039400
_cell_length_c   14.95166000
_cell_angle_alpha   90.00000000
_cell_angle_beta   90.00000000
_cell_angle_gamma   90.00000000
_symmetry_Int_Tables_number   1
_chemical_formula_structural   ZrTiAs
_chemical_formula_sum   'Zr4 Ti4 As4'
_cell_volume   214.81179516
_cell_formula_units_Z   4
loop_
 _symmetry_equiv_pos_site_id
 _symmetry_equiv_pos_as_xyz
  1  'x, y, z'
loop_
 _atom_site_type_symbol
 _atom_site_label
 _atom_site_symmetry_multiplicity
 _atom_site_fract_x
 _atom_site_fract_y
 _atom_site_fract_z
 _atom_site_occupancy
  Zr  Zr0  1  0.50000000  0.50000000  0.17957900  1
  Zr  Zr1  1  0.00000000  0.00000000  0.32042100  1
  Zr  Zr2  1  0.00000000  0.00000000  0.67957900  1
  Zr  Zr3  1  0.50000000  0.50000000  0.82042100  1
  Ti  Ti4  1  0.00000000  0.50000000  0.00000000  1
  Ti  Ti5  1  0.50000000  0.00000000  0.00000000  1
  Ti  Ti6  1  0.50000000  0.00000000  0.50000000  1
  Ti  Ti7  1  0.00000000  0.50000000  0.50000000  1
  As  As8  1  0.00000000  0.00000000  0.12878000  1
  As  As9  1  0.50000000  0.50000000  0.37122000  1
  As  As10  1  0.50000000  0.50000000  0.62878000  1
  As  As11  1  0.00000000  0.00000000  0.87122000  1
