# generated using pymatgen
data_TiNbN2
_symmetry_space_group_name_H-M   'P 1'
_cell_length_a   4.36659600
_cell_length_b   4.36659600
_cell_length_c   8.69806800
_cell_angle_alpha   90.00000000
_cell_angle_beta   90.00000000
_cell_angle_gamma   90.00000000
_symmetry_Int_Tables_number   1
_chemical_formula_structural   TiNbN2
_chemical_formula_sum   'Ti4 Nb4 N8'
_cell_volume   165.84745970
_cell_formula_units_Z   4
loop_
 _symmetry_equiv_pos_site_id
 _symmetry_equiv_pos_as_xyz
  1  'x, y, z'
loop_
 _atom_site_type_symbol
 _atom_site_label
 _atom_site_symmetry_multiplicity
 _atom_site_fract_x
 _atom_site_fract_y
 _atom_site_fract_z
 _atom_site_occupancy
  Ti  Ti0  1  0.00000000  0.00000000  0.00000000  1
  Ti  Ti1  1  0.00000000  0.50000000  0.25000000  1
  Ti  Ti2  1  0.50000000  0.50000000  0.50000000  1
  Ti  Ti3  1  0.50000000  0.00000000  0.75000000  1
  Nb  Nb4  1  0.50000000  0.00000000  0.25000000  1
  Nb  Nb5  1  0.50000000  0.50000000  0.00000000  1
  Nb  Nb6  1  0.00000000  0.50000000  0.75000000  1
  Nb  Nb7  1  0.00000000  0.00000000  0.50000000  1
  N  N8  1  0.50000000  0.50000000  0.25714500  1
  N  N9  1  0.00000000  0.50000000  0.49285500  1
  N  N10  1  0.00000000  0.50000000  0.00714500  1
  N  N11  1  0.00000000  0.00000000  0.24285500  1
  N  N12  1  0.00000000  0.00000000  0.75714500  1
  N  N13  1  0.50000000  0.00000000  0.99285500  1
  N  N14  1  0.50000000  0.00000000  0.50714500  1
  N  N15  1  0.50000000  0.50000000  0.74285500  1
