# generated using pymatgen
data_TaPt2
_symmetry_space_group_name_H-M   'P 1'
_cell_length_a   4.85331400
_cell_length_b   8.49595600
_cell_length_c   4.79069500
_cell_angle_alpha   90.00000000
_cell_angle_beta   90.00000000
_cell_angle_gamma   90.00000000
_symmetry_Int_Tables_number   1
_chemical_formula_structural   TaPt2
_chemical_formula_sum   'Ta4 Pt8'
_cell_volume   197.53732444
_cell_formula_units_Z   4
loop_
 _symmetry_equiv_pos_site_id
 _symmetry_equiv_pos_as_xyz
  1  'x, y, z'
loop_
 _atom_site_type_symbol
 _atom_site_label
 _atom_site_symmetry_multiplicity
 _atom_site_fract_x
 _atom_site_fract_y
 _atom_site_fract_z
 _atom_site_occupancy
  Ta  Ta0  1  0.22838300  0.00000000  0.25000000  1
  Ta  Ta1  1  0.77161700  0.00000000  0.75000000  1
  Ta  Ta2  1  0.72838300  0.50000000  0.25000000  1
  Ta  Ta3  1  0.27161700  0.50000000  0.75000000  1
  Pt  Pt4  1  0.71630400  0.16197300  0.25000000  1
  Pt  Pt5  1  0.28369600  0.16197300  0.75000000  1
  Pt  Pt6  1  0.78369600  0.33802700  0.75000000  1
  Pt  Pt7  1  0.21630400  0.33802700  0.25000000  1
  Pt  Pt8  1  0.21630400  0.66197300  0.25000000  1
  Pt  Pt9  1  0.78369600  0.66197300  0.75000000  1
  Pt  Pt10  1  0.28369600  0.83802700  0.75000000  1
  Pt  Pt11  1  0.71630400  0.83802700  0.25000000  1
