# generated using pymatgen
data_LiBIr
_symmetry_space_group_name_H-M   'P 1'
_cell_length_a   6.18929000
_cell_length_b   9.22857200
_cell_length_c   10.51568200
_cell_angle_alpha   90.00000000
_cell_angle_beta   90.00000000
_cell_angle_gamma   90.00000000
_symmetry_Int_Tables_number   1
_chemical_formula_structural   LiBIr
_chemical_formula_sum   'Li16 B16 Ir16'
_cell_volume   600.63796745
_cell_formula_units_Z   16
loop_
 _symmetry_equiv_pos_site_id
 _symmetry_equiv_pos_as_xyz
  1  'x, y, z'
loop_
 _atom_site_type_symbol
 _atom_site_label
 _atom_site_symmetry_multiplicity
 _atom_site_fract_x
 _atom_site_fract_y
 _atom_site_fract_z
 _atom_site_occupancy
  Li  Li0  1  0.12500000  0.87500000  0.37500000  1
  Li  Li1  1  0.62500000  0.12500000  0.12500000  1
  Li  Li2  1  0.37500000  0.87500000  0.12500000  1
  Li  Li3  1  0.87500000  0.12500000  0.37500000  1
  Li  Li4  1  0.12500000  0.37500000  0.87500000  1
  Li  Li5  1  0.62500000  0.62500000  0.62500000  1
  Li  Li6  1  0.37500000  0.37500000  0.62500000  1
  Li  Li7  1  0.87500000  0.62500000  0.87500000  1
  Li  Li8  1  0.62500000  0.87500000  0.87500000  1
  Li  Li9  1  0.12500000  0.12500000  0.62500000  1
  Li  Li10  1  0.87500000  0.87500000  0.62500000  1
  Li  Li11  1  0.37500000  0.12500000  0.87500000  1
  Li  Li12  1  0.62500000  0.37500000  0.37500000  1
  Li  Li13  1  0.12500000  0.62500000  0.12500000  1
  Li  Li14  1  0.87500000  0.37500000  0.12500000  1
  Li  Li15  1  0.37500000  0.62500000  0.37500000  1
  B  B16  1  0.75000000  0.92631700  0.25000000  1
  B  B17  1  0.50000000  0.67631700  0.00000000  1
  B  B18  1  0.75000000  0.57368300  0.25000000  1
  B  B19  1  0.50000000  0.32368300  0.00000000  1
  B  B20  1  0.75000000  0.42631700  0.75000000  1
  B  B21  1  0.50000000  0.17631700  0.50000000  1
  B  B22  1  0.75000000  0.07368300  0.75000000  1
  B  B23  1  0.50000000  0.82368300  0.50000000  1
  B  B24  1  0.25000000  0.92631700  0.75000000  1
  B  B25  1  0.00000000  0.67631700  0.50000000  1
  B  B26  1  0.25000000  0.57368300  0.75000000  1
  B  B27  1  0.00000000  0.32368300  0.50000000  1
  B  B28  1  0.25000000  0.42631700  0.25000000  1
  B  B29  1  0.00000000  0.17631700  0.00000000  1
  B  B30  1  0.25000000  0.07368300  0.25000000  1
  B  B31  1  0.00000000  0.82368300  0.00000000  1
  Ir  Ir32  1  0.75000000  0.75000000  0.38310800  1
  Ir  Ir33  1  0.50000000  0.00000000  0.36689200  1
  Ir  Ir34  1  0.00000000  0.00000000  0.13310800  1
  Ir  Ir35  1  0.75000000  0.75000000  0.11689200  1
  Ir  Ir36  1  0.75000000  0.25000000  0.88310800  1
  Ir  Ir37  1  0.50000000  0.50000000  0.86689200  1
  Ir  Ir38  1  0.00000000  0.50000000  0.63310800  1
  Ir  Ir39  1  0.75000000  0.25000000  0.61689200  1
  Ir  Ir40  1  0.25000000  0.75000000  0.88310800  1
  Ir  Ir41  1  0.00000000  0.00000000  0.86689200  1
  Ir  Ir42  1  0.50000000  0.00000000  0.63310800  1
  Ir  Ir43  1  0.25000000  0.75000000  0.61689200  1
  Ir  Ir44  1  0.25000000  0.25000000  0.38310800  1
  Ir  Ir45  1  0.00000000  0.50000000  0.36689200  1
  Ir  Ir46  1  0.50000000  0.50000000  0.13310800  1
  Ir  Ir47  1  0.25000000  0.25000000  0.11689200  1
