# generated using pymatgen
data_TmCu5
_symmetry_space_group_name_H-M   'P 1'
_cell_length_a   6.97582000
_cell_length_b   6.97582000
_cell_length_c   6.97582000
_cell_angle_alpha   90.00000000
_cell_angle_beta   90.00000000
_cell_angle_gamma   90.00000000
_symmetry_Int_Tables_number   1
_chemical_formula_structural   TmCu5
_chemical_formula_sum   'Tm4 Cu20'
_cell_volume   339.45780398
_cell_formula_units_Z   4
loop_
 _symmetry_equiv_pos_site_id
 _symmetry_equiv_pos_as_xyz
  1  'x, y, z'
loop_
 _atom_site_type_symbol
 _atom_site_label
 _atom_site_symmetry_multiplicity
 _atom_site_fract_x
 _atom_site_fract_y
 _atom_site_fract_z
 _atom_site_occupancy
  Tm  Tm0  1  0.00000000  0.00000000  0.00000000  1
  Tm  Tm1  1  0.00000000  0.50000000  0.50000000  1
  Tm  Tm2  1  0.50000000  0.00000000  0.50000000  1
  Tm  Tm3  1  0.50000000  0.50000000  0.00000000  1
  Cu  Cu4  1  0.25000000  0.25000000  0.75000000  1
  Cu  Cu5  1  0.12401400  0.37598600  0.12401400  1
  Cu  Cu6  1  0.62401400  0.12401400  0.87598600  1
  Cu  Cu7  1  0.37598600  0.12401400  0.12401400  1
  Cu  Cu8  1  0.87598600  0.37598600  0.87598600  1
  Cu  Cu9  1  0.25000000  0.75000000  0.25000000  1
  Cu  Cu10  1  0.12401400  0.87598600  0.62401400  1
  Cu  Cu11  1  0.62401400  0.62401400  0.37598600  1
  Cu  Cu12  1  0.37598600  0.62401400  0.62401400  1
  Cu  Cu13  1  0.87598600  0.87598600  0.37598600  1
  Cu  Cu14  1  0.75000000  0.25000000  0.25000000  1
  Cu  Cu15  1  0.62401400  0.37598600  0.62401400  1
  Cu  Cu16  1  0.12401400  0.12401400  0.37598600  1
  Cu  Cu17  1  0.87598600  0.12401400  0.62401400  1
  Cu  Cu18  1  0.37598600  0.37598600  0.37598600  1
  Cu  Cu19  1  0.75000000  0.75000000  0.75000000  1
  Cu  Cu20  1  0.62401400  0.87598600  0.12401400  1
  Cu  Cu21  1  0.12401400  0.62401400  0.87598600  1
  Cu  Cu22  1  0.87598600  0.62401400  0.12401400  1
  Cu  Cu23  1  0.37598600  0.87598600  0.87598600  1
