# generated using pymatgen
data_Cd5Au3
_symmetry_space_group_name_H-M   'P 1'
_cell_length_a   10.97961000
_cell_length_b   10.97961000
_cell_length_c   5.48836400
_cell_angle_alpha   90.00000000
_cell_angle_beta   90.00000000
_cell_angle_gamma   90.00000000
_symmetry_Int_Tables_number   1
_chemical_formula_structural   Cd5Au3
_chemical_formula_sum   'Cd20 Au12'
_cell_volume   661.63235548
_cell_formula_units_Z   4
loop_
 _symmetry_equiv_pos_site_id
 _symmetry_equiv_pos_as_xyz
  1  'x, y, z'
loop_
 _atom_site_type_symbol
 _atom_site_label
 _atom_site_symmetry_multiplicity
 _atom_site_fract_x
 _atom_site_fract_y
 _atom_site_fract_z
 _atom_site_occupancy
  Cd  Cd0  1  0.57936000  0.27525300  0.50000000  1
  Cd  Cd1  1  0.42064000  0.72474700  0.50000000  1
  Cd  Cd2  1  0.22474700  0.07936000  0.00000000  1
  Cd  Cd3  1  0.77525300  0.92064000  0.00000000  1
  Cd  Cd4  1  0.42064000  0.27525300  0.00000000  1
  Cd  Cd5  1  0.22474700  0.92064000  0.50000000  1
  Cd  Cd6  1  0.50000000  0.00000000  0.25000000  1
  Cd  Cd7  1  0.50000000  0.00000000  0.75000000  1
  Cd  Cd8  1  0.57936000  0.72474700  0.00000000  1
  Cd  Cd9  1  0.77525300  0.07936000  0.50000000  1
  Cd  Cd10  1  0.07936000  0.77525300  0.00000000  1
  Cd  Cd11  1  0.92064000  0.22474700  0.00000000  1
  Cd  Cd12  1  0.72474700  0.57936000  0.50000000  1
  Cd  Cd13  1  0.27525300  0.42064000  0.50000000  1
  Cd  Cd14  1  0.92064000  0.77525300  0.50000000  1
  Cd  Cd15  1  0.72474700  0.42064000  0.00000000  1
  Cd  Cd16  1  0.00000000  0.50000000  0.75000000  1
  Cd  Cd17  1  0.00000000  0.50000000  0.25000000  1
  Cd  Cd18  1  0.07936000  0.22474700  0.50000000  1
  Cd  Cd19  1  0.27525300  0.57936000  0.00000000  1
  Au  Au20  1  0.33462900  0.83462900  0.00000000  1
  Au  Au21  1  0.66537100  0.83462900  0.50000000  1
  Au  Au22  1  0.33462900  0.16537100  0.50000000  1
  Au  Au23  1  0.66537100  0.16537100  0.00000000  1
  Au  Au24  1  0.00000000  0.00000000  0.25000000  1
  Au  Au25  1  0.00000000  0.00000000  0.75000000  1
  Au  Au26  1  0.83462900  0.33462900  0.50000000  1
  Au  Au27  1  0.16537100  0.33462900  0.00000000  1
  Au  Au28  1  0.83462900  0.66537100  0.00000000  1
  Au  Au29  1  0.16537100  0.66537100  0.50000000  1
  Au  Au30  1  0.50000000  0.50000000  0.75000000  1
  Au  Au31  1  0.50000000  0.50000000  0.25000000  1
