# generated using pymatgen
data_DyCu5
_symmetry_space_group_name_H-M   'P 1'
_cell_length_a   7.02014800
_cell_length_b   7.02014800
_cell_length_c   7.02014800
_cell_angle_alpha   90.00000000
_cell_angle_beta   90.00000000
_cell_angle_gamma   90.00000000
_symmetry_Int_Tables_number   1
_chemical_formula_structural   DyCu5
_chemical_formula_sum   'Dy4 Cu20'
_cell_volume   345.97028896
_cell_formula_units_Z   4
loop_
 _symmetry_equiv_pos_site_id
 _symmetry_equiv_pos_as_xyz
  1  'x, y, z'
loop_
 _atom_site_type_symbol
 _atom_site_label
 _atom_site_symmetry_multiplicity
 _atom_site_fract_x
 _atom_site_fract_y
 _atom_site_fract_z
 _atom_site_occupancy
  Dy  Dy0  1  0.00000000  0.00000000  0.00000000  1
  Dy  Dy1  1  0.00000000  0.50000000  0.50000000  1
  Dy  Dy2  1  0.50000000  0.00000000  0.50000000  1
  Dy  Dy3  1  0.50000000  0.50000000  0.00000000  1
  Cu  Cu4  1  0.25000000  0.25000000  0.75000000  1
  Cu  Cu5  1  0.12379300  0.37620700  0.12379300  1
  Cu  Cu6  1  0.62379300  0.12379300  0.87620700  1
  Cu  Cu7  1  0.37620700  0.12379300  0.12379300  1
  Cu  Cu8  1  0.87620700  0.37620700  0.87620700  1
  Cu  Cu9  1  0.25000000  0.75000000  0.25000000  1
  Cu  Cu10  1  0.12379300  0.87620700  0.62379300  1
  Cu  Cu11  1  0.62379300  0.62379300  0.37620700  1
  Cu  Cu12  1  0.37620700  0.62379300  0.62379300  1
  Cu  Cu13  1  0.87620700  0.87620700  0.37620700  1
  Cu  Cu14  1  0.75000000  0.25000000  0.25000000  1
  Cu  Cu15  1  0.62379300  0.37620700  0.62379300  1
  Cu  Cu16  1  0.12379300  0.12379300  0.37620700  1
  Cu  Cu17  1  0.87620700  0.12379300  0.62379300  1
  Cu  Cu18  1  0.37620700  0.37620700  0.37620700  1
  Cu  Cu19  1  0.75000000  0.75000000  0.75000000  1
  Cu  Cu20  1  0.62379300  0.87620700  0.12379300  1
  Cu  Cu21  1  0.12379300  0.62379300  0.87620700  1
  Cu  Cu22  1  0.87620700  0.62379300  0.12379300  1
  Cu  Cu23  1  0.37620700  0.87620700  0.87620700  1
