# generated using pymatgen
data_YAlSi
_symmetry_space_group_name_H-M   'P 1'
_cell_length_a   4.01354000
_cell_length_b   10.32472400
_cell_length_c   5.71513600
_cell_angle_alpha   90.00000000
_cell_angle_beta   90.00000000
_cell_angle_gamma   90.00000000
_symmetry_Int_Tables_number   1
_chemical_formula_structural   YAlSi
_chemical_formula_sum   'Y4 Al4 Si4'
_cell_volume   236.82776480
_cell_formula_units_Z   4
loop_
 _symmetry_equiv_pos_site_id
 _symmetry_equiv_pos_as_xyz
  1  'x, y, z'
loop_
 _atom_site_type_symbol
 _atom_site_label
 _atom_site_symmetry_multiplicity
 _atom_site_fract_x
 _atom_site_fract_y
 _atom_site_fract_z
 _atom_site_occupancy
  Y  Y0  1  0.50000000  0.19443100  0.75000000  1
  Y  Y1  1  0.00000000  0.30556900  0.25000000  1
  Y  Y2  1  0.00000000  0.69443100  0.75000000  1
  Y  Y3  1  0.50000000  0.80556900  0.25000000  1
  Al  Al4  1  0.00000000  0.00000000  0.00000000  1
  Al  Al5  1  0.00000000  0.00000000  0.50000000  1
  Al  Al6  1  0.50000000  0.50000000  0.00000000  1
  Al  Al7  1  0.50000000  0.50000000  0.50000000  1
  Si  Si8  1  0.50000000  0.09926200  0.25000000  1
  Si  Si9  1  0.00000000  0.40073800  0.75000000  1
  Si  Si10  1  0.00000000  0.59926200  0.25000000  1
  Si  Si11  1  0.50000000  0.90073800  0.75000000  1
