# generated using pymatgen
data_Ca5Ag3
_symmetry_space_group_name_H-M   'P 1'
_cell_length_a   8.02007000
_cell_length_b   8.02007000
_cell_length_c   14.94854400
_cell_angle_alpha   90.00000000
_cell_angle_beta   90.00000000
_cell_angle_gamma   90.00000000
_symmetry_Int_Tables_number   1
_chemical_formula_structural   Ca5Ag3
_chemical_formula_sum   'Ca20 Ag12'
_cell_volume   961.51311380
_cell_formula_units_Z   4
loop_
 _symmetry_equiv_pos_site_id
 _symmetry_equiv_pos_as_xyz
  1  'x, y, z'
loop_
 _atom_site_type_symbol
 _atom_site_label
 _atom_site_symmetry_multiplicity
 _atom_site_fract_x
 _atom_site_fract_y
 _atom_site_fract_z
 _atom_site_occupancy
  Ca  Ca0  1  0.83266250  0.33266250  0.14561700  1
  Ca  Ca1  1  0.33266250  0.83266250  0.35438300  1
  Ca  Ca2  1  0.66733750  0.16733750  0.35438300  1
  Ca  Ca3  1  0.83266250  0.66733750  0.35438300  1
  Ca  Ca4  1  0.16733750  0.33266250  0.35438300  1
  Ca  Ca5  1  0.66733750  0.83266250  0.14561700  1
  Ca  Ca6  1  0.00000000  0.00000000  0.00000000  1
  Ca  Ca7  1  0.50000000  0.50000000  0.00000000  1
  Ca  Ca8  1  0.16733750  0.66733750  0.14561700  1
  Ca  Ca9  1  0.33266250  0.16733750  0.14561700  1
  Ca  Ca10  1  0.33266250  0.83266250  0.64561700  1
  Ca  Ca11  1  0.83266250  0.33266250  0.85438300  1
  Ca  Ca12  1  0.16733750  0.66733750  0.85438300  1
  Ca  Ca13  1  0.33266250  0.16733750  0.85438300  1
  Ca  Ca14  1  0.66733750  0.83266250  0.85438300  1
  Ca  Ca15  1  0.16733750  0.33266250  0.64561700  1
  Ca  Ca16  1  0.50000000  0.50000000  0.50000000  1
  Ca  Ca17  1  0.00000000  0.00000000  0.50000000  1
  Ca  Ca18  1  0.66733750  0.16733750  0.64561700  1
  Ca  Ca19  1  0.83266250  0.66733750  0.64561700  1
  Ag  Ag20  1  0.62683700  0.12683700  0.00000000  1
  Ag  Ag21  1  0.87316300  0.62683700  0.00000000  1
  Ag  Ag22  1  0.12683700  0.37316300  0.00000000  1
  Ag  Ag23  1  0.87316300  0.37316300  0.50000000  1
  Ag  Ag24  1  0.50000000  0.50000000  0.25000000  1
  Ag  Ag25  1  0.00000000  0.00000000  0.25000000  1
  Ag  Ag26  1  0.12683700  0.62683700  0.50000000  1
  Ag  Ag27  1  0.37316300  0.12683700  0.50000000  1
  Ag  Ag28  1  0.62683700  0.87316300  0.50000000  1
  Ag  Ag29  1  0.37316300  0.87316300  0.00000000  1
  Ag  Ag30  1  0.00000000  0.00000000  0.75000000  1
  Ag  Ag31  1  0.50000000  0.50000000  0.75000000  1
