# generated using pymatgen
data_Mg9Sn5
_symmetry_space_group_name_H-M   'P 1'
_cell_length_a   13.29877434
_cell_length_b   13.29877434
_cell_length_c   13.40304945
_cell_angle_alpha   90.00000000
_cell_angle_beta   90.00000000
_cell_angle_gamma   120.00000000
_symmetry_Int_Tables_number   1
_chemical_formula_structural   Mg9Sn5
_chemical_formula_sum   'Mg54 Sn30'
_cell_volume   2052.85126851
_cell_formula_units_Z   6
loop_
 _symmetry_equiv_pos_site_id
 _symmetry_equiv_pos_as_xyz
  1  'x, y, z'
loop_
 _atom_site_type_symbol
 _atom_site_label
 _atom_site_symmetry_multiplicity
 _atom_site_fract_x
 _atom_site_fract_y
 _atom_site_fract_z
 _atom_site_occupancy
  Mg  Mg0  1  0.76487267  0.83907433  0.58335333  1
  Mg  Mg1  1  0.07420167  0.23512733  0.58335333  1
  Mg  Mg2  1  0.16092567  0.92579833  0.58335333  1
  Mg  Mg3  1  0.24147000  0.16639100  0.42205100  1
  Mg  Mg4  1  0.92492100  0.75853000  0.42205100  1
  Mg  Mg5  1  0.83360900  0.07507900  0.42205100  1
  Mg  Mg6  1  0.22522533  0.14956767  0.75437867  1
  Mg  Mg7  1  0.92434233  0.77477467  0.75437867  1
  Mg  Mg8  1  0.85043233  0.07565767  0.75437867  1
  Mg  Mg9  1  0.77340433  0.85150467  0.25607467  1
  Mg  Mg10  1  0.09062767  0.50199133  0.58445133  1
  Mg  Mg11  1  0.49800867  0.58863633  0.58445133  1
  Mg  Mg12  1  0.41136367  0.90937233  0.58445133  1
  Mg  Mg13  1  0.90195033  0.49042967  0.41756667  1
  Mg  Mg14  1  0.50957033  0.41152067  0.41756667  1
  Mg  Mg15  1  0.58847933  0.09804967  0.41756667  1
  Mg  Mg16  1  0.14849533  0.92189967  0.25607467  1
  Mg  Mg17  1  0.07810033  0.22659567  0.25607467  1
  Mg  Mg18  1  0.43153933  0.17240767  0.91668667  1
  Mg  Mg19  1  0.74086833  0.56846067  0.91668667  1
  Mg  Mg20  1  0.82759233  0.25913167  0.91668667  1
  Mg  Mg21  1  0.90813667  0.49972433  0.75538433  1
  Mg  Mg22  1  0.59158767  0.09186333  0.75538433  1
  Mg  Mg23  1  0.50027567  0.40841233  0.75538433  1
  Mg  Mg24  1  0.89189200  0.48290100  0.08771200  1
  Mg  Mg25  1  0.59100900  0.10810800  0.08771200  1
  Mg  Mg26  1  0.51709900  0.40899100  0.08771200  1
  Mg  Mg27  1  0.44007100  0.18483800  0.58940800  1
  Mg  Mg28  1  0.75729433  0.83532467  0.91778467  1
  Mg  Mg29  1  0.16467533  0.92196967  0.91778467  1
  Mg  Mg30  1  0.07803033  0.24270567  0.91778467  1
  Mg  Mg31  1  0.56861700  0.82376300  0.75090000  1
  Mg  Mg32  1  0.17623700  0.74485400  0.75090000  1
  Mg  Mg33  1  0.25514600  0.43138300  0.75090000  1
  Mg  Mg34  1  0.81516200  0.25523300  0.58940800  1
  Mg  Mg35  1  0.74476700  0.55992900  0.58940800  1
  Mg  Mg36  1  0.09820600  0.50574100  0.25002000  1
  Mg  Mg37  1  0.40753500  0.90179400  0.25002000  1
  Mg  Mg38  1  0.49425900  0.59246500  0.25002000  1
  Mg  Mg39  1  0.57480333  0.83305767  0.08871767  1
  Mg  Mg40  1  0.25825433  0.42519667  0.08871767  1
  Mg  Mg41  1  0.16694233  0.74174567  0.08871767  1
  Mg  Mg42  1  0.55855867  0.81623433  0.42104533  1
  Mg  Mg43  1  0.25767567  0.44144133  0.42104533  1
  Mg  Mg44  1  0.18376567  0.74232433  0.42104533  1
  Mg  Mg45  1  0.10673767  0.51817133  0.92274133  1
  Mg  Mg46  1  0.42396100  0.16865800  0.25111800  1
  Mg  Mg47  1  0.83134200  0.25530300  0.25111800  1
  Mg  Mg48  1  0.74469700  0.57603900  0.25111800  1
  Mg  Mg49  1  0.23528367  0.15709633  0.08423333  1
  Mg  Mg50  1  0.84290367  0.07818733  0.08423333  1
  Mg  Mg51  1  0.92181267  0.76471633  0.08423333  1
  Mg  Mg52  1  0.48182867  0.58856633  0.92274133  1
  Mg  Mg53  1  0.41143367  0.89326233  0.92274133  1
  Sn  Sn54  1  0.00000000  0.00000000  0.14964200  1
  Sn  Sn55  1  0.00000000  0.00000000  0.88684100  1
  Sn  Sn56  1  0.00000000  0.00000000  0.38687900  1
  Sn  Sn57  1  0.00000000  0.00000000  0.64750900  1
  Sn  Sn58  1  0.66500667  0.99623233  0.58670333  1
  Sn  Sn59  1  0.33122567  0.33499333  0.58670333  1
  Sn  Sn60  1  0.00376767  0.66877433  0.58670333  1
  Sn  Sn61  1  0.33218400  0.00268900  0.41879800  1
  Sn  Sn62  1  0.67050500  0.66781600  0.41879800  1
  Sn  Sn63  1  0.99731100  0.32949500  0.41879800  1
  Sn  Sn64  1  0.66666667  0.33333333  0.48297533  1
  Sn  Sn65  1  0.66666667  0.33333333  0.22017433  1
  Sn  Sn66  1  0.66666667  0.33333333  0.72021233  1
  Sn  Sn67  1  0.66666667  0.33333333  0.98084233  1
  Sn  Sn68  1  0.33167333  0.32956567  0.92003667  1
  Sn  Sn69  1  0.99789233  0.66832667  0.92003667  1
  Sn  Sn70  1  0.67043433  0.00210767  0.92003667  1
  Sn  Sn71  1  0.99885067  0.33602233  0.75213133  1
  Sn  Sn72  1  0.33717167  0.00114933  0.75213133  1
  Sn  Sn73  1  0.66397767  0.66282833  0.75213133  1
  Sn  Sn74  1  0.33333333  0.66666667  0.81630867  1
  Sn  Sn75  1  0.33333333  0.66666667  0.55350767  1
  Sn  Sn76  1  0.33333333  0.66666667  0.05354567  1
  Sn  Sn77  1  0.33333333  0.66666667  0.31417567  1
  Sn  Sn78  1  0.99834000  0.66289900  0.25337000  1
  Sn  Sn79  1  0.66455900  0.00166000  0.25337000  1
  Sn  Sn80  1  0.33710100  0.33544100  0.25337000  1
  Sn  Sn81  1  0.66551733  0.66935567  0.08546467  1
  Sn  Sn82  1  0.00383833  0.33448267  0.08546467  1
  Sn  Sn83  1  0.33064433  0.99616167  0.08546467  1
