# generated using pymatgen
data_Al(FeB)2
_symmetry_space_group_name_H-M   'P 1'
_cell_length_a   2.91523200
_cell_length_b   11.01172200
_cell_length_c   2.86311400
_cell_angle_alpha   90.00000000
_cell_angle_beta   90.00000000
_cell_angle_gamma   90.00000000
_symmetry_Int_Tables_number   1
_chemical_formula_structural   Al(FeB)2
_chemical_formula_sum   'Al2 Fe4 B4'
_cell_volume   91.91089641
_cell_formula_units_Z   2
loop_
 _symmetry_equiv_pos_site_id
 _symmetry_equiv_pos_as_xyz
  1  'x, y, z'
loop_
 _atom_site_type_symbol
 _atom_site_label
 _atom_site_symmetry_multiplicity
 _atom_site_fract_x
 _atom_site_fract_y
 _atom_site_fract_z
 _atom_site_occupancy
  Al  Al0  1  0.00000000  0.00000000  0.00000000  1
  Al  Al1  1  0.50000000  0.50000000  0.00000000  1
  Fe  Fe2  1  0.50000000  0.14636100  0.50000000  1
  Fe  Fe3  1  0.00000000  0.35363900  0.50000000  1
  Fe  Fe4  1  0.00000000  0.64636100  0.50000000  1
  Fe  Fe5  1  0.50000000  0.85363900  0.50000000  1
  B  B6  1  0.50000000  0.29360400  0.00000000  1
  B  B7  1  0.00000000  0.20639600  0.00000000  1
  B  B8  1  0.00000000  0.79360400  0.00000000  1
  B  B9  1  0.50000000  0.70639600  0.00000000  1
