# generated using pymatgen
data_PuZn2
_symmetry_space_group_name_H-M   'P 1'
_cell_length_a   7.71434800
_cell_length_b   7.71434800
_cell_length_c   7.71434800
_cell_angle_alpha   90.00000000
_cell_angle_beta   90.00000000
_cell_angle_gamma   90.00000000
_symmetry_Int_Tables_number   1
_chemical_formula_structural   PuZn2
_chemical_formula_sum   'Pu8 Zn16'
_cell_volume   459.08983720
_cell_formula_units_Z   8
loop_
 _symmetry_equiv_pos_site_id
 _symmetry_equiv_pos_as_xyz
  1  'x, y, z'
loop_
 _atom_site_type_symbol
 _atom_site_label
 _atom_site_symmetry_multiplicity
 _atom_site_fract_x
 _atom_site_fract_y
 _atom_site_fract_z
 _atom_site_occupancy
  Pu  Pu0  1  0.25000000  0.25000000  0.25000000  1
  Pu  Pu1  1  0.50000000  0.00000000  0.50000000  1
  Pu  Pu2  1  0.25000000  0.75000000  0.75000000  1
  Pu  Pu3  1  0.50000000  0.50000000  0.00000000  1
  Pu  Pu4  1  0.75000000  0.25000000  0.75000000  1
  Pu  Pu5  1  0.00000000  0.00000000  0.00000000  1
  Pu  Pu6  1  0.75000000  0.75000000  0.25000000  1
  Pu  Pu7  1  0.00000000  0.50000000  0.50000000  1
  Zn  Zn8  1  0.37500000  0.87500000  0.12500000  1
  Zn  Zn9  1  0.37500000  0.62500000  0.37500000  1
  Zn  Zn10  1  0.12500000  0.62500000  0.12500000  1
  Zn  Zn11  1  0.12500000  0.87500000  0.37500000  1
  Zn  Zn12  1  0.37500000  0.37500000  0.62500000  1
  Zn  Zn13  1  0.37500000  0.12500000  0.87500000  1
  Zn  Zn14  1  0.12500000  0.12500000  0.62500000  1
  Zn  Zn15  1  0.12500000  0.37500000  0.87500000  1
  Zn  Zn16  1  0.87500000  0.87500000  0.62500000  1
  Zn  Zn17  1  0.87500000  0.62500000  0.87500000  1
  Zn  Zn18  1  0.62500000  0.62500000  0.62500000  1
  Zn  Zn19  1  0.62500000  0.87500000  0.87500000  1
  Zn  Zn20  1  0.87500000  0.37500000  0.12500000  1
  Zn  Zn21  1  0.87500000  0.12500000  0.37500000  1
  Zn  Zn22  1  0.62500000  0.12500000  0.12500000  1
  Zn  Zn23  1  0.62500000  0.37500000  0.37500000  1
