# generated using pymatgen
data_KHg2
_symmetry_space_group_name_H-M   'P 1'
_cell_length_a   5.29878800
_cell_length_b   8.23597600
_cell_length_c   9.44142800
_cell_angle_alpha   90.00000000
_cell_angle_beta   90.00000000
_cell_angle_gamma   90.00000000
_symmetry_Int_Tables_number   1
_chemical_formula_structural   KHg2
_chemical_formula_sum   'K4 Hg8'
_cell_volume   412.03044003
_cell_formula_units_Z   4
loop_
 _symmetry_equiv_pos_site_id
 _symmetry_equiv_pos_as_xyz
  1  'x, y, z'
loop_
 _atom_site_type_symbol
 _atom_site_label
 _atom_site_symmetry_multiplicity
 _atom_site_fract_x
 _atom_site_fract_y
 _atom_site_fract_z
 _atom_site_occupancy
  K  K0  1  0.50000000  0.25000000  0.45086200  1
  K  K1  1  0.50000000  0.75000000  0.54913800  1
  K  K2  1  0.00000000  0.75000000  0.95086200  1
  K  K3  1  0.00000000  0.25000000  0.04913800  1
  Hg  Hg4  1  0.00000000  0.94588350  0.33699050  1
  Hg  Hg5  1  0.00000000  0.05411650  0.66300950  1
  Hg  Hg6  1  0.50000000  0.05411650  0.83699050  1
  Hg  Hg7  1  0.50000000  0.94588350  0.16300950  1
  Hg  Hg8  1  0.50000000  0.44588350  0.83699050  1
  Hg  Hg9  1  0.50000000  0.55411650  0.16300950  1
  Hg  Hg10  1  0.00000000  0.55411650  0.33699050  1
  Hg  Hg11  1  0.00000000  0.44588350  0.66300950  1
