# generated using pymatgen
data_TbZrSb
_symmetry_space_group_name_H-M   'P 1'
_cell_length_a   4.28583400
_cell_length_b   4.28583400
_cell_length_c   16.71890000
_cell_angle_alpha   90.00000000
_cell_angle_beta   90.00000000
_cell_angle_gamma   90.00000000
_symmetry_Int_Tables_number   1
_chemical_formula_structural   TbZrSb
_chemical_formula_sum   'Tb4 Zr4 Sb4'
_cell_volume   307.09899261
_cell_formula_units_Z   4
loop_
 _symmetry_equiv_pos_site_id
 _symmetry_equiv_pos_as_xyz
  1  'x, y, z'
loop_
 _atom_site_type_symbol
 _atom_site_label
 _atom_site_symmetry_multiplicity
 _atom_site_fract_x
 _atom_site_fract_y
 _atom_site_fract_z
 _atom_site_occupancy
  Tb  Tb0  1  0.50000000  0.50000000  0.17681100  1
  Tb  Tb1  1  0.00000000  0.00000000  0.32318900  1
  Tb  Tb2  1  0.00000000  0.00000000  0.67681100  1
  Tb  Tb3  1  0.50000000  0.50000000  0.82318900  1
  Zr  Zr4  1  0.00000000  0.50000000  0.00000000  1
  Zr  Zr5  1  0.50000000  0.00000000  0.00000000  1
  Zr  Zr6  1  0.50000000  0.00000000  0.50000000  1
  Zr  Zr7  1  0.00000000  0.50000000  0.50000000  1
  Sb  Sb8  1  0.00000000  0.00000000  0.13261300  1
  Sb  Sb9  1  0.50000000  0.50000000  0.36738700  1
  Sb  Sb10  1  0.50000000  0.50000000  0.63261300  1
  Sb  Sb11  1  0.00000000  0.00000000  0.86738700  1
