# generated using pymatgen
data_Ti2O3
_symmetry_space_group_name_H-M   'P 1'
_cell_length_a   5.11279223
_cell_length_b   5.11279223
_cell_length_c   13.98380536
_cell_angle_alpha   90.00000000
_cell_angle_beta   90.00000000
_cell_angle_gamma   120.00000000
_symmetry_Int_Tables_number   1
_chemical_formula_structural   Ti2O3
_chemical_formula_sum   'Ti12 O18'
_cell_volume   316.57184825
_cell_formula_units_Z   6
loop_
 _symmetry_equiv_pos_site_id
 _symmetry_equiv_pos_as_xyz
  1  'x, y, z'
loop_
 _atom_site_type_symbol
 _atom_site_label
 _atom_site_symmetry_multiplicity
 _atom_site_fract_x
 _atom_site_fract_y
 _atom_site_fract_z
 _atom_site_occupancy
  Ti  Ti0  1  0.66666667  0.33333333  0.17887333  1
  Ti  Ti1  1  0.00000000  0.00000000  0.15446000  1
  Ti  Ti2  1  0.33333333  0.66666667  0.01220667  1
  Ti  Ti3  1  0.33333333  0.66666667  0.32112667  1
  Ti  Ti4  1  0.33333333  0.66666667  0.51220667  1
  Ti  Ti5  1  0.66666667  0.33333333  0.48779333  1
  Ti  Ti6  1  0.00000000  0.00000000  0.34554000  1
  Ti  Ti7  1  0.00000000  0.00000000  0.65446000  1
  Ti  Ti8  1  0.00000000  0.00000000  0.84554000  1
  Ti  Ti9  1  0.33333333  0.66666667  0.82112667  1
  Ti  Ti10  1  0.66666667  0.33333333  0.67887333  1
  Ti  Ti11  1  0.66666667  0.33333333  0.98779333  1
  O  O12  1  0.97894467  0.64561133  0.08333333  1
  O  O13  1  0.66666667  0.02105533  0.08333333  1
  O  O14  1  0.35438867  0.33333333  0.08333333  1
  O  O15  1  0.68772200  0.68772200  0.25000000  1
  O  O16  1  0.00000000  0.31227800  0.25000000  1
  O  O17  1  0.31227800  1.00000000  0.25000000  1
  O  O18  1  0.64561133  0.97894467  0.41666667  1
  O  O19  1  0.33333333  0.35438867  0.41666667  1
  O  O20  1  0.02105533  0.66666667  0.41666667  1
  O  O21  1  0.35438867  0.02105533  0.58333333  1
  O  O22  1  0.66666667  0.64561133  0.58333333  1
  O  O23  1  0.97894467  0.33333333  0.58333333  1
  O  O24  1  0.31227800  0.31227800  0.75000000  1
  O  O25  1  0.00000000  0.68772200  0.75000000  1
  O  O26  1  0.68772200  0.00000000  0.75000000  1
  O  O27  1  0.02105533  0.35438867  0.91666667  1
  O  O28  1  0.33333333  0.97894467  0.91666667  1
  O  O29  1  0.64561133  0.66666667  0.91666667  1
