# generated using pymatgen
data_V(CrC)2
_symmetry_space_group_name_H-M   'P 1'
_cell_length_a   2.84608600
_cell_length_b   9.18038800
_cell_length_c   7.10046400
_cell_angle_alpha   90.00000000
_cell_angle_beta   90.00000000
_cell_angle_gamma   90.00000000
_symmetry_Int_Tables_number   1
_chemical_formula_structural   V(CrC)2
_chemical_formula_sum   'V4 Cr8 C8'
_cell_volume   185.52215718
_cell_formula_units_Z   4
loop_
 _symmetry_equiv_pos_site_id
 _symmetry_equiv_pos_as_xyz
  1  'x, y, z'
loop_
 _atom_site_type_symbol
 _atom_site_label
 _atom_site_symmetry_multiplicity
 _atom_site_fract_x
 _atom_site_fract_y
 _atom_site_fract_z
 _atom_site_occupancy
  V  V0  1  0.00000000  0.40413200  0.25000000  1
  V  V1  1  0.50000000  0.09586800  0.75000000  1
  V  V2  1  0.50000000  0.90413200  0.25000000  1
  V  V3  1  0.00000000  0.59586800  0.75000000  1
  Cr  Cr4  1  0.00000000  0.14074700  0.07172700  1
  Cr  Cr5  1  0.50000000  0.35925300  0.92827300  1
  Cr  Cr6  1  0.50000000  0.35925300  0.57172700  1
  Cr  Cr7  1  0.00000000  0.14074700  0.42827300  1
  Cr  Cr8  1  0.50000000  0.64074700  0.07172700  1
  Cr  Cr9  1  0.00000000  0.85925300  0.92827300  1
  Cr  Cr10  1  0.00000000  0.85925300  0.57172700  1
  Cr  Cr11  1  0.50000000  0.64074700  0.42827300  1
  C  C12  1  0.00000000  0.25049200  0.75000000  1
  C  C13  1  0.50000000  0.24950800  0.25000000  1
  C  C14  1  0.50000000  0.00000000  0.00000000  1
  C  C15  1  0.50000000  0.00000000  0.50000000  1
  C  C16  1  0.50000000  0.75049200  0.75000000  1
  C  C17  1  0.00000000  0.74950800  0.25000000  1
  C  C18  1  0.00000000  0.50000000  0.00000000  1
  C  C19  1  0.00000000  0.50000000  0.50000000  1
