# generated using pymatgen
data_CaAu2
_symmetry_space_group_name_H-M   'P 1'
_cell_length_a   4.68792600
_cell_length_b   7.13748200
_cell_length_c   8.30506000
_cell_angle_alpha   90.00000000
_cell_angle_beta   90.00000000
_cell_angle_gamma   90.00000000
_symmetry_Int_Tables_number   1
_chemical_formula_structural   CaAu2
_chemical_formula_sum   'Ca4 Au8'
_cell_volume   277.88720331
_cell_formula_units_Z   4
loop_
 _symmetry_equiv_pos_site_id
 _symmetry_equiv_pos_as_xyz
  1  'x, y, z'
loop_
 _atom_site_type_symbol
 _atom_site_label
 _atom_site_symmetry_multiplicity
 _atom_site_fract_x
 _atom_site_fract_y
 _atom_site_fract_z
 _atom_site_occupancy
  Ca  Ca0  1  0.00000000  0.25000000  0.46063700  1
  Ca  Ca1  1  0.00000000  0.75000000  0.53936300  1
  Ca  Ca2  1  0.50000000  0.75000000  0.96063700  1
  Ca  Ca3  1  0.50000000  0.25000000  0.03936300  1
  Au  Au4  1  0.50000000  0.96150800  0.33810500  1
  Au  Au5  1  0.50000000  0.03849200  0.66189500  1
  Au  Au6  1  0.00000000  0.03849200  0.83810500  1
  Au  Au7  1  0.00000000  0.96150800  0.16189500  1
  Au  Au8  1  0.00000000  0.46150800  0.83810500  1
  Au  Au9  1  0.00000000  0.53849200  0.16189500  1
  Au  Au10  1  0.50000000  0.53849200  0.33810500  1
  Au  Au11  1  0.50000000  0.46150800  0.66189500  1
