# generated using pymatgen
data_NaSi2Pd3
_symmetry_space_group_name_H-M   'P 1'
_cell_length_a   5.76913600
_cell_length_b   7.07547600
_cell_length_c   9.91969400
_cell_angle_alpha   90.00000000
_cell_angle_beta   90.00000000
_cell_angle_gamma   90.00000000
_symmetry_Int_Tables_number   1
_chemical_formula_structural   NaSi2Pd3
_chemical_formula_sum   'Na4 Si8 Pd12'
_cell_volume   404.91579169
_cell_formula_units_Z   4
loop_
 _symmetry_equiv_pos_site_id
 _symmetry_equiv_pos_as_xyz
  1  'x, y, z'
loop_
 _atom_site_type_symbol
 _atom_site_label
 _atom_site_symmetry_multiplicity
 _atom_site_fract_x
 _atom_site_fract_y
 _atom_site_fract_z
 _atom_site_occupancy
  Na  Na0  1  0.95566300  0.00000000  0.00000000  1
  Na  Na1  1  0.01902100  0.50000000  0.00000000  1
  Na  Na2  1  0.45566300  0.50000000  0.50000000  1
  Na  Na3  1  0.51902100  0.00000000  0.50000000  1
  Si  Si4  1  0.57161400  0.50000000  0.18910000  1
  Si  Si5  1  0.93891000  0.50000000  0.65733300  1
  Si  Si6  1  0.57161400  0.50000000  0.81090000  1
  Si  Si7  1  0.93891000  0.50000000  0.34266700  1
  Si  Si8  1  0.07161400  0.00000000  0.68910000  1
  Si  Si9  1  0.43891000  0.00000000  0.15733300  1
  Si  Si10  1  0.07161400  0.00000000  0.31090000  1
  Si  Si11  1  0.43891000  0.00000000  0.84266700  1
  Pd  Pd12  1  0.24642600  0.29904600  0.75079800  1
  Pd  Pd13  1  0.24642600  0.70095400  0.75079800  1
  Pd  Pd14  1  0.24642600  0.70095400  0.24920200  1
  Pd  Pd15  1  0.50178300  0.28151000  0.00000000  1
  Pd  Pd16  1  0.50178300  0.71849000  0.00000000  1
  Pd  Pd17  1  0.24642600  0.29904600  0.24920200  1
  Pd  Pd18  1  0.74642600  0.79904600  0.25079800  1
  Pd  Pd19  1  0.74642600  0.20095400  0.25079800  1
  Pd  Pd20  1  0.74642600  0.20095400  0.74920200  1
  Pd  Pd21  1  0.00178300  0.78151000  0.50000000  1
  Pd  Pd22  1  0.00178300  0.21849000  0.50000000  1
  Pd  Pd23  1  0.74642600  0.79904600  0.74920200  1
