# generated using pymatgen
data_TbCoSi2
_symmetry_space_group_name_H-M   'P 1'
_cell_length_a   4.04566600
_cell_length_b   16.19666200
_cell_length_c   3.99297600
_cell_angle_alpha   90.00000000
_cell_angle_beta   90.00000000
_cell_angle_gamma   90.00000000
_symmetry_Int_Tables_number   1
_chemical_formula_structural   TbCoSi2
_chemical_formula_sum   'Tb4 Co4 Si8'
_cell_volume   261.64488244
_cell_formula_units_Z   4
loop_
 _symmetry_equiv_pos_site_id
 _symmetry_equiv_pos_as_xyz
  1  'x, y, z'
loop_
 _atom_site_type_symbol
 _atom_site_label
 _atom_site_symmetry_multiplicity
 _atom_site_fract_x
 _atom_site_fract_y
 _atom_site_fract_z
 _atom_site_occupancy
  Tb  Tb0  1  0.50000000  0.39276800  0.75000000  1
  Tb  Tb1  1  0.00000000  0.10723200  0.25000000  1
  Tb  Tb2  1  0.00000000  0.89276800  0.75000000  1
  Tb  Tb3  1  0.50000000  0.60723200  0.25000000  1
  Co  Co4  1  0.00000000  0.32016200  0.25000000  1
  Co  Co5  1  0.50000000  0.17983800  0.75000000  1
  Co  Co6  1  0.50000000  0.82016200  0.25000000  1
  Co  Co7  1  0.00000000  0.67983800  0.75000000  1
  Si  Si8  1  0.00000000  0.24979300  0.75000000  1
  Si  Si9  1  0.50000000  0.25020700  0.25000000  1
  Si  Si10  1  0.00000000  0.45730500  0.25000000  1
  Si  Si11  1  0.50000000  0.04269500  0.75000000  1
  Si  Si12  1  0.50000000  0.74979300  0.75000000  1
  Si  Si13  1  0.00000000  0.75020700  0.25000000  1
  Si  Si14  1  0.50000000  0.95730500  0.25000000  1
  Si  Si15  1  0.00000000  0.54269500  0.75000000  1
