# generated using pymatgen
data_Y(CuGe)2
_symmetry_space_group_name_H-M   'P 1'
_cell_length_a   4.05335200
_cell_length_b   4.05335200
_cell_length_c   10.37355600
_cell_angle_alpha   90.00000000
_cell_angle_beta   90.00000000
_cell_angle_gamma   90.00000000
_symmetry_Int_Tables_number   1
_chemical_formula_structural   Y(CuGe)2
_chemical_formula_sum   'Y2 Cu4 Ge4'
_cell_volume   170.43402334
_cell_formula_units_Z   2
loop_
 _symmetry_equiv_pos_site_id
 _symmetry_equiv_pos_as_xyz
  1  'x, y, z'
loop_
 _atom_site_type_symbol
 _atom_site_label
 _atom_site_symmetry_multiplicity
 _atom_site_fract_x
 _atom_site_fract_y
 _atom_site_fract_z
 _atom_site_occupancy
  Y  Y0  1  0.00000000  0.00000000  0.00000000  1
  Y  Y1  1  0.50000000  0.50000000  0.50000000  1
  Cu  Cu2  1  0.00000000  0.50000000  0.25000000  1
  Cu  Cu3  1  0.50000000  0.00000000  0.25000000  1
  Cu  Cu4  1  0.50000000  0.00000000  0.75000000  1
  Cu  Cu5  1  0.00000000  0.50000000  0.75000000  1
  Ge  Ge6  1  0.50000000  0.50000000  0.11905600  1
  Ge  Ge7  1  0.00000000  0.00000000  0.38094400  1
  Ge  Ge8  1  0.00000000  0.00000000  0.61905600  1
  Ge  Ge9  1  0.50000000  0.50000000  0.88094400  1
