# generated using pymatgen
data_Pr(SiRu)2
_symmetry_space_group_name_H-M   'P 1'
_cell_length_a   4.23288400
_cell_length_b   4.23288400
_cell_length_c   9.90215600
_cell_angle_alpha   90.00000000
_cell_angle_beta   90.00000000
_cell_angle_gamma   90.00000000
_symmetry_Int_Tables_number   1
_chemical_formula_structural   Pr(SiRu)2
_chemical_formula_sum   'Pr2 Si4 Ru4'
_cell_volume   177.41996859
_cell_formula_units_Z   2
loop_
 _symmetry_equiv_pos_site_id
 _symmetry_equiv_pos_as_xyz
  1  'x, y, z'
loop_
 _atom_site_type_symbol
 _atom_site_label
 _atom_site_symmetry_multiplicity
 _atom_site_fract_x
 _atom_site_fract_y
 _atom_site_fract_z
 _atom_site_occupancy
  Pr  Pr0  1  0.00000000  0.00000000  0.00000000  1
  Pr  Pr1  1  0.50000000  0.50000000  0.50000000  1
  Si  Si2  1  0.50000000  0.50000000  0.13686800  1
  Si  Si3  1  0.00000000  0.00000000  0.36313200  1
  Si  Si4  1  0.00000000  0.00000000  0.63686800  1
  Si  Si5  1  0.50000000  0.50000000  0.86313200  1
  Ru  Ru6  1  0.50000000  0.00000000  0.25000000  1
  Ru  Ru7  1  0.00000000  0.50000000  0.25000000  1
  Ru  Ru8  1  0.00000000  0.50000000  0.75000000  1
  Ru  Ru9  1  0.50000000  0.00000000  0.75000000  1
