# generated using pymatgen
data_Yb(Al2Mo)2
_symmetry_space_group_name_H-M   'P 1'
_cell_length_a   6.77034600
_cell_length_b   6.77034600
_cell_length_c   5.34132200
_cell_angle_alpha   90.00000000
_cell_angle_beta   90.00000000
_cell_angle_gamma   90.00000000
_symmetry_Int_Tables_number   1
_chemical_formula_structural   Yb(Al2Mo)2
_chemical_formula_sum   'Yb2 Al8 Mo4'
_cell_volume   244.83330097
_cell_formula_units_Z   2
loop_
 _symmetry_equiv_pos_site_id
 _symmetry_equiv_pos_as_xyz
  1  'x, y, z'
loop_
 _atom_site_type_symbol
 _atom_site_label
 _atom_site_symmetry_multiplicity
 _atom_site_fract_x
 _atom_site_fract_y
 _atom_site_fract_z
 _atom_site_occupancy
  Yb  Yb0  1  0.00000000  0.00000000  0.00000000  1
  Yb  Yb1  1  0.50000000  0.50000000  0.50000000  1
  Al  Al2  1  0.80443150  0.80443150  0.50000000  1
  Al  Al3  1  0.69556850  0.30443150  0.00000000  1
  Al  Al4  1  0.80443150  0.19556850  0.50000000  1
  Al  Al5  1  0.69556850  0.69556850  0.00000000  1
  Al  Al6  1  0.30443150  0.30443150  0.00000000  1
  Al  Al7  1  0.19556850  0.80443150  0.50000000  1
  Al  Al8  1  0.30443150  0.69556850  0.00000000  1
  Al  Al9  1  0.19556850  0.19556850  0.50000000  1
  Mo  Mo10  1  0.50000000  0.00000000  0.75000000  1
  Mo  Mo11  1  0.50000000  0.00000000  0.25000000  1
  Mo  Mo12  1  0.00000000  0.50000000  0.25000000  1
  Mo  Mo13  1  0.00000000  0.50000000  0.75000000  1
