# generated using pymatgen
data_NdFeSi2
_symmetry_space_group_name_H-M   'P 1'
_cell_length_a   4.10378400
_cell_length_b   16.96072200
_cell_length_c   4.02874200
_cell_angle_alpha   90.00000000
_cell_angle_beta   90.00000000
_cell_angle_gamma   90.00000000
_symmetry_Int_Tables_number   1
_chemical_formula_structural   NdFeSi2
_chemical_formula_sum   'Nd4 Fe4 Si8'
_cell_volume   280.41309173
_cell_formula_units_Z   4
loop_
 _symmetry_equiv_pos_site_id
 _symmetry_equiv_pos_as_xyz
  1  'x, y, z'
loop_
 _atom_site_type_symbol
 _atom_site_label
 _atom_site_symmetry_multiplicity
 _atom_site_fract_x
 _atom_site_fract_y
 _atom_site_fract_z
 _atom_site_occupancy
  Nd  Nd0  1  0.50000000  0.39233000  0.75000000  1
  Nd  Nd1  1  0.00000000  0.10767000  0.25000000  1
  Nd  Nd2  1  0.00000000  0.89233000  0.75000000  1
  Nd  Nd3  1  0.50000000  0.60767000  0.25000000  1
  Fe  Fe4  1  0.50000000  0.24967300  0.25000000  1
  Fe  Fe5  1  0.00000000  0.25032700  0.75000000  1
  Fe  Fe6  1  0.00000000  0.74967300  0.25000000  1
  Fe  Fe7  1  0.50000000  0.75032700  0.75000000  1
  Si  Si8  1  0.50000000  0.18919100  0.75000000  1
  Si  Si9  1  0.00000000  0.31080900  0.25000000  1
  Si  Si10  1  0.00000000  0.46211600  0.25000000  1
  Si  Si11  1  0.50000000  0.03788400  0.75000000  1
  Si  Si12  1  0.00000000  0.68919100  0.75000000  1
  Si  Si13  1  0.50000000  0.81080900  0.25000000  1
  Si  Si14  1  0.50000000  0.96211600  0.25000000  1
  Si  Si15  1  0.00000000  0.53788400  0.75000000  1
