# generated using pymatgen
data_LaSi2Pt
_symmetry_space_group_name_H-M   'P 1'
_cell_length_a   4.37884800
_cell_length_b   16.93162000
_cell_length_c   4.28708200
_cell_angle_alpha   90.00000000
_cell_angle_beta   90.00000000
_cell_angle_gamma   90.00000000
_symmetry_Int_Tables_number   1
_chemical_formula_structural   LaSi2Pt
_chemical_formula_sum   'La4 Si8 Pt4'
_cell_volume   317.84850529
_cell_formula_units_Z   4
loop_
 _symmetry_equiv_pos_site_id
 _symmetry_equiv_pos_as_xyz
  1  'x, y, z'
loop_
 _atom_site_type_symbol
 _atom_site_label
 _atom_site_symmetry_multiplicity
 _atom_site_fract_x
 _atom_site_fract_y
 _atom_site_fract_z
 _atom_site_occupancy
  La  La0  1  0.50000000  0.39398900  0.75000000  1
  La  La1  1  0.00000000  0.10601100  0.25000000  1
  La  La2  1  0.00000000  0.89398900  0.75000000  1
  La  La3  1  0.50000000  0.60601100  0.25000000  1
  Si  Si4  1  0.00000000  0.24922000  0.75000000  1
  Si  Si5  1  0.50000000  0.25078000  0.25000000  1
  Si  Si6  1  0.00000000  0.46375400  0.25000000  1
  Si  Si7  1  0.50000000  0.03624600  0.75000000  1
  Si  Si8  1  0.50000000  0.74922000  0.75000000  1
  Si  Si9  1  0.00000000  0.75078000  0.25000000  1
  Si  Si10  1  0.50000000  0.96375400  0.25000000  1
  Si  Si11  1  0.00000000  0.53624600  0.75000000  1
  Pt  Pt12  1  0.00000000  0.31960300  0.25000000  1
  Pt  Pt13  1  0.50000000  0.18039700  0.75000000  1
  Pt  Pt14  1  0.50000000  0.81960300  0.25000000  1
  Pt  Pt15  1  0.00000000  0.68039700  0.75000000  1
