# generated using pymatgen
data_Sr2IrO4
_symmetry_space_group_name_H-M   'P 1'
_cell_length_a   5.52416800
_cell_length_b   5.52416800
_cell_length_c   26.23898000
_cell_angle_alpha   90.00000000
_cell_angle_beta   90.00000000
_cell_angle_gamma   90.00000000
_symmetry_Int_Tables_number   1
_chemical_formula_structural   Sr2IrO4
_chemical_formula_sum   'Sr16 Ir8 O32'
_cell_volume   800.72005134
_cell_formula_units_Z   8
loop_
 _symmetry_equiv_pos_site_id
 _symmetry_equiv_pos_as_xyz
  1  'x, y, z'
loop_
 _atom_site_type_symbol
 _atom_site_label
 _atom_site_symmetry_multiplicity
 _atom_site_fract_x
 _atom_site_fract_y
 _atom_site_fract_z
 _atom_site_occupancy
  Sr  Sr0  1  0.00000000  0.50000000  0.42519100  1
  Sr  Sr1  1  0.00000000  0.00000000  0.17519100  1
  Sr  Sr2  1  0.00000000  0.00000000  0.32480900  1
  Sr  Sr3  1  0.50000000  0.00000000  0.07480900  1
  Sr  Sr4  1  0.50000000  0.50000000  0.17519100  1
  Sr  Sr5  1  0.50000000  0.00000000  0.42519100  1
  Sr  Sr6  1  0.00000000  0.50000000  0.07480900  1
  Sr  Sr7  1  0.50000000  0.50000000  0.32480900  1
  Sr  Sr8  1  0.50000000  0.00000000  0.92519100  1
  Sr  Sr9  1  0.50000000  0.50000000  0.67519100  1
  Sr  Sr10  1  0.50000000  0.50000000  0.82480900  1
  Sr  Sr11  1  0.00000000  0.50000000  0.57480900  1
  Sr  Sr12  1  0.00000000  0.00000000  0.67519100  1
  Sr  Sr13  1  0.00000000  0.50000000  0.92519100  1
  Sr  Sr14  1  0.50000000  0.00000000  0.57480900  1
  Sr  Sr15  1  0.00000000  0.00000000  0.82480900  1
  Ir  Ir16  1  0.50000000  0.00000000  0.25000000  1
  Ir  Ir17  1  0.50000000  0.50000000  0.00000000  1
  Ir  Ir18  1  0.00000000  0.00000000  0.00000000  1
  Ir  Ir19  1  0.00000000  0.50000000  0.25000000  1
  Ir  Ir20  1  0.00000000  0.50000000  0.75000000  1
  Ir  Ir21  1  0.00000000  0.00000000  0.50000000  1
  Ir  Ir22  1  0.50000000  0.50000000  0.50000000  1
  Ir  Ir23  1  0.50000000  0.00000000  0.75000000  1
  O  O24  1  0.50000000  0.50000000  0.07970900  1
  O  O25  1  0.50000000  0.00000000  0.32970900  1
  O  O26  1  0.00000000  0.50000000  0.17029100  1
  O  O27  1  0.50000000  0.50000000  0.42029100  1
  O  O28  1  0.50000000  0.00000000  0.17029100  1
  O  O29  1  0.00000000  0.00000000  0.42029100  1
  O  O30  1  0.00000000  0.00000000  0.07970900  1
  O  O31  1  0.00000000  0.50000000  0.32970900  1
  O  O32  1  0.31054300  0.68945700  0.25000000  1
  O  O33  1  0.81054300  0.31054300  0.00000000  1
  O  O34  1  0.18945700  0.68945700  0.00000000  1
  O  O35  1  0.68945700  0.31054300  0.25000000  1
  O  O36  1  0.31054300  0.18945700  0.00000000  1
  O  O37  1  0.81054300  0.81054300  0.25000000  1
  O  O38  1  0.18945700  0.18945700  0.25000000  1
  O  O39  1  0.68945700  0.81054300  0.00000000  1
  O  O40  1  0.00000000  0.00000000  0.57970900  1
  O  O41  1  0.00000000  0.50000000  0.82970900  1
  O  O42  1  0.50000000  0.00000000  0.67029100  1
  O  O43  1  0.00000000  0.00000000  0.92029100  1
  O  O44  1  0.00000000  0.50000000  0.67029100  1
  O  O45  1  0.50000000  0.50000000  0.92029100  1
  O  O46  1  0.50000000  0.50000000  0.57970900  1
  O  O47  1  0.50000000  0.00000000  0.82970900  1
  O  O48  1  0.81054300  0.18945700  0.75000000  1
  O  O49  1  0.31054300  0.81054300  0.50000000  1
  O  O50  1  0.68945700  0.18945700  0.50000000  1
  O  O51  1  0.18945700  0.81054300  0.75000000  1
  O  O52  1  0.81054300  0.68945700  0.50000000  1
  O  O53  1  0.31054300  0.31054300  0.75000000  1
  O  O54  1  0.68945700  0.68945700  0.75000000  1
  O  O55  1  0.18945700  0.31054300  0.50000000  1
