# generated using pymatgen
data_Co2B
_symmetry_space_group_name_H-M   'P 1'
_cell_length_a   4.94692000
_cell_length_b   4.94692000
_cell_length_c   4.26715400
_cell_angle_alpha   90.00000000
_cell_angle_beta   90.00000000
_cell_angle_gamma   90.00000000
_symmetry_Int_Tables_number   1
_chemical_formula_structural   Co2B
_chemical_formula_sum   'Co8 B4'
_cell_volume   104.42586731
_cell_formula_units_Z   4
loop_
 _symmetry_equiv_pos_site_id
 _symmetry_equiv_pos_as_xyz
  1  'x, y, z'
loop_
 _atom_site_type_symbol
 _atom_site_label
 _atom_site_symmetry_multiplicity
 _atom_site_fract_x
 _atom_site_fract_y
 _atom_site_fract_z
 _atom_site_occupancy
  Co  Co0  1  0.66796750  0.16796750  0.00000000  1
  Co  Co1  1  0.83203250  0.33203250  0.50000000  1
  Co  Co2  1  0.33203250  0.16796750  0.50000000  1
  Co  Co3  1  0.16796750  0.33203250  0.00000000  1
  Co  Co4  1  0.16796750  0.66796750  0.50000000  1
  Co  Co5  1  0.33203250  0.83203250  0.00000000  1
  Co  Co6  1  0.83203250  0.66796750  0.00000000  1
  Co  Co7  1  0.66796750  0.83203250  0.50000000  1
  B  B8  1  0.00000000  0.00000000  0.75000000  1
  B  B9  1  0.00000000  0.00000000  0.25000000  1
  B  B10  1  0.50000000  0.50000000  0.25000000  1
  B  B11  1  0.50000000  0.50000000  0.75000000  1
