# generated using pymatgen
data_SiB2Mo5
_symmetry_space_group_name_H-M   'P 1'
_cell_length_a   6.05326200
_cell_length_b   6.05326200
_cell_length_c   11.15948200
_cell_angle_alpha   90.00000000
_cell_angle_beta   90.00000000
_cell_angle_gamma   90.00000000
_symmetry_Int_Tables_number   1
_chemical_formula_structural   SiB2Mo5
_chemical_formula_sum   'Si4 B8 Mo20'
_cell_volume   408.90552564
_cell_formula_units_Z   4
loop_
 _symmetry_equiv_pos_site_id
 _symmetry_equiv_pos_as_xyz
  1  'x, y, z'
loop_
 _atom_site_type_symbol
 _atom_site_label
 _atom_site_symmetry_multiplicity
 _atom_site_fract_x
 _atom_site_fract_y
 _atom_site_fract_z
 _atom_site_occupancy
  Si  Si0  1  0.50000000  0.50000000  0.25000000  1
  Si  Si1  1  0.00000000  0.00000000  0.25000000  1
  Si  Si2  1  0.00000000  0.00000000  0.75000000  1
  Si  Si3  1  0.50000000  0.50000000  0.75000000  1
  B  B4  1  0.37904850  0.87904850  0.50000000  1
  B  B5  1  0.62095150  0.87904850  0.00000000  1
  B  B6  1  0.12095150  0.62095150  0.00000000  1
  B  B7  1  0.37904850  0.12095150  0.00000000  1
  B  B8  1  0.87904850  0.37904850  0.00000000  1
  B  B9  1  0.12095150  0.37904850  0.50000000  1
  B  B10  1  0.62095150  0.12095150  0.50000000  1
  B  B11  1  0.87904850  0.62095150  0.50000000  1
  Mo  Mo12  1  0.00000000  0.00000000  0.00000000  1
  Mo  Mo13  1  0.83595050  0.66404950  0.13975850  1
  Mo  Mo14  1  0.66404950  0.16404950  0.13975850  1
  Mo  Mo15  1  0.66404950  0.83595050  0.36024150  1
  Mo  Mo16  1  0.33595050  0.16404950  0.36024150  1
  Mo  Mo17  1  0.16404950  0.66404950  0.36024150  1
  Mo  Mo18  1  0.83595050  0.33595050  0.36024150  1
  Mo  Mo19  1  0.33595050  0.83595050  0.13975850  1
  Mo  Mo20  1  0.50000000  0.50000000  0.00000000  1
  Mo  Mo21  1  0.16404950  0.33595050  0.13975850  1
  Mo  Mo22  1  0.50000000  0.50000000  0.50000000  1
  Mo  Mo23  1  0.33595050  0.16404950  0.63975850  1
  Mo  Mo24  1  0.16404950  0.66404950  0.63975850  1
  Mo  Mo25  1  0.16404950  0.33595050  0.86024150  1
  Mo  Mo26  1  0.83595050  0.66404950  0.86024150  1
  Mo  Mo27  1  0.66404950  0.16404950  0.86024150  1
  Mo  Mo28  1  0.33595050  0.83595050  0.86024150  1
  Mo  Mo29  1  0.83595050  0.33595050  0.63975850  1
  Mo  Mo30  1  0.00000000  0.00000000  0.50000000  1
  Mo  Mo31  1  0.66404950  0.83595050  0.63975850  1
