# generated using pymatgen
data_PrScGe
_symmetry_space_group_name_H-M   'P 1'
_cell_length_a   4.34528400
_cell_length_b   4.34528400
_cell_length_c   16.12945800
_cell_angle_alpha   90.00000000
_cell_angle_beta   90.00000000
_cell_angle_gamma   90.00000000
_symmetry_Int_Tables_number   1
_chemical_formula_structural   PrScGe
_chemical_formula_sum   'Pr4 Sc4 Ge4'
_cell_volume   304.54824898
_cell_formula_units_Z   4
loop_
 _symmetry_equiv_pos_site_id
 _symmetry_equiv_pos_as_xyz
  1  'x, y, z'
loop_
 _atom_site_type_symbol
 _atom_site_label
 _atom_site_symmetry_multiplicity
 _atom_site_fract_x
 _atom_site_fract_y
 _atom_site_fract_z
 _atom_site_occupancy
  Pr  Pr0  1  0.50000000  0.50000000  0.17644600  1
  Pr  Pr1  1  0.00000000  0.00000000  0.32355400  1
  Pr  Pr2  1  0.00000000  0.00000000  0.67644600  1
  Pr  Pr3  1  0.50000000  0.50000000  0.82355400  1
  Sc  Sc4  1  0.00000000  0.50000000  0.00000000  1
  Sc  Sc5  1  0.50000000  0.00000000  0.00000000  1
  Sc  Sc6  1  0.50000000  0.00000000  0.50000000  1
  Sc  Sc7  1  0.00000000  0.50000000  0.50000000  1
  Ge  Ge8  1  0.00000000  0.00000000  0.12168600  1
  Ge  Ge9  1  0.50000000  0.50000000  0.37831400  1
  Ge  Ge10  1  0.50000000  0.50000000  0.62168600  1
  Ge  Ge11  1  0.00000000  0.00000000  0.87831400  1
