# generated using pymatgen
data_V4GaS8
_symmetry_space_group_name_H-M   'P 1'
_cell_length_a   9.72955600
_cell_length_b   9.72955600
_cell_length_c   9.72955600
_cell_angle_alpha   90.00000000
_cell_angle_beta   90.00000000
_cell_angle_gamma   90.00000000
_symmetry_Int_Tables_number   1
_chemical_formula_structural   V4GaS8
_chemical_formula_sum   'V16 Ga4 S32'
_cell_volume   921.04121845
_cell_formula_units_Z   4
loop_
 _symmetry_equiv_pos_site_id
 _symmetry_equiv_pos_as_xyz
  1  'x, y, z'
loop_
 _atom_site_type_symbol
 _atom_site_label
 _atom_site_symmetry_multiplicity
 _atom_site_fract_x
 _atom_site_fract_y
 _atom_site_fract_z
 _atom_site_occupancy
  V  V0  1  0.89408133  0.39408133  0.89408133  1
  V  V1  1  0.39408133  0.10591867  0.10591867  1
  V  V2  1  0.60591867  0.10591867  0.89408133  1
  V  V3  1  0.10591867  0.39408133  0.10591867  1
  V  V4  1  0.89408133  0.89408133  0.39408133  1
  V  V5  1  0.39408133  0.60591867  0.60591867  1
  V  V6  1  0.60591867  0.60591867  0.39408133  1
  V  V7  1  0.10591867  0.89408133  0.60591867  1
  V  V8  1  0.39408133  0.39408133  0.39408133  1
  V  V9  1  0.89408133  0.10591867  0.60591867  1
  V  V10  1  0.10591867  0.10591867  0.39408133  1
  V  V11  1  0.60591867  0.39408133  0.60591867  1
  V  V12  1  0.39408133  0.89408133  0.89408133  1
  V  V13  1  0.89408133  0.60591867  0.10591867  1
  V  V14  1  0.10591867  0.60591867  0.89408133  1
  V  V15  1  0.60591867  0.89408133  0.10591867  1
  Ga  Ga16  1  0.00000000  0.00000000  0.00000000  1
  Ga  Ga17  1  0.00000000  0.50000000  0.50000000  1
  Ga  Ga18  1  0.50000000  0.00000000  0.50000000  1
  Ga  Ga19  1  0.50000000  0.50000000  0.00000000  1
  S  S20  1  0.13664800  0.13664800  0.13664800  1
  S  S21  1  0.13664800  0.36335200  0.36335200  1
  S  S22  1  0.36335200  0.36335200  0.13664800  1
  S  S23  1  0.36335200  0.13664800  0.36335200  1
  S  S24  1  0.62887767  0.12887767  0.12887767  1
  S  S25  1  0.37112233  0.12887767  0.87112233  1
  S  S26  1  0.87112233  0.37112233  0.12887767  1
  S  S27  1  0.12887767  0.37112233  0.87112233  1
  S  S28  1  0.13664800  0.63664800  0.63664800  1
  S  S29  1  0.13664800  0.86335200  0.86335200  1
  S  S30  1  0.36335200  0.86335200  0.63664800  1
  S  S31  1  0.36335200  0.63664800  0.86335200  1
  S  S32  1  0.62887767  0.62887767  0.62887767  1
  S  S33  1  0.37112233  0.62887767  0.37112233  1
  S  S34  1  0.87112233  0.87112233  0.62887767  1
  S  S35  1  0.12887767  0.87112233  0.37112233  1
  S  S36  1  0.63664800  0.13664800  0.63664800  1
  S  S37  1  0.63664800  0.36335200  0.86335200  1
  S  S38  1  0.86335200  0.36335200  0.63664800  1
  S  S39  1  0.86335200  0.13664800  0.86335200  1
  S  S40  1  0.12887767  0.12887767  0.62887767  1
  S  S41  1  0.87112233  0.12887767  0.37112233  1
  S  S42  1  0.37112233  0.37112233  0.62887767  1
  S  S43  1  0.62887767  0.37112233  0.37112233  1
  S  S44  1  0.63664800  0.63664800  0.13664800  1
  S  S45  1  0.63664800  0.86335200  0.36335200  1
  S  S46  1  0.86335200  0.86335200  0.13664800  1
  S  S47  1  0.86335200  0.63664800  0.36335200  1
  S  S48  1  0.12887767  0.62887767  0.12887767  1
  S  S49  1  0.87112233  0.62887767  0.87112233  1
  S  S50  1  0.37112233  0.87112233  0.12887767  1
  S  S51  1  0.62887767  0.87112233  0.87112233  1
