# generated using pymatgen
data_Li2RuO3
_symmetry_space_group_name_H-M   'P 1'
_cell_length_a   5.11088000
_cell_length_b   8.84026200
_cell_length_c   5.20240245
_cell_angle_alpha   90.00000000
_cell_angle_beta   109.10203731
_cell_angle_gamma   90.00000000
_symmetry_Int_Tables_number   1
_chemical_formula_structural   Li2RuO3
_chemical_formula_sum   'Li8 Ru4 O12'
_cell_volume   222.10981355
_cell_formula_units_Z   4
loop_
 _symmetry_equiv_pos_site_id
 _symmetry_equiv_pos_as_xyz
  1  'x, y, z'
loop_
 _atom_site_type_symbol
 _atom_site_label
 _atom_site_symmetry_multiplicity
 _atom_site_fract_x
 _atom_site_fract_y
 _atom_site_fract_z
 _atom_site_occupancy
  Li  Li0  1  0.50000000  0.16083600  0.50000000  1
  Li  Li1  1  0.00000000  0.00000000  0.50000000  1
  Li  Li2  1  0.50000000  0.83916400  0.50000000  1
  Li  Li3  1  0.50000000  0.00000000  0.00000000  1
  Li  Li4  1  0.00000000  0.66083600  0.50000000  1
  Li  Li5  1  0.50000000  0.50000000  0.50000000  1
  Li  Li6  1  0.00000000  0.33916400  0.50000000  1
  Li  Li7  1  0.00000000  0.50000000  0.00000000  1
  Ru  Ru8  1  0.50000000  0.66648500  0.00000000  1
  Ru  Ru9  1  0.50000000  0.33351500  0.00000000  1
  Ru  Ru10  1  0.00000000  0.16648500  0.00000000  1
  Ru  Ru11  1  0.00000000  0.83351500  0.00000000  1
  O  O12  1  0.23516100  0.00000000  0.23828000  1
  O  O13  1  0.75043000  0.17208100  0.23557800  1
  O  O14  1  0.76483900  0.00000000  0.76172000  1
  O  O15  1  0.24957000  0.17208100  0.76442200  1
  O  O16  1  0.75043000  0.82791900  0.23557800  1
  O  O17  1  0.24957000  0.82791900  0.76442200  1
  O  O18  1  0.73516100  0.50000000  0.23828000  1
  O  O19  1  0.25043000  0.67208100  0.23557800  1
  O  O20  1  0.26483900  0.50000000  0.76172000  1
  O  O21  1  0.74957000  0.67208100  0.76442200  1
  O  O22  1  0.25043000  0.32791900  0.23557800  1
  O  O23  1  0.74957000  0.32791900  0.76442200  1
