# generated using pymatgen
data_Ni(RhSe2)2
_symmetry_space_group_name_H-M   'P 1'
_cell_length_a   12.30766600
_cell_length_b   3.72856400
_cell_length_c   6.39801737
_cell_angle_alpha   90.00000000
_cell_angle_beta   119.30026262
_cell_angle_gamma   90.00000000
_symmetry_Int_Tables_number   1
_chemical_formula_structural   Ni(RhSe2)2
_chemical_formula_sum   'Ni2 Rh4 Se8'
_cell_volume   256.04281071
_cell_formula_units_Z   2
loop_
 _symmetry_equiv_pos_site_id
 _symmetry_equiv_pos_as_xyz
  1  'x, y, z'
loop_
 _atom_site_type_symbol
 _atom_site_label
 _atom_site_symmetry_multiplicity
 _atom_site_fract_x
 _atom_site_fract_y
 _atom_site_fract_z
 _atom_site_occupancy
  Ni  Ni0  1  0.00000000  0.00000000  0.00000000  1
  Ni  Ni1  1  0.50000000  0.50000000  0.00000000  1
  Rh  Rh2  1  0.26397600  0.00000000  0.28286100  1
  Rh  Rh3  1  0.23602400  0.50000000  0.71713900  1
  Rh  Rh4  1  0.76397600  0.50000000  0.28286100  1
  Rh  Rh5  1  0.73602400  0.00000000  0.71713900  1
  Se  Se6  1  0.36834700  0.00000000  0.02178200  1
  Se  Se7  1  0.13165300  0.50000000  0.97821800  1
  Se  Se8  1  0.11572800  0.00000000  0.44842400  1
  Se  Se9  1  0.38427200  0.50000000  0.55157600  1
  Se  Se10  1  0.86834700  0.50000000  0.02178200  1
  Se  Se11  1  0.63165300  0.00000000  0.97821800  1
  Se  Se12  1  0.61572800  0.50000000  0.44842400  1
  Se  Se13  1  0.88427200  0.00000000  0.55157600  1
