# generated using pymatgen
data_V(MoS2)2
_symmetry_space_group_name_H-M   'P 1'
_cell_length_a   12.80225400
_cell_length_b   3.22698400
_cell_length_c   6.04221678
_cell_angle_alpha   90.00000000
_cell_angle_beta   114.32282962
_cell_angle_gamma   90.00000000
_symmetry_Int_Tables_number   1
_chemical_formula_structural   V(MoS2)2
_chemical_formula_sum   'V2 Mo4 S8'
_cell_volume   227.46362983
_cell_formula_units_Z   2
loop_
 _symmetry_equiv_pos_site_id
 _symmetry_equiv_pos_as_xyz
  1  'x, y, z'
loop_
 _atom_site_type_symbol
 _atom_site_label
 _atom_site_symmetry_multiplicity
 _atom_site_fract_x
 _atom_site_fract_y
 _atom_site_fract_z
 _atom_site_occupancy
  V  V0  1  0.00000000  0.00000000  0.00000000  1
  V  V1  1  0.50000000  0.50000000  0.00000000  1
  Mo  Mo2  1  0.25855400  0.00000000  0.31546900  1
  Mo  Mo3  1  0.24144600  0.50000000  0.68453100  1
  Mo  Mo4  1  0.75855400  0.50000000  0.31546900  1
  Mo  Mo5  1  0.74144600  0.00000000  0.68453100  1
  S  S6  1  0.39523500  0.50000000  0.55977200  1
  S  S7  1  0.13649200  0.50000000  0.97248400  1
  S  S8  1  0.36350800  0.00000000  0.02751600  1
  S  S9  1  0.10476500  0.00000000  0.44022800  1
  S  S10  1  0.89523500  0.00000000  0.55977200  1
  S  S11  1  0.63649200  0.00000000  0.97248400  1
  S  S12  1  0.86350800  0.50000000  0.02751600  1
  S  S13  1  0.60476500  0.50000000  0.44022800  1
