# generated using pymatgen
data_Pd3S
_symmetry_space_group_name_H-M   'P 1'
_cell_length_a   5.42594800
_cell_length_b   7.46700000
_cell_length_c   6.37443000
_cell_angle_alpha   90.00000000
_cell_angle_beta   90.00000000
_cell_angle_gamma   90.00000000
_symmetry_Int_Tables_number   1
_chemical_formula_structural   Pd3S
_chemical_formula_sum   'Pd12 S4'
_cell_volume   258.26356107
_cell_formula_units_Z   4
loop_
 _symmetry_equiv_pos_site_id
 _symmetry_equiv_pos_as_xyz
  1  'x, y, z'
loop_
 _atom_site_type_symbol
 _atom_site_label
 _atom_site_symmetry_multiplicity
 _atom_site_fract_x
 _atom_site_fract_y
 _atom_site_fract_z
 _atom_site_occupancy
  Pd  Pd0  1  0.34686700  0.69567700  0.75000000  1
  Pd  Pd1  1  0.34686700  0.30432300  0.75000000  1
  Pd  Pd2  1  0.50000000  0.00000000  0.00000000  1
  Pd  Pd3  1  0.50000000  0.00000000  0.50000000  1
  Pd  Pd4  1  0.65313300  0.69567700  0.25000000  1
  Pd  Pd5  1  0.65313300  0.30432300  0.25000000  1
  Pd  Pd6  1  0.84686700  0.19567700  0.75000000  1
  Pd  Pd7  1  0.84686700  0.80432300  0.75000000  1
  Pd  Pd8  1  0.00000000  0.50000000  0.00000000  1
  Pd  Pd9  1  0.00000000  0.50000000  0.50000000  1
  Pd  Pd10  1  0.15313300  0.19567700  0.25000000  1
  Pd  Pd11  1  0.15313300  0.80432300  0.25000000  1
  S  S12  1  0.81086200  0.00000000  0.25000000  1
  S  S13  1  0.18913800  0.00000000  0.75000000  1
  S  S14  1  0.31086200  0.50000000  0.25000000  1
  S  S15  1  0.68913800  0.50000000  0.75000000  1
