# generated using pymatgen
data_BaRh2
_symmetry_space_group_name_H-M   'P 1'
_cell_length_a   7.97095000
_cell_length_b   7.97095000
_cell_length_c   7.97095000
_cell_angle_alpha   90.00000000
_cell_angle_beta   90.00000000
_cell_angle_gamma   90.00000000
_symmetry_Int_Tables_number   1
_chemical_formula_structural   BaRh2
_chemical_formula_sum   'Ba8 Rh16'
_cell_volume   506.44262914
_cell_formula_units_Z   8
loop_
 _symmetry_equiv_pos_site_id
 _symmetry_equiv_pos_as_xyz
  1  'x, y, z'
loop_
 _atom_site_type_symbol
 _atom_site_label
 _atom_site_symmetry_multiplicity
 _atom_site_fract_x
 _atom_site_fract_y
 _atom_site_fract_z
 _atom_site_occupancy
  Ba  Ba0  1  0.25000000  0.25000000  0.25000000  1
  Ba  Ba1  1  0.50000000  0.00000000  0.50000000  1
  Ba  Ba2  1  0.25000000  0.75000000  0.75000000  1
  Ba  Ba3  1  0.50000000  0.50000000  0.00000000  1
  Ba  Ba4  1  0.75000000  0.25000000  0.75000000  1
  Ba  Ba5  1  0.00000000  0.00000000  0.00000000  1
  Ba  Ba6  1  0.75000000  0.75000000  0.25000000  1
  Ba  Ba7  1  0.00000000  0.50000000  0.50000000  1
  Rh  Rh8  1  0.12500000  0.62500000  0.12500000  1
  Rh  Rh9  1  0.12500000  0.87500000  0.37500000  1
  Rh  Rh10  1  0.37500000  0.62500000  0.37500000  1
  Rh  Rh11  1  0.37500000  0.87500000  0.12500000  1
  Rh  Rh12  1  0.12500000  0.12500000  0.62500000  1
  Rh  Rh13  1  0.12500000  0.37500000  0.87500000  1
  Rh  Rh14  1  0.37500000  0.12500000  0.87500000  1
  Rh  Rh15  1  0.37500000  0.37500000  0.62500000  1
  Rh  Rh16  1  0.62500000  0.62500000  0.62500000  1
  Rh  Rh17  1  0.62500000  0.87500000  0.87500000  1
  Rh  Rh18  1  0.87500000  0.62500000  0.87500000  1
  Rh  Rh19  1  0.87500000  0.87500000  0.62500000  1
  Rh  Rh20  1  0.62500000  0.12500000  0.12500000  1
  Rh  Rh21  1  0.62500000  0.37500000  0.37500000  1
  Rh  Rh22  1  0.87500000  0.12500000  0.37500000  1
  Rh  Rh23  1  0.87500000  0.37500000  0.12500000  1
