# generated using pymatgen
data_DyC2
_symmetry_space_group_name_H-M   'P 1'
_cell_length_a   3.67062000
_cell_length_b   3.67062000
_cell_length_c   6.21465400
_cell_angle_alpha   90.00000000
_cell_angle_beta   90.00000000
_cell_angle_gamma   90.00000000
_symmetry_Int_Tables_number   1
_chemical_formula_structural   DyC2
_chemical_formula_sum   'Dy2 C4'
_cell_volume   83.73283730
_cell_formula_units_Z   2
loop_
 _symmetry_equiv_pos_site_id
 _symmetry_equiv_pos_as_xyz
  1  'x, y, z'
loop_
 _atom_site_type_symbol
 _atom_site_label
 _atom_site_symmetry_multiplicity
 _atom_site_fract_x
 _atom_site_fract_y
 _atom_site_fract_z
 _atom_site_occupancy
  Dy  Dy0  1  0.00000000  0.00000000  0.00000000  1
  Dy  Dy1  1  0.50000000  0.50000000  0.50000000  1
  C  C2  1  0.00000000  0.00000000  0.39514100  1
  C  C3  1  0.50000000  0.50000000  0.10485900  1
  C  C4  1  0.50000000  0.50000000  0.89514100  1
  C  C5  1  0.00000000  0.00000000  0.60485900  1
