# generated using pymatgen
data_Ce(SiAg)2
_symmetry_space_group_name_H-M   'P 1'
_cell_length_a   4.23903600
_cell_length_b   4.23903600
_cell_length_c   10.73359200
_cell_angle_alpha   90.00000000
_cell_angle_beta   90.00000000
_cell_angle_gamma   90.00000000
_symmetry_Int_Tables_number   1
_chemical_formula_structural   Ce(SiAg)2
_chemical_formula_sum   'Ce2 Si4 Ag4'
_cell_volume   192.87648940
_cell_formula_units_Z   2
loop_
 _symmetry_equiv_pos_site_id
 _symmetry_equiv_pos_as_xyz
  1  'x, y, z'
loop_
 _atom_site_type_symbol
 _atom_site_label
 _atom_site_symmetry_multiplicity
 _atom_site_fract_x
 _atom_site_fract_y
 _atom_site_fract_z
 _atom_site_occupancy
  Ce  Ce0  1  0.00000000  0.00000000  0.00000000  1
  Ce  Ce1  1  0.50000000  0.50000000  0.50000000  1
  Si  Si2  1  0.50000000  0.50000000  0.10785000  1
  Si  Si3  1  0.00000000  0.00000000  0.39215000  1
  Si  Si4  1  0.00000000  0.00000000  0.60785000  1
  Si  Si5  1  0.50000000  0.50000000  0.89215000  1
  Ag  Ag6  1  0.50000000  0.00000000  0.25000000  1
  Ag  Ag7  1  0.00000000  0.50000000  0.25000000  1
  Ag  Ag8  1  0.00000000  0.50000000  0.75000000  1
  Ag  Ag9  1  0.50000000  0.00000000  0.75000000  1
