# generated using pymatgen
data_TiGa2
_symmetry_space_group_name_H-M   'P 1'
_cell_length_a   3.93505600
_cell_length_b   3.93505600
_cell_length_c   24.44013400
_cell_angle_alpha   90.00000000
_cell_angle_beta   90.00000000
_cell_angle_gamma   90.00000000
_symmetry_Int_Tables_number   1
_chemical_formula_structural   TiGa2
_chemical_formula_sum   'Ti8 Ga16'
_cell_volume   378.44730522
_cell_formula_units_Z   8
loop_
 _symmetry_equiv_pos_site_id
 _symmetry_equiv_pos_as_xyz
  1  'x, y, z'
loop_
 _atom_site_type_symbol
 _atom_site_label
 _atom_site_symmetry_multiplicity
 _atom_site_fract_x
 _atom_site_fract_y
 _atom_site_fract_z
 _atom_site_occupancy
  Ti  Ti0  1  0.50000000  0.00000000  0.32610200  1
  Ti  Ti1  1  0.50000000  0.00000000  0.17389800  1
  Ti  Ti2  1  0.50000000  0.50000000  0.07610200  1
  Ti  Ti3  1  0.00000000  0.00000000  0.42389800  1
  Ti  Ti4  1  0.00000000  0.50000000  0.82610200  1
  Ti  Ti5  1  0.00000000  0.50000000  0.67389800  1
  Ti  Ti6  1  0.00000000  0.00000000  0.57610200  1
  Ti  Ti7  1  0.50000000  0.50000000  0.92389800  1
  Ga  Ga8  1  0.00000000  0.00000000  0.08823100  1
  Ga  Ga9  1  0.00000000  0.50000000  0.16176900  1
  Ga  Ga10  1  0.50000000  0.50000000  0.41176900  1
  Ga  Ga11  1  0.00000000  0.50000000  0.33823100  1
  Ga  Ga12  1  0.50000000  0.50000000  0.25036400  1
  Ga  Ga13  1  0.00000000  0.50000000  0.00036400  1
  Ga  Ga14  1  0.00000000  0.50000000  0.49963600  1
  Ga  Ga15  1  0.00000000  0.00000000  0.24963600  1
  Ga  Ga16  1  0.50000000  0.50000000  0.58823100  1
  Ga  Ga17  1  0.50000000  0.00000000  0.66176900  1
  Ga  Ga18  1  0.00000000  0.00000000  0.91176900  1
  Ga  Ga19  1  0.50000000  0.00000000  0.83823100  1
  Ga  Ga20  1  0.00000000  0.00000000  0.75036400  1
  Ga  Ga21  1  0.50000000  0.00000000  0.50036400  1
  Ga  Ga22  1  0.50000000  0.00000000  0.99963600  1
  Ga  Ga23  1  0.50000000  0.50000000  0.74963600  1
