# generated using pymatgen
data_Bi2PdO4
_symmetry_space_group_name_H-M   'P 1'
_cell_length_a   9.13579400
_cell_length_b   9.13579400
_cell_length_c   5.69728400
_cell_angle_alpha   90.00000000
_cell_angle_beta   90.00000000
_cell_angle_gamma   90.00000000
_symmetry_Int_Tables_number   1
_chemical_formula_structural   Bi2PdO4
_chemical_formula_sum   'Bi8 Pd4 O16'
_cell_volume   475.51088768
_cell_formula_units_Z   4
loop_
 _symmetry_equiv_pos_site_id
 _symmetry_equiv_pos_as_xyz
  1  'x, y, z'
loop_
 _atom_site_type_symbol
 _atom_site_label
 _atom_site_symmetry_multiplicity
 _atom_site_fract_x
 _atom_site_fract_y
 _atom_site_fract_z
 _atom_site_occupancy
  Bi  Bi0  1  0.32634450  0.17365550  0.02325050  1
  Bi  Bi1  1  0.67365550  0.17365550  0.52325050  1
  Bi  Bi2  1  0.32634450  0.82634450  0.52325050  1
  Bi  Bi3  1  0.67365550  0.82634450  0.02325050  1
  Bi  Bi4  1  0.82634450  0.67365550  0.52325050  1
  Bi  Bi5  1  0.17365550  0.67365550  0.02325050  1
  Bi  Bi6  1  0.82634450  0.32634450  0.02325050  1
  Bi  Bi7  1  0.17365550  0.32634450  0.52325050  1
  Pd  Pd8  1  0.00000000  0.00000000  0.32709700  1
  Pd  Pd9  1  0.00000000  0.00000000  0.82709700  1
  Pd  Pd10  1  0.50000000  0.50000000  0.82709700  1
  Pd  Pd11  1  0.50000000  0.50000000  0.32709700  1
  O  O12  1  0.60872450  0.30491150  0.83914150  1
  O  O13  1  0.19508850  0.89127550  0.83914150  1
  O  O14  1  0.60872450  0.69508850  0.33914150  1
  O  O15  1  0.39127550  0.69508850  0.83914150  1
  O  O16  1  0.80491150  0.10872450  0.83914150  1
  O  O17  1  0.80491150  0.89127550  0.33914150  1
  O  O18  1  0.19508850  0.10872450  0.33914150  1
  O  O19  1  0.39127550  0.30491150  0.33914150  1
  O  O20  1  0.10872450  0.80491150  0.33914150  1
  O  O21  1  0.69508850  0.39127550  0.33914150  1
  O  O22  1  0.10872450  0.19508850  0.83914150  1
  O  O23  1  0.89127550  0.19508850  0.33914150  1
  O  O24  1  0.30491150  0.60872450  0.33914150  1
  O  O25  1  0.30491150  0.39127550  0.83914150  1
  O  O26  1  0.69508850  0.60872450  0.83914150  1
  O  O27  1  0.89127550  0.80491150  0.83914150  1
