# generated using pymatgen
data_Lu(CuSi)2
_symmetry_space_group_name_H-M   'P 1'
_cell_length_a   3.91146800
_cell_length_b   3.91146800
_cell_length_c   10.00162000
_cell_angle_alpha   90.00000000
_cell_angle_beta   90.00000000
_cell_angle_gamma   90.00000000
_symmetry_Int_Tables_number   1
_chemical_formula_structural   Lu(CuSi)2
_chemical_formula_sum   'Lu2 Cu4 Si4'
_cell_volume   153.02060447
_cell_formula_units_Z   2
loop_
 _symmetry_equiv_pos_site_id
 _symmetry_equiv_pos_as_xyz
  1  'x, y, z'
loop_
 _atom_site_type_symbol
 _atom_site_label
 _atom_site_symmetry_multiplicity
 _atom_site_fract_x
 _atom_site_fract_y
 _atom_site_fract_z
 _atom_site_occupancy
  Lu  Lu0  1  0.00000000  0.00000000  0.00000000  1
  Lu  Lu1  1  0.50000000  0.50000000  0.50000000  1
  Cu  Cu2  1  0.00000000  0.50000000  0.25000000  1
  Cu  Cu3  1  0.50000000  0.00000000  0.25000000  1
  Cu  Cu4  1  0.50000000  0.00000000  0.75000000  1
  Cu  Cu5  1  0.00000000  0.50000000  0.75000000  1
  Si  Si6  1  0.50000000  0.50000000  0.11571300  1
  Si  Si7  1  0.00000000  0.00000000  0.38428700  1
  Si  Si8  1  0.00000000  0.00000000  0.61571300  1
  Si  Si9  1  0.50000000  0.50000000  0.88428700  1
