# generated using pymatgen
data_Zn(GaNi)3
_symmetry_space_group_name_H-M   'P 1'
_cell_length_a   11.46178600
_cell_length_b   11.46178600
_cell_length_c   11.46178600
_cell_angle_alpha   90.00000000
_cell_angle_beta   90.00000000
_cell_angle_gamma   90.00000000
_symmetry_Int_Tables_number   1
_chemical_formula_structural   Zn(GaNi)3
_chemical_formula_sum   'Zn16 Ga48 Ni48'
_cell_volume   1505.76392038
_cell_formula_units_Z   16
loop_
 _symmetry_equiv_pos_site_id
 _symmetry_equiv_pos_as_xyz
  1  'x, y, z'
loop_
 _atom_site_type_symbol
 _atom_site_label
 _atom_site_symmetry_multiplicity
 _atom_site_fract_x
 _atom_site_fract_y
 _atom_site_fract_z
 _atom_site_occupancy
  Zn  Zn0  1  0.50000000  0.00000000  0.00000000  1
  Zn  Zn1  1  0.25000000  0.25000000  0.25000000  1
  Zn  Zn2  1  0.25000000  0.25000000  0.75000000  1
  Zn  Zn3  1  0.00000000  0.00000000  0.50000000  1
  Zn  Zn4  1  0.00000000  0.50000000  0.00000000  1
  Zn  Zn5  1  0.25000000  0.75000000  0.25000000  1
  Zn  Zn6  1  0.75000000  0.25000000  0.25000000  1
  Zn  Zn7  1  0.00000000  0.00000000  0.00000000  1
  Zn  Zn8  1  0.00000000  0.50000000  0.50000000  1
  Zn  Zn9  1  0.75000000  0.75000000  0.75000000  1
  Zn  Zn10  1  0.75000000  0.75000000  0.25000000  1
  Zn  Zn11  1  0.50000000  0.50000000  0.00000000  1
  Zn  Zn12  1  0.50000000  0.00000000  0.50000000  1
  Zn  Zn13  1  0.75000000  0.25000000  0.75000000  1
  Zn  Zn14  1  0.25000000  0.75000000  0.75000000  1
  Zn  Zn15  1  0.50000000  0.50000000  0.50000000  1
  Ga  Ga16  1  0.26133300  0.50000000  0.25000000  1
  Ga  Ga17  1  0.98866700  0.50000000  0.25000000  1
  Ga  Ga18  1  0.25000000  0.26133300  0.50000000  1
  Ga  Ga19  1  0.25000000  0.51133300  0.00000000  1
  Ga  Ga20  1  0.25000000  0.01133300  0.00000000  1
  Ga  Ga21  1  0.50000000  0.25000000  0.48866700  1
  Ga  Ga22  1  0.50000000  0.25000000  0.26133300  1
  Ga  Ga23  1  0.25000000  0.23866700  0.00000000  1
  Ga  Ga24  1  0.50000000  0.25000000  0.76133300  1
  Ga  Ga25  1  0.51133300  0.00000000  0.25000000  1
  Ga  Ga26  1  0.00000000  0.25000000  0.73866700  1
  Ga  Ga27  1  0.50000000  0.25000000  0.98866700  1
  Ga  Ga28  1  0.01133300  0.00000000  0.25000000  1
  Ga  Ga29  1  0.25000000  0.76133300  0.50000000  1
  Ga  Ga30  1  0.25000000  0.98866700  0.50000000  1
  Ga  Ga31  1  0.00000000  0.25000000  0.51133300  1
  Ga  Ga32  1  0.48866700  0.50000000  0.25000000  1
  Ga  Ga33  1  0.76133300  0.50000000  0.25000000  1
  Ga  Ga34  1  0.73866700  0.00000000  0.25000000  1
  Ga  Ga35  1  0.00000000  0.25000000  0.01133300  1
  Ga  Ga36  1  0.25000000  0.48866700  0.50000000  1
  Ga  Ga37  1  0.23866700  0.00000000  0.25000000  1
  Ga  Ga38  1  0.25000000  0.73866700  0.00000000  1
  Ga  Ga39  1  0.00000000  0.25000000  0.23866700  1
  Ga  Ga40  1  0.76133300  0.00000000  0.75000000  1
  Ga  Ga41  1  0.48866700  0.00000000  0.75000000  1
  Ga  Ga42  1  0.75000000  0.76133300  0.00000000  1
  Ga  Ga43  1  0.75000000  0.01133300  0.50000000  1
  Ga  Ga44  1  0.75000000  0.51133300  0.50000000  1
  Ga  Ga45  1  0.00000000  0.75000000  0.98866700  1
  Ga  Ga46  1  0.00000000  0.75000000  0.76133300  1
  Ga  Ga47  1  0.75000000  0.73866700  0.50000000  1
  Ga  Ga48  1  0.00000000  0.75000000  0.26133300  1
  Ga  Ga49  1  0.01133300  0.50000000  0.75000000  1
  Ga  Ga50  1  0.50000000  0.75000000  0.23866700  1
  Ga  Ga51  1  0.00000000  0.75000000  0.48866700  1
  Ga  Ga52  1  0.51133300  0.50000000  0.75000000  1
  Ga  Ga53  1  0.75000000  0.26133300  0.00000000  1
  Ga  Ga54  1  0.75000000  0.48866700  0.00000000  1
  Ga  Ga55  1  0.50000000  0.75000000  0.01133300  1
  Ga  Ga56  1  0.98866700  0.00000000  0.75000000  1
  Ga  Ga57  1  0.26133300  0.00000000  0.75000000  1
  Ga  Ga58  1  0.23866700  0.50000000  0.75000000  1
  Ga  Ga59  1  0.50000000  0.75000000  0.51133300  1
  Ga  Ga60  1  0.75000000  0.98866700  0.00000000  1
  Ga  Ga61  1  0.73866700  0.50000000  0.75000000  1
  Ga  Ga62  1  0.75000000  0.23866700  0.50000000  1
  Ga  Ga63  1  0.50000000  0.75000000  0.73866700  1
  Ni  Ni64  1  0.38298950  0.37500000  0.63298950  1
  Ni  Ni65  1  0.61701050  0.37500000  0.13298950  1
  Ni  Ni66  1  0.37500000  0.63298950  0.38298950  1
  Ni  Ni67  1  0.86701050  0.11701050  0.12500000  1
  Ni  Ni68  1  0.37500000  0.13298950  0.61701050  1
  Ni  Ni69  1  0.62500000  0.13298950  0.11701050  1
  Ni  Ni70  1  0.63298950  0.38298950  0.37500000  1
  Ni  Ni71  1  0.13298950  0.11701050  0.62500000  1
  Ni  Ni72  1  0.12500000  0.86701050  0.11701050  1
  Ni  Ni73  1  0.87500000  0.36701050  0.38298950  1
  Ni  Ni74  1  0.36701050  0.88298950  0.12500000  1
  Ni  Ni75  1  0.88298950  0.12500000  0.36701050  1
  Ni  Ni76  1  0.11701050  0.12500000  0.86701050  1
  Ni  Ni77  1  0.38298950  0.12500000  0.13298950  1
  Ni  Ni78  1  0.13298950  0.38298950  0.12500000  1
  Ni  Ni79  1  0.38298950  0.87500000  0.36701050  1
  Ni  Ni80  1  0.12500000  0.13298950  0.38298950  1
  Ni  Ni81  1  0.36701050  0.11701050  0.37500000  1
  Ni  Ni82  1  0.13298950  0.61701050  0.37500000  1
  Ni  Ni83  1  0.11701050  0.62500000  0.13298950  1
  Ni  Ni84  1  0.36701050  0.38298950  0.87500000  1
  Ni  Ni85  1  0.37500000  0.36701050  0.11701050  1
  Ni  Ni86  1  0.12500000  0.36701050  0.88298950  1
  Ni  Ni87  1  0.11701050  0.37500000  0.36701050  1
  Ni  Ni88  1  0.88298950  0.87500000  0.13298950  1
  Ni  Ni89  1  0.11701050  0.87500000  0.63298950  1
  Ni  Ni90  1  0.87500000  0.13298950  0.88298950  1
  Ni  Ni91  1  0.36701050  0.61701050  0.62500000  1
  Ni  Ni92  1  0.87500000  0.63298950  0.11701050  1
  Ni  Ni93  1  0.12500000  0.63298950  0.61701050  1
  Ni  Ni94  1  0.13298950  0.88298950  0.87500000  1
  Ni  Ni95  1  0.63298950  0.61701050  0.12500000  1
  Ni  Ni96  1  0.62500000  0.36701050  0.61701050  1
  Ni  Ni97  1  0.37500000  0.86701050  0.88298950  1
  Ni  Ni98  1  0.86701050  0.38298950  0.62500000  1
  Ni  Ni99  1  0.38298950  0.62500000  0.86701050  1
  Ni  Ni100  1  0.61701050  0.62500000  0.36701050  1
  Ni  Ni101  1  0.88298950  0.62500000  0.63298950  1
  Ni  Ni102  1  0.63298950  0.88298950  0.62500000  1
  Ni  Ni103  1  0.88298950  0.37500000  0.86701050  1
  Ni  Ni104  1  0.62500000  0.63298950  0.88298950  1
  Ni  Ni105  1  0.86701050  0.61701050  0.87500000  1
  Ni  Ni106  1  0.63298950  0.11701050  0.87500000  1
  Ni  Ni107  1  0.61701050  0.12500000  0.63298950  1
  Ni  Ni108  1  0.86701050  0.88298950  0.37500000  1
  Ni  Ni109  1  0.87500000  0.86701050  0.61701050  1
  Ni  Ni110  1  0.62500000  0.86701050  0.38298950  1
  Ni  Ni111  1  0.61701050  0.87500000  0.86701050  1
