# generated using pymatgen
data_BaRuO3
_symmetry_space_group_name_H-M   'P 1'
_cell_length_a   5.83152214
_cell_length_b   5.83152214
_cell_length_c   21.92435958
_cell_angle_alpha   90.00000000
_cell_angle_beta   90.00000000
_cell_angle_gamma   120.00000000
_symmetry_Int_Tables_number   1
_chemical_formula_structural   BaRuO3
_chemical_formula_sum   'Ba9 Ru9 O27'
_cell_volume   645.68605217
_cell_formula_units_Z   9
loop_
 _symmetry_equiv_pos_site_id
 _symmetry_equiv_pos_as_xyz
  1  'x, y, z'
loop_
 _atom_site_type_symbol
 _atom_site_label
 _atom_site_symmetry_multiplicity
 _atom_site_fract_x
 _atom_site_fract_y
 _atom_site_fract_z
 _atom_site_occupancy
  Ba  Ba0  1  0.00000000  0.00000000  0.21942800  1
  Ba  Ba1  1  0.66666667  0.33333333  0.11390533  1
  Ba  Ba2  1  0.00000000  0.00000000  0.00000000  1
  Ba  Ba3  1  0.66666667  0.33333333  0.55276133  1
  Ba  Ba4  1  0.33333333  0.66666667  0.44723867  1
  Ba  Ba5  1  0.66666667  0.33333333  0.33333333  1
  Ba  Ba6  1  0.33333333  0.66666667  0.88609467  1
  Ba  Ba7  1  0.00000000  0.00000000  0.78057200  1
  Ba  Ba8  1  0.33333333  0.66666667  0.66666667  1
  Ru  Ru9  1  0.33333333  0.66666667  0.04958267  1
  Ru  Ru10  1  0.33333333  0.66666667  0.28375067  1
  Ru  Ru11  1  0.33333333  0.66666667  0.16666667  1
  Ru  Ru12  1  0.00000000  0.00000000  0.38291600  1
  Ru  Ru13  1  0.00000000  0.00000000  0.61708400  1
  Ru  Ru14  1  1.00000000  1.00000000  0.50000000  1
  Ru  Ru15  1  0.66666667  0.33333333  0.71624933  1
  Ru  Ru16  1  0.66666667  0.33333333  0.95041733  1
  Ru  Ru17  1  0.66666667  0.33333333  0.83333333  1
  O  O18  1  0.17790900  0.35581800  0.10811800  1
  O  O19  1  0.17790900  0.82209100  0.10811800  1
  O  O20  1  0.64418200  0.82209100  0.10811800  1
  O  O21  1  0.48875767  0.97751533  0.22521533  1
  O  O22  1  0.48875767  0.51124233  0.22521533  1
  O  O23  1  0.02248467  0.51124233  0.22521533  1
  O  O24  1  0.00000000  0.50000000  0.00000000  1
  O  O25  1  0.50000000  0.50000000  0.00000000  1
  O  O26  1  0.50000000  0.00000000  0.00000000  1
  O  O27  1  0.84457567  0.68915133  0.44145133  1
  O  O28  1  0.84457567  0.15542433  0.44145133  1
  O  O29  1  0.31084867  0.15542433  0.44145133  1
  O  O30  1  0.15542433  0.31084867  0.55854867  1
  O  O31  1  0.15542433  0.84457567  0.55854867  1
  O  O32  1  0.68915133  0.84457567  0.55854867  1
  O  O33  1  0.66666667  0.83333333  0.33333333  1
  O  O34  1  0.16666667  0.83333333  0.33333333  1
  O  O35  1  0.16666667  0.33333333  0.33333333  1
  O  O36  1  0.51124233  0.02248467  0.77478467  1
  O  O37  1  0.51124233  0.48875767  0.77478467  1
  O  O38  1  0.97751533  0.48875767  0.77478467  1
  O  O39  1  0.82209100  0.64418200  0.89188200  1
  O  O40  1  0.82209100  0.17790900  0.89188200  1
  O  O41  1  0.35581800  0.17790900  0.89188200  1
  O  O42  1  0.33333333  0.16666667  0.66666667  1
  O  O43  1  0.83333333  0.16666667  0.66666667  1
  O  O44  1  0.83333333  0.66666667  0.66666667  1
