# generated using pymatgen
data_MgCo
_symmetry_space_group_name_H-M   'P 1'
_cell_length_a   11.35367600
_cell_length_b   11.35367600
_cell_length_c   11.35367600
_cell_angle_alpha   90.00000000
_cell_angle_beta   90.00000000
_cell_angle_gamma   90.00000000
_symmetry_Int_Tables_number   1
_chemical_formula_structural   MgCo
_chemical_formula_sum   'Mg48 Co48'
_cell_volume   1463.55648970
_cell_formula_units_Z   48
loop_
 _symmetry_equiv_pos_site_id
 _symmetry_equiv_pos_as_xyz
  1  'x, y, z'
loop_
 _atom_site_type_symbol
 _atom_site_label
 _atom_site_symmetry_multiplicity
 _atom_site_fract_x
 _atom_site_fract_y
 _atom_site_fract_z
 _atom_site_occupancy
  Mg  Mg0  1  0.25000000  0.25000000  0.04873400  1
  Mg  Mg1  1  0.25000000  0.45126600  0.25000000  1
  Mg  Mg2  1  0.04873400  0.25000000  0.25000000  1
  Mg  Mg3  1  0.70126600  0.00000000  0.50000000  1
  Mg  Mg4  1  0.00000000  0.00000000  0.20126600  1
  Mg  Mg5  1  0.50000000  0.79873400  0.50000000  1
  Mg  Mg6  1  0.25000000  0.25000000  0.45126600  1
  Mg  Mg7  1  0.25000000  0.04873400  0.25000000  1
  Mg  Mg8  1  0.45126600  0.25000000  0.25000000  1
  Mg  Mg9  1  0.50000000  0.00000000  0.29873400  1
  Mg  Mg10  1  0.29873400  0.00000000  0.50000000  1
  Mg  Mg11  1  0.50000000  0.20126600  0.50000000  1
  Mg  Mg12  1  0.25000000  0.75000000  0.54873400  1
  Mg  Mg13  1  0.25000000  0.95126600  0.75000000  1
  Mg  Mg14  1  0.04873400  0.75000000  0.75000000  1
  Mg  Mg15  1  0.70126600  0.50000000  0.00000000  1
  Mg  Mg16  1  0.00000000  0.50000000  0.70126600  1
  Mg  Mg17  1  0.50000000  0.29873400  0.00000000  1
  Mg  Mg18  1  0.25000000  0.75000000  0.95126600  1
  Mg  Mg19  1  0.25000000  0.54873400  0.75000000  1
  Mg  Mg20  1  0.45126600  0.75000000  0.75000000  1
  Mg  Mg21  1  0.50000000  0.50000000  0.79873400  1
  Mg  Mg22  1  0.29873400  0.50000000  0.00000000  1
  Mg  Mg23  1  0.50000000  0.70126600  0.00000000  1
  Mg  Mg24  1  0.75000000  0.25000000  0.54873400  1
  Mg  Mg25  1  0.75000000  0.45126600  0.75000000  1
  Mg  Mg26  1  0.54873400  0.25000000  0.75000000  1
  Mg  Mg27  1  0.20126600  0.00000000  0.00000000  1
  Mg  Mg28  1  0.50000000  0.00000000  0.70126600  1
  Mg  Mg29  1  0.00000000  0.79873400  0.00000000  1
  Mg  Mg30  1  0.75000000  0.25000000  0.95126600  1
  Mg  Mg31  1  0.75000000  0.04873400  0.75000000  1
  Mg  Mg32  1  0.95126600  0.25000000  0.75000000  1
  Mg  Mg33  1  0.00000000  0.00000000  0.79873400  1
  Mg  Mg34  1  0.79873400  0.00000000  0.00000000  1
  Mg  Mg35  1  0.00000000  0.20126600  0.00000000  1
  Mg  Mg36  1  0.75000000  0.75000000  0.04873400  1
  Mg  Mg37  1  0.75000000  0.95126600  0.25000000  1
  Mg  Mg38  1  0.54873400  0.75000000  0.25000000  1
  Mg  Mg39  1  0.20126600  0.50000000  0.50000000  1
  Mg  Mg40  1  0.50000000  0.50000000  0.20126600  1
  Mg  Mg41  1  0.00000000  0.29873400  0.50000000  1
  Mg  Mg42  1  0.75000000  0.75000000  0.45126600  1
  Mg  Mg43  1  0.75000000  0.54873400  0.25000000  1
  Mg  Mg44  1  0.95126600  0.75000000  0.25000000  1
  Mg  Mg45  1  0.00000000  0.50000000  0.29873400  1
  Mg  Mg46  1  0.79873400  0.50000000  0.50000000  1
  Mg  Mg47  1  0.00000000  0.70126600  0.50000000  1
  Co  Co48  1  0.37500000  0.62500000  0.37500000  1
  Co  Co49  1  0.42254300  0.42254300  0.42254300  1
  Co  Co50  1  0.07745700  0.07745700  0.42254300  1
  Co  Co51  1  0.42254300  0.07745700  0.07745700  1
  Co  Co52  1  0.17254300  0.82745700  0.17254300  1
  Co  Co53  1  0.12500000  0.87500000  0.37500000  1
  Co  Co54  1  0.37500000  0.87500000  0.12500000  1
  Co  Co55  1  0.12500000  0.62500000  0.12500000  1
  Co  Co56  1  0.07745700  0.42254300  0.07745700  1
  Co  Co57  1  0.32745700  0.82745700  0.32745700  1
  Co  Co58  1  0.32745700  0.67254300  0.17254300  1
  Co  Co59  1  0.17254300  0.67254300  0.32745700  1
  Co  Co60  1  0.37500000  0.12500000  0.87500000  1
  Co  Co61  1  0.42254300  0.92254300  0.92254300  1
  Co  Co62  1  0.07745700  0.57745700  0.92254300  1
  Co  Co63  1  0.42254300  0.57745700  0.57745700  1
  Co  Co64  1  0.17254300  0.32745700  0.67254300  1
  Co  Co65  1  0.12500000  0.37500000  0.87500000  1
  Co  Co66  1  0.37500000  0.37500000  0.62500000  1
  Co  Co67  1  0.12500000  0.12500000  0.62500000  1
  Co  Co68  1  0.07745700  0.92254300  0.57745700  1
  Co  Co69  1  0.32745700  0.32745700  0.82745700  1
  Co  Co70  1  0.32745700  0.17254300  0.67254300  1
  Co  Co71  1  0.17254300  0.17254300  0.82745700  1
  Co  Co72  1  0.87500000  0.62500000  0.87500000  1
  Co  Co73  1  0.92254300  0.42254300  0.92254300  1
  Co  Co74  1  0.57745700  0.07745700  0.92254300  1
  Co  Co75  1  0.92254300  0.07745700  0.57745700  1
  Co  Co76  1  0.67254300  0.82745700  0.67254300  1
  Co  Co77  1  0.62500000  0.87500000  0.87500000  1
  Co  Co78  1  0.87500000  0.87500000  0.62500000  1
  Co  Co79  1  0.62500000  0.62500000  0.62500000  1
  Co  Co80  1  0.57745700  0.42254300  0.57745700  1
  Co  Co81  1  0.82745700  0.82745700  0.82745700  1
  Co  Co82  1  0.82745700  0.67254300  0.67254300  1
  Co  Co83  1  0.67254300  0.67254300  0.82745700  1
  Co  Co84  1  0.87500000  0.12500000  0.37500000  1
  Co  Co85  1  0.92254300  0.92254300  0.42254300  1
  Co  Co86  1  0.57745700  0.57745700  0.42254300  1
  Co  Co87  1  0.92254300  0.57745700  0.07745700  1
  Co  Co88  1  0.67254300  0.32745700  0.17254300  1
  Co  Co89  1  0.62500000  0.37500000  0.37500000  1
  Co  Co90  1  0.87500000  0.37500000  0.12500000  1
  Co  Co91  1  0.62500000  0.12500000  0.12500000  1
  Co  Co92  1  0.57745700  0.92254300  0.07745700  1
  Co  Co93  1  0.82745700  0.32745700  0.32745700  1
  Co  Co94  1  0.82745700  0.17254300  0.17254300  1
  Co  Co95  1  0.67254300  0.17254300  0.32745700  1
