# generated using pymatgen
data_CaGe2
_symmetry_space_group_name_H-M   'P 1'
_cell_length_a   4.01122192
_cell_length_b   4.01122192
_cell_length_c   15.78966137
_cell_angle_alpha   90.00000000
_cell_angle_beta   90.00000000
_cell_angle_gamma   120.00000000
_symmetry_Int_Tables_number   1
_chemical_formula_structural   CaGe2
_chemical_formula_sum   'Ca3 Ge6'
_cell_volume   220.01729859
_cell_formula_units_Z   3
loop_
 _symmetry_equiv_pos_site_id
 _symmetry_equiv_pos_as_xyz
  1  'x, y, z'
loop_
 _atom_site_type_symbol
 _atom_site_label
 _atom_site_symmetry_multiplicity
 _atom_site_fract_x
 _atom_site_fract_y
 _atom_site_fract_z
 _atom_site_occupancy
  Ca  Ca0  1  0.00000000  0.00000000  0.00000000  1
  Ca  Ca1  1  0.66666667  0.33333333  0.33333333  1
  Ca  Ca2  1  0.33333333  0.66666667  0.66666667  1
  Ge  Ge3  1  0.66666667  0.33333333  0.13128533  1
  Ge  Ge4  1  0.00000000  0.00000000  0.20204800  1
  Ge  Ge5  1  0.33333333  0.66666667  0.46461867  1
  Ge  Ge6  1  0.66666667  0.33333333  0.53538133  1
  Ge  Ge7  1  0.00000000  0.00000000  0.79795200  1
  Ge  Ge8  1  0.33333333  0.66666667  0.86871467  1
