# generated using pymatgen
data_Tl2Pd
_symmetry_space_group_name_H-M   'P 1'
_cell_length_a   6.87709400
_cell_length_b   6.87709400
_cell_length_c   5.91098600
_cell_angle_alpha   90.00000000
_cell_angle_beta   90.00000000
_cell_angle_gamma   90.00000000
_symmetry_Int_Tables_number   1
_chemical_formula_structural   Tl2Pd
_chemical_formula_sum   'Tl8 Pd4'
_cell_volume   279.55666564
_cell_formula_units_Z   4
loop_
 _symmetry_equiv_pos_site_id
 _symmetry_equiv_pos_as_xyz
  1  'x, y, z'
loop_
 _atom_site_type_symbol
 _atom_site_label
 _atom_site_symmetry_multiplicity
 _atom_site_fract_x
 _atom_site_fract_y
 _atom_site_fract_z
 _atom_site_occupancy
  Tl  Tl0  1  0.83454000  0.33454000  0.50000000  1
  Tl  Tl1  1  0.16546000  0.33454000  0.00000000  1
  Tl  Tl2  1  0.33454000  0.16546000  0.50000000  1
  Tl  Tl3  1  0.66546000  0.16546000  0.00000000  1
  Tl  Tl4  1  0.33454000  0.83454000  0.00000000  1
  Tl  Tl5  1  0.66546000  0.83454000  0.50000000  1
  Tl  Tl6  1  0.83454000  0.66546000  0.00000000  1
  Tl  Tl7  1  0.16546000  0.66546000  0.50000000  1
  Pd  Pd8  1  0.00000000  0.00000000  0.75000000  1
  Pd  Pd9  1  0.00000000  0.00000000  0.25000000  1
  Pd  Pd10  1  0.50000000  0.50000000  0.25000000  1
  Pd  Pd11  1  0.50000000  0.50000000  0.75000000  1
