# generated using pymatgen
data_Ba2CuF6
_symmetry_space_group_name_H-M   'P 1'
_cell_length_a   4.22296000
_cell_length_b   4.22296000
_cell_length_c   15.90609600
_cell_angle_alpha   90.00000000
_cell_angle_beta   90.00000000
_cell_angle_gamma   90.00000000
_symmetry_Int_Tables_number   1
_chemical_formula_structural   Ba2CuF6
_chemical_formula_sum   'Ba4 Cu2 F12'
_cell_volume   283.65963182
_cell_formula_units_Z   2
loop_
 _symmetry_equiv_pos_site_id
 _symmetry_equiv_pos_as_xyz
  1  'x, y, z'
loop_
 _atom_site_type_symbol
 _atom_site_label
 _atom_site_symmetry_multiplicity
 _atom_site_fract_x
 _atom_site_fract_y
 _atom_site_fract_z
 _atom_site_occupancy
  Ba  Ba0  1  0.00000000  0.00000000  0.14943500  1
  Ba  Ba1  1  0.50000000  0.50000000  0.35056500  1
  Ba  Ba2  1  0.50000000  0.50000000  0.64943500  1
  Ba  Ba3  1  0.00000000  0.00000000  0.85056500  1
  Cu  Cu4  1  0.50000000  0.50000000  0.00000000  1
  Cu  Cu5  1  0.00000000  0.00000000  0.50000000  1
  F  F6  1  0.00000000  0.00000000  0.38034000  1
  F  F7  1  0.50000000  0.00000000  0.00000000  1
  F  F8  1  0.00000000  0.50000000  0.00000000  1
  F  F9  1  0.50000000  0.50000000  0.11966000  1
  F  F10  1  0.50000000  0.00000000  0.25000000  1
  F  F11  1  0.00000000  0.50000000  0.25000000  1
  F  F12  1  0.50000000  0.50000000  0.88034000  1
  F  F13  1  0.00000000  0.50000000  0.50000000  1
  F  F14  1  0.50000000  0.00000000  0.50000000  1
  F  F15  1  0.00000000  0.00000000  0.61966000  1
  F  F16  1  0.00000000  0.50000000  0.75000000  1
  F  F17  1  0.50000000  0.00000000  0.75000000  1
