# generated using pymatgen
data_Lu(CoGe)2
_symmetry_space_group_name_H-M   'P 1'
_cell_length_a   3.92703600
_cell_length_b   3.92703600
_cell_length_c   10.03808000
_cell_angle_alpha   90.00000000
_cell_angle_beta   90.00000000
_cell_angle_gamma   90.00000000
_symmetry_Int_Tables_number   1
_chemical_formula_structural   Lu(CoGe)2
_chemical_formula_sum   'Lu2 Co4 Ge4'
_cell_volume   154.80337243
_cell_formula_units_Z   2
loop_
 _symmetry_equiv_pos_site_id
 _symmetry_equiv_pos_as_xyz
  1  'x, y, z'
loop_
 _atom_site_type_symbol
 _atom_site_label
 _atom_site_symmetry_multiplicity
 _atom_site_fract_x
 _atom_site_fract_y
 _atom_site_fract_z
 _atom_site_occupancy
  Lu  Lu0  1  0.00000000  0.00000000  0.00000000  1
  Lu  Lu1  1  0.50000000  0.50000000  0.50000000  1
  Co  Co2  1  0.00000000  0.50000000  0.25000000  1
  Co  Co3  1  0.50000000  0.00000000  0.25000000  1
  Co  Co4  1  0.50000000  0.00000000  0.75000000  1
  Co  Co5  1  0.00000000  0.50000000  0.75000000  1
  Ge  Ge6  1  0.00000000  0.00000000  0.37400500  1
  Ge  Ge7  1  0.50000000  0.50000000  0.12599500  1
  Ge  Ge8  1  0.50000000  0.50000000  0.87400500  1
  Ge  Ge9  1  0.00000000  0.00000000  0.62599500  1
