# generated using pymatgen
data_Tl2Ni3S2
_symmetry_space_group_name_H-M   'P 1'
_cell_length_a   5.53804760
_cell_length_b   5.53804760
_cell_length_c   13.87069616
_cell_angle_alpha   90.00000000
_cell_angle_beta   90.00000000
_cell_angle_gamma   120.00000000
_symmetry_Int_Tables_number   1
_chemical_formula_structural   Tl2Ni3S2
_chemical_formula_sum   'Tl6 Ni9 S6'
_cell_volume   368.41920299
_cell_formula_units_Z   3
loop_
 _symmetry_equiv_pos_site_id
 _symmetry_equiv_pos_as_xyz
  1  'x, y, z'
loop_
 _atom_site_type_symbol
 _atom_site_label
 _atom_site_symmetry_multiplicity
 _atom_site_fract_x
 _atom_site_fract_y
 _atom_site_fract_z
 _atom_site_occupancy
  Tl  Tl0  1  0.00000000  0.00000000  0.00000000  1
  Tl  Tl1  1  0.33333333  0.66666667  0.16666667  1
  Tl  Tl2  1  0.66666667  0.33333333  0.33333333  1
  Tl  Tl3  1  1.00000000  1.00000000  0.50000000  1
  Tl  Tl4  1  0.33333333  0.66666667  0.66666667  1
  Tl  Tl5  1  0.66666667  0.33333333  0.83333333  1
  Ni  Ni6  1  0.83333333  0.66666667  0.16666667  1
  Ni  Ni7  1  0.33333333  0.16666667  0.16666667  1
  Ni  Ni8  1  0.83333333  0.16666667  0.16666667  1
  Ni  Ni9  1  0.50000000  0.00000000  0.50000000  1
  Ni  Ni10  1  0.00000000  0.50000000  0.50000000  1
  Ni  Ni11  1  0.50000000  0.50000000  0.50000000  1
  Ni  Ni12  1  0.16666667  0.33333333  0.83333333  1
  Ni  Ni13  1  0.66666667  0.83333333  0.83333333  1
  Ni  Ni14  1  0.16666667  0.83333333  0.83333333  1
  S  S15  1  0.66666667  0.33333333  0.06095133  1
  S  S16  1  0.00000000  0.00000000  0.27238200  1
  S  S17  1  0.33333333  0.66666667  0.39428467  1
  S  S18  1  0.66666667  0.33333333  0.60571533  1
  S  S19  1  0.00000000  0.00000000  0.72761800  1
  S  S20  1  0.33333333  0.66666667  0.93904867  1
