# generated using pymatgen
data_TmAlSi
_symmetry_space_group_name_H-M   'P 1'
_cell_length_a   3.98991400
_cell_length_b   10.15382000
_cell_length_c   5.64328800
_cell_angle_alpha   90.00000000
_cell_angle_beta   90.00000000
_cell_angle_gamma   90.00000000
_symmetry_Int_Tables_number   1
_chemical_formula_structural   TmAlSi
_chemical_formula_sum   'Tm4 Al4 Si4'
_cell_volume   228.62578506
_cell_formula_units_Z   4
loop_
 _symmetry_equiv_pos_site_id
 _symmetry_equiv_pos_as_xyz
  1  'x, y, z'
loop_
 _atom_site_type_symbol
 _atom_site_label
 _atom_site_symmetry_multiplicity
 _atom_site_fract_x
 _atom_site_fract_y
 _atom_site_fract_z
 _atom_site_occupancy
  Tm  Tm0  1  0.00000000  0.30572800  0.25000000  1
  Tm  Tm1  1  0.50000000  0.19427200  0.75000000  1
  Tm  Tm2  1  0.50000000  0.80572800  0.25000000  1
  Tm  Tm3  1  0.00000000  0.69427200  0.75000000  1
  Al  Al4  1  0.00000000  0.00000000  0.50000000  1
  Al  Al5  1  0.00000000  0.00000000  0.00000000  1
  Al  Al6  1  0.50000000  0.50000000  0.50000000  1
  Al  Al7  1  0.50000000  0.50000000  0.00000000  1
  Si  Si8  1  0.50000000  0.10168600  0.25000000  1
  Si  Si9  1  0.00000000  0.39831400  0.75000000  1
  Si  Si10  1  0.00000000  0.60168600  0.25000000  1
  Si  Si11  1  0.50000000  0.89831400  0.75000000  1
