# generated using pymatgen
data_SrZn2
_symmetry_space_group_name_H-M   'P 1'
_cell_length_a   4.78035400
_cell_length_b   7.80081200
_cell_length_c   7.84175600
_cell_angle_alpha   90.00000000
_cell_angle_beta   90.00000000
_cell_angle_gamma   90.00000000
_symmetry_Int_Tables_number   1
_chemical_formula_structural   SrZn2
_chemical_formula_sum   'Sr4 Zn8'
_cell_volume   292.42412229
_cell_formula_units_Z   4
loop_
 _symmetry_equiv_pos_site_id
 _symmetry_equiv_pos_as_xyz
  1  'x, y, z'
loop_
 _atom_site_type_symbol
 _atom_site_label
 _atom_site_symmetry_multiplicity
 _atom_site_fract_x
 _atom_site_fract_y
 _atom_site_fract_z
 _atom_site_occupancy
  Sr  Sr0  1  0.50000000  0.75000000  0.54890000  1
  Sr  Sr1  1  0.50000000  0.25000000  0.45110000  1
  Sr  Sr2  1  0.00000000  0.25000000  0.04890000  1
  Sr  Sr3  1  0.00000000  0.75000000  0.95110000  1
  Zn  Zn4  1  0.00000000  0.06316400  0.66498000  1
  Zn  Zn5  1  0.00000000  0.93683600  0.33502000  1
  Zn  Zn6  1  0.50000000  0.93683600  0.16498000  1
  Zn  Zn7  1  0.50000000  0.06316400  0.83502000  1
  Zn  Zn8  1  0.50000000  0.56316400  0.16498000  1
  Zn  Zn9  1  0.50000000  0.43683600  0.83502000  1
  Zn  Zn10  1  0.00000000  0.43683600  0.66498000  1
  Zn  Zn11  1  0.00000000  0.56316400  0.33502000  1
