# generated using pymatgen
data_Li15Au4
_symmetry_space_group_name_H-M   'P 1'
_cell_length_a   10.82569400
_cell_length_b   10.82569400
_cell_length_c   10.82569400
_cell_angle_alpha   90.00000000
_cell_angle_beta   90.00000000
_cell_angle_gamma   90.00000000
_symmetry_Int_Tables_number   1
_chemical_formula_structural   Li15Au4
_chemical_formula_sum   'Li60 Au16'
_cell_volume   1268.72425133
_cell_formula_units_Z   4
loop_
 _symmetry_equiv_pos_site_id
 _symmetry_equiv_pos_as_xyz
  1  'x, y, z'
loop_
 _atom_site_type_symbol
 _atom_site_label
 _atom_site_symmetry_multiplicity
 _atom_site_fract_x
 _atom_site_fract_y
 _atom_site_fract_z
 _atom_site_occupancy
  Li  Li0  1  0.61835650  0.34188850  0.03808550  1
  Li  Li1  1  0.78808550  0.90811150  0.13164350  1
  Li  Li2  1  0.13164350  0.78808550  0.90811150  1
  Li  Li3  1  0.12500000  0.00000000  0.75000000  1
  Li  Li4  1  0.28808550  0.59188850  0.86835650  1
  Li  Li5  1  0.11835650  0.15811150  0.96191450  1
  Li  Li6  1  0.15811150  0.03808550  0.38164350  1
  Li  Li7  1  0.40811150  0.36835650  0.21191450  1
  Li  Li8  1  0.21191450  0.40811150  0.36835650  1
  Li  Li9  1  0.03808550  0.38164350  0.15811150  1
  Li  Li10  1  0.21191450  0.59188850  0.13164350  1
  Li  Li11  1  0.59188850  0.86835650  0.28808550  1
  Li  Li12  1  0.84188850  0.46191450  0.38164350  1
  Li  Li13  1  0.15811150  0.96191450  0.11835650  1
  Li  Li14  1  0.38164350  0.15811150  0.03808550  1
  Li  Li15  1  0.25000000  0.37500000  0.00000000  1
  Li  Li16  1  0.03808550  0.61835650  0.34188850  1
  Li  Li17  1  0.75000000  0.12500000  0.00000000  1
  Li  Li18  1  0.36835650  0.21191450  0.40811150  1
  Li  Li19  1  0.34188850  0.03808550  0.61835650  1
  Li  Li20  1  0.59188850  0.13164350  0.21191450  1
  Li  Li21  1  0.96191450  0.11835650  0.15811150  1
  Li  Li22  1  0.13164350  0.21191450  0.59188850  1
  Li  Li23  1  0.46191450  0.38164350  0.84188850  1
  Li  Li24  1  0.90811150  0.13164350  0.78808550  1
  Li  Li25  1  0.86835650  0.28808550  0.59188850  1
  Li  Li26  1  0.00000000  0.75000000  0.12500000  1
  Li  Li27  1  0.38164350  0.84188850  0.46191450  1
  Li  Li28  1  0.37500000  0.00000000  0.25000000  1
  Li  Li29  1  0.00000000  0.25000000  0.37500000  1
  Li  Li30  1  0.11835650  0.84188850  0.53808550  1
  Li  Li31  1  0.28808550  0.40811150  0.63164350  1
  Li  Li32  1  0.63164350  0.28808550  0.40811150  1
  Li  Li33  1  0.62500000  0.50000000  0.25000000  1
  Li  Li34  1  0.78808550  0.09188850  0.36835650  1
  Li  Li35  1  0.61835650  0.65811150  0.46191450  1
  Li  Li36  1  0.65811150  0.53808550  0.88164350  1
  Li  Li37  1  0.90811150  0.86835650  0.71191450  1
  Li  Li38  1  0.71191450  0.90811150  0.86835650  1
  Li  Li39  1  0.53808550  0.88164350  0.65811150  1
  Li  Li40  1  0.71191450  0.09188850  0.63164350  1
  Li  Li41  1  0.09188850  0.36835650  0.78808550  1
  Li  Li42  1  0.34188850  0.96191450  0.88164350  1
  Li  Li43  1  0.65811150  0.46191450  0.61835650  1
  Li  Li44  1  0.88164350  0.65811150  0.53808550  1
  Li  Li45  1  0.75000000  0.87500000  0.50000000  1
  Li  Li46  1  0.53808550  0.11835650  0.84188850  1
  Li  Li47  1  0.25000000  0.62500000  0.50000000  1
  Li  Li48  1  0.86835650  0.71191450  0.90811150  1
  Li  Li49  1  0.84188850  0.53808550  0.11835650  1
  Li  Li50  1  0.09188850  0.63164350  0.71191450  1
  Li  Li51  1  0.46191450  0.61835650  0.65811150  1
  Li  Li52  1  0.63164350  0.71191450  0.09188850  1
  Li  Li53  1  0.96191450  0.88164350  0.34188850  1
  Li  Li54  1  0.40811150  0.63164350  0.28808550  1
  Li  Li55  1  0.36835650  0.78808550  0.09188850  1
  Li  Li56  1  0.50000000  0.25000000  0.62500000  1
  Li  Li57  1  0.88164350  0.34188850  0.96191450  1
  Li  Li58  1  0.87500000  0.50000000  0.75000000  1
  Li  Li59  1  0.50000000  0.75000000  0.87500000  1
  Au  Au60  1  0.29338700  0.20661300  0.79338700  1
  Au  Au61  1  0.45661300  0.45661300  0.45661300  1
  Au  Au62  1  0.20661300  0.20661300  0.20661300  1
  Au  Au63  1  0.20661300  0.79338700  0.29338700  1
  Au  Au64  1  0.79338700  0.29338700  0.20661300  1
  Au  Au65  1  0.04338700  0.54338700  0.95661300  1
  Au  Au66  1  0.54338700  0.95661300  0.04338700  1
  Au  Au67  1  0.95661300  0.04338700  0.54338700  1
  Au  Au68  1  0.79338700  0.70661300  0.29338700  1
  Au  Au69  1  0.95661300  0.95661300  0.95661300  1
  Au  Au70  1  0.70661300  0.70661300  0.70661300  1
  Au  Au71  1  0.70661300  0.29338700  0.79338700  1
  Au  Au72  1  0.29338700  0.79338700  0.70661300  1
  Au  Au73  1  0.54338700  0.04338700  0.45661300  1
  Au  Au74  1  0.04338700  0.45661300  0.54338700  1
  Au  Au75  1  0.45661300  0.54338700  0.04338700  1
