# generated using pymatgen
data_Tl2Pt
_symmetry_space_group_name_H-M   'P 1'
_cell_length_a   7.04203600
_cell_length_b   7.04203600
_cell_length_c   5.68077000
_cell_angle_alpha   90.00000000
_cell_angle_beta   90.00000000
_cell_angle_gamma   90.00000000
_symmetry_Int_Tables_number   1
_chemical_formula_structural   Tl2Pt
_chemical_formula_sum   'Tl8 Pt4'
_cell_volume   281.71092393
_cell_formula_units_Z   4
loop_
 _symmetry_equiv_pos_site_id
 _symmetry_equiv_pos_as_xyz
  1  'x, y, z'
loop_
 _atom_site_type_symbol
 _atom_site_label
 _atom_site_symmetry_multiplicity
 _atom_site_fract_x
 _atom_site_fract_y
 _atom_site_fract_z
 _atom_site_occupancy
  Tl  Tl0  1  0.33926550  0.83926550  0.00000000  1
  Tl  Tl1  1  0.33926550  0.16073450  0.50000000  1
  Tl  Tl2  1  0.66073450  0.16073450  0.00000000  1
  Tl  Tl3  1  0.66073450  0.83926550  0.50000000  1
  Tl  Tl4  1  0.83926550  0.33926550  0.50000000  1
  Tl  Tl5  1  0.83926550  0.66073450  0.00000000  1
  Tl  Tl6  1  0.16073450  0.66073450  0.50000000  1
  Tl  Tl7  1  0.16073450  0.33926550  0.00000000  1
  Pt  Pt8  1  0.00000000  0.00000000  0.75000000  1
  Pt  Pt9  1  0.00000000  0.00000000  0.25000000  1
  Pt  Pt10  1  0.50000000  0.50000000  0.25000000  1
  Pt  Pt11  1  0.50000000  0.50000000  0.75000000  1
