# generated using pymatgen
data_CrGeTe3
_symmetry_space_group_name_H-M   'P 1'
_cell_length_a   6.91291610
_cell_length_b   6.91291610
_cell_length_c   21.81840534
_cell_angle_alpha   90.00000000
_cell_angle_beta   90.00000000
_cell_angle_gamma   120.00000000
_symmetry_Int_Tables_number   1
_chemical_formula_structural   CrGeTe3
_chemical_formula_sum   'Cr6 Ge6 Te18'
_cell_volume   902.97600307
_cell_formula_units_Z   6
loop_
 _symmetry_equiv_pos_site_id
 _symmetry_equiv_pos_as_xyz
  1  'x, y, z'
loop_
 _atom_site_type_symbol
 _atom_site_label
 _atom_site_symmetry_multiplicity
 _atom_site_fract_x
 _atom_site_fract_y
 _atom_site_fract_z
 _atom_site_occupancy
  Cr  Cr0  1  0.33333333  0.66666667  0.00027067  1
  Cr  Cr1  1  0.33333333  0.66666667  0.33306267  1
  Cr  Cr2  1  0.00000000  0.00000000  0.33360400  1
  Cr  Cr3  1  0.00000000  0.00000000  0.66639600  1
  Cr  Cr4  1  0.66666667  0.33333333  0.66693733  1
  Cr  Cr5  1  0.66666667  0.33333333  0.99972933  1
  Ge  Ge6  1  0.00000000  0.00000000  0.05540700  1
  Ge  Ge7  1  0.66666667  0.33333333  0.27792633  1
  Ge  Ge8  1  0.66666667  0.33333333  0.38874033  1
  Ge  Ge9  1  0.33333333  0.66666667  0.61125967  1
  Ge  Ge10  1  0.33333333  0.66666667  0.72207367  1
  Ge  Ge11  1  0.00000000  0.00000000  0.94459300  1
  Te  Te12  1  0.29332733  0.96063667  0.25439567  1
  Te  Te13  1  0.66730933  0.70667267  0.25439567  1
  Te  Te14  1  0.03936333  0.33269067  0.25439567  1
  Te  Te15  1  0.37333933  0.37269667  0.07893767  1
  Te  Te16  1  0.99935733  0.62666067  0.07893767  1
  Te  Te17  1  0.62730333  0.00064267  0.07893767  1
  Te  Te18  1  0.95999400  0.29397000  0.58772900  1
  Te  Te19  1  0.33397600  0.04000600  0.58772900  1
  Te  Te20  1  0.70603000  0.66602400  0.58772900  1
  Te  Te21  1  0.04000600  0.70603000  0.41227100  1
  Te  Te22  1  0.66602400  0.95999400  0.41227100  1
  Te  Te23  1  0.29397000  0.33397600  0.41227100  1
  Te  Te24  1  0.62666067  0.62730333  0.92106233  1
  Te  Te25  1  0.00064267  0.37333933  0.92106233  1
  Te  Te26  1  0.37269667  0.99935733  0.92106233  1
  Te  Te27  1  0.70667267  0.03936333  0.74560433  1
  Te  Te28  1  0.33269067  0.29332733  0.74560433  1
  Te  Te29  1  0.96063667  0.66730933  0.74560433  1
