# generated using pymatgen
data_Li3(CuO2)2
_symmetry_space_group_name_H-M   'P 1'
_cell_length_a   10.01252200
_cell_length_b   2.79445200
_cell_length_c   7.27331700
_cell_angle_alpha   90.00000000
_cell_angle_beta   117.75310655
_cell_angle_gamma   90.00000000
_symmetry_Int_Tables_number   1
_chemical_formula_structural   Li3(CuO2)2
_chemical_formula_sum   'Li6 Cu4 O8'
_cell_volume   180.09326352
_cell_formula_units_Z   2
loop_
 _symmetry_equiv_pos_site_id
 _symmetry_equiv_pos_as_xyz
  1  'x, y, z'
loop_
 _atom_site_type_symbol
 _atom_site_label
 _atom_site_symmetry_multiplicity
 _atom_site_fract_x
 _atom_site_fract_y
 _atom_site_fract_z
 _atom_site_occupancy
  Li  Li0  1  0.13850000  0.50000000  0.87193400  1
  Li  Li1  1  0.00000000  0.00000000  0.50000000  1
  Li  Li2  1  0.86150000  0.50000000  0.12806600  1
  Li  Li3  1  0.63850000  0.00000000  0.87193400  1
  Li  Li4  1  0.50000000  0.50000000  0.50000000  1
  Li  Li5  1  0.36150000  0.00000000  0.12806600  1
  Cu  Cu6  1  0.65858200  0.50000000  0.26918500  1
  Cu  Cu7  1  0.34141800  0.50000000  0.73081500  1
  Cu  Cu8  1  0.15858200  0.00000000  0.26918500  1
  Cu  Cu9  1  0.84141800  0.00000000  0.73081500  1
  O  O10  1  0.25618700  0.00000000  0.82067500  1
  O  O11  1  0.74381300  0.00000000  0.17932500  1
  O  O12  1  0.06498200  0.50000000  0.34471700  1
  O  O13  1  0.93501800  0.50000000  0.65528300  1
  O  O14  1  0.75618700  0.50000000  0.82067500  1
  O  O15  1  0.24381300  0.50000000  0.17932500  1
  O  O16  1  0.56498200  0.00000000  0.34471700  1
  O  O17  1  0.43501800  0.00000000  0.65528300  1
