# generated using pymatgen
data_OsCl4
_symmetry_space_group_name_H-M   'P 1'
_cell_length_a   8.37656800
_cell_length_b   9.06777200
_cell_length_c   3.62938500
_cell_angle_alpha   90.00000000
_cell_angle_beta   90.00000000
_cell_angle_gamma   90.00000000
_symmetry_Int_Tables_number   1
_chemical_formula_structural   OsCl4
_chemical_formula_sum   'Os2 Cl8'
_cell_volume   275.67650238
_cell_formula_units_Z   2
loop_
 _symmetry_equiv_pos_site_id
 _symmetry_equiv_pos_as_xyz
  1  'x, y, z'
loop_
 _atom_site_type_symbol
 _atom_site_label
 _atom_site_symmetry_multiplicity
 _atom_site_fract_x
 _atom_site_fract_y
 _atom_site_fract_z
 _atom_site_occupancy
  Os  Os0  1  0.00000000  0.00000000  0.00000000  1
  Os  Os1  1  0.50000000  0.50000000  0.00000000  1
  Cl  Cl2  1  0.27138700  0.00000000  0.00000000  1
  Cl  Cl3  1  0.50000000  0.32749700  0.50000000  1
  Cl  Cl4  1  0.50000000  0.67250300  0.50000000  1
  Cl  Cl5  1  0.72861300  0.00000000  0.00000000  1
  Cl  Cl6  1  0.77138700  0.50000000  0.00000000  1
  Cl  Cl7  1  0.00000000  0.82749700  0.50000000  1
  Cl  Cl8  1  0.00000000  0.17250300  0.50000000  1
  Cl  Cl9  1  0.22861300  0.50000000  0.00000000  1
