# generated using pymatgen
data_Ti2BRh6
_symmetry_space_group_name_H-M   'P 1'
_cell_length_a   7.91494800
_cell_length_b   7.91494800
_cell_length_c   7.91494800
_cell_angle_alpha   90.00000000
_cell_angle_beta   90.00000000
_cell_angle_gamma   90.00000000
_symmetry_Int_Tables_number   1
_chemical_formula_structural   Ti2BRh6
_chemical_formula_sum   'Ti8 B4 Rh24'
_cell_volume   495.84301297
_cell_formula_units_Z   4
loop_
 _symmetry_equiv_pos_site_id
 _symmetry_equiv_pos_as_xyz
  1  'x, y, z'
loop_
 _atom_site_type_symbol
 _atom_site_label
 _atom_site_symmetry_multiplicity
 _atom_site_fract_x
 _atom_site_fract_y
 _atom_site_fract_z
 _atom_site_occupancy
  Ti  Ti0  1  0.25000000  0.25000000  0.75000000  1
  Ti  Ti1  1  0.25000000  0.75000000  0.75000000  1
  Ti  Ti2  1  0.25000000  0.75000000  0.25000000  1
  Ti  Ti3  1  0.25000000  0.25000000  0.25000000  1
  Ti  Ti4  1  0.75000000  0.25000000  0.25000000  1
  Ti  Ti5  1  0.75000000  0.75000000  0.25000000  1
  Ti  Ti6  1  0.75000000  0.75000000  0.75000000  1
  Ti  Ti7  1  0.75000000  0.25000000  0.75000000  1
  B  B8  1  0.50000000  0.00000000  0.00000000  1
  B  B9  1  0.50000000  0.50000000  0.50000000  1
  B  B10  1  0.00000000  0.00000000  0.50000000  1
  B  B11  1  0.00000000  0.50000000  0.00000000  1
  Rh  Rh12  1  0.00000000  0.00000000  0.75811900  1
  Rh  Rh13  1  0.24188100  0.00000000  0.00000000  1
  Rh  Rh14  1  0.50000000  0.74188100  0.00000000  1
  Rh  Rh15  1  0.50000000  0.00000000  0.74188100  1
  Rh  Rh16  1  0.50000000  0.25811900  0.00000000  1
  Rh  Rh17  1  0.75811900  0.00000000  0.00000000  1
  Rh  Rh18  1  0.00000000  0.50000000  0.25811900  1
  Rh  Rh19  1  0.24188100  0.50000000  0.50000000  1
  Rh  Rh20  1  0.50000000  0.24188100  0.50000000  1
  Rh  Rh21  1  0.50000000  0.50000000  0.24188100  1
  Rh  Rh22  1  0.50000000  0.75811900  0.50000000  1
  Rh  Rh23  1  0.75811900  0.50000000  0.50000000  1
  Rh  Rh24  1  0.50000000  0.00000000  0.25811900  1
  Rh  Rh25  1  0.74188100  0.00000000  0.50000000  1
  Rh  Rh26  1  0.00000000  0.74188100  0.50000000  1
  Rh  Rh27  1  0.00000000  0.00000000  0.24188100  1
  Rh  Rh28  1  0.00000000  0.25811900  0.50000000  1
  Rh  Rh29  1  0.25811900  0.00000000  0.50000000  1
  Rh  Rh30  1  0.50000000  0.50000000  0.75811900  1
  Rh  Rh31  1  0.74188100  0.50000000  0.00000000  1
  Rh  Rh32  1  0.00000000  0.24188100  0.00000000  1
  Rh  Rh33  1  0.00000000  0.50000000  0.74188100  1
  Rh  Rh34  1  0.00000000  0.75811900  0.00000000  1
  Rh  Rh35  1  0.25811900  0.50000000  0.00000000  1
