# generated using pymatgen
data_NiSnF6
_symmetry_space_group_name_H-M   'P 1'
_cell_length_a   5.21380992
_cell_length_b   5.21380992
_cell_length_c   13.97558069
_cell_angle_alpha   90.00000000
_cell_angle_beta   90.00000000
_cell_angle_gamma   120.00000000
_symmetry_Int_Tables_number   1
_chemical_formula_structural   NiSnF6
_chemical_formula_sum   'Ni3 Sn3 F18'
_cell_volume   329.01135085
_cell_formula_units_Z   3
loop_
 _symmetry_equiv_pos_site_id
 _symmetry_equiv_pos_as_xyz
  1  'x, y, z'
loop_
 _atom_site_type_symbol
 _atom_site_label
 _atom_site_symmetry_multiplicity
 _atom_site_fract_x
 _atom_site_fract_y
 _atom_site_fract_z
 _atom_site_occupancy
  Ni  Ni0  1  0.33333333  0.66666667  0.16666667  1
  Ni  Ni1  1  1.00000000  0.00000000  0.50000000  1
  Ni  Ni2  1  0.66666667  0.33333333  0.83333333  1
  Sn  Sn3  1  0.00000000  0.00000000  0.00000000  1
  Sn  Sn4  1  0.66666667  0.33333333  0.33333333  1
  Sn  Sn5  1  0.33333333  0.66666667  0.66666667  1
  F  F6  1  0.29218600  0.96049400  0.08269800  1
  F  F7  1  0.66830800  0.70781400  0.08269800  1
  F  F8  1  0.62716067  0.00164133  0.25063533  1
  F  F9  1  0.99835867  0.62551933  0.25063533  1
  F  F10  1  0.37448067  0.37283933  0.25063533  1
  F  F11  1  0.03950600  0.33169200  0.08269800  1
  F  F12  1  0.95885267  0.29382733  0.41603133  1
  F  F13  1  0.33497467  0.04114733  0.41603133  1
  F  F14  1  0.29382733  0.33497467  0.58396867  1
  F  F15  1  0.66502533  0.95885267  0.58396867  1
  F  F16  1  0.04114733  0.70617267  0.58396867  1
  F  F17  1  0.70617267  0.66502533  0.41603133  1
  F  F18  1  0.62551933  0.62716067  0.74936467  1
  F  F19  1  0.00164133  0.37448067  0.74936467  1
  F  F20  1  0.96049400  0.66830800  0.91730200  1
  F  F21  1  0.33169200  0.29218600  0.91730200  1
  F  F22  1  0.70781400  0.03950600  0.91730200  1
  F  F23  1  0.37283933  0.99835867  0.74936467  1
