# generated using pymatgen
data_BaLi2(MgSi)2
_symmetry_space_group_name_H-M   'P 1'
_cell_length_a   4.58070211
_cell_length_b   4.58070211
_cell_length_c   26.16381421
_cell_angle_alpha   90.00000000
_cell_angle_beta   90.00000000
_cell_angle_gamma   120.00000000
_symmetry_Int_Tables_number   1
_chemical_formula_structural   BaLi2(MgSi)2
_chemical_formula_sum   'Ba3 Li6 Mg6 Si6'
_cell_volume   475.44007659
_cell_formula_units_Z   3
loop_
 _symmetry_equiv_pos_site_id
 _symmetry_equiv_pos_as_xyz
  1  'x, y, z'
loop_
 _atom_site_type_symbol
 _atom_site_label
 _atom_site_symmetry_multiplicity
 _atom_site_fract_x
 _atom_site_fract_y
 _atom_site_fract_z
 _atom_site_occupancy
  Ba  Ba0  1  0.00000000  0.00000000  0.00000000  1
  Ba  Ba1  1  0.66666667  0.33333333  0.33333333  1
  Ba  Ba2  1  0.33333333  0.66666667  0.66666667  1
  Li  Li3  1  0.33333333  0.66666667  0.23711067  1
  Li  Li4  1  0.33333333  0.66666667  0.09622267  1
  Li  Li5  1  0.00000000  0.00000000  0.57044400  1
  Li  Li6  1  0.00000000  0.00000000  0.42955600  1
  Li  Li7  1  0.66666667  0.33333333  0.90377733  1
  Li  Li8  1  0.66666667  0.33333333  0.76288933  1
  Mg  Mg9  1  0.66666667  0.33333333  0.19765533  1
  Mg  Mg10  1  0.00000000  0.00000000  0.13567800  1
  Mg  Mg11  1  0.33333333  0.66666667  0.53098867  1
  Mg  Mg12  1  0.66666667  0.33333333  0.46901133  1
  Mg  Mg13  1  0.00000000  0.00000000  0.86432200  1
  Mg  Mg14  1  0.33333333  0.66666667  0.80234467  1
  Si  Si15  1  0.66666667  0.33333333  0.09123233  1
  Si  Si16  1  0.00000000  0.00000000  0.24210100  1
  Si  Si17  1  0.33333333  0.66666667  0.42456567  1
  Si  Si18  1  0.66666667  0.33333333  0.57543433  1
  Si  Si19  1  0.00000000  0.00000000  0.75789900  1
  Si  Si20  1  0.33333333  0.66666667  0.90876767  1
