# generated using pymatgen
data_TaSn2
_symmetry_space_group_name_H-M   'P 1'
_cell_length_a   5.70538200
_cell_length_b   9.89420200
_cell_length_c   19.36122200
_cell_angle_alpha   90.00000000
_cell_angle_beta   90.00000000
_cell_angle_gamma   90.00000000
_symmetry_Int_Tables_number   1
_chemical_formula_structural   TaSn2
_chemical_formula_sum   'Ta16 Sn32'
_cell_volume   1092.94489277
_cell_formula_units_Z   16
loop_
 _symmetry_equiv_pos_site_id
 _symmetry_equiv_pos_as_xyz
  1  'x, y, z'
loop_
 _atom_site_type_symbol
 _atom_site_label
 _atom_site_symmetry_multiplicity
 _atom_site_fract_x
 _atom_site_fract_y
 _atom_site_fract_z
 _atom_site_occupancy
  Ta  Ta0  1  0.50000000  0.00000000  0.87294900  1
  Ta  Ta1  1  0.75000000  0.75000000  0.62294900  1
  Ta  Ta2  1  0.75000000  0.75000000  0.87705100  1
  Ta  Ta3  1  0.00000000  0.00000000  0.62705100  1
  Ta  Ta4  1  0.50000000  0.50000000  0.37294900  1
  Ta  Ta5  1  0.75000000  0.25000000  0.12294900  1
  Ta  Ta6  1  0.75000000  0.25000000  0.37705100  1
  Ta  Ta7  1  0.00000000  0.50000000  0.12705100  1
  Ta  Ta8  1  0.00000000  0.00000000  0.37294900  1
  Ta  Ta9  1  0.25000000  0.75000000  0.12294900  1
  Ta  Ta10  1  0.25000000  0.75000000  0.37705100  1
  Ta  Ta11  1  0.50000000  0.00000000  0.12705100  1
  Ta  Ta12  1  0.00000000  0.50000000  0.87294900  1
  Ta  Ta13  1  0.25000000  0.25000000  0.62294900  1
  Ta  Ta14  1  0.25000000  0.25000000  0.87705100  1
  Ta  Ta15  1  0.50000000  0.50000000  0.62705100  1
  Sn  Sn16  1  0.75000000  0.91823400  0.75000000  1
  Sn  Sn17  1  0.00000000  0.66823400  0.00000000  1
  Sn  Sn18  1  0.25000000  0.75000000  0.83153800  1
  Sn  Sn19  1  0.75000000  0.58176600  0.75000000  1
  Sn  Sn20  1  0.50000000  0.00000000  0.58153800  1
  Sn  Sn21  1  0.25000000  0.75000000  0.66846200  1
  Sn  Sn22  1  0.50000000  0.83176600  0.00000000  1
  Sn  Sn23  1  0.00000000  0.00000000  0.91846200  1
  Sn  Sn24  1  0.75000000  0.41823400  0.25000000  1
  Sn  Sn25  1  0.00000000  0.16823400  0.50000000  1
  Sn  Sn26  1  0.25000000  0.25000000  0.33153800  1
  Sn  Sn27  1  0.75000000  0.08176600  0.25000000  1
  Sn  Sn28  1  0.50000000  0.50000000  0.08153800  1
  Sn  Sn29  1  0.25000000  0.25000000  0.16846200  1
  Sn  Sn30  1  0.50000000  0.33176600  0.50000000  1
  Sn  Sn31  1  0.00000000  0.50000000  0.41846200  1
  Sn  Sn32  1  0.25000000  0.91823400  0.25000000  1
  Sn  Sn33  1  0.50000000  0.66823400  0.50000000  1
  Sn  Sn34  1  0.75000000  0.75000000  0.33153800  1
  Sn  Sn35  1  0.25000000  0.58176600  0.25000000  1
  Sn  Sn36  1  0.00000000  0.00000000  0.08153800  1
  Sn  Sn37  1  0.75000000  0.75000000  0.16846200  1
  Sn  Sn38  1  0.00000000  0.83176600  0.50000000  1
  Sn  Sn39  1  0.50000000  0.00000000  0.41846200  1
  Sn  Sn40  1  0.25000000  0.41823400  0.75000000  1
  Sn  Sn41  1  0.50000000  0.16823400  0.00000000  1
  Sn  Sn42  1  0.75000000  0.25000000  0.83153800  1
  Sn  Sn43  1  0.25000000  0.08176600  0.75000000  1
  Sn  Sn44  1  0.00000000  0.50000000  0.58153800  1
  Sn  Sn45  1  0.75000000  0.25000000  0.66846200  1
  Sn  Sn46  1  0.00000000  0.33176600  0.00000000  1
  Sn  Sn47  1  0.50000000  0.50000000  0.91846200  1
