# generated using pymatgen
data_Ga
_symmetry_space_group_name_H-M   'P 1'
_cell_length_a   10.65374800
_cell_length_b   13.70323400
_cell_length_c   5.27563200
_cell_angle_alpha   90.00000000
_cell_angle_beta   90.00000000
_cell_angle_gamma   90.00000000
_symmetry_Int_Tables_number   1
_chemical_formula_structural   Ga
_chemical_formula_sum   Ga40
_cell_volume   770.19374579
_cell_formula_units_Z   40
loop_
 _symmetry_equiv_pos_site_id
 _symmetry_equiv_pos_as_xyz
  1  'x, y, z'
loop_
 _atom_site_type_symbol
 _atom_site_label
 _atom_site_symmetry_multiplicity
 _atom_site_fract_x
 _atom_site_fract_y
 _atom_site_fract_z
 _atom_site_occupancy
  Ga  Ga0  1  0.27743250  0.94905350  0.75000000  1
  Ga  Ga1  1  0.50000000  0.89303300  0.49738600  1
  Ga  Ga2  1  0.72256750  0.05094650  0.25000000  1
  Ga  Ga3  1  0.77242650  0.86076150  0.25000000  1
  Ga  Ga4  1  0.62558450  0.29375850  0.75000000  1
  Ga  Ga5  1  0.37441550  0.70624150  0.25000000  1
  Ga  Ga6  1  0.37441550  0.29375850  0.75000000  1
  Ga  Ga7  1  0.50000000  0.49947200  0.75000000  1
  Ga  Ga8  1  0.22757350  0.13923850  0.75000000  1
  Ga  Ga9  1  0.22757350  0.86076150  0.25000000  1
  Ga  Ga10  1  0.50000000  0.89303300  0.00261400  1
  Ga  Ga11  1  0.50000000  0.28597100  0.25000000  1
  Ga  Ga12  1  0.27743250  0.05094650  0.25000000  1
  Ga  Ga13  1  0.50000000  0.71402900  0.75000000  1
  Ga  Ga14  1  0.50000000  0.10696700  0.99738600  1
  Ga  Ga15  1  0.62558450  0.70624150  0.25000000  1
  Ga  Ga16  1  0.50000000  0.50052800  0.25000000  1
  Ga  Ga17  1  0.72256750  0.94905350  0.75000000  1
  Ga  Ga18  1  0.50000000  0.10696700  0.50261400  1
  Ga  Ga19  1  0.77242650  0.13923850  0.75000000  1
  Ga  Ga20  1  0.77743250  0.44905350  0.75000000  1
  Ga  Ga21  1  0.00000000  0.39303300  0.49738600  1
  Ga  Ga22  1  0.22256750  0.55094650  0.25000000  1
  Ga  Ga23  1  0.27242650  0.36076150  0.25000000  1
  Ga  Ga24  1  0.12558450  0.79375850  0.75000000  1
  Ga  Ga25  1  0.87441550  0.20624150  0.25000000  1
  Ga  Ga26  1  0.87441550  0.79375850  0.75000000  1
  Ga  Ga27  1  0.00000000  0.99947200  0.75000000  1
  Ga  Ga28  1  0.72757350  0.63923850  0.75000000  1
  Ga  Ga29  1  0.72757350  0.36076150  0.25000000  1
  Ga  Ga30  1  0.00000000  0.39303300  0.00261400  1
  Ga  Ga31  1  0.00000000  0.78597100  0.25000000  1
  Ga  Ga32  1  0.77743250  0.55094650  0.25000000  1
  Ga  Ga33  1  0.00000000  0.21402900  0.75000000  1
  Ga  Ga34  1  0.00000000  0.60696700  0.99738600  1
  Ga  Ga35  1  0.12558450  0.20624150  0.25000000  1
  Ga  Ga36  1  0.00000000  0.00052800  0.25000000  1
  Ga  Ga37  1  0.22256750  0.44905350  0.75000000  1
  Ga  Ga38  1  0.00000000  0.60696700  0.50261400  1
  Ga  Ga39  1  0.27242650  0.63923850  0.75000000  1
