# generated using pymatgen
data_Ba(AsPd)2
_symmetry_space_group_name_H-M   'P 1'
_cell_length_a   4.54107400
_cell_length_b   4.54107400
_cell_length_c   21.05858400
_cell_angle_alpha   90.00000000
_cell_angle_beta   90.00000000
_cell_angle_gamma   90.00000000
_symmetry_Int_Tables_number   1
_chemical_formula_structural   Ba(AsPd)2
_chemical_formula_sum   'Ba4 As8 Pd8'
_cell_volume   434.25649589
_cell_formula_units_Z   4
loop_
 _symmetry_equiv_pos_site_id
 _symmetry_equiv_pos_as_xyz
  1  'x, y, z'
loop_
 _atom_site_type_symbol
 _atom_site_label
 _atom_site_symmetry_multiplicity
 _atom_site_fract_x
 _atom_site_fract_y
 _atom_site_fract_z
 _atom_site_occupancy
  Ba  Ba0  1  0.50000000  0.50000000  0.12351300  1
  Ba  Ba1  1  0.00000000  0.00000000  0.37648700  1
  Ba  Ba2  1  0.00000000  0.00000000  0.62351300  1
  Ba  Ba3  1  0.50000000  0.50000000  0.87648700  1
  As  As4  1  0.00000000  0.50000000  0.25000000  1
  As  As5  1  0.50000000  0.50000000  0.43326600  1
  As  As6  1  0.00000000  0.00000000  0.06673400  1
  As  As7  1  0.50000000  0.00000000  0.25000000  1
  As  As8  1  0.50000000  0.00000000  0.75000000  1
  As  As9  1  0.00000000  0.00000000  0.93326600  1
  As  As10  1  0.50000000  0.50000000  0.56673400  1
  As  As11  1  0.00000000  0.50000000  0.75000000  1
  Pd  Pd12  1  0.50000000  0.00000000  0.00000000  1
  Pd  Pd13  1  0.00000000  0.00000000  0.19263200  1
  Pd  Pd14  1  0.00000000  0.50000000  0.00000000  1
  Pd  Pd15  1  0.50000000  0.50000000  0.30736800  1
  Pd  Pd16  1  0.00000000  0.50000000  0.50000000  1
  Pd  Pd17  1  0.50000000  0.50000000  0.69263200  1
  Pd  Pd18  1  0.50000000  0.00000000  0.50000000  1
  Pd  Pd19  1  0.00000000  0.00000000  0.80736800  1
