# generated using pymatgen
data_Sr2CuO3
_symmetry_space_group_name_H-M   'P 1'
_cell_length_a   3.54867200
_cell_length_b   3.97322200
_cell_length_c   12.69274000
_cell_angle_alpha   90.00000000
_cell_angle_beta   90.00000000
_cell_angle_gamma   90.00000000
_symmetry_Int_Tables_number   1
_chemical_formula_structural   Sr2CuO3
_chemical_formula_sum   'Sr4 Cu2 O6'
_cell_volume   178.96333955
_cell_formula_units_Z   2
loop_
 _symmetry_equiv_pos_site_id
 _symmetry_equiv_pos_as_xyz
  1  'x, y, z'
loop_
 _atom_site_type_symbol
 _atom_site_label
 _atom_site_symmetry_multiplicity
 _atom_site_fract_x
 _atom_site_fract_y
 _atom_site_fract_z
 _atom_site_occupancy
  Sr  Sr0  1  0.00000000  0.50000000  0.64678200  1
  Sr  Sr1  1  0.50000000  0.00000000  0.85321800  1
  Sr  Sr2  1  0.50000000  0.00000000  0.14678200  1
  Sr  Sr3  1  0.00000000  0.50000000  0.35321800  1
  Cu  Cu4  1  0.00000000  0.50000000  0.00000000  1
  Cu  Cu5  1  0.50000000  0.00000000  0.50000000  1
  O  O6  1  0.00000000  0.00000000  0.00000000  1
  O  O7  1  0.00000000  0.50000000  0.84529200  1
  O  O8  1  0.50000000  0.00000000  0.65470800  1
  O  O9  1  0.50000000  0.50000000  0.50000000  1
  O  O10  1  0.50000000  0.00000000  0.34529200  1
  O  O11  1  0.00000000  0.50000000  0.15470800  1
