# generated using pymatgen
data_Li15Si4
_symmetry_space_group_name_H-M   'P 1'
_cell_length_a   10.56604800
_cell_length_b   10.56604800
_cell_length_c   10.56604800
_cell_angle_alpha   90.00000000
_cell_angle_beta   90.00000000
_cell_angle_gamma   90.00000000
_symmetry_Int_Tables_number   1
_chemical_formula_structural   Li15Si4
_chemical_formula_sum   'Li60 Si16'
_cell_volume   1179.60807778
_cell_formula_units_Z   4
loop_
 _symmetry_equiv_pos_site_id
 _symmetry_equiv_pos_as_xyz
  1  'x, y, z'
loop_
 _atom_site_type_symbol
 _atom_site_label
 _atom_site_symmetry_multiplicity
 _atom_site_fract_x
 _atom_site_fract_y
 _atom_site_fract_z
 _atom_site_occupancy
  Li  Li0  1  0.59608750  0.12692850  0.21344150  1
  Li  Li1  1  0.75000000  0.12500000  0.00000000  1
  Li  Li2  1  0.21344150  0.59608750  0.12692850  1
  Li  Li3  1  0.37307150  0.21344150  0.40391250  1
  Li  Li4  1  0.78655850  0.90391250  0.12692850  1
  Li  Li5  1  0.15391250  0.96344150  0.12307150  1
  Li  Li6  1  0.90391250  0.12692850  0.78655850  1
  Li  Li7  1  0.96344150  0.12307150  0.15391250  1
  Li  Li8  1  0.37692850  0.15391250  0.03655850  1
  Li  Li9  1  0.21344150  0.40391250  0.37307150  1
  Li  Li10  1  0.12692850  0.78655850  0.90391250  1
  Li  Li11  1  0.03655850  0.37692850  0.15391250  1
  Li  Li12  1  0.00000000  0.25000000  0.37500000  1
  Li  Li13  1  0.28655850  0.59608750  0.87307150  1
  Li  Li14  1  0.00000000  0.75000000  0.12500000  1
  Li  Li15  1  0.03655850  0.62307150  0.34608750  1
  Li  Li16  1  0.15391250  0.03655850  0.37692850  1
  Li  Li17  1  0.12307150  0.15391250  0.96344150  1
  Li  Li18  1  0.37692850  0.84608750  0.46344150  1
  Li  Li19  1  0.12500000  0.00000000  0.75000000  1
  Li  Li20  1  0.87307150  0.28655850  0.59608750  1
  Li  Li21  1  0.40391250  0.37307150  0.21344150  1
  Li  Li22  1  0.62307150  0.34608750  0.03655850  1
  Li  Li23  1  0.12692850  0.21344150  0.59608750  1
  Li  Li24  1  0.34608750  0.03655850  0.62307150  1
  Li  Li25  1  0.59608750  0.87307150  0.28655850  1
  Li  Li26  1  0.46344150  0.37692850  0.84608750  1
  Li  Li27  1  0.25000000  0.37500000  0.00000000  1
  Li  Li28  1  0.84608750  0.46344150  0.37692850  1
  Li  Li29  1  0.37500000  0.00000000  0.25000000  1
  Li  Li30  1  0.09608750  0.62692850  0.71344150  1
  Li  Li31  1  0.25000000  0.62500000  0.50000000  1
  Li  Li32  1  0.71344150  0.09608750  0.62692850  1
  Li  Li33  1  0.87307150  0.71344150  0.90391250  1
  Li  Li34  1  0.28655850  0.40391250  0.62692850  1
  Li  Li35  1  0.65391250  0.46344150  0.62307150  1
  Li  Li36  1  0.40391250  0.62692850  0.28655850  1
  Li  Li37  1  0.46344150  0.62307150  0.65391250  1
  Li  Li38  1  0.87692850  0.65391250  0.53655850  1
  Li  Li39  1  0.71344150  0.90391250  0.87307150  1
  Li  Li40  1  0.62692850  0.28655850  0.40391250  1
  Li  Li41  1  0.53655850  0.87692850  0.65391250  1
  Li  Li42  1  0.50000000  0.75000000  0.87500000  1
  Li  Li43  1  0.78655850  0.09608750  0.37307150  1
  Li  Li44  1  0.50000000  0.25000000  0.62500000  1
  Li  Li45  1  0.53655850  0.12307150  0.84608750  1
  Li  Li46  1  0.65391250  0.53655850  0.87692850  1
  Li  Li47  1  0.62307150  0.65391250  0.46344150  1
  Li  Li48  1  0.87692850  0.34608750  0.96344150  1
  Li  Li49  1  0.62500000  0.50000000  0.25000000  1
  Li  Li50  1  0.37307150  0.78655850  0.09608750  1
  Li  Li51  1  0.90391250  0.87307150  0.71344150  1
  Li  Li52  1  0.12307150  0.84608750  0.53655850  1
  Li  Li53  1  0.62692850  0.71344150  0.09608750  1
  Li  Li54  1  0.84608750  0.53655850  0.12307150  1
  Li  Li55  1  0.09608750  0.37307150  0.78655850  1
  Li  Li56  1  0.96344150  0.87692850  0.34608750  1
  Li  Li57  1  0.75000000  0.87500000  0.50000000  1
  Li  Li58  1  0.34608750  0.96344150  0.87692850  1
  Li  Li59  1  0.87500000  0.50000000  0.75000000  1
  Si  Si60  1  0.04242800  0.54242800  0.95757200  1
  Si  Si61  1  0.95757200  0.04242800  0.54242800  1
  Si  Si62  1  0.79242800  0.29242800  0.20757200  1
  Si  Si63  1  0.29242800  0.20757200  0.79242800  1
  Si  Si64  1  0.54242800  0.95757200  0.04242800  1
  Si  Si65  1  0.20757200  0.79242800  0.29242800  1
  Si  Si66  1  0.20757200  0.20757200  0.20757200  1
  Si  Si67  1  0.45757200  0.45757200  0.45757200  1
  Si  Si68  1  0.54242800  0.04242800  0.45757200  1
  Si  Si69  1  0.45757200  0.54242800  0.04242800  1
  Si  Si70  1  0.29242800  0.79242800  0.70757200  1
  Si  Si71  1  0.79242800  0.70757200  0.29242800  1
  Si  Si72  1  0.04242800  0.45757200  0.54242800  1
  Si  Si73  1  0.70757200  0.29242800  0.79242800  1
  Si  Si74  1  0.70757200  0.70757200  0.70757200  1
  Si  Si75  1  0.95757200  0.95757200  0.95757200  1
