# generated using pymatgen
data_SrCuO2
_symmetry_space_group_name_H-M   'P 1'
_cell_length_a   3.64443800
_cell_length_b   16.25463800
_cell_length_c   3.97426300
_cell_angle_alpha   90.00000000
_cell_angle_beta   90.00000000
_cell_angle_gamma   90.00000000
_symmetry_Int_Tables_number   1
_chemical_formula_structural   SrCuO2
_chemical_formula_sum   'Sr4 Cu4 O8'
_cell_volume   235.43144695
_cell_formula_units_Z   4
loop_
 _symmetry_equiv_pos_site_id
 _symmetry_equiv_pos_as_xyz
  1  'x, y, z'
loop_
 _atom_site_type_symbol
 _atom_site_label
 _atom_site_symmetry_multiplicity
 _atom_site_fract_x
 _atom_site_fract_y
 _atom_site_fract_z
 _atom_site_occupancy
  Sr  Sr0  1  0.50000000  0.83259000  0.25000000  1
  Sr  Sr1  1  0.00000000  0.66741000  0.75000000  1
  Sr  Sr2  1  0.00000000  0.33259000  0.25000000  1
  Sr  Sr3  1  0.50000000  0.16741000  0.75000000  1
  Cu  Cu4  1  0.00000000  0.93783500  0.75000000  1
  Cu  Cu5  1  0.50000000  0.56216500  0.25000000  1
  Cu  Cu6  1  0.50000000  0.43783500  0.75000000  1
  Cu  Cu7  1  0.00000000  0.06216500  0.25000000  1
  O  O8  1  0.50000000  0.67961900  0.25000000  1
  O  O9  1  0.00000000  0.82038100  0.75000000  1
  O  O10  1  0.50000000  0.55515800  0.75000000  1
  O  O11  1  0.00000000  0.94484200  0.25000000  1
  O  O12  1  0.00000000  0.17961900  0.25000000  1
  O  O13  1  0.50000000  0.32038100  0.75000000  1
  O  O14  1  0.00000000  0.05515800  0.75000000  1
  O  O15  1  0.50000000  0.44484200  0.25000000  1
