# generated using pymatgen
data_Ho(FeB)2
_symmetry_space_group_name_H-M   'P 1'
_cell_length_a   3.60281800
_cell_length_b   3.60281800
_cell_length_c   9.31771000
_cell_angle_alpha   90.00000000
_cell_angle_beta   90.00000000
_cell_angle_gamma   90.00000000
_symmetry_Int_Tables_number   1
_chemical_formula_structural   Ho(FeB)2
_chemical_formula_sum   'Ho2 Fe4 B4'
_cell_volume   120.94664820
_cell_formula_units_Z   2
loop_
 _symmetry_equiv_pos_site_id
 _symmetry_equiv_pos_as_xyz
  1  'x, y, z'
loop_
 _atom_site_type_symbol
 _atom_site_label
 _atom_site_symmetry_multiplicity
 _atom_site_fract_x
 _atom_site_fract_y
 _atom_site_fract_z
 _atom_site_occupancy
  Ho  Ho0  1  0.00000000  0.00000000  0.00000000  1
  Ho  Ho1  1  0.50000000  0.50000000  0.50000000  1
  Fe  Fe2  1  0.00000000  0.50000000  0.25000000  1
  Fe  Fe3  1  0.50000000  0.00000000  0.25000000  1
  Fe  Fe4  1  0.50000000  0.00000000  0.75000000  1
  Fe  Fe5  1  0.00000000  0.50000000  0.75000000  1
  B  B6  1  0.00000000  0.00000000  0.34322700  1
  B  B7  1  0.50000000  0.50000000  0.15677300  1
  B  B8  1  0.50000000  0.50000000  0.84322700  1
  B  B9  1  0.00000000  0.00000000  0.65677300  1
