# generated using pymatgen
data_Ca2Cu(BrO)2
_symmetry_space_group_name_H-M   'P 1'
_cell_length_a   3.88489600
_cell_length_b   3.88489600
_cell_length_c   17.69836000
_cell_angle_alpha   90.00000000
_cell_angle_beta   90.00000000
_cell_angle_gamma   90.00000000
_symmetry_Int_Tables_number   1
_chemical_formula_structural   Ca2Cu(BrO)2
_chemical_formula_sum   'Ca4 Cu2 Br4 O4'
_cell_volume   267.11102811
_cell_formula_units_Z   2
loop_
 _symmetry_equiv_pos_site_id
 _symmetry_equiv_pos_as_xyz
  1  'x, y, z'
loop_
 _atom_site_type_symbol
 _atom_site_label
 _atom_site_symmetry_multiplicity
 _atom_site_fract_x
 _atom_site_fract_y
 _atom_site_fract_z
 _atom_site_occupancy
  Ca  Ca0  1  0.00000000  0.00000000  0.41112300  1
  Ca  Ca1  1  0.50000000  0.50000000  0.08887700  1
  Ca  Ca2  1  0.50000000  0.50000000  0.91112300  1
  Ca  Ca3  1  0.00000000  0.00000000  0.58887700  1
  Cu  Cu4  1  0.00000000  0.00000000  0.00000000  1
  Cu  Cu5  1  0.50000000  0.50000000  0.50000000  1
  Br  Br6  1  0.50000000  0.50000000  0.32966400  1
  Br  Br7  1  0.00000000  0.00000000  0.17033600  1
  Br  Br8  1  0.00000000  0.00000000  0.82966400  1
  Br  Br9  1  0.50000000  0.50000000  0.67033600  1
  O  O10  1  0.50000000  0.00000000  0.00000000  1
  O  O11  1  0.00000000  0.50000000  0.00000000  1
  O  O12  1  0.00000000  0.50000000  0.50000000  1
  O  O13  1  0.50000000  0.00000000  0.50000000  1
