# generated using pymatgen
data_NdCoSi2
_symmetry_space_group_name_H-M   'P 1'
_cell_length_a   4.16454200
_cell_length_b   16.33629200
_cell_length_c   4.07003500
_cell_angle_alpha   90.00000000
_cell_angle_beta   90.00000000
_cell_angle_gamma   90.00000000
_symmetry_Int_Tables_number   1
_chemical_formula_structural   NdCoSi2
_chemical_formula_sum   'Nd4 Co4 Si8'
_cell_volume   276.89739999
_cell_formula_units_Z   4
loop_
 _symmetry_equiv_pos_site_id
 _symmetry_equiv_pos_as_xyz
  1  'x, y, z'
loop_
 _atom_site_type_symbol
 _atom_site_label
 _atom_site_symmetry_multiplicity
 _atom_site_fract_x
 _atom_site_fract_y
 _atom_site_fract_z
 _atom_site_occupancy
  Nd  Nd0  1  0.50000000  0.39316800  0.75000000  1
  Nd  Nd1  1  0.00000000  0.10683200  0.25000000  1
  Nd  Nd2  1  0.00000000  0.89316800  0.75000000  1
  Nd  Nd3  1  0.50000000  0.60683200  0.25000000  1
  Co  Co4  1  0.00000000  0.31803900  0.25000000  1
  Co  Co5  1  0.50000000  0.18196100  0.75000000  1
  Co  Co6  1  0.50000000  0.81803900  0.25000000  1
  Co  Co7  1  0.00000000  0.68196100  0.75000000  1
  Si  Si8  1  0.00000000  0.24970200  0.75000000  1
  Si  Si9  1  0.50000000  0.25029800  0.25000000  1
  Si  Si10  1  0.00000000  0.45640900  0.25000000  1
  Si  Si11  1  0.50000000  0.04359100  0.75000000  1
  Si  Si12  1  0.50000000  0.74970200  0.75000000  1
  Si  Si13  1  0.00000000  0.75029800  0.25000000  1
  Si  Si14  1  0.50000000  0.95640900  0.25000000  1
  Si  Si15  1  0.00000000  0.54359100  0.75000000  1
