# generated using pymatgen
data_Ga
_symmetry_space_group_name_H-M   'P 1'
_cell_length_a   9.14258026
_cell_length_b   9.14258026
_cell_length_c   17.45205491
_cell_angle_alpha   90.00000000
_cell_angle_beta   90.00000000
_cell_angle_gamma   120.00000000
_symmetry_Int_Tables_number   1
_chemical_formula_structural   Ga
_chemical_formula_sum   Ga66
_cell_volume   1263.32405610
_cell_formula_units_Z   66
loop_
 _symmetry_equiv_pos_site_id
 _symmetry_equiv_pos_as_xyz
  1  'x, y, z'
loop_
 _atom_site_type_symbol
 _atom_site_label
 _atom_site_symmetry_multiplicity
 _atom_site_fract_x
 _atom_site_fract_y
 _atom_site_fract_z
 _atom_site_occupancy
  Ga  Ga0  1  0.23143767  0.76856233  0.08865733  1
  Ga  Ga1  1  0.43522900  0.56477100  0.24467600  1
  Ga  Ga2  1  0.10087600  0.89912400  0.17967300  1
  Ga  Ga3  1  0.16044967  0.83955033  0.93609633  1
  Ga  Ga4  1  0.56579067  0.43420933  0.15366033  1
  Ga  Ga5  1  0.50621700  0.49378300  0.39723700  1
  Ga  Ga6  1  0.23143767  0.46287533  0.08865733  1
  Ga  Ga7  1  0.12954200  0.56477100  0.24467600  1
  Ga  Ga8  1  0.86841867  0.43420933  0.15366033  1
  Ga  Ga9  1  0.67910067  0.83955033  0.93609633  1
  Ga  Ga10  1  0.50621700  0.01243400  0.39723700  1
  Ga  Ga11  1  0.43522900  0.87045800  0.24467600  1
  Ga  Ga12  1  0.50000000  0.50000000  0.00000000  1
  Ga  Ga13  1  0.53712467  0.76856233  0.08865733  1
  Ga  Ga14  1  0.79824800  0.89912400  0.17967300  1
  Ga  Ga15  1  0.56579067  0.13158133  0.15366033  1
  Ga  Ga16  1  0.16666667  0.33333333  0.33333333  1
  Ga  Ga17  1  0.16044967  0.32089933  0.93609633  1
  Ga  Ga18  1  0.98756600  0.49378300  0.39723700  1
  Ga  Ga19  1  0.00000000  0.00000000  0.00000000  1
  Ga  Ga20  1  0.10087600  0.20175200  0.17967300  1
  Ga  Ga21  1  0.00000000  0.50000000  0.00000000  1
  Ga  Ga22  1  0.89810433  0.10189567  0.42199067  1
  Ga  Ga23  1  0.10189567  0.89810433  0.57800933  1
  Ga  Ga24  1  0.76754267  0.23245733  0.51300633  1
  Ga  Ga25  1  0.82711633  0.17288367  0.26942967  1
  Ga  Ga26  1  0.23245733  0.76754267  0.48699367  1
  Ga  Ga27  1  0.17288367  0.82711633  0.73057033  1
  Ga  Ga28  1  0.89810433  0.79620867  0.42199067  1
  Ga  Ga29  1  0.79620867  0.89810433  0.57800933  1
  Ga  Ga30  1  0.53508533  0.76754267  0.48699367  1
  Ga  Ga31  1  0.34576733  0.17288367  0.26942967  1
  Ga  Ga32  1  0.17288367  0.34576733  0.73057033  1
  Ga  Ga33  1  0.10189567  0.20379133  0.57800933  1
  Ga  Ga34  1  0.16666667  0.83333333  0.33333333  1
  Ga  Ga35  1  0.20379133  0.10189567  0.42199067  1
  Ga  Ga36  1  0.46491467  0.23245733  0.51300633  1
  Ga  Ga37  1  0.23245733  0.46491467  0.48699367  1
  Ga  Ga38  1  0.83333333  0.66666667  0.66666667  1
  Ga  Ga39  1  0.82711633  0.65423267  0.26942967  1
  Ga  Ga40  1  0.65423267  0.82711633  0.73057033  1
  Ga  Ga41  1  0.66666667  0.33333333  0.33333333  1
  Ga  Ga42  1  0.76754267  0.53508533  0.51300633  1
  Ga  Ga43  1  0.66666667  0.83333333  0.33333333  1
  Ga  Ga44  1  0.56477100  0.43522900  0.75532400  1
  Ga  Ga45  1  0.76856233  0.23143767  0.91134267  1
  Ga  Ga46  1  0.43420933  0.56579067  0.84633967  1
  Ga  Ga47  1  0.49378300  0.50621700  0.60276300  1
  Ga  Ga48  1  0.89912400  0.10087600  0.82032700  1
  Ga  Ga49  1  0.83955033  0.16044967  0.06390367  1
  Ga  Ga50  1  0.56477100  0.12954200  0.75532400  1
  Ga  Ga51  1  0.46287533  0.23143767  0.91134267  1
  Ga  Ga52  1  0.20175200  0.10087600  0.82032700  1
  Ga  Ga53  1  0.01243400  0.50621700  0.60276300  1
  Ga  Ga54  1  0.83955033  0.67910067  0.06390367  1
  Ga  Ga55  1  0.76856233  0.53712467  0.91134267  1
  Ga  Ga56  1  0.83333333  0.16666667  0.66666667  1
  Ga  Ga57  1  0.87045800  0.43522900  0.75532400  1
  Ga  Ga58  1  0.13158133  0.56579067  0.84633967  1
  Ga  Ga59  1  0.89912400  0.79824800  0.82032700  1
  Ga  Ga60  1  0.50000000  0.00000000  0.00000000  1
  Ga  Ga61  1  0.49378300  0.98756600  0.60276300  1
  Ga  Ga62  1  0.32089933  0.16044967  0.06390367  1
  Ga  Ga63  1  0.33333333  0.66666667  0.66666667  1
  Ga  Ga64  1  0.43420933  0.86841867  0.84633967  1
  Ga  Ga65  1  0.33333333  0.16666667  0.66666667  1
