# generated using pymatgen
data_Ni3(SnS)2
_symmetry_space_group_name_H-M   'P 1'
_cell_length_a   5.53935361
_cell_length_b   5.53935361
_cell_length_c   13.19002319
_cell_angle_alpha   90.00000000
_cell_angle_beta   90.00000000
_cell_angle_gamma   120.00000000
_symmetry_Int_Tables_number   1
_chemical_formula_structural   Ni3(SnS)2
_chemical_formula_sum   'Ni9 Sn6 S6'
_cell_volume   350.50512346
_cell_formula_units_Z   3
loop_
 _symmetry_equiv_pos_site_id
 _symmetry_equiv_pos_as_xyz
  1  'x, y, z'
loop_
 _atom_site_type_symbol
 _atom_site_label
 _atom_site_symmetry_multiplicity
 _atom_site_fract_x
 _atom_site_fract_y
 _atom_site_fract_z
 _atom_site_occupancy
  Ni  Ni0  1  0.16666667  0.33333333  0.33333333  1
  Ni  Ni1  1  0.50000000  0.50000000  0.00000000  1
  Ni  Ni2  1  0.00000000  0.50000000  0.00000000  1
  Ni  Ni3  1  0.83333333  0.66666667  0.66666667  1
  Ni  Ni4  1  0.16666667  0.83333333  0.33333333  1
  Ni  Ni5  1  0.66666667  0.83333333  0.33333333  1
  Ni  Ni6  1  0.50000000  0.00000000  0.00000000  1
  Ni  Ni7  1  0.83333333  0.16666667  0.66666667  1
  Ni  Ni8  1  0.33333333  0.16666667  0.66666667  1
  Sn  Sn9  1  0.00000000  0.00000000  0.00000000  1
  Sn  Sn10  1  0.33333333  0.66666667  0.16666667  1
  Sn  Sn11  1  0.66666667  0.33333333  0.33333333  1
  Sn  Sn12  1  1.00000000  1.00000000  0.50000000  1
  Sn  Sn13  1  0.33333333  0.66666667  0.66666667  1
  Sn  Sn14  1  0.66666667  0.33333333  0.83333333  1
  S  S15  1  0.33333333  0.66666667  0.88728867  1
  S  S16  1  0.33333333  0.66666667  0.44604467  1
  S  S17  1  0.00000000  0.00000000  0.22062200  1
  S  S18  1  0.00000000  0.00000000  0.77937800  1
  S  S19  1  0.66666667  0.33333333  0.55395533  1
  S  S20  1  0.66666667  0.33333333  0.11271133  1
