# generated using pymatgen
data_RbFeS2
_symmetry_space_group_name_H-M   'P 1'
_cell_length_a   7.27998200
_cell_length_b   11.72064200
_cell_length_c   5.44141432
_cell_angle_alpha   90.00000000
_cell_angle_beta   111.49285885
_cell_angle_gamma   90.00000000
_symmetry_Int_Tables_number   1
_chemical_formula_structural   RbFeS2
_chemical_formula_sum   'Rb4 Fe4 S8'
_cell_volume   432.00892764
_cell_formula_units_Z   4
loop_
 _symmetry_equiv_pos_site_id
 _symmetry_equiv_pos_as_xyz
  1  'x, y, z'
loop_
 _atom_site_type_symbol
 _atom_site_label
 _atom_site_symmetry_multiplicity
 _atom_site_fract_x
 _atom_site_fract_y
 _atom_site_fract_z
 _atom_site_occupancy
  Rb  Rb0  1  0.50000000  0.85403400  0.75000000  1
  Rb  Rb1  1  0.50000000  0.14596600  0.25000000  1
  Rb  Rb2  1  0.00000000  0.35403400  0.75000000  1
  Rb  Rb3  1  0.00000000  0.64596600  0.25000000  1
  Fe  Fe4  1  0.50000000  0.50249500  0.25000000  1
  Fe  Fe5  1  0.50000000  0.49750500  0.75000000  1
  Fe  Fe6  1  0.00000000  0.00249500  0.25000000  1
  Fe  Fe7  1  0.00000000  0.99750500  0.75000000  1
  S  S8  1  0.81363000  0.90162200  0.40479900  1
  S  S9  1  0.18637000  0.90162200  0.09520100  1
  S  S10  1  0.81363000  0.09837800  0.90479900  1
  S  S11  1  0.18637000  0.09837800  0.59520100  1
  S  S12  1  0.31363000  0.40162200  0.40479900  1
  S  S13  1  0.68637000  0.40162200  0.09520100  1
  S  S14  1  0.31363000  0.59837800  0.90479900  1
  S  S15  1  0.68637000  0.59837800  0.59520100  1
