# generated using pymatgen
data_YbTaO4
_symmetry_space_group_name_H-M   'P 1'
_cell_length_a   7.19318000
_cell_length_b   10.91852000
_cell_length_c   5.10378981
_cell_angle_alpha   90.00000000
_cell_angle_beta   130.68736751
_cell_angle_gamma   90.00000000
_symmetry_Int_Tables_number   1
_chemical_formula_structural   YbTaO4
_chemical_formula_sum   'Yb4 Ta4 O16'
_cell_volume   303.95268999
_cell_formula_units_Z   4
loop_
 _symmetry_equiv_pos_site_id
 _symmetry_equiv_pos_as_xyz
  1  'x, y, z'
loop_
 _atom_site_type_symbol
 _atom_site_label
 _atom_site_symmetry_multiplicity
 _atom_site_fract_x
 _atom_site_fract_y
 _atom_site_fract_z
 _atom_site_occupancy
  Yb  Yb0  1  0.00000000  0.13007000  0.75000000  1
  Yb  Yb1  1  0.50000000  0.36993000  0.25000000  1
  Yb  Yb2  1  0.50000000  0.63007000  0.75000000  1
  Yb  Yb3  1  0.00000000  0.86993000  0.25000000  1
  Ta  Ta4  1  0.50000000  0.10270100  0.75000000  1
  Ta  Ta5  1  0.00000000  0.39729900  0.25000000  1
  Ta  Ta6  1  0.00000000  0.60270100  0.75000000  1
  Ta  Ta7  1  0.50000000  0.89729900  0.25000000  1
  O  O8  1  0.23406550  0.47171250  0.70317700  1
  O  O9  1  0.66273250  0.21311150  0.67425300  1
  O  O10  1  0.26593450  0.02828750  0.29682300  1
  O  O11  1  0.33726750  0.21311150  0.82574700  1
  O  O12  1  0.16273250  0.28688850  0.17425300  1
  O  O13  1  0.73406550  0.02828750  0.20317700  1
  O  O14  1  0.83726750  0.28688850  0.32574700  1
  O  O15  1  0.76593450  0.47171250  0.79682300  1
  O  O16  1  0.73406550  0.97171250  0.70317700  1
  O  O17  1  0.16273250  0.71311150  0.67425300  1
  O  O18  1  0.76593450  0.52828750  0.29682300  1
  O  O19  1  0.83726750  0.71311150  0.82574700  1
  O  O20  1  0.66273250  0.78688850  0.17425300  1
  O  O21  1  0.23406550  0.52828750  0.20317700  1
  O  O22  1  0.33726750  0.78688850  0.32574700  1
  O  O23  1  0.26593450  0.97171250  0.79682300  1
