# generated using pymatgen
data_Nb5Ga3
_symmetry_space_group_name_H-M   'P 1'
_cell_length_a   10.35672400
_cell_length_b   10.35672400
_cell_length_c   5.10811000
_cell_angle_alpha   90.00000000
_cell_angle_beta   90.00000000
_cell_angle_gamma   90.00000000
_symmetry_Int_Tables_number   1
_chemical_formula_structural   Nb5Ga3
_chemical_formula_sum   'Nb20 Ga12'
_cell_volume   547.90472591
_cell_formula_units_Z   4
loop_
 _symmetry_equiv_pos_site_id
 _symmetry_equiv_pos_as_xyz
  1  'x, y, z'
loop_
 _atom_site_type_symbol
 _atom_site_label
 _atom_site_symmetry_multiplicity
 _atom_site_fract_x
 _atom_site_fract_y
 _atom_site_fract_z
 _atom_site_occupancy
  Nb  Nb0  1  0.50000000  0.00000000  0.25000000  1
  Nb  Nb1  1  0.50000000  0.00000000  0.75000000  1
  Nb  Nb2  1  0.22166050  0.07556850  0.50000000  1
  Nb  Nb3  1  0.77833950  0.92443150  0.50000000  1
  Nb  Nb4  1  0.77833950  0.07556850  0.00000000  1
  Nb  Nb5  1  0.22166050  0.92443150  0.00000000  1
  Nb  Nb6  1  0.57556850  0.27833950  0.00000000  1
  Nb  Nb7  1  0.42443150  0.72166050  0.00000000  1
  Nb  Nb8  1  0.57556850  0.72166050  0.50000000  1
  Nb  Nb9  1  0.42443150  0.27833950  0.50000000  1
  Nb  Nb10  1  0.00000000  0.50000000  0.75000000  1
  Nb  Nb11  1  0.00000000  0.50000000  0.25000000  1
  Nb  Nb12  1  0.72166050  0.57556850  0.00000000  1
  Nb  Nb13  1  0.27833950  0.42443150  0.00000000  1
  Nb  Nb14  1  0.27833950  0.57556850  0.50000000  1
  Nb  Nb15  1  0.72166050  0.42443150  0.50000000  1
  Nb  Nb16  1  0.07556850  0.77833950  0.50000000  1
  Nb  Nb17  1  0.92443150  0.22166050  0.50000000  1
  Nb  Nb18  1  0.07556850  0.22166050  0.00000000  1
  Nb  Nb19  1  0.92443150  0.77833950  0.00000000  1
  Ga  Ga20  1  0.00000000  0.00000000  0.25000000  1
  Ga  Ga21  1  0.00000000  0.00000000  0.75000000  1
  Ga  Ga22  1  0.66578150  0.16578150  0.50000000  1
  Ga  Ga23  1  0.33421850  0.83421850  0.50000000  1
  Ga  Ga24  1  0.33421850  0.16578150  0.00000000  1
  Ga  Ga25  1  0.66578150  0.83421850  0.00000000  1
  Ga  Ga26  1  0.50000000  0.50000000  0.75000000  1
  Ga  Ga27  1  0.50000000  0.50000000  0.25000000  1
  Ga  Ga28  1  0.16578150  0.66578150  0.00000000  1
  Ga  Ga29  1  0.83421850  0.33421850  0.00000000  1
  Ga  Ga30  1  0.83421850  0.66578150  0.50000000  1
  Ga  Ga31  1  0.16578150  0.33421850  0.50000000  1
