# generated using pymatgen
data_Hf2Al4C5
_symmetry_space_group_name_H-M   'P 1'
_cell_length_a   3.33858575
_cell_length_b   3.33858575
_cell_length_c   40.84707728
_cell_angle_alpha   90.00000000
_cell_angle_beta   90.00000000
_cell_angle_gamma   120.00000000
_symmetry_Int_Tables_number   1
_chemical_formula_structural   Hf2Al4C5
_chemical_formula_sum   'Hf6 Al12 C15'
_cell_volume   394.29084179
_cell_formula_units_Z   3
loop_
 _symmetry_equiv_pos_site_id
 _symmetry_equiv_pos_as_xyz
  1  'x, y, z'
loop_
 _atom_site_type_symbol
 _atom_site_label
 _atom_site_symmetry_multiplicity
 _atom_site_fract_x
 _atom_site_fract_y
 _atom_site_fract_z
 _atom_site_occupancy
  Hf  Hf0  1  0.33333333  0.66666667  0.03261867  1
  Hf  Hf1  1  0.33333333  0.66666667  0.30071467  1
  Hf  Hf2  1  0.00000000  0.00000000  0.36595200  1
  Hf  Hf3  1  0.00000000  0.00000000  0.63404800  1
  Hf  Hf4  1  0.66666667  0.33333333  0.69928533  1
  Hf  Hf5  1  0.66666667  0.33333333  0.96738133  1
  Al  Al6  1  0.66666667  0.33333333  0.24483733  1
  Al  Al7  1  0.00000000  0.00000000  0.18937500  1
  Al  Al8  1  0.66666667  0.33333333  0.14395833  1
  Al  Al9  1  0.00000000  0.00000000  0.08849600  1
  Al  Al10  1  0.33333333  0.66666667  0.57817067  1
  Al  Al11  1  0.66666667  0.33333333  0.52270833  1
  Al  Al12  1  0.33333333  0.66666667  0.47729167  1
  Al  Al13  1  0.66666667  0.33333333  0.42182933  1
  Al  Al14  1  0.00000000  0.00000000  0.91150400  1
  Al  Al15  1  0.33333333  0.66666667  0.85604167  1
  Al  Al16  1  0.00000000  0.00000000  0.81062500  1
  Al  Al17  1  0.33333333  0.66666667  0.75516267  1
  C  C18  1  0.00000000  0.00000000  0.26742300  1
  C  C19  1  0.66666667  0.33333333  0.06591033  1
  C  C20  1  0.00000000  0.00000000  0.00000000  1
  C  C21  1  0.00000000  0.00000000  0.13599800  1
  C  C22  1  0.66666667  0.33333333  0.19733533  1
  C  C23  1  0.66666667  0.33333333  0.60075633  1
  C  C24  1  0.33333333  0.66666667  0.39924367  1
  C  C25  1  0.66666667  0.33333333  0.33333333  1
  C  C26  1  0.66666667  0.33333333  0.46933133  1
  C  C27  1  0.33333333  0.66666667  0.53066867  1
  C  C28  1  0.33333333  0.66666667  0.93408967  1
  C  C29  1  0.00000000  0.00000000  0.73257700  1
  C  C30  1  0.33333333  0.66666667  0.66666667  1
  C  C31  1  0.33333333  0.66666667  0.80266467  1
  C  C32  1  0.00000000  0.00000000  0.86400200  1
