# generated using pymatgen
data_Nd(SiOs)2
_symmetry_space_group_name_H-M   'P 1'
_cell_length_a   4.21552200
_cell_length_b   4.21552200
_cell_length_c   9.89308600
_cell_angle_alpha   90.00000000
_cell_angle_beta   90.00000000
_cell_angle_gamma   90.00000000
_symmetry_Int_Tables_number   1
_chemical_formula_structural   Nd(SiOs)2
_chemical_formula_sum   'Nd2 Si4 Os4'
_cell_volume   175.80632865
_cell_formula_units_Z   2
loop_
 _symmetry_equiv_pos_site_id
 _symmetry_equiv_pos_as_xyz
  1  'x, y, z'
loop_
 _atom_site_type_symbol
 _atom_site_label
 _atom_site_symmetry_multiplicity
 _atom_site_fract_x
 _atom_site_fract_y
 _atom_site_fract_z
 _atom_site_occupancy
  Nd  Nd0  1  0.00000000  0.00000000  0.00000000  1
  Nd  Nd1  1  0.50000000  0.50000000  0.50000000  1
  Si  Si2  1  0.00000000  0.00000000  0.36768900  1
  Si  Si3  1  0.50000000  0.50000000  0.13231100  1
  Si  Si4  1  0.50000000  0.50000000  0.86768900  1
  Si  Si5  1  0.00000000  0.00000000  0.63231100  1
  Os  Os6  1  0.50000000  0.00000000  0.25000000  1
  Os  Os7  1  0.00000000  0.50000000  0.25000000  1
  Os  Os8  1  0.00000000  0.50000000  0.75000000  1
  Os  Os9  1  0.50000000  0.00000000  0.75000000  1
