# generated using pymatgen
data_Ca(SiNi)2
_symmetry_space_group_name_H-M   'P 1'
_cell_length_a   3.98834200
_cell_length_b   3.98834200
_cell_length_c   9.64424800
_cell_angle_alpha   90.00000000
_cell_angle_beta   90.00000000
_cell_angle_gamma   90.00000000
_symmetry_Int_Tables_number   1
_chemical_formula_structural   Ca(SiNi)2
_chemical_formula_sum   'Ca2 Si4 Ni4'
_cell_volume   153.40981759
_cell_formula_units_Z   2
loop_
 _symmetry_equiv_pos_site_id
 _symmetry_equiv_pos_as_xyz
  1  'x, y, z'
loop_
 _atom_site_type_symbol
 _atom_site_label
 _atom_site_symmetry_multiplicity
 _atom_site_fract_x
 _atom_site_fract_y
 _atom_site_fract_z
 _atom_site_occupancy
  Ca  Ca0  1  0.00000000  0.00000000  0.00000000  1
  Ca  Ca1  1  0.50000000  0.50000000  0.50000000  1
  Si  Si2  1  0.50000000  0.50000000  0.12950200  1
  Si  Si3  1  0.00000000  0.00000000  0.37049800  1
  Si  Si4  1  0.00000000  0.00000000  0.62950200  1
  Si  Si5  1  0.50000000  0.50000000  0.87049800  1
  Ni  Ni6  1  0.00000000  0.50000000  0.25000000  1
  Ni  Ni7  1  0.50000000  0.00000000  0.25000000  1
  Ni  Ni8  1  0.50000000  0.00000000  0.75000000  1
  Ni  Ni9  1  0.00000000  0.50000000  0.75000000  1
