# generated using pymatgen
data_La2Co3
_symmetry_space_group_name_H-M   'P 1'
_cell_length_a   4.79878800
_cell_length_b   10.32597000
_cell_length_c   7.74250400
_cell_angle_alpha   90.00000000
_cell_angle_beta   90.00000000
_cell_angle_gamma   90.00000000
_symmetry_Int_Tables_number   1
_chemical_formula_structural   La2Co3
_chemical_formula_sum   'La8 Co12'
_cell_volume   383.65764932
_cell_formula_units_Z   4
loop_
 _symmetry_equiv_pos_site_id
 _symmetry_equiv_pos_as_xyz
  1  'x, y, z'
loop_
 _atom_site_type_symbol
 _atom_site_label
 _atom_site_symmetry_multiplicity
 _atom_site_fract_x
 _atom_site_fract_y
 _atom_site_fract_z
 _atom_site_occupancy
  La  La0  1  0.00000000  0.65045100  0.08828300  1
  La  La1  1  0.50000000  0.84954900  0.91171700  1
  La  La2  1  0.50000000  0.65045100  0.41171700  1
  La  La3  1  0.00000000  0.84954900  0.58828300  1
  La  La4  1  0.50000000  0.15045100  0.08828300  1
  La  La5  1  0.00000000  0.34954900  0.91171700  1
  La  La6  1  0.00000000  0.15045100  0.41171700  1
  La  La7  1  0.50000000  0.34954900  0.58828300  1
  Co  Co8  1  0.25000000  0.91126500  0.25000000  1
  Co  Co9  1  0.25000000  0.58873500  0.75000000  1
  Co  Co10  1  0.75000000  0.91126500  0.25000000  1
  Co  Co11  1  0.75000000  0.58873500  0.75000000  1
  Co  Co12  1  0.00000000  0.50000000  0.50000000  1
  Co  Co13  1  0.50000000  0.50000000  0.00000000  1
  Co  Co14  1  0.75000000  0.41126500  0.25000000  1
  Co  Co15  1  0.75000000  0.08873500  0.75000000  1
  Co  Co16  1  0.25000000  0.41126500  0.25000000  1
  Co  Co17  1  0.25000000  0.08873500  0.75000000  1
  Co  Co18  1  0.50000000  0.00000000  0.50000000  1
  Co  Co19  1  0.00000000  0.00000000  0.00000000  1
