# generated using pymatgen
data_Eu(PPd)2
_symmetry_space_group_name_H-M   'P 1'
_cell_length_a   4.19449800
_cell_length_b   4.19449800
_cell_length_c   9.90280000
_cell_angle_alpha   90.00000000
_cell_angle_beta   90.00000000
_cell_angle_gamma   90.00000000
_symmetry_Int_Tables_number   1
_chemical_formula_structural   Eu(PPd)2
_chemical_formula_sum   'Eu2 P4 Pd4'
_cell_volume   174.22801605
_cell_formula_units_Z   2
loop_
 _symmetry_equiv_pos_site_id
 _symmetry_equiv_pos_as_xyz
  1  'x, y, z'
loop_
 _atom_site_type_symbol
 _atom_site_label
 _atom_site_symmetry_multiplicity
 _atom_site_fract_x
 _atom_site_fract_y
 _atom_site_fract_z
 _atom_site_occupancy
  Eu  Eu0  1  0.00000000  0.00000000  0.00000000  1
  Eu  Eu1  1  0.50000000  0.50000000  0.50000000  1
  P  P2  1  0.00000000  0.00000000  0.38784900  1
  P  P3  1  0.50000000  0.50000000  0.11215100  1
  P  P4  1  0.50000000  0.50000000  0.88784900  1
  P  P5  1  0.00000000  0.00000000  0.61215100  1
  Pd  Pd6  1  0.50000000  0.00000000  0.25000000  1
  Pd  Pd7  1  0.00000000  0.50000000  0.25000000  1
  Pd  Pd8  1  0.00000000  0.50000000  0.75000000  1
  Pd  Pd9  1  0.50000000  0.00000000  0.75000000  1
