# generated using pymatgen
data_Zr2Ga
_symmetry_space_group_name_H-M   'P 1'
_cell_length_a   6.70684000
_cell_length_b   6.70684000
_cell_length_c   5.48534600
_cell_angle_alpha   90.00000000
_cell_angle_beta   90.00000000
_cell_angle_gamma   90.00000000
_symmetry_Int_Tables_number   1
_chemical_formula_structural   Zr2Ga
_chemical_formula_sum   'Zr8 Ga4'
_cell_volume   246.74020345
_cell_formula_units_Z   4
loop_
 _symmetry_equiv_pos_site_id
 _symmetry_equiv_pos_as_xyz
  1  'x, y, z'
loop_
 _atom_site_type_symbol
 _atom_site_label
 _atom_site_symmetry_multiplicity
 _atom_site_fract_x
 _atom_site_fract_y
 _atom_site_fract_z
 _atom_site_occupancy
  Zr  Zr0  1  0.34593100  0.15406900  0.00000000  1
  Zr  Zr1  1  0.15406900  0.65406900  0.00000000  1
  Zr  Zr2  1  0.15406900  0.34593100  0.50000000  1
  Zr  Zr3  1  0.34593100  0.84593100  0.50000000  1
  Zr  Zr4  1  0.84593100  0.65406900  0.50000000  1
  Zr  Zr5  1  0.65406900  0.15406900  0.50000000  1
  Zr  Zr6  1  0.65406900  0.84593100  0.00000000  1
  Zr  Zr7  1  0.84593100  0.34593100  0.00000000  1
  Ga  Ga8  1  0.00000000  0.00000000  0.25000000  1
  Ga  Ga9  1  0.00000000  0.00000000  0.75000000  1
  Ga  Ga10  1  0.50000000  0.50000000  0.75000000  1
  Ga  Ga11  1  0.50000000  0.50000000  0.25000000  1
