# generated using pymatgen
data_BaLi2(MgGe)2
_symmetry_space_group_name_H-M   'P 1'
_cell_length_a   4.62126333
_cell_length_b   4.62126333
_cell_length_c   26.29696271
_cell_angle_alpha   90.00000000
_cell_angle_beta   90.00000000
_cell_angle_gamma   120.00000000
_symmetry_Int_Tables_number   1
_chemical_formula_structural   BaLi2(MgGe)2
_chemical_formula_sum   'Ba3 Li6 Mg6 Ge6'
_cell_volume   486.35978163
_cell_formula_units_Z   3
loop_
 _symmetry_equiv_pos_site_id
 _symmetry_equiv_pos_as_xyz
  1  'x, y, z'
loop_
 _atom_site_type_symbol
 _atom_site_label
 _atom_site_symmetry_multiplicity
 _atom_site_fract_x
 _atom_site_fract_y
 _atom_site_fract_z
 _atom_site_occupancy
  Ba  Ba0  1  0.00000000  0.00000000  0.00000000  1
  Ba  Ba1  1  0.66666667  0.33333333  0.33333333  1
  Ba  Ba2  1  0.33333333  0.66666667  0.66666667  1
  Li  Li3  1  0.33333333  0.66666667  0.23691067  1
  Li  Li4  1  0.33333333  0.66666667  0.09642267  1
  Li  Li5  1  0.00000000  0.00000000  0.57024400  1
  Li  Li6  1  0.00000000  0.00000000  0.42975600  1
  Li  Li7  1  0.66666667  0.33333333  0.90357733  1
  Li  Li8  1  0.66666667  0.33333333  0.76308933  1
  Mg  Mg9  1  0.00000000  0.00000000  0.13581600  1
  Mg  Mg10  1  0.66666667  0.33333333  0.19751733  1
  Mg  Mg11  1  0.66666667  0.33333333  0.46914933  1
  Mg  Mg12  1  0.33333333  0.66666667  0.53085067  1
  Mg  Mg13  1  0.33333333  0.66666667  0.80248267  1
  Mg  Mg14  1  0.00000000  0.00000000  0.86418400  1
  Ge  Ge15  1  0.66666667  0.33333333  0.09027333  1
  Ge  Ge16  1  0.00000000  0.00000000  0.24306000  1
  Ge  Ge17  1  0.33333333  0.66666667  0.42360667  1
  Ge  Ge18  1  0.66666667  0.33333333  0.57639333  1
  Ge  Ge19  1  0.00000000  0.00000000  0.75694000  1
  Ge  Ge20  1  0.33333333  0.66666667  0.90972667  1
