# generated using pymatgen
data_CuS
_symmetry_space_group_name_H-M   'P 1'
_cell_length_a   3.78892000
_cell_length_b   6.59509400
_cell_length_c   16.42138800
_cell_angle_alpha   90.00000000
_cell_angle_beta   90.00000000
_cell_angle_gamma   90.00000000
_symmetry_Int_Tables_number   1
_chemical_formula_structural   CuS
_chemical_formula_sum   'Cu12 S12'
_cell_volume   410.34229977
_cell_formula_units_Z   12
loop_
 _symmetry_equiv_pos_site_id
 _symmetry_equiv_pos_as_xyz
  1  'x, y, z'
loop_
 _atom_site_type_symbol
 _atom_site_label
 _atom_site_symmetry_multiplicity
 _atom_site_fract_x
 _atom_site_fract_y
 _atom_site_fract_z
 _atom_site_occupancy
  Cu  Cu0  1  0.00000000  0.33645900  0.10719900  1
  Cu  Cu1  1  0.50000000  0.16354100  0.60719900  1
  Cu  Cu2  1  0.00000000  0.33645900  0.39280100  1
  Cu  Cu3  1  0.00000000  0.36202400  0.75000000  1
  Cu  Cu4  1  0.50000000  0.16354100  0.89280100  1
  Cu  Cu5  1  0.50000000  0.13797600  0.25000000  1
  Cu  Cu6  1  0.50000000  0.83645900  0.10719900  1
  Cu  Cu7  1  0.00000000  0.66354100  0.60719900  1
  Cu  Cu8  1  0.50000000  0.83645900  0.39280100  1
  Cu  Cu9  1  0.50000000  0.86202400  0.75000000  1
  Cu  Cu10  1  0.00000000  0.66354100  0.89280100  1
  Cu  Cu11  1  0.00000000  0.63797600  0.25000000  1
  S  S12  1  0.00000000  0.00235000  0.06416700  1
  S  S13  1  0.00000000  0.30614300  0.25000000  1
  S  S14  1  0.50000000  0.49765000  0.56416700  1
  S  S15  1  0.50000000  0.19385700  0.75000000  1
  S  S16  1  0.00000000  0.00235000  0.43583300  1
  S  S17  1  0.50000000  0.49765000  0.93583300  1
  S  S18  1  0.50000000  0.50235000  0.06416700  1
  S  S19  1  0.50000000  0.80614300  0.25000000  1
  S  S20  1  0.00000000  0.99765000  0.56416700  1
  S  S21  1  0.00000000  0.69385700  0.75000000  1
  S  S22  1  0.50000000  0.50235000  0.43583300  1
  S  S23  1  0.00000000  0.99765000  0.93583300  1
