# generated using pymatgen
data_Ce(SiAu2)2
_symmetry_space_group_name_H-M   'P 1'
_cell_length_a   4.37286600
_cell_length_b   13.89996000
_cell_length_c   4.37005000
_cell_angle_alpha   90.00000000
_cell_angle_beta   90.00000000
_cell_angle_gamma   90.00000000
_symmetry_Int_Tables_number   1
_chemical_formula_structural   Ce(SiAu2)2
_chemical_formula_sum   'Ce2 Si4 Au8'
_cell_volume   265.62327419
_cell_formula_units_Z   2
loop_
 _symmetry_equiv_pos_site_id
 _symmetry_equiv_pos_as_xyz
  1  'x, y, z'
loop_
 _atom_site_type_symbol
 _atom_site_label
 _atom_site_symmetry_multiplicity
 _atom_site_fract_x
 _atom_site_fract_y
 _atom_site_fract_z
 _atom_site_occupancy
  Ce  Ce0  1  0.00000000  0.00000000  0.00000000  1
  Ce  Ce1  1  0.50000000  0.50000000  0.00000000  1
  Si  Si2  1  0.00000000  0.41551400  0.50000000  1
  Si  Si3  1  0.50000000  0.08448600  0.50000000  1
  Si  Si4  1  0.50000000  0.91551400  0.50000000  1
  Si  Si5  1  0.00000000  0.58448600  0.50000000  1
  Au  Au6  1  0.50000000  0.32617700  0.50000000  1
  Au  Au7  1  0.50000000  0.17404200  0.00000000  1
  Au  Au8  1  0.00000000  0.17382300  0.50000000  1
  Au  Au9  1  0.00000000  0.32595800  0.00000000  1
  Au  Au10  1  0.00000000  0.82617700  0.50000000  1
  Au  Au11  1  0.00000000  0.67404200  0.00000000  1
  Au  Au12  1  0.50000000  0.67382300  0.50000000  1
  Au  Au13  1  0.50000000  0.82595800  0.00000000  1
