# generated using pymatgen
data_B4C
_symmetry_space_group_name_H-M   'P 1'
_cell_length_a   7.39501996
_cell_length_b   7.39501996
_cell_length_c   8.77167367
_cell_angle_alpha   90.00000000
_cell_angle_beta   90.00000000
_cell_angle_gamma   120.00000000
_symmetry_Int_Tables_number   1
_chemical_formula_structural   B4C
_chemical_formula_sum   'B36 C9'
_cell_volume   415.42420694
_cell_formula_units_Z   9
loop_
 _symmetry_equiv_pos_site_id
 _symmetry_equiv_pos_as_xyz
  1  'x, y, z'
loop_
 _atom_site_type_symbol
 _atom_site_label
 _atom_site_symmetry_multiplicity
 _atom_site_fract_x
 _atom_site_fract_y
 _atom_site_fract_z
 _atom_site_occupancy
  B  B0  1  0.88406033  0.11593967  0.72958867  1
  B  B1  1  0.25245433  0.74754567  0.58493967  1
  B  B2  1  0.11593967  0.88406033  0.27041133  1
  B  B3  1  0.74754567  0.49509133  0.41506033  1
  B  B4  1  0.25245433  0.50490867  0.58493967  1
  B  B5  1  0.11593967  0.23187933  0.27041133  1
  B  B6  1  0.49509133  0.74754567  0.58493967  1
  B  B7  1  0.88406033  0.76812067  0.72958867  1
  B  B8  1  0.50490867  0.25245433  0.41506033  1
  B  B9  1  0.76812067  0.88406033  0.27041133  1
  B  B10  1  0.74754567  0.25245433  0.41506033  1
  B  B11  1  0.23187933  0.11593967  0.72958867  1
  B  B12  1  0.55072700  0.44927300  0.06292200  1
  B  B13  1  0.91912100  0.08087900  0.91827300  1
  B  B14  1  0.78260633  0.21739367  0.60374467  1
  B  B15  1  0.41421233  0.82842467  0.74839367  1
  B  B16  1  0.91912100  0.83824200  0.91827300  1
  B  B17  1  0.78260633  0.56521267  0.60374467  1
  B  B18  1  0.16175800  0.08087900  0.91827300  1
  B  B19  1  0.55072700  0.10145400  0.06292200  1
  B  B20  1  0.17157533  0.58578767  0.74839367  1
  B  B21  1  0.43478733  0.21739367  0.60374467  1
  B  B22  1  0.41421233  0.58578767  0.74839367  1
  B  B23  1  0.89854600  0.44927300  0.06292200  1
  B  B24  1  0.21739367  0.78260633  0.39625533  1
  B  B25  1  0.58578767  0.41421233  0.25160633  1
  B  B26  1  0.44927300  0.55072700  0.93707800  1
  B  B27  1  0.08087900  0.16175800  0.08172700  1
  B  B28  1  0.58578767  0.17157533  0.25160633  1
  B  B29  1  0.44927300  0.89854600  0.93707800  1
  B  B30  1  0.82842467  0.41421233  0.25160633  1
  B  B31  1  0.21739367  0.43478733  0.39625533  1
  B  B32  1  0.83824200  0.91912100  0.08172700  1
  B  B33  1  0.10145400  0.55072700  0.93707800  1
  B  B34  1  0.08087900  0.91912100  0.08172700  1
  B  B35  1  0.56521267  0.78260633  0.39625533  1
  C  C36  1  0.00000000  0.00000000  0.35054100  1
  C  C37  1  0.00000000  0.00000000  0.64945900  1
  C  C38  1  0.00000000  0.00000000  0.50000000  1
  C  C39  1  0.66666667  0.33333333  0.68387433  1
  C  C40  1  0.66666667  0.33333333  0.98279233  1
  C  C41  1  0.66666667  0.33333333  0.83333333  1
  C  C42  1  0.33333333  0.66666667  0.01720767  1
  C  C43  1  0.33333333  0.66666667  0.31612567  1
  C  C44  1  0.33333333  0.66666667  0.16666667  1
