# generated using pymatgen
data_Zr2Al4C5
_symmetry_space_group_name_H-M   'P 1'
_cell_length_a   3.35838427
_cell_length_b   3.35838427
_cell_length_c   41.21303330
_cell_angle_alpha   90.00000000
_cell_angle_beta   90.00000000
_cell_angle_gamma   120.00000000
_symmetry_Int_Tables_number   1
_chemical_formula_structural   Zr2Al4C5
_chemical_formula_sum   'Zr6 Al12 C15'
_cell_volume   402.55570619
_cell_formula_units_Z   3
loop_
 _symmetry_equiv_pos_site_id
 _symmetry_equiv_pos_as_xyz
  1  'x, y, z'
loop_
 _atom_site_type_symbol
 _atom_site_label
 _atom_site_symmetry_multiplicity
 _atom_site_fract_x
 _atom_site_fract_y
 _atom_site_fract_z
 _atom_site_occupancy
  Zr  Zr0  1  0.00000000  0.00000000  0.13366900  1
  Zr  Zr1  1  0.66666667  0.33333333  0.19966433  1
  Zr  Zr2  1  0.66666667  0.33333333  0.46700233  1
  Zr  Zr3  1  0.33333333  0.66666667  0.53299767  1
  Zr  Zr4  1  0.33333333  0.66666667  0.80033567  1
  Zr  Zr5  1  0.00000000  0.00000000  0.86633100  1
  Al  Al6  1  0.66666667  0.33333333  0.02286033  1
  Al  Al7  1  0.33333333  0.66666667  0.25561267  1
  Al  Al8  1  0.33333333  0.66666667  0.07772067  1
  Al  Al9  1  0.00000000  0.00000000  0.31047300  1
  Al  Al10  1  0.33333333  0.66666667  0.35619367  1
  Al  Al11  1  0.00000000  0.00000000  0.58894600  1
  Al  Al12  1  0.00000000  0.00000000  0.41105400  1
  Al  Al13  1  0.66666667  0.33333333  0.64380633  1
  Al  Al14  1  0.00000000  0.00000000  0.68952700  1
  Al  Al15  1  0.66666667  0.33333333  0.92227933  1
  Al  Al16  1  0.66666667  0.33333333  0.74438733  1
  Al  Al17  1  0.33333333  0.66666667  0.97713967  1
  C  C18  1  0.66666667  0.33333333  0.09949333  1
  C  C19  1  0.33333333  0.66666667  0.30297567  1
  C  C20  1  0.33333333  0.66666667  0.16666667  1
  C  C21  1  0.33333333  0.66666667  0.03035767  1
  C  C22  1  0.00000000  0.00000000  0.23384000  1
  C  C23  1  0.33333333  0.66666667  0.43282667  1
  C  C24  1  0.00000000  0.00000000  0.63630900  1
  C  C25  1  1.00000000  1.00000000  0.50000000  1
  C  C26  1  0.00000000  0.00000000  0.36369100  1
  C  C27  1  0.66666667  0.33333333  0.56717333  1
  C  C28  1  0.00000000  0.00000000  0.76616000  1
  C  C29  1  0.66666667  0.33333333  0.96964233  1
  C  C30  1  0.66666667  0.33333333  0.83333333  1
  C  C31  1  0.66666667  0.33333333  0.69702433  1
  C  C32  1  0.33333333  0.66666667  0.90050667  1
