# generated using pymatgen
data_Tl(NiS)2
_symmetry_space_group_name_H-M   'P 1'
_cell_length_a   3.79643400
_cell_length_b   3.79643400
_cell_length_c   12.69589200
_cell_angle_alpha   90.00000000
_cell_angle_beta   90.00000000
_cell_angle_gamma   90.00000000
_symmetry_Int_Tables_number   1
_chemical_formula_structural   Tl(NiS)2
_chemical_formula_sum   'Tl2 Ni4 S4'
_cell_volume   182.98476294
_cell_formula_units_Z   2
loop_
 _symmetry_equiv_pos_site_id
 _symmetry_equiv_pos_as_xyz
  1  'x, y, z'
loop_
 _atom_site_type_symbol
 _atom_site_label
 _atom_site_symmetry_multiplicity
 _atom_site_fract_x
 _atom_site_fract_y
 _atom_site_fract_z
 _atom_site_occupancy
  Tl  Tl0  1  0.00000000  0.00000000  0.00000000  1
  Tl  Tl1  1  0.50000000  0.50000000  0.50000000  1
  Ni  Ni2  1  0.00000000  0.50000000  0.25000000  1
  Ni  Ni3  1  0.50000000  0.00000000  0.25000000  1
  Ni  Ni4  1  0.50000000  0.00000000  0.75000000  1
  Ni  Ni5  1  0.00000000  0.50000000  0.75000000  1
  S  S6  1  0.00000000  0.00000000  0.34469700  1
  S  S7  1  0.50000000  0.50000000  0.15530300  1
  S  S8  1  0.50000000  0.50000000  0.84469700  1
  S  S9  1  0.00000000  0.00000000  0.65530300  1
