# generated using pymatgen
data_Al13(CrSi)4
_symmetry_space_group_name_H-M   'P 1'
_cell_length_a   10.91081600
_cell_length_b   10.91081600
_cell_length_c   10.91081600
_cell_angle_alpha   90.00000000
_cell_angle_beta   90.00000000
_cell_angle_gamma   90.00000000
_symmetry_Int_Tables_number   1
_chemical_formula_structural   Al13(CrSi)4
_chemical_formula_sum   'Al52 Cr16 Si16'
_cell_volume   1298.88797358
_cell_formula_units_Z   4
loop_
 _symmetry_equiv_pos_site_id
 _symmetry_equiv_pos_as_xyz
  1  'x, y, z'
loop_
 _atom_site_type_symbol
 _atom_site_label
 _atom_site_symmetry_multiplicity
 _atom_site_fract_x
 _atom_site_fract_y
 _atom_site_fract_z
 _atom_site_occupancy
  Al  Al0  1  0.50000000  0.50000000  0.00000000  1
  Al  Al1  1  0.50000000  0.69071875  0.50000000  1
  Al  Al2  1  0.30928125  0.50000000  0.50000000  1
  Al  Al3  1  0.69071875  0.50000000  0.50000000  1
  Al  Al4  1  0.50000000  0.30928125  0.50000000  1
  Al  Al5  1  0.50000000  0.50000000  0.69071875  1
  Al  Al6  1  0.50000000  0.50000000  0.30928125  1
  Al  Al7  1  0.75000000  0.44091475  0.25000000  1
  Al  Al8  1  0.55908525  0.25000000  0.25000000  1
  Al  Al9  1  0.94091475  0.25000000  0.25000000  1
  Al  Al10  1  0.25000000  0.55908525  0.25000000  1
  Al  Al11  1  0.75000000  0.25000000  0.44091475  1
  Al  Al12  1  0.75000000  0.25000000  0.05908525  1
  Al  Al13  1  0.50000000  0.00000000  0.50000000  1
  Al  Al14  1  0.50000000  0.19071875  0.00000000  1
  Al  Al15  1  0.30928125  0.00000000  0.00000000  1
  Al  Al16  1  0.69071875  0.00000000  0.00000000  1
  Al  Al17  1  0.50000000  0.80928125  0.00000000  1
  Al  Al18  1  0.50000000  0.00000000  0.19071875  1
  Al  Al19  1  0.50000000  0.00000000  0.80928125  1
  Al  Al20  1  0.75000000  0.94091475  0.75000000  1
  Al  Al21  1  0.55908525  0.75000000  0.75000000  1
  Al  Al22  1  0.94091475  0.75000000  0.75000000  1
  Al  Al23  1  0.25000000  0.05908525  0.75000000  1
  Al  Al24  1  0.75000000  0.75000000  0.94091475  1
  Al  Al25  1  0.75000000  0.75000000  0.55908525  1
  Al  Al26  1  0.00000000  0.50000000  0.50000000  1
  Al  Al27  1  0.00000000  0.69071875  0.00000000  1
  Al  Al28  1  0.80928125  0.50000000  0.00000000  1
  Al  Al29  1  0.19071875  0.50000000  0.00000000  1
  Al  Al30  1  0.00000000  0.30928125  0.00000000  1
  Al  Al31  1  0.00000000  0.50000000  0.19071875  1
  Al  Al32  1  0.00000000  0.50000000  0.80928125  1
  Al  Al33  1  0.25000000  0.44091475  0.75000000  1
  Al  Al34  1  0.05908525  0.25000000  0.75000000  1
  Al  Al35  1  0.44091475  0.25000000  0.75000000  1
  Al  Al36  1  0.75000000  0.55908525  0.75000000  1
  Al  Al37  1  0.25000000  0.25000000  0.94091475  1
  Al  Al38  1  0.25000000  0.25000000  0.55908525  1
  Al  Al39  1  0.00000000  0.00000000  0.00000000  1
  Al  Al40  1  0.00000000  0.19071875  0.50000000  1
  Al  Al41  1  0.80928125  0.00000000  0.50000000  1
  Al  Al42  1  0.19071875  0.00000000  0.50000000  1
  Al  Al43  1  0.00000000  0.80928125  0.50000000  1
  Al  Al44  1  0.00000000  0.00000000  0.69071875  1
  Al  Al45  1  0.00000000  0.00000000  0.30928125  1
  Al  Al46  1  0.25000000  0.94091475  0.25000000  1
  Al  Al47  1  0.05908525  0.75000000  0.25000000  1
  Al  Al48  1  0.44091475  0.75000000  0.25000000  1
  Al  Al49  1  0.75000000  0.05908525  0.25000000  1
  Al  Al50  1  0.25000000  0.75000000  0.44091475  1
  Al  Al51  1  0.25000000  0.75000000  0.05908525  1
  Cr  Cr52  1  0.34224775  0.65775225  0.65775225  1
  Cr  Cr53  1  0.34224775  0.34224775  0.34224775  1
  Cr  Cr54  1  0.65775225  0.65775225  0.34224775  1
  Cr  Cr55  1  0.65775225  0.34224775  0.65775225  1
  Cr  Cr56  1  0.34224775  0.15775225  0.15775225  1
  Cr  Cr57  1  0.34224775  0.84224775  0.84224775  1
  Cr  Cr58  1  0.65775225  0.15775225  0.84224775  1
  Cr  Cr59  1  0.65775225  0.84224775  0.15775225  1
  Cr  Cr60  1  0.84224775  0.65775225  0.15775225  1
  Cr  Cr61  1  0.84224775  0.34224775  0.84224775  1
  Cr  Cr62  1  0.15775225  0.65775225  0.84224775  1
  Cr  Cr63  1  0.15775225  0.34224775  0.15775225  1
  Cr  Cr64  1  0.84224775  0.15775225  0.65775225  1
  Cr  Cr65  1  0.84224775  0.84224775  0.34224775  1
  Cr  Cr66  1  0.15775225  0.15775225  0.34224775  1
  Cr  Cr67  1  0.15775225  0.84224775  0.65775225  1
  Si  Si68  1  0.62744508  0.37255492  0.87255492  1
  Si  Si69  1  0.62744508  0.62744508  0.12744508  1
  Si  Si70  1  0.37255492  0.37255492  0.12744508  1
  Si  Si71  1  0.37255492  0.62744508  0.87255492  1
  Si  Si72  1  0.62744508  0.87255492  0.37255492  1
  Si  Si73  1  0.62744508  0.12744508  0.62744508  1
  Si  Si74  1  0.37255492  0.87255492  0.62744508  1
  Si  Si75  1  0.37255492  0.12744508  0.37255492  1
  Si  Si76  1  0.12744508  0.37255492  0.37255492  1
  Si  Si77  1  0.12744508  0.62744508  0.62744508  1
  Si  Si78  1  0.87255492  0.37255492  0.62744508  1
  Si  Si79  1  0.87255492  0.62744508  0.37255492  1
  Si  Si80  1  0.12744508  0.87255492  0.87255492  1
  Si  Si81  1  0.12744508  0.12744508  0.12744508  1
  Si  Si82  1  0.87255492  0.87255492  0.12744508  1
  Si  Si83  1  0.87255492  0.12744508  0.87255492  1
