# generated using pymatgen
data_YbCu2
_symmetry_space_group_name_H-M   'P 1'
_cell_length_a   4.23525200
_cell_length_b   6.78589600
_cell_length_c   7.26265600
_cell_angle_alpha   90.00000000
_cell_angle_beta   90.00000000
_cell_angle_gamma   90.00000000
_symmetry_Int_Tables_number   1
_chemical_formula_structural   YbCu2
_chemical_formula_sum   'Yb4 Cu8'
_cell_volume   208.72858532
_cell_formula_units_Z   4
loop_
 _symmetry_equiv_pos_site_id
 _symmetry_equiv_pos_as_xyz
  1  'x, y, z'
loop_
 _atom_site_type_symbol
 _atom_site_label
 _atom_site_symmetry_multiplicity
 _atom_site_fract_x
 _atom_site_fract_y
 _atom_site_fract_z
 _atom_site_occupancy
  Yb  Yb0  1  0.00000000  0.75000000  0.45687700  1
  Yb  Yb1  1  0.00000000  0.25000000  0.54312300  1
  Yb  Yb2  1  0.50000000  0.25000000  0.95687700  1
  Yb  Yb3  1  0.50000000  0.75000000  0.04312300  1
  Cu  Cu4  1  0.50000000  0.05534500  0.33720200  1
  Cu  Cu5  1  0.50000000  0.94465500  0.66279800  1
  Cu  Cu6  1  0.00000000  0.05534500  0.16279800  1
  Cu  Cu7  1  0.00000000  0.94465500  0.83720200  1
  Cu  Cu8  1  0.00000000  0.55534500  0.83720200  1
  Cu  Cu9  1  0.00000000  0.44465500  0.16279800  1
  Cu  Cu10  1  0.50000000  0.55534500  0.66279800  1
  Cu  Cu11  1  0.50000000  0.44465500  0.33720200  1
