# generated using pymatgen
data_NdNiGe2
_symmetry_space_group_name_H-M   'P 1'
_cell_length_a   4.23523600
_cell_length_b   16.78972800
_cell_length_c   4.25259500
_cell_angle_alpha   90.00000000
_cell_angle_beta   90.00000000
_cell_angle_gamma   90.00000000
_symmetry_Int_Tables_number   1
_chemical_formula_structural   NdNiGe2
_chemical_formula_sum   'Nd4 Ni4 Ge8'
_cell_volume   302.39548339
_cell_formula_units_Z   4
loop_
 _symmetry_equiv_pos_site_id
 _symmetry_equiv_pos_as_xyz
  1  'x, y, z'
loop_
 _atom_site_type_symbol
 _atom_site_label
 _atom_site_symmetry_multiplicity
 _atom_site_fract_x
 _atom_site_fract_y
 _atom_site_fract_z
 _atom_site_occupancy
  Nd  Nd0  1  0.00000000  0.89138800  0.75000000  1
  Nd  Nd1  1  0.50000000  0.60861200  0.25000000  1
  Nd  Nd2  1  0.50000000  0.39138800  0.75000000  1
  Nd  Nd3  1  0.00000000  0.10861200  0.25000000  1
  Ni  Ni4  1  0.00000000  0.68114400  0.75000000  1
  Ni  Ni5  1  0.50000000  0.81885600  0.25000000  1
  Ni  Ni6  1  0.50000000  0.18114400  0.75000000  1
  Ni  Ni7  1  0.00000000  0.31885600  0.25000000  1
  Ge  Ge8  1  0.50000000  0.75077900  0.75000000  1
  Ge  Ge9  1  0.00000000  0.54210500  0.75000000  1
  Ge  Ge10  1  0.00000000  0.74922100  0.25000000  1
  Ge  Ge11  1  0.50000000  0.95789500  0.25000000  1
  Ge  Ge12  1  0.00000000  0.25077900  0.75000000  1
  Ge  Ge13  1  0.50000000  0.04210500  0.75000000  1
  Ge  Ge14  1  0.50000000  0.24922100  0.25000000  1
  Ge  Ge15  1  0.00000000  0.45789500  0.25000000  1
