# generated using pymatgen
data_Tb2B2C3
_symmetry_space_group_name_H-M   'P 1'
_cell_length_a   3.39054400
_cell_length_b   13.29173600
_cell_length_c   3.70541100
_cell_angle_alpha   90.00000000
_cell_angle_beta   90.00000000
_cell_angle_gamma   90.00000000
_symmetry_Int_Tables_number   1
_chemical_formula_structural   Tb2B2C3
_chemical_formula_sum   'Tb4 B4 C6'
_cell_volume   166.98885155
_cell_formula_units_Z   2
loop_
 _symmetry_equiv_pos_site_id
 _symmetry_equiv_pos_as_xyz
  1  'x, y, z'
loop_
 _atom_site_type_symbol
 _atom_site_label
 _atom_site_symmetry_multiplicity
 _atom_site_fract_x
 _atom_site_fract_y
 _atom_site_fract_z
 _atom_site_occupancy
  Tb  Tb0  1  0.50000000  0.63702300  0.00000000  1
  Tb  Tb1  1  0.00000000  0.86297700  0.00000000  1
  Tb  Tb2  1  0.00000000  0.13702300  0.00000000  1
  Tb  Tb3  1  0.50000000  0.36297700  0.00000000  1
  B  B4  1  0.50000000  0.78321100  0.50000000  1
  B  B5  1  0.00000000  0.71678900  0.50000000  1
  B  B6  1  0.00000000  0.28321100  0.50000000  1
  B  B7  1  0.50000000  0.21678900  0.50000000  1
  C  C8  1  0.00000000  0.60058900  0.50000000  1
  C  C9  1  0.50000000  0.00000000  0.50000000  1
  C  C10  1  0.50000000  0.89941100  0.50000000  1
  C  C11  1  0.50000000  0.10058900  0.50000000  1
  C  C12  1  0.00000000  0.50000000  0.50000000  1
  C  C13  1  0.00000000  0.39941100  0.50000000  1
