# generated using pymatgen
data_Sr3(AlGe2)2
_symmetry_space_group_name_H-M   'P 1'
_cell_length_a   12.74108800
_cell_length_b   4.21660200
_cell_length_c   8.95514925
_cell_angle_alpha   90.00000000
_cell_angle_beta   110.17820011
_cell_angle_gamma   90.00000000
_symmetry_Int_Tables_number   1
_chemical_formula_structural   Sr3(AlGe2)2
_chemical_formula_sum   'Sr6 Al4 Ge8'
_cell_volume   451.57902674
_cell_formula_units_Z   2
loop_
 _symmetry_equiv_pos_site_id
 _symmetry_equiv_pos_as_xyz
  1  'x, y, z'
loop_
 _atom_site_type_symbol
 _atom_site_label
 _atom_site_symmetry_multiplicity
 _atom_site_fract_x
 _atom_site_fract_y
 _atom_site_fract_z
 _atom_site_occupancy
  Sr  Sr0  1  0.60601600  0.00000000  0.68702200  1
  Sr  Sr1  1  0.00000000  0.00000000  0.00000000  1
  Sr  Sr2  1  0.89398400  0.50000000  0.31297800  1
  Sr  Sr3  1  0.10601600  0.50000000  0.68702200  1
  Sr  Sr4  1  0.50000000  0.50000000  0.00000000  1
  Sr  Sr5  1  0.39398400  0.00000000  0.31297800  1
  Al  Al6  1  0.70506200  0.00000000  0.34993700  1
  Al  Al7  1  0.79493800  0.50000000  0.65006300  1
  Al  Al8  1  0.20506200  0.50000000  0.34993700  1
  Al  Al9  1  0.29493800  0.00000000  0.65006300  1
  Ge  Ge10  1  0.71160600  0.00000000  0.05567800  1
  Ge  Ge11  1  0.78839400  0.50000000  0.94432200  1
  Ge  Ge12  1  0.89368400  0.00000000  0.60853200  1
  Ge  Ge13  1  0.60631600  0.50000000  0.39146800  1
  Ge  Ge14  1  0.21160600  0.50000000  0.05567800  1
  Ge  Ge15  1  0.28839400  0.00000000  0.94432200  1
  Ge  Ge16  1  0.39368400  0.50000000  0.60853200  1
  Ge  Ge17  1  0.10631600  0.00000000  0.39146800  1
