# generated using pymatgen
data_Sc3RhC4
_symmetry_space_group_name_H-M   'P 1'
_cell_length_a   5.62863600
_cell_length_b   12.32160400
_cell_length_c   5.62866077
_cell_angle_alpha   90.00000000
_cell_angle_beta   105.72004766
_cell_angle_gamma   90.00000000
_symmetry_Int_Tables_number   1
_chemical_formula_structural   Sc3RhC4
_chemical_formula_sum   'Sc12 Rh4 C16'
_cell_volume   375.76817234
_cell_formula_units_Z   4
loop_
 _symmetry_equiv_pos_site_id
 _symmetry_equiv_pos_as_xyz
  1  'x, y, z'
loop_
 _atom_site_type_symbol
 _atom_site_label
 _atom_site_symmetry_multiplicity
 _atom_site_fract_x
 _atom_site_fract_y
 _atom_site_fract_z
 _atom_site_occupancy
  Sc  Sc0  1  0.75910900  0.00000000  0.24028700  1
  Sc  Sc1  1  0.50000000  0.31154600  0.00000000  1
  Sc  Sc2  1  0.00000000  0.31020200  0.50000000  1
  Sc  Sc3  1  0.24089100  0.00000000  0.75971300  1
  Sc  Sc4  1  0.50000000  0.18979800  0.50000000  1
  Sc  Sc5  1  0.00000000  0.18845400  0.00000000  1
  Sc  Sc6  1  0.25910900  0.50000000  0.24028700  1
  Sc  Sc7  1  0.00000000  0.81154600  0.00000000  1
  Sc  Sc8  1  0.50000000  0.81020200  0.50000000  1
  Sc  Sc9  1  0.74089100  0.50000000  0.75971300  1
  Sc  Sc10  1  0.00000000  0.68979800  0.50000000  1
  Sc  Sc11  1  0.50000000  0.68845400  0.00000000  1
  Rh  Rh12  1  0.26884500  0.00000000  0.26910400  1
  Rh  Rh13  1  0.73115500  0.00000000  0.73089600  1
  Rh  Rh14  1  0.76884500  0.50000000  0.26910400  1
  Rh  Rh15  1  0.23115500  0.50000000  0.73089600  1
  C  C16  1  0.07832100  0.12850900  0.41818700  1
  C  C17  1  0.08157300  0.37093300  0.92177000  1
  C  C18  1  0.92167900  0.12850900  0.58181300  1
  C  C19  1  0.42167900  0.37149100  0.58181300  1
  C  C20  1  0.41842700  0.12906700  0.07823000  1
  C  C21  1  0.91842700  0.37093300  0.07823000  1
  C  C22  1  0.58157300  0.12906700  0.92177000  1
  C  C23  1  0.57832100  0.37149100  0.41818700  1
  C  C24  1  0.57832100  0.62850900  0.41818700  1
  C  C25  1  0.58157300  0.87093300  0.92177000  1
  C  C26  1  0.42167900  0.62850900  0.58181300  1
  C  C27  1  0.92167900  0.87149100  0.58181300  1
  C  C28  1  0.91842700  0.62906700  0.07823000  1
  C  C29  1  0.41842700  0.87093300  0.07823000  1
  C  C30  1  0.08157300  0.62906700  0.92177000  1
  C  C31  1  0.07832100  0.87149100  0.41818700  1
