# generated using pymatgen
data_HoSiRu2C
_symmetry_space_group_name_H-M   'P 1'
_cell_length_a   3.78971000
_cell_length_b   11.15233200
_cell_length_c   7.14907200
_cell_angle_alpha   90.00000000
_cell_angle_beta   90.00000000
_cell_angle_gamma   90.00000000
_symmetry_Int_Tables_number   1
_chemical_formula_structural   HoSiRu2C
_chemical_formula_sum   'Ho4 Si4 Ru8 C4'
_cell_volume   302.14912325
_cell_formula_units_Z   4
loop_
 _symmetry_equiv_pos_site_id
 _symmetry_equiv_pos_as_xyz
  1  'x, y, z'
loop_
 _atom_site_type_symbol
 _atom_site_label
 _atom_site_symmetry_multiplicity
 _atom_site_fract_x
 _atom_site_fract_y
 _atom_site_fract_z
 _atom_site_occupancy
  Ho  Ho0  1  0.00000000  0.45331800  0.75000000  1
  Ho  Ho1  1  0.50000000  0.04668200  0.25000000  1
  Ho  Ho2  1  0.50000000  0.95331800  0.75000000  1
  Ho  Ho3  1  0.00000000  0.54668200  0.25000000  1
  Si  Si4  1  0.50000000  0.23158000  0.75000000  1
  Si  Si5  1  0.00000000  0.26842000  0.25000000  1
  Si  Si6  1  0.00000000  0.73158000  0.75000000  1
  Si  Si7  1  0.50000000  0.76842000  0.25000000  1
  Ru  Ru8  1  0.00000000  0.16384200  0.94324700  1
  Ru  Ru9  1  0.50000000  0.33615800  0.44324700  1
  Ru  Ru10  1  0.50000000  0.33615800  0.05675300  1
  Ru  Ru11  1  0.00000000  0.16384200  0.55675300  1
  Ru  Ru12  1  0.50000000  0.66384200  0.94324700  1
  Ru  Ru13  1  0.00000000  0.83615800  0.44324700  1
  Ru  Ru14  1  0.00000000  0.83615800  0.05675300  1
  Ru  Ru15  1  0.50000000  0.66384200  0.55675300  1
  C  C16  1  0.00000000  0.00000000  0.00000000  1
  C  C17  1  0.00000000  0.00000000  0.50000000  1
  C  C18  1  0.50000000  0.50000000  0.00000000  1
  C  C19  1  0.50000000  0.50000000  0.50000000  1
