# generated using pymatgen
data_V2NiSe4
_symmetry_space_group_name_H-M   'P 1'
_cell_length_a   6.18258600
_cell_length_b   3.58475000
_cell_length_c   11.91013565
_cell_angle_alpha   90.00000000
_cell_angle_beta   91.35931128
_cell_angle_gamma   90.00000000
_symmetry_Int_Tables_number   1
_chemical_formula_structural   V2NiSe4
_chemical_formula_sum   'V4 Ni2 Se8'
_cell_volume   263.89035341
_cell_formula_units_Z   2
loop_
 _symmetry_equiv_pos_site_id
 _symmetry_equiv_pos_as_xyz
  1  'x, y, z'
loop_
 _atom_site_type_symbol
 _atom_site_label
 _atom_site_symmetry_multiplicity
 _atom_site_fract_x
 _atom_site_fract_y
 _atom_site_fract_z
 _atom_site_occupancy
  V  V0  1  0.98872100  0.00000000  0.75229300  1
  V  V1  1  0.01127900  0.00000000  0.24770700  1
  V  V2  1  0.48872100  0.50000000  0.75229300  1
  V  V3  1  0.51127900  0.50000000  0.24770700  1
  Ni  Ni4  1  0.00000000  0.00000000  0.00000000  1
  Ni  Ni5  1  0.50000000  0.50000000  0.00000000  1
  Se  Se6  1  0.66056500  0.00000000  0.88416000  1
  Se  Se7  1  0.33943500  0.00000000  0.11584000  1
  Se  Se8  1  0.31621100  0.00000000  0.63261000  1
  Se  Se9  1  0.68378900  0.00000000  0.36739000  1
  Se  Se10  1  0.16056500  0.50000000  0.88416000  1
  Se  Se11  1  0.83943500  0.50000000  0.11584000  1
  Se  Se12  1  0.81621100  0.50000000  0.63261000  1
  Se  Se13  1  0.18378900  0.50000000  0.36739000  1
