# generated using pymatgen
data_Be12W
_symmetry_space_group_name_H-M   'P 1'
_cell_length_a   7.21053800
_cell_length_b   7.21053800
_cell_length_c   4.19607800
_cell_angle_alpha   90.00000000
_cell_angle_beta   90.00000000
_cell_angle_gamma   90.00000000
_symmetry_Int_Tables_number   1
_chemical_formula_structural   Be12W
_chemical_formula_sum   'Be24 W2'
_cell_volume   218.16189258
_cell_formula_units_Z   2
loop_
 _symmetry_equiv_pos_site_id
 _symmetry_equiv_pos_as_xyz
  1  'x, y, z'
loop_
 _atom_site_type_symbol
 _atom_site_label
 _atom_site_symmetry_multiplicity
 _atom_site_fract_x
 _atom_site_fract_y
 _atom_site_fract_z
 _atom_site_occupancy
  Be  Be0  1  0.35083100  0.00000000  0.00000000  1
  Be  Be1  1  0.75000000  0.25000000  0.75000000  1
  Be  Be2  1  0.50000000  0.85083100  0.50000000  1
  Be  Be3  1  0.78918800  0.00000000  0.50000000  1
  Be  Be4  1  0.64916900  0.00000000  0.00000000  1
  Be  Be5  1  0.75000000  0.75000000  0.75000000  1
  Be  Be6  1  0.50000000  0.14916900  0.50000000  1
  Be  Be7  1  0.50000000  0.71081200  0.00000000  1
  Be  Be8  1  0.21081200  0.00000000  0.50000000  1
  Be  Be9  1  0.75000000  0.75000000  0.25000000  1
  Be  Be10  1  0.50000000  0.28918800  0.00000000  1
  Be  Be11  1  0.75000000  0.25000000  0.25000000  1
  Be  Be12  1  0.85083100  0.50000000  0.50000000  1
  Be  Be13  1  0.25000000  0.75000000  0.25000000  1
  Be  Be14  1  0.00000000  0.35083100  0.00000000  1
  Be  Be15  1  0.28918800  0.50000000  0.00000000  1
  Be  Be16  1  0.14916900  0.50000000  0.50000000  1
  Be  Be17  1  0.25000000  0.25000000  0.25000000  1
  Be  Be18  1  0.00000000  0.64916900  0.00000000  1
  Be  Be19  1  0.00000000  0.21081200  0.50000000  1
  Be  Be20  1  0.71081200  0.50000000  0.00000000  1
  Be  Be21  1  0.25000000  0.25000000  0.75000000  1
  Be  Be22  1  0.00000000  0.78918800  0.50000000  1
  Be  Be23  1  0.25000000  0.75000000  0.75000000  1
  W  W24  1  0.00000000  0.00000000  0.00000000  1
  W  W25  1  0.50000000  0.50000000  0.50000000  1
