# generated using pymatgen
data_Tl(Cu3S2)2
_symmetry_space_group_name_H-M   'P 1'
_cell_length_a   3.92580000
_cell_length_b   3.92580000
_cell_length_c   24.11324400
_cell_angle_alpha   90.00000000
_cell_angle_beta   90.00000000
_cell_angle_gamma   90.00000000
_symmetry_Int_Tables_number   1
_chemical_formula_structural   Tl(Cu3S2)2
_chemical_formula_sum   'Tl2 Cu12 S8'
_cell_volume   371.63104120
_cell_formula_units_Z   2
loop_
 _symmetry_equiv_pos_site_id
 _symmetry_equiv_pos_as_xyz
  1  'x, y, z'
loop_
 _atom_site_type_symbol
 _atom_site_label
 _atom_site_symmetry_multiplicity
 _atom_site_fract_x
 _atom_site_fract_y
 _atom_site_fract_z
 _atom_site_occupancy
  Tl  Tl0  1  0.00000000  0.00000000  0.00000000  1
  Tl  Tl1  1  0.50000000  0.50000000  0.50000000  1
  Cu  Cu2  1  0.00000000  0.50000000  0.25000000  1
  Cu  Cu3  1  0.00000000  0.50000000  0.37069200  1
  Cu  Cu4  1  0.50000000  0.00000000  0.12930800  1
  Cu  Cu5  1  0.00000000  0.50000000  0.12930800  1
  Cu  Cu6  1  0.50000000  0.00000000  0.37069200  1
  Cu  Cu7  1  0.50000000  0.00000000  0.25000000  1
  Cu  Cu8  1  0.50000000  0.00000000  0.75000000  1
  Cu  Cu9  1  0.50000000  0.00000000  0.87069200  1
  Cu  Cu10  1  0.00000000  0.50000000  0.62930800  1
  Cu  Cu11  1  0.50000000  0.00000000  0.62930800  1
  Cu  Cu12  1  0.00000000  0.50000000  0.87069200  1
  Cu  Cu13  1  0.00000000  0.50000000  0.75000000  1
  S  S14  1  0.00000000  0.00000000  0.41903000  1
  S  S15  1  0.00000000  0.00000000  0.19446700  1
  S  S16  1  0.50000000  0.50000000  0.30553300  1
  S  S17  1  0.50000000  0.50000000  0.08097000  1
  S  S18  1  0.50000000  0.50000000  0.91903000  1
  S  S19  1  0.50000000  0.50000000  0.69446700  1
  S  S20  1  0.00000000  0.00000000  0.80553300  1
  S  S21  1  0.00000000  0.00000000  0.58097000  1
