# generated using pymatgen
data_TmZn2
_symmetry_space_group_name_H-M   'P 1'
_cell_length_a   4.47867600
_cell_length_b   7.00279000
_cell_length_c   7.50836600
_cell_angle_alpha   90.00000000
_cell_angle_beta   90.00000000
_cell_angle_gamma   90.00000000
_symmetry_Int_Tables_number   1
_chemical_formula_structural   TmZn2
_chemical_formula_sum   'Tm4 Zn8'
_cell_volume   235.48659106
_cell_formula_units_Z   4
loop_
 _symmetry_equiv_pos_site_id
 _symmetry_equiv_pos_as_xyz
  1  'x, y, z'
loop_
 _atom_site_type_symbol
 _atom_site_label
 _atom_site_symmetry_multiplicity
 _atom_site_fract_x
 _atom_site_fract_y
 _atom_site_fract_z
 _atom_site_occupancy
  Tm  Tm0  1  0.00000000  0.75000000  0.46924300  1
  Tm  Tm1  1  0.00000000  0.25000000  0.53075700  1
  Tm  Tm2  1  0.50000000  0.25000000  0.96924300  1
  Tm  Tm3  1  0.50000000  0.75000000  0.03075700  1
  Zn  Zn4  1  0.50000000  0.04299050  0.33348850  1
  Zn  Zn5  1  0.50000000  0.95700950  0.66651150  1
  Zn  Zn6  1  0.00000000  0.04299050  0.16651150  1
  Zn  Zn7  1  0.00000000  0.95700950  0.83348850  1
  Zn  Zn8  1  0.00000000  0.54299050  0.83348850  1
  Zn  Zn9  1  0.00000000  0.45700950  0.16651150  1
  Zn  Zn10  1  0.50000000  0.54299050  0.66651150  1
  Zn  Zn11  1  0.50000000  0.45700950  0.33348850  1
