# generated using pymatgen
data_Li13In3
_symmetry_space_group_name_H-M   'P 1'
_cell_length_a   13.27016400
_cell_length_b   13.27016400
_cell_length_c   13.27016400
_cell_angle_alpha   90.00000000
_cell_angle_beta   90.00000000
_cell_angle_gamma   90.00000000
_symmetry_Int_Tables_number   1
_chemical_formula_structural   Li13In3
_chemical_formula_sum   'Li104 In24'
_cell_volume   2336.83942178
_cell_formula_units_Z   8
loop_
 _symmetry_equiv_pos_site_id
 _symmetry_equiv_pos_as_xyz
  1  'x, y, z'
loop_
 _atom_site_type_symbol
 _atom_site_label
 _atom_site_symmetry_multiplicity
 _atom_site_fract_x
 _atom_site_fract_y
 _atom_site_fract_z
 _atom_site_occupancy
  Li  Li0  1  0.25000000  0.25000000  0.25000000  1
  Li  Li1  1  0.50000000  0.00000000  0.50000000  1
  Li  Li2  1  0.37500000  0.62500000  0.37500000  1
  Li  Li3  1  0.37500000  0.87500000  0.12500000  1
  Li  Li4  1  0.12500000  0.87500000  0.37500000  1
  Li  Li5  1  0.12500000  0.62500000  0.12500000  1
  Li  Li6  1  0.11884000  0.88116000  0.11884000  1
  Li  Li7  1  0.13116000  0.13116000  0.36884000  1
  Li  Li8  1  0.36884000  0.13116000  0.13116000  1
  Li  Li9  1  0.36884000  0.36884000  0.36884000  1
  Li  Li10  1  0.88116000  0.11884000  0.11884000  1
  Li  Li11  1  0.38116000  0.88116000  0.38116000  1
  Li  Li12  1  0.61884000  0.11884000  0.38116000  1
  Li  Li13  1  0.13116000  0.36884000  0.13116000  1
  Li  Li14  1  0.25000000  0.75000000  0.00320100  1
  Li  Li15  1  0.24679900  0.00000000  0.50000000  1
  Li  Li16  1  0.75320100  0.00000000  0.50000000  1
  Li  Li17  1  0.00000000  0.00000000  0.25320100  1
  Li  Li18  1  0.50000000  0.25320100  0.50000000  1
  Li  Li19  1  0.50000000  0.74679900  0.50000000  1
  Li  Li20  1  0.25000000  0.99679900  0.25000000  1
  Li  Li21  1  0.00320100  0.75000000  0.25000000  1
  Li  Li22  1  0.49679900  0.75000000  0.25000000  1
  Li  Li23  1  0.25000000  0.50320100  0.25000000  1
  Li  Li24  1  0.50000000  0.00000000  0.24679900  1
  Li  Li25  1  0.25000000  0.75000000  0.49679900  1
  Li  Li26  1  0.25000000  0.75000000  0.75000000  1
  Li  Li27  1  0.50000000  0.50000000  0.00000000  1
  Li  Li28  1  0.37500000  0.12500000  0.87500000  1
  Li  Li29  1  0.37500000  0.37500000  0.62500000  1
  Li  Li30  1  0.12500000  0.37500000  0.87500000  1
  Li  Li31  1  0.12500000  0.12500000  0.62500000  1
  Li  Li32  1  0.11884000  0.38116000  0.61884000  1
  Li  Li33  1  0.13116000  0.63116000  0.86884000  1
  Li  Li34  1  0.36884000  0.63116000  0.63116000  1
  Li  Li35  1  0.36884000  0.86884000  0.86884000  1
  Li  Li36  1  0.88116000  0.61884000  0.61884000  1
  Li  Li37  1  0.38116000  0.38116000  0.88116000  1
  Li  Li38  1  0.61884000  0.61884000  0.88116000  1
  Li  Li39  1  0.13116000  0.86884000  0.63116000  1
  Li  Li40  1  0.25000000  0.25000000  0.50320100  1
  Li  Li41  1  0.24679900  0.50000000  0.00000000  1
  Li  Li42  1  0.75320100  0.50000000  0.00000000  1
  Li  Li43  1  0.00000000  0.50000000  0.75320100  1
  Li  Li44  1  0.50000000  0.75320100  0.00000000  1
  Li  Li45  1  0.50000000  0.24679900  0.00000000  1
  Li  Li46  1  0.25000000  0.49679900  0.75000000  1
  Li  Li47  1  0.00320100  0.25000000  0.75000000  1
  Li  Li48  1  0.49679900  0.25000000  0.75000000  1
  Li  Li49  1  0.25000000  0.00320100  0.75000000  1
  Li  Li50  1  0.50000000  0.50000000  0.74679900  1
  Li  Li51  1  0.25000000  0.25000000  0.99679900  1
  Li  Li52  1  0.75000000  0.25000000  0.75000000  1
  Li  Li53  1  0.00000000  0.00000000  0.00000000  1
  Li  Li54  1  0.87500000  0.62500000  0.87500000  1
  Li  Li55  1  0.87500000  0.87500000  0.62500000  1
  Li  Li56  1  0.62500000  0.87500000  0.87500000  1
  Li  Li57  1  0.62500000  0.62500000  0.62500000  1
  Li  Li58  1  0.61884000  0.88116000  0.61884000  1
  Li  Li59  1  0.63116000  0.13116000  0.86884000  1
  Li  Li60  1  0.86884000  0.13116000  0.63116000  1
  Li  Li61  1  0.86884000  0.36884000  0.86884000  1
  Li  Li62  1  0.38116000  0.11884000  0.61884000  1
  Li  Li63  1  0.88116000  0.88116000  0.88116000  1
  Li  Li64  1  0.11884000  0.11884000  0.88116000  1
  Li  Li65  1  0.63116000  0.36884000  0.63116000  1
  Li  Li66  1  0.75000000  0.75000000  0.50320100  1
  Li  Li67  1  0.74679900  0.00000000  0.00000000  1
  Li  Li68  1  0.25320100  0.00000000  0.00000000  1
  Li  Li69  1  0.50000000  0.00000000  0.75320100  1
  Li  Li70  1  0.00000000  0.25320100  0.00000000  1
  Li  Li71  1  0.00000000  0.74679900  0.00000000  1
  Li  Li72  1  0.75000000  0.99679900  0.75000000  1
  Li  Li73  1  0.50320100  0.75000000  0.75000000  1
  Li  Li74  1  0.99679900  0.75000000  0.75000000  1
  Li  Li75  1  0.75000000  0.50320100  0.75000000  1
  Li  Li76  1  0.00000000  0.00000000  0.74679900  1
  Li  Li77  1  0.75000000  0.75000000  0.99679900  1
  Li  Li78  1  0.75000000  0.75000000  0.25000000  1
  Li  Li79  1  0.00000000  0.50000000  0.50000000  1
  Li  Li80  1  0.87500000  0.12500000  0.37500000  1
  Li  Li81  1  0.87500000  0.37500000  0.12500000  1
  Li  Li82  1  0.62500000  0.37500000  0.37500000  1
  Li  Li83  1  0.62500000  0.12500000  0.12500000  1
  Li  Li84  1  0.61884000  0.38116000  0.11884000  1
  Li  Li85  1  0.63116000  0.63116000  0.36884000  1
  Li  Li86  1  0.86884000  0.63116000  0.13116000  1
  Li  Li87  1  0.86884000  0.86884000  0.36884000  1
  Li  Li88  1  0.38116000  0.61884000  0.11884000  1
  Li  Li89  1  0.88116000  0.38116000  0.38116000  1
  Li  Li90  1  0.11884000  0.61884000  0.38116000  1
  Li  Li91  1  0.63116000  0.86884000  0.13116000  1
  Li  Li92  1  0.75000000  0.25000000  0.00320100  1
  Li  Li93  1  0.74679900  0.50000000  0.50000000  1
  Li  Li94  1  0.25320100  0.50000000  0.50000000  1
  Li  Li95  1  0.50000000  0.50000000  0.25320100  1
  Li  Li96  1  0.00000000  0.75320100  0.50000000  1
  Li  Li97  1  0.00000000  0.24679900  0.50000000  1
  Li  Li98  1  0.75000000  0.49679900  0.25000000  1
  Li  Li99  1  0.50320100  0.25000000  0.25000000  1
  Li  Li100  1  0.99679900  0.25000000  0.25000000  1
  Li  Li101  1  0.75000000  0.00320100  0.25000000  1
  Li  Li102  1  0.00000000  0.50000000  0.24679900  1
  Li  Li103  1  0.75000000  0.25000000  0.49679900  1
  In  In104  1  0.25000000  0.75000000  0.25000000  1
  In  In105  1  0.00000000  0.00000000  0.50000000  1
  In  In106  1  0.37500000  0.12500000  0.37500000  1
  In  In107  1  0.87500000  0.87500000  0.12500000  1
  In  In108  1  0.62500000  0.87500000  0.37500000  1
  In  In109  1  0.12500000  0.12500000  0.12500000  1
  In  In110  1  0.25000000  0.25000000  0.75000000  1
  In  In111  1  0.00000000  0.50000000  0.00000000  1
  In  In112  1  0.37500000  0.62500000  0.87500000  1
  In  In113  1  0.87500000  0.37500000  0.62500000  1
  In  In114  1  0.62500000  0.37500000  0.87500000  1
  In  In115  1  0.12500000  0.62500000  0.62500000  1
  In  In116  1  0.75000000  0.75000000  0.75000000  1
  In  In117  1  0.50000000  0.00000000  0.00000000  1
  In  In118  1  0.87500000  0.12500000  0.87500000  1
  In  In119  1  0.37500000  0.87500000  0.62500000  1
  In  In120  1  0.12500000  0.87500000  0.87500000  1
  In  In121  1  0.62500000  0.12500000  0.62500000  1
  In  In122  1  0.75000000  0.25000000  0.25000000  1
  In  In123  1  0.50000000  0.50000000  0.50000000  1
  In  In124  1  0.87500000  0.62500000  0.37500000  1
  In  In125  1  0.37500000  0.37500000  0.12500000  1
  In  In126  1  0.12500000  0.37500000  0.37500000  1
  In  In127  1  0.62500000  0.62500000  0.12500000  1
