# generated using pymatgen
data_Ca(CuSn)2
_symmetry_space_group_name_H-M   'P 1'
_cell_length_a   10.99860200
_cell_length_b   4.25052000
_cell_length_c   4.87702696
_cell_angle_alpha   90.00000000
_cell_angle_beta   107.79852869
_cell_angle_gamma   90.00000000
_symmetry_Int_Tables_number   1
_chemical_formula_structural   Ca(CuSn)2
_chemical_formula_sum   'Ca2 Cu4 Sn4'
_cell_volume   217.08722132
_cell_formula_units_Z   2
loop_
 _symmetry_equiv_pos_site_id
 _symmetry_equiv_pos_as_xyz
  1  'x, y, z'
loop_
 _atom_site_type_symbol
 _atom_site_label
 _atom_site_symmetry_multiplicity
 _atom_site_fract_x
 _atom_site_fract_y
 _atom_site_fract_z
 _atom_site_occupancy
  Ca  Ca0  1  0.00000000  0.00000000  0.00000000  1
  Ca  Ca1  1  0.50000000  0.50000000  0.00000000  1
  Cu  Cu2  1  0.23674500  0.50000000  0.13327400  1
  Cu  Cu3  1  0.26325500  0.00000000  0.86672600  1
  Cu  Cu4  1  0.73674500  0.00000000  0.13327400  1
  Cu  Cu5  1  0.76325500  0.50000000  0.86672600  1
  Sn  Sn6  1  0.35698500  0.00000000  0.43182400  1
  Sn  Sn7  1  0.14301500  0.50000000  0.56817600  1
  Sn  Sn8  1  0.85698500  0.50000000  0.43182400  1
  Sn  Sn9  1  0.64301500  0.00000000  0.56817600  1
