# generated using pymatgen
data_PrRe2
_symmetry_space_group_name_H-M   'P 1'
_cell_length_a   7.83833800
_cell_length_b   7.83833800
_cell_length_c   7.83833800
_cell_angle_alpha   90.00000000
_cell_angle_beta   90.00000000
_cell_angle_gamma   90.00000000
_symmetry_Int_Tables_number   1
_chemical_formula_structural   PrRe2
_chemical_formula_sum   'Pr8 Re16'
_cell_volume   481.58390148
_cell_formula_units_Z   8
loop_
 _symmetry_equiv_pos_site_id
 _symmetry_equiv_pos_as_xyz
  1  'x, y, z'
loop_
 _atom_site_type_symbol
 _atom_site_label
 _atom_site_symmetry_multiplicity
 _atom_site_fract_x
 _atom_site_fract_y
 _atom_site_fract_z
 _atom_site_occupancy
  Pr  Pr0  1  0.50000000  0.00000000  0.50000000  1
  Pr  Pr1  1  0.25000000  0.25000000  0.25000000  1
  Pr  Pr2  1  0.50000000  0.50000000  0.00000000  1
  Pr  Pr3  1  0.25000000  0.75000000  0.75000000  1
  Pr  Pr4  1  0.00000000  0.00000000  0.00000000  1
  Pr  Pr5  1  0.75000000  0.25000000  0.75000000  1
  Pr  Pr6  1  0.00000000  0.50000000  0.50000000  1
  Pr  Pr7  1  0.75000000  0.75000000  0.25000000  1
  Re  Re8  1  0.37500000  0.87500000  0.12500000  1
  Re  Re9  1  0.12500000  0.62500000  0.12500000  1
  Re  Re10  1  0.37500000  0.62500000  0.37500000  1
  Re  Re11  1  0.12500000  0.87500000  0.37500000  1
  Re  Re12  1  0.37500000  0.37500000  0.62500000  1
  Re  Re13  1  0.12500000  0.12500000  0.62500000  1
  Re  Re14  1  0.37500000  0.12500000  0.87500000  1
  Re  Re15  1  0.12500000  0.37500000  0.87500000  1
  Re  Re16  1  0.87500000  0.87500000  0.62500000  1
  Re  Re17  1  0.62500000  0.62500000  0.62500000  1
  Re  Re18  1  0.87500000  0.62500000  0.87500000  1
  Re  Re19  1  0.62500000  0.87500000  0.87500000  1
  Re  Re20  1  0.87500000  0.37500000  0.12500000  1
  Re  Re21  1  0.62500000  0.12500000  0.12500000  1
  Re  Re22  1  0.87500000  0.12500000  0.37500000  1
  Re  Re23  1  0.62500000  0.37500000  0.37500000  1
