# generated using pymatgen
data_TiAl2
_symmetry_space_group_name_H-M   'P 1'
_cell_length_a   3.96886000
_cell_length_b   3.96886000
_cell_length_c   24.28417600
_cell_angle_alpha   90.00000000
_cell_angle_beta   90.00000000
_cell_angle_gamma   90.00000000
_symmetry_Int_Tables_number   1
_chemical_formula_structural   TiAl2
_chemical_formula_sum   'Ti8 Al16'
_cell_volume   382.52069043
_cell_formula_units_Z   8
loop_
 _symmetry_equiv_pos_site_id
 _symmetry_equiv_pos_as_xyz
  1  'x, y, z'
loop_
 _atom_site_type_symbol
 _atom_site_label
 _atom_site_symmetry_multiplicity
 _atom_site_fract_x
 _atom_site_fract_y
 _atom_site_fract_z
 _atom_site_occupancy
  Ti  Ti0  1  0.00000000  0.50000000  0.17217900  1
  Ti  Ti1  1  0.50000000  0.50000000  0.42217900  1
  Ti  Ti2  1  0.00000000  0.50000000  0.32782100  1
  Ti  Ti3  1  0.00000000  0.00000000  0.07782100  1
  Ti  Ti4  1  0.50000000  0.00000000  0.67217900  1
  Ti  Ti5  1  0.00000000  0.00000000  0.92217900  1
  Ti  Ti6  1  0.50000000  0.00000000  0.82782100  1
  Ti  Ti7  1  0.50000000  0.50000000  0.57782100  1
  Al  Al8  1  0.00000000  0.00000000  0.41340200  1
  Al  Al9  1  0.00000000  0.00000000  0.25023900  1
  Al  Al10  1  0.50000000  0.50000000  0.24976100  1
  Al  Al11  1  0.50000000  0.00000000  0.33659800  1
  Al  Al12  1  0.50000000  0.00000000  0.16340200  1
  Al  Al13  1  0.50000000  0.00000000  0.49976100  1
  Al  Al14  1  0.50000000  0.00000000  0.00023900  1
  Al  Al15  1  0.50000000  0.50000000  0.08659800  1
  Al  Al16  1  0.50000000  0.50000000  0.91340200  1
  Al  Al17  1  0.50000000  0.50000000  0.75023900  1
  Al  Al18  1  0.00000000  0.00000000  0.74976100  1
  Al  Al19  1  0.00000000  0.50000000  0.83659800  1
  Al  Al20  1  0.00000000  0.50000000  0.66340200  1
  Al  Al21  1  0.00000000  0.50000000  0.99976100  1
  Al  Al22  1  0.00000000  0.50000000  0.50023900  1
  Al  Al23  1  0.00000000  0.00000000  0.58659800  1
