# generated using pymatgen
data_Ti6Sn5
_symmetry_space_group_name_H-M   'P 1'
_cell_length_a   5.73634400
_cell_length_b   9.16187800
_cell_length_c   16.53874600
_cell_angle_alpha   90.00000000
_cell_angle_beta   90.00000000
_cell_angle_gamma   90.00000000
_symmetry_Int_Tables_number   1
_chemical_formula_structural   Ti6Sn5
_chemical_formula_sum   'Ti24 Sn20'
_cell_volume   869.20510678
_cell_formula_units_Z   4
loop_
 _symmetry_equiv_pos_site_id
 _symmetry_equiv_pos_as_xyz
  1  'x, y, z'
loop_
 _atom_site_type_symbol
 _atom_site_label
 _atom_site_symmetry_multiplicity
 _atom_site_fract_x
 _atom_site_fract_y
 _atom_site_fract_z
 _atom_site_occupancy
  Ti  Ti0  1  0.50000000  0.50000000  0.65784100  1
  Ti  Ti1  1  0.50000000  0.77107100  0.91393300  1
  Ti  Ti2  1  0.00000000  0.27107100  0.58606700  1
  Ti  Ti3  1  0.00000000  0.00000000  0.84215900  1
  Ti  Ti4  1  0.26612200  0.50000000  0.00000000  1
  Ti  Ti5  1  0.75000000  0.25000000  0.75000000  1
  Ti  Ti6  1  0.73387800  0.50000000  0.00000000  1
  Ti  Ti7  1  0.00000000  0.72892900  0.58606700  1
  Ti  Ti8  1  0.50000000  0.22892900  0.91393300  1
  Ti  Ti9  1  0.75000000  0.75000000  0.75000000  1
  Ti  Ti10  1  0.25000000  0.75000000  0.75000000  1
  Ti  Ti11  1  0.25000000  0.25000000  0.75000000  1
  Ti  Ti12  1  0.00000000  0.00000000  0.15784100  1
  Ti  Ti13  1  0.00000000  0.27107100  0.41393300  1
  Ti  Ti14  1  0.50000000  0.77107100  0.08606700  1
  Ti  Ti15  1  0.50000000  0.50000000  0.34215900  1
  Ti  Ti16  1  0.76612200  0.00000000  0.50000000  1
  Ti  Ti17  1  0.25000000  0.75000000  0.25000000  1
  Ti  Ti18  1  0.23387800  0.00000000  0.50000000  1
  Ti  Ti19  1  0.50000000  0.22892900  0.08606700  1
  Ti  Ti20  1  0.00000000  0.72892900  0.41393300  1
  Ti  Ti21  1  0.25000000  0.25000000  0.25000000  1
  Ti  Ti22  1  0.75000000  0.25000000  0.25000000  1
  Ti  Ti23  1  0.75000000  0.75000000  0.25000000  1
  Sn  Sn24  1  0.50000000  0.80841400  0.60416400  1
  Sn  Sn25  1  0.50000000  0.00000000  0.79154700  1
  Sn  Sn26  1  0.50000000  0.50000000  0.83068000  1
  Sn  Sn27  1  0.50000000  0.19158600  0.60416400  1
  Sn  Sn28  1  0.00000000  0.50000000  0.70845300  1
  Sn  Sn29  1  0.24548600  0.00000000  0.00000000  1
  Sn  Sn30  1  0.00000000  0.00000000  0.66932000  1
  Sn  Sn31  1  0.00000000  0.69158600  0.89583600  1
  Sn  Sn32  1  0.00000000  0.30841400  0.89583600  1
  Sn  Sn33  1  0.75451400  0.00000000  0.00000000  1
  Sn  Sn34  1  0.00000000  0.30841400  0.10416400  1
  Sn  Sn35  1  0.00000000  0.50000000  0.29154700  1
  Sn  Sn36  1  0.00000000  0.00000000  0.33068000  1
  Sn  Sn37  1  0.00000000  0.69158600  0.10416400  1
  Sn  Sn38  1  0.50000000  0.00000000  0.20845300  1
  Sn  Sn39  1  0.74548600  0.50000000  0.50000000  1
  Sn  Sn40  1  0.50000000  0.50000000  0.16932000  1
  Sn  Sn41  1  0.50000000  0.19158600  0.39583600  1
  Sn  Sn42  1  0.50000000  0.80841400  0.39583600  1
  Sn  Sn43  1  0.25451400  0.50000000  0.50000000  1
