# generated using pymatgen
data_Ti3Sb
_symmetry_space_group_name_H-M   'P 1'
_cell_length_a   10.57688400
_cell_length_b   10.57688400
_cell_length_c   5.25028400
_cell_angle_alpha   90.00000000
_cell_angle_beta   90.00000000
_cell_angle_gamma   90.00000000
_symmetry_Int_Tables_number   1
_chemical_formula_structural   Ti3Sb
_chemical_formula_sum   'Ti24 Sb8'
_cell_volume   587.35176575
_cell_formula_units_Z   8
loop_
 _symmetry_equiv_pos_site_id
 _symmetry_equiv_pos_as_xyz
  1  'x, y, z'
loop_
 _atom_site_type_symbol
 _atom_site_label
 _atom_site_symmetry_multiplicity
 _atom_site_fract_x
 _atom_site_fract_y
 _atom_site_fract_z
 _atom_site_occupancy
  Ti  Ti0  1  0.57562150  0.71659250  0.50000000  1
  Ti  Ti1  1  0.21659250  0.92437850  0.00000000  1
  Ti  Ti2  1  0.78340750  0.07562150  0.00000000  1
  Ti  Ti3  1  0.57562150  0.28340750  0.00000000  1
  Ti  Ti4  1  0.00000000  0.00000000  0.75000000  1
  Ti  Ti5  1  0.78340750  0.92437850  0.50000000  1
  Ti  Ti6  1  0.42437850  0.28340750  0.50000000  1
  Ti  Ti7  1  0.00000000  0.00000000  0.25000000  1
  Ti  Ti8  1  0.21659250  0.07562150  0.50000000  1
  Ti  Ti9  1  0.42437850  0.71659250  0.00000000  1
  Ti  Ti10  1  0.50000000  0.00000000  0.25000000  1
  Ti  Ti11  1  0.50000000  0.00000000  0.75000000  1
  Ti  Ti12  1  0.07562150  0.21659250  0.00000000  1
  Ti  Ti13  1  0.71659250  0.42437850  0.50000000  1
  Ti  Ti14  1  0.28340750  0.57562150  0.50000000  1
  Ti  Ti15  1  0.07562150  0.78340750  0.50000000  1
  Ti  Ti16  1  0.50000000  0.50000000  0.25000000  1
  Ti  Ti17  1  0.28340750  0.42437850  0.00000000  1
  Ti  Ti18  1  0.92437850  0.78340750  0.00000000  1
  Ti  Ti19  1  0.50000000  0.50000000  0.75000000  1
  Ti  Ti20  1  0.71659250  0.57562150  0.00000000  1
  Ti  Ti21  1  0.92437850  0.21659250  0.50000000  1
  Ti  Ti22  1  0.00000000  0.50000000  0.75000000  1
  Ti  Ti23  1  0.00000000  0.50000000  0.25000000  1
  Sb  Sb24  1  0.33723600  0.16276400  0.00000000  1
  Sb  Sb25  1  0.33723600  0.83723600  0.50000000  1
  Sb  Sb26  1  0.66276400  0.83723600  0.00000000  1
  Sb  Sb27  1  0.66276400  0.16276400  0.50000000  1
  Sb  Sb28  1  0.83723600  0.66276400  0.50000000  1
  Sb  Sb29  1  0.83723600  0.33723600  0.00000000  1
  Sb  Sb30  1  0.16276400  0.33723600  0.50000000  1
  Sb  Sb31  1  0.16276400  0.66276400  0.00000000  1
