# generated using pymatgen
data_Dy2B4C
_symmetry_space_group_name_H-M   'P 1'
_cell_length_a   3.27967000
_cell_length_b   6.56249600
_cell_length_c   7.54851800
_cell_angle_alpha   90.00000000
_cell_angle_beta   90.00000000
_cell_angle_gamma   90.00000000
_symmetry_Int_Tables_number   1
_chemical_formula_structural   Dy2B4C
_chemical_formula_sum   'Dy4 B8 C2'
_cell_volume   162.46540366
_cell_formula_units_Z   2
loop_
 _symmetry_equiv_pos_site_id
 _symmetry_equiv_pos_as_xyz
  1  'x, y, z'
loop_
 _atom_site_type_symbol
 _atom_site_label
 _atom_site_symmetry_multiplicity
 _atom_site_fract_x
 _atom_site_fract_y
 _atom_site_fract_z
 _atom_site_occupancy
  Dy  Dy0  1  0.50000000  0.50000000  0.73435300  1
  Dy  Dy1  1  0.50000000  0.50000000  0.26564700  1
  Dy  Dy2  1  0.00000000  0.00000000  0.23435300  1
  Dy  Dy3  1  0.00000000  0.00000000  0.76564700  1
  B  B4  1  0.00000000  0.36512000  0.00000000  1
  B  B5  1  0.50000000  0.77254900  0.00000000  1
  B  B6  1  0.00000000  0.63488000  0.00000000  1
  B  B7  1  0.50000000  0.22745100  0.00000000  1
  B  B8  1  0.50000000  0.86512000  0.50000000  1
  B  B9  1  0.00000000  0.27254900  0.50000000  1
  B  B10  1  0.50000000  0.13488000  0.50000000  1
  B  B11  1  0.00000000  0.72745100  0.50000000  1
  C  C12  1  0.50000000  0.00000000  0.00000000  1
  C  C13  1  0.00000000  0.50000000  0.50000000  1
