# generated using pymatgen
data_TiCu2Te3
_symmetry_space_group_name_H-M   'P 1'
_cell_length_a   19.95666000
_cell_length_b   4.00763000
_cell_length_c   7.16149145
_cell_angle_alpha   90.00000000
_cell_angle_beta   96.51308638
_cell_angle_gamma   90.00000000
_symmetry_Int_Tables_number   1
_chemical_formula_structural   TiCu2Te3
_chemical_formula_sum   'Ti4 Cu8 Te12'
_cell_volume   569.07161407
_cell_formula_units_Z   4
loop_
 _symmetry_equiv_pos_site_id
 _symmetry_equiv_pos_as_xyz
  1  'x, y, z'
loop_
 _atom_site_type_symbol
 _atom_site_label
 _atom_site_symmetry_multiplicity
 _atom_site_fract_x
 _atom_site_fract_y
 _atom_site_fract_z
 _atom_site_occupancy
  Ti  Ti0  1  0.85425700  0.50000000  0.43857300  1
  Ti  Ti1  1  0.64574300  0.00000000  0.56142700  1
  Ti  Ti2  1  0.35425700  0.00000000  0.43857300  1
  Ti  Ti3  1  0.14574300  0.50000000  0.56142700  1
  Cu  Cu4  1  0.78664800  0.50000000  0.07252200  1
  Cu  Cu5  1  0.71335200  0.00000000  0.92747800  1
  Cu  Cu6  1  0.95486700  0.00000000  0.34664500  1
  Cu  Cu7  1  0.54513300  0.50000000  0.65335500  1
  Cu  Cu8  1  0.28664800  0.00000000  0.07252200  1
  Cu  Cu9  1  0.21335200  0.50000000  0.92747800  1
  Cu  Cu10  1  0.45486700  0.50000000  0.34664500  1
  Cu  Cu11  1  0.04513300  0.00000000  0.65335500  1
  Te  Te12  1  0.74764500  0.50000000  0.70805900  1
  Te  Te13  1  0.75235500  0.00000000  0.29194100  1
  Te  Te14  1  0.91790700  0.50000000  0.13123400  1
  Te  Te15  1  0.58209300  0.00000000  0.86876600  1
  Te  Te16  1  0.58764800  0.50000000  0.32845000  1
  Te  Te17  1  0.91235200  0.00000000  0.67155000  1
  Te  Te18  1  0.24764500  0.00000000  0.70805900  1
  Te  Te19  1  0.25235500  0.50000000  0.29194100  1
  Te  Te20  1  0.41790700  0.00000000  0.13123400  1
  Te  Te21  1  0.08209300  0.50000000  0.86876600  1
  Te  Te22  1  0.08764800  0.00000000  0.32845000  1
  Te  Te23  1  0.41235200  0.50000000  0.67155000  1
