# generated using pymatgen
data_MgZn5
_symmetry_space_group_name_H-M   'P 1'
_cell_length_a   19.07394800
_cell_length_b   5.04227600
_cell_length_c   8.85243832
_cell_angle_alpha   90.00000000
_cell_angle_beta   112.85464887
_cell_angle_gamma   90.00000000
_symmetry_Int_Tables_number   1
_chemical_formula_structural   MgZn5
_chemical_formula_sum   'Mg8 Zn40'
_cell_volume   784.55286830
_cell_formula_units_Z   8
loop_
 _symmetry_equiv_pos_site_id
 _symmetry_equiv_pos_as_xyz
  1  'x, y, z'
loop_
 _atom_site_type_symbol
 _atom_site_label
 _atom_site_symmetry_multiplicity
 _atom_site_fract_x
 _atom_site_fract_y
 _atom_site_fract_z
 _atom_site_occupancy
  Mg  Mg0  1  0.28090500  0.00000000  0.62636500  1
  Mg  Mg1  1  0.21909500  0.50000000  0.37363500  1
  Mg  Mg2  1  0.46648700  0.00000000  0.79787200  1
  Mg  Mg3  1  0.03351300  0.50000000  0.20212800  1
  Mg  Mg4  1  0.78090500  0.50000000  0.62636500  1
  Mg  Mg5  1  0.71909500  0.00000000  0.37363500  1
  Mg  Mg6  1  0.96648700  0.50000000  0.79787200  1
  Mg  Mg7  1  0.53351300  0.00000000  0.20212800  1
  Zn  Zn8  1  0.00000000  0.50000000  0.50000000  1
  Zn  Zn9  1  0.03533600  0.00000000  0.70459500  1
  Zn  Zn10  1  0.21079700  0.00000000  0.87453200  1
  Zn  Zn11  1  0.12314500  0.00000000  0.28810100  1
  Zn  Zn12  1  0.37685500  0.50000000  0.71189900  1
  Zn  Zn13  1  0.36956800  0.24657900  0.96179700  1
  Zn  Zn14  1  0.37199900  0.25289600  0.45973600  1
  Zn  Zn15  1  0.46466400  0.50000000  0.29540500  1
  Zn  Zn16  1  0.24676400  0.50000000  0.76448000  1
  Zn  Zn17  1  0.12800100  0.75289600  0.54026400  1
  Zn  Zn18  1  0.37199900  0.74710400  0.45973600  1
  Zn  Zn19  1  0.12800100  0.24710400  0.54026400  1
  Zn  Zn20  1  0.13043200  0.74657900  0.03820300  1
  Zn  Zn21  1  0.28920300  0.50000000  0.12546800  1
  Zn  Zn22  1  0.36956800  0.75342100  0.96179700  1
  Zn  Zn23  1  0.13043200  0.25342100  0.03820300  1
  Zn  Zn24  1  0.00000000  0.00000000  0.00000000  1
  Zn  Zn25  1  0.38798700  0.00000000  0.22102900  1
  Zn  Zn26  1  0.11201300  0.50000000  0.77897100  1
  Zn  Zn27  1  0.25323600  0.00000000  0.23552000  1
  Zn  Zn28  1  0.50000000  0.00000000  0.50000000  1
  Zn  Zn29  1  0.53533600  0.50000000  0.70459500  1
  Zn  Zn30  1  0.71079700  0.50000000  0.87453200  1
  Zn  Zn31  1  0.62314500  0.50000000  0.28810100  1
  Zn  Zn32  1  0.87685500  0.00000000  0.71189900  1
  Zn  Zn33  1  0.86956800  0.74657900  0.96179700  1
  Zn  Zn34  1  0.87199900  0.75289600  0.45973600  1
  Zn  Zn35  1  0.96466400  0.00000000  0.29540500  1
  Zn  Zn36  1  0.74676400  0.00000000  0.76448000  1
  Zn  Zn37  1  0.62800100  0.25289600  0.54026400  1
  Zn  Zn38  1  0.87199900  0.24710400  0.45973600  1
  Zn  Zn39  1  0.62800100  0.74710400  0.54026400  1
  Zn  Zn40  1  0.63043200  0.24657900  0.03820300  1
  Zn  Zn41  1  0.78920300  0.00000000  0.12546800  1
  Zn  Zn42  1  0.86956800  0.25342100  0.96179700  1
  Zn  Zn43  1  0.63043200  0.75342100  0.03820300  1
  Zn  Zn44  1  0.50000000  0.50000000  0.00000000  1
  Zn  Zn45  1  0.88798700  0.50000000  0.22102900  1
  Zn  Zn46  1  0.61201300  0.00000000  0.77897100  1
  Zn  Zn47  1  0.75323600  0.50000000  0.23552000  1
