# generated using pymatgen
data_DyZn2
_symmetry_space_group_name_H-M   'P 1'
_cell_length_a   4.50959400
_cell_length_b   7.15348600
_cell_length_c   7.46815400
_cell_angle_alpha   90.00000000
_cell_angle_beta   90.00000000
_cell_angle_gamma   90.00000000
_symmetry_Int_Tables_number   1
_chemical_formula_structural   DyZn2
_chemical_formula_sum   'Dy4 Zn8'
_cell_volume   240.91755136
_cell_formula_units_Z   4
loop_
 _symmetry_equiv_pos_site_id
 _symmetry_equiv_pos_as_xyz
  1  'x, y, z'
loop_
 _atom_site_type_symbol
 _atom_site_label
 _atom_site_symmetry_multiplicity
 _atom_site_fract_x
 _atom_site_fract_y
 _atom_site_fract_z
 _atom_site_occupancy
  Dy  Dy0  1  0.00000000  0.25000000  0.46410300  1
  Dy  Dy1  1  0.00000000  0.75000000  0.53589700  1
  Dy  Dy2  1  0.50000000  0.75000000  0.96410300  1
  Dy  Dy3  1  0.50000000  0.25000000  0.03589700  1
  Zn  Zn4  1  0.00000000  0.04861400  0.83373400  1
  Zn  Zn5  1  0.00000000  0.95138600  0.16626600  1
  Zn  Zn6  1  0.50000000  0.04861400  0.66626600  1
  Zn  Zn7  1  0.50000000  0.95138600  0.33373400  1
  Zn  Zn8  1  0.50000000  0.54861400  0.33373400  1
  Zn  Zn9  1  0.50000000  0.45138600  0.66626600  1
  Zn  Zn10  1  0.00000000  0.54861400  0.16626600  1
  Zn  Zn11  1  0.00000000  0.45138600  0.83373400  1
