# generated using pymatgen
data_Ti3Ni4
_symmetry_space_group_name_H-M   'P 1'
_cell_length_a   11.21454369
_cell_length_b   11.21454369
_cell_length_c   5.05561438
_cell_angle_alpha   90.00000000
_cell_angle_beta   90.00000000
_cell_angle_gamma   120.00000000
_symmetry_Int_Tables_number   1
_chemical_formula_structural   Ti3Ni4
_chemical_formula_sum   'Ti18 Ni24'
_cell_volume   550.64003807
_cell_formula_units_Z   6
loop_
 _symmetry_equiv_pos_site_id
 _symmetry_equiv_pos_as_xyz
  1  'x, y, z'
loop_
 _atom_site_type_symbol
 _atom_site_label
 _atom_site_symmetry_multiplicity
 _atom_site_fract_x
 _atom_site_fract_y
 _atom_site_fract_z
 _atom_site_occupancy
  Ti  Ti0  1  0.15636967  0.44672233  0.95226833  1
  Ti  Ti1  1  0.78005567  0.95701933  0.71439833  1
  Ti  Ti2  1  0.51029700  0.88661100  0.38106500  1
  Ti  Ti3  1  0.70964733  0.15636967  0.04773167  1
  Ti  Ti4  1  0.95701933  0.17696367  0.28560167  1
  Ti  Ti5  1  0.88661100  0.37631400  0.61893500  1
  Ti  Ti6  1  0.82303633  0.78005567  0.28560167  1
  Ti  Ti7  1  0.44672233  0.29035267  0.04773167  1
  Ti  Ti8  1  0.17696367  0.21994433  0.71439833  1
  Ti  Ti9  1  0.37631400  0.48970300  0.38106500  1
  Ti  Ti10  1  0.62368600  0.51029700  0.61893500  1
  Ti  Ti11  1  0.55327767  0.70964733  0.95226833  1
  Ti  Ti12  1  0.48970300  0.11338900  0.61893500  1
  Ti  Ti13  1  0.11338900  0.62368600  0.38106500  1
  Ti  Ti14  1  0.84363033  0.55327767  0.04773167  1
  Ti  Ti15  1  0.04298067  0.82303633  0.71439833  1
  Ti  Ti16  1  0.29035267  0.84363033  0.95226833  1
  Ti  Ti17  1  0.21994433  0.04298067  0.28560167  1
  Ni  Ni18  1  0.71914933  0.12170167  0.53717767  1
  Ni  Ni19  1  0.94751733  0.21163167  0.79615567  1
  Ni  Ni20  1  0.73588567  0.94751733  0.20384433  1
  Ni  Ni21  1  0.54496500  0.93078100  0.87051100  1
  Ni  Ni22  1  0.93078100  0.38581600  0.12948900  1
  Ni  Ni23  1  0.00000000  0.00000000  0.00000000  1
  Ni  Ni24  1  0.12170167  0.40255233  0.46282233  1
  Ni  Ni25  1  0.00000000  0.00000000  0.50000000  1
  Ni  Ni26  1  0.38581600  0.45503500  0.87051100  1
  Ni  Ni27  1  0.61418400  0.54496500  0.12948900  1
  Ni  Ni28  1  0.40255233  0.28085067  0.53717767  1
  Ni  Ni29  1  0.21163167  0.26411433  0.20384433  1
  Ni  Ni30  1  0.59744767  0.71914933  0.46282233  1
  Ni  Ni31  1  0.66666667  0.33333333  0.33333333  1
  Ni  Ni32  1  0.78836833  0.73588567  0.79615567  1
  Ni  Ni33  1  0.66666667  0.33333333  0.83333333  1
  Ni  Ni34  1  0.05248267  0.78836833  0.20384433  1
  Ni  Ni35  1  0.28085067  0.87829833  0.46282233  1
  Ni  Ni36  1  0.06921900  0.61418400  0.87051100  1
  Ni  Ni37  1  0.87829833  0.59744767  0.53717767  1
  Ni  Ni38  1  0.26411433  0.05248267  0.79615567  1
  Ni  Ni39  1  0.33333333  0.66666667  0.66666667  1
  Ni  Ni40  1  0.45503500  0.06921900  0.12948900  1
  Ni  Ni41  1  0.33333333  0.66666667  0.16666667  1
