# generated using pymatgen
data_Sc3IrC4
_symmetry_space_group_name_H-M   'P 1'
_cell_length_a   5.62598800
_cell_length_b   12.28755200
_cell_length_c   5.62530434
_cell_angle_alpha   90.00000000
_cell_angle_beta   104.87310195
_cell_angle_gamma   90.00000000
_symmetry_Int_Tables_number   1
_chemical_formula_structural   Sc3IrC4
_chemical_formula_sum   'Sc12 Ir4 C16'
_cell_volume   375.84654549
_cell_formula_units_Z   4
loop_
 _symmetry_equiv_pos_site_id
 _symmetry_equiv_pos_as_xyz
  1  'x, y, z'
loop_
 _atom_site_type_symbol
 _atom_site_label
 _atom_site_symmetry_multiplicity
 _atom_site_fract_x
 _atom_site_fract_y
 _atom_site_fract_z
 _atom_site_occupancy
  Sc  Sc0  1  0.76124400  0.00000000  0.23680700  1
  Sc  Sc1  1  0.00000000  0.69140700  0.50000000  1
  Sc  Sc2  1  0.00000000  0.81043500  0.00000000  1
  Sc  Sc3  1  0.50000000  0.80859300  0.50000000  1
  Sc  Sc4  1  0.23875600  0.00000000  0.76319300  1
  Sc  Sc5  1  0.50000000  0.68956500  0.00000000  1
  Sc  Sc6  1  0.26124400  0.50000000  0.23680700  1
  Sc  Sc7  1  0.50000000  0.19140700  0.50000000  1
  Sc  Sc8  1  0.50000000  0.31043500  0.00000000  1
  Sc  Sc9  1  0.00000000  0.30859300  0.50000000  1
  Sc  Sc10  1  0.73875600  0.50000000  0.76319300  1
  Sc  Sc11  1  0.00000000  0.18956500  0.00000000  1
  Ir  Ir12  1  0.72920600  0.00000000  0.72817700  1
  Ir  Ir13  1  0.27079400  0.00000000  0.27182300  1
  Ir  Ir14  1  0.22920600  0.50000000  0.72817700  1
  Ir  Ir15  1  0.77079400  0.50000000  0.27182300  1
  C  C16  1  0.91893650  0.62879650  0.08155600  1
  C  C17  1  0.41893650  0.87120350  0.08155600  1
  C  C18  1  0.08106350  0.62879650  0.91844400  1
  C  C19  1  0.58106350  0.87120350  0.91844400  1
  C  C20  1  0.08109600  0.87232700  0.41848800  1
  C  C21  1  0.41890400  0.62767300  0.58151200  1
  C  C22  1  0.58109600  0.62767300  0.41848800  1
  C  C23  1  0.91890400  0.87232700  0.58151200  1
  C  C24  1  0.41893650  0.12879650  0.08155600  1
  C  C25  1  0.91893650  0.37120350  0.08155600  1
  C  C26  1  0.58106350  0.12879650  0.91844400  1
  C  C27  1  0.08106350  0.37120350  0.91844400  1
  C  C28  1  0.58109600  0.37232700  0.41848800  1
  C  C29  1  0.91890400  0.12767300  0.58151200  1
  C  C30  1  0.08109600  0.12767300  0.41848800  1
  C  C31  1  0.41890400  0.37232700  0.58151200  1
