# generated using pymatgen
data_Be12Pt
_symmetry_space_group_name_H-M   'P 1'
_cell_length_a   7.25441800
_cell_length_b   7.25441800
_cell_length_c   4.17097000
_cell_angle_alpha   90.00000000
_cell_angle_beta   90.00000000
_cell_angle_gamma   90.00000000
_symmetry_Int_Tables_number   1
_chemical_formula_structural   Be12Pt
_chemical_formula_sum   'Be24 Pt2'
_cell_volume   219.50388855
_cell_formula_units_Z   2
loop_
 _symmetry_equiv_pos_site_id
 _symmetry_equiv_pos_as_xyz
  1  'x, y, z'
loop_
 _atom_site_type_symbol
 _atom_site_label
 _atom_site_symmetry_multiplicity
 _atom_site_fract_x
 _atom_site_fract_y
 _atom_site_fract_z
 _atom_site_occupancy
  Be  Be0  1  0.34830200  0.00000000  0.00000000  1
  Be  Be1  1  0.75000000  0.25000000  0.75000000  1
  Be  Be2  1  0.50000000  0.84830200  0.50000000  1
  Be  Be3  1  0.77519000  0.00000000  0.50000000  1
  Be  Be4  1  0.65169800  0.00000000  0.00000000  1
  Be  Be5  1  0.75000000  0.75000000  0.75000000  1
  Be  Be6  1  0.50000000  0.15169800  0.50000000  1
  Be  Be7  1  0.50000000  0.72481000  0.00000000  1
  Be  Be8  1  0.22481000  0.00000000  0.50000000  1
  Be  Be9  1  0.75000000  0.75000000  0.25000000  1
  Be  Be10  1  0.50000000  0.27519000  0.00000000  1
  Be  Be11  1  0.75000000  0.25000000  0.25000000  1
  Be  Be12  1  0.84830200  0.50000000  0.50000000  1
  Be  Be13  1  0.25000000  0.75000000  0.25000000  1
  Be  Be14  1  0.00000000  0.34830200  0.00000000  1
  Be  Be15  1  0.27519000  0.50000000  0.00000000  1
  Be  Be16  1  0.15169800  0.50000000  0.50000000  1
  Be  Be17  1  0.25000000  0.25000000  0.25000000  1
  Be  Be18  1  0.00000000  0.65169800  0.00000000  1
  Be  Be19  1  0.00000000  0.22481000  0.50000000  1
  Be  Be20  1  0.72481000  0.50000000  0.00000000  1
  Be  Be21  1  0.25000000  0.25000000  0.75000000  1
  Be  Be22  1  0.00000000  0.77519000  0.50000000  1
  Be  Be23  1  0.25000000  0.75000000  0.75000000  1
  Pt  Pt24  1  0.00000000  0.00000000  0.00000000  1
  Pt  Pt25  1  0.50000000  0.50000000  0.50000000  1
