# generated using pymatgen
data_Ba(FeAs)2
_symmetry_space_group_name_H-M   'P 1'
_cell_length_a   3.99312076
_cell_length_b   3.99312076
_cell_length_c   12.88915907
_cell_angle_alpha   90.00000000
_cell_angle_beta   90.00000000
_cell_angle_gamma   90.00000000
_symmetry_Int_Tables_number   1
_chemical_formula_structural   Ba(FeAs)2
_chemical_formula_sum   'Ba2 Fe4 As4'
_cell_volume   205.51781434
_cell_formula_units_Z   2
loop_
 _symmetry_equiv_pos_site_id
 _symmetry_equiv_pos_as_xyz
  1  'x, y, z'
loop_
 _atom_site_type_symbol
 _atom_site_label
 _atom_site_symmetry_multiplicity
 _atom_site_fract_x
 _atom_site_fract_y
 _atom_site_fract_z
 _atom_site_occupancy
  Ba  Ba0  1  0.50000000  0.50000000  0.50000000  1
  Ba  Ba1  1  0.00000000  0.00000000  0.00000000  1
  Fe  Fe2  1  0.00000000  0.50000000  0.75000000  1
  Fe  Fe3  1  0.50000000  0.00000000  0.75000000  1
  Fe  Fe4  1  0.50000000  0.00000000  0.25000000  1
  Fe  Fe5  1  0.00000000  0.50000000  0.25000000  1
  As  As6  1  0.50000000  0.50000000  0.85066450  1
  As  As7  1  0.00000000  0.00000000  0.64933550  1
  As  As8  1  0.00000000  0.00000000  0.35066450  1
  As  As9  1  0.50000000  0.50000000  0.14933550  1
