# generated using pymatgen
data_TmAu2
_symmetry_space_group_name_H-M   'P 1'
_cell_length_a   3.71003800
_cell_length_b   3.71003800
_cell_length_c   9.01427800
_cell_angle_alpha   90.00000000
_cell_angle_beta   90.00000000
_cell_angle_gamma   90.00000000
_symmetry_Int_Tables_number   1
_chemical_formula_structural   TmAu2
_chemical_formula_sum   'Tm2 Au4'
_cell_volume   124.07596550
_cell_formula_units_Z   2
loop_
 _symmetry_equiv_pos_site_id
 _symmetry_equiv_pos_as_xyz
  1  'x, y, z'
loop_
 _atom_site_type_symbol
 _atom_site_label
 _atom_site_symmetry_multiplicity
 _atom_site_fract_x
 _atom_site_fract_y
 _atom_site_fract_z
 _atom_site_occupancy
  Tm  Tm0  1  0.00000000  0.00000000  0.00000000  1
  Tm  Tm1  1  0.50000000  0.50000000  0.50000000  1
  Au  Au2  1  0.50000000  0.50000000  0.16412200  1
  Au  Au3  1  0.00000000  0.00000000  0.33587800  1
  Au  Au4  1  0.00000000  0.00000000  0.66412200  1
  Au  Au5  1  0.50000000  0.50000000  0.83587800  1
