# generated using pymatgen
data_Al5Mo
_symmetry_space_group_name_H-M   'P 1'
_cell_length_a   4.95712997
_cell_length_b   4.95712997
_cell_length_c   26.22978812
_cell_angle_alpha   90.00000000
_cell_angle_beta   90.00000000
_cell_angle_gamma   120.00000000
_symmetry_Int_Tables_number   1
_chemical_formula_structural   Al5Mo
_chemical_formula_sum   'Al30 Mo6'
_cell_volume   558.19510673
_cell_formula_units_Z   6
loop_
 _symmetry_equiv_pos_site_id
 _symmetry_equiv_pos_as_xyz
  1  'x, y, z'
loop_
 _atom_site_type_symbol
 _atom_site_label
 _atom_site_symmetry_multiplicity
 _atom_site_fract_x
 _atom_site_fract_y
 _atom_site_fract_z
 _atom_site_occupancy
  Al  Al0  1  0.66666667  0.33333333  0.16415633  1
  Al  Al1  1  0.65383900  0.65383900  0.25000000  1
  Al  Al2  1  0.01282767  0.67949433  0.08333333  1
  Al  Al3  1  0.66666667  0.33333333  0.00251033  1
  Al  Al4  1  0.32050567  0.33333333  0.08333333  1
  Al  Al5  1  0.00000000  0.00000000  0.16917700  1
  Al  Al6  1  0.34616100  0.00000000  0.25000000  1
  Al  Al7  1  0.00000000  0.00000000  0.33082300  1
  Al  Al8  1  0.66666667  0.98717233  0.08333333  1
  Al  Al9  1  0.00000000  0.34616100  0.25000000  1
  Al  Al10  1  0.33333333  0.66666667  0.49748967  1
  Al  Al11  1  0.32050567  0.98717233  0.58333333  1
  Al  Al12  1  0.67949433  0.01282767  0.41666667  1
  Al  Al13  1  0.33333333  0.66666667  0.33584367  1
  Al  Al14  1  0.98717233  0.66666667  0.41666667  1
  Al  Al15  1  0.66666667  0.33333333  0.50251033  1
  Al  Al16  1  0.01282767  0.33333333  0.58333333  1
  Al  Al17  1  0.66666667  0.33333333  0.66415633  1
  Al  Al18  1  0.33333333  0.32050567  0.41666667  1
  Al  Al19  1  0.66666667  0.67949433  0.58333333  1
  Al  Al20  1  0.00000000  0.00000000  0.83082300  1
  Al  Al21  1  0.98717233  0.32050567  0.91666667  1
  Al  Al22  1  0.34616100  0.34616100  0.75000000  1
  Al  Al23  1  0.00000000  1.00000000  0.66917700  1
  Al  Al24  1  0.65383900  0.00000000  0.75000000  1
  Al  Al25  1  0.33333333  0.66666667  0.83584367  1
  Al  Al26  1  0.67949433  0.66666667  0.91666667  1
  Al  Al27  1  0.33333333  0.66666667  0.99748967  1
  Al  Al28  1  0.00000000  0.65383900  0.75000000  1
  Al  Al29  1  0.33333333  0.01282767  0.91666667  1
  Mo  Mo30  1  0.00000000  0.00000000  0.00000000  1
  Mo  Mo31  1  0.33333333  0.66666667  0.16666667  1
  Mo  Mo32  1  0.66666667  0.33333333  0.33333333  1
  Mo  Mo33  1  0.00000000  0.00000000  0.50000000  1
  Mo  Mo34  1  0.33333333  0.66666667  0.66666667  1
  Mo  Mo35  1  0.66666667  0.33333333  0.83333333  1
