# generated using pymatgen
data_Mg3Hg
_symmetry_space_group_name_H-M   'P 1'
_cell_length_a   8.32392446
_cell_length_b   8.32392446
_cell_length_c   26.85972445
_cell_angle_alpha   90.00000000
_cell_angle_beta   90.00000000
_cell_angle_gamma   120.00000000
_symmetry_Int_Tables_number   1
_chemical_formula_structural   Mg3Hg
_chemical_formula_sum   'Mg54 Hg18'
_cell_volume   1611.71573288
_cell_formula_units_Z   18
loop_
 _symmetry_equiv_pos_site_id
 _symmetry_equiv_pos_as_xyz
  1  'x, y, z'
loop_
 _atom_site_type_symbol
 _atom_site_label
 _atom_site_symmetry_multiplicity
 _atom_site_fract_x
 _atom_site_fract_y
 _atom_site_fract_z
 _atom_site_occupancy
  Mg  Mg0  1  0.64101033  0.03670767  0.27709167  1
  Mg  Mg1  1  0.00000000  0.00000000  0.13706000  1
  Mg  Mg2  1  0.73825333  0.74351467  0.22405667  1
  Mg  Mg3  1  0.33333333  0.66666667  0.22378567  1
  Mg  Mg4  1  0.39569733  0.35898967  0.27709167  1
  Mg  Mg5  1  0.70337433  0.97434367  0.05624167  1
  Mg  Mg6  1  0.66140533  0.58981867  0.10927667  1
  Mg  Mg7  1  0.25648533  0.99473867  0.22405667  1
  Mg  Mg8  1  0.00526133  0.26174667  0.22405667  1
  Mg  Mg9  1  0.00000000  0.00000000  0.31883500  1
  Mg  Mg10  1  0.96329233  0.60430267  0.27709167  1
  Mg  Mg11  1  0.27096933  0.29662567  0.05624167  1
  Mg  Mg12  1  0.66666667  0.33333333  0.19627333  1
  Mg  Mg13  1  0.92841333  0.33859467  0.10927667  1
  Mg  Mg14  1  0.33333333  0.66666667  0.10954767  1
  Mg  Mg15  1  0.41018133  0.07158667  0.10927667  1
  Mg  Mg16  1  0.02565633  0.72903067  0.05624167  1
  Mg  Mg17  1  0.66666667  0.33333333  0.01449833  1
  Mg  Mg18  1  0.30767700  0.37004100  0.61042500  1
  Mg  Mg19  1  0.66666667  0.33333333  0.47039333  1
  Mg  Mg20  1  0.40492000  0.07684800  0.55739000  1
  Mg  Mg21  1  0.00000000  0.00000000  0.55711900  1
  Mg  Mg22  1  0.06236400  0.69232300  0.61042500  1
  Mg  Mg23  1  0.37004100  0.30767700  0.38957500  1
  Mg  Mg24  1  0.32807200  0.92315200  0.44261000  1
  Mg  Mg25  1  0.92315200  0.32807200  0.55739000  1
  Mg  Mg26  1  0.67192800  0.59508000  0.55739000  1
  Mg  Mg27  1  0.66666667  0.33333333  0.65216833  1
  Mg  Mg28  1  0.62995900  0.93763600  0.61042500  1
  Mg  Mg29  1  0.93763600  0.62995900  0.38957500  1
  Mg  Mg30  1  0.33333333  0.66666667  0.52960667  1
  Mg  Mg31  1  0.59508000  0.67192800  0.44261000  1
  Mg  Mg32  1  1.00000000  0.00000000  0.44288100  1
  Mg  Mg33  1  0.07684800  0.40492000  0.44261000  1
  Mg  Mg34  1  0.69232300  0.06236400  0.38957500  1
  Mg  Mg35  1  0.33333333  0.66666667  0.34783167  1
  Mg  Mg36  1  0.97434367  0.70337433  0.94375833  1
  Mg  Mg37  1  0.33333333  0.66666667  0.80372667  1
  Mg  Mg38  1  0.07158667  0.41018133  0.89072333  1
  Mg  Mg39  1  0.66666667  0.33333333  0.89045233  1
  Mg  Mg40  1  0.72903067  0.02565633  0.94375833  1
  Mg  Mg41  1  0.03670767  0.64101033  0.72290833  1
  Mg  Mg42  1  0.99473867  0.25648533  0.77594333  1
  Mg  Mg43  1  0.58981867  0.66140533  0.89072333  1
  Mg  Mg44  1  0.33859467  0.92841333  0.89072333  1
  Mg  Mg45  1  0.33333333  0.66666667  0.98550167  1
  Mg  Mg46  1  0.29662567  0.27096933  0.94375833  1
  Mg  Mg47  1  0.60430267  0.96329233  0.72290833  1
  Mg  Mg48  1  0.00000000  0.00000000  0.86294000  1
  Mg  Mg49  1  0.26174667  0.00526133  0.77594333  1
  Mg  Mg50  1  0.66666667  0.33333333  0.77621433  1
  Mg  Mg51  1  0.74351467  0.73825333  0.77594333  1
  Mg  Mg52  1  0.35898967  0.39569733  0.72290833  1
  Mg  Mg53  1  0.00000000  0.00000000  0.68116500  1
  Hg  Hg54  1  0.01499733  0.66666667  0.16666667  1
  Hg  Hg55  1  0.67382000  0.67382000  0.00000000  1
  Hg  Hg56  1  0.32618000  0.00000000  0.00000000  1
  Hg  Hg57  1  0.00000000  0.32618000  0.00000000  1
  Hg  Hg58  1  0.65166933  0.98500267  0.16666667  1
  Hg  Hg59  1  0.33333333  0.34833067  0.16666667  1
  Hg  Hg60  1  0.68166400  0.00000000  0.50000000  1
  Hg  Hg61  1  0.34048667  0.00715333  0.33333333  1
  Hg  Hg62  1  0.99284667  0.33333333  0.33333333  1
  Hg  Hg63  1  0.66666667  0.65951333  0.33333333  1
  Hg  Hg64  1  0.31833600  0.31833600  0.50000000  1
  Hg  Hg65  1  0.00000000  0.68166400  0.50000000  1
  Hg  Hg66  1  0.34833067  0.33333333  0.83333333  1
  Hg  Hg67  1  0.00715333  0.34048667  0.66666667  1
  Hg  Hg68  1  0.65951333  0.66666667  0.66666667  1
  Hg  Hg69  1  0.33333333  0.99284667  0.66666667  1
  Hg  Hg70  1  0.98500267  0.65166933  0.83333333  1
  Hg  Hg71  1  0.66666667  0.01499733  0.83333333  1
