# generated using pymatgen
data_Y4Sb3
_symmetry_space_group_name_H-M   'P 1'
_cell_length_a   9.22943200
_cell_length_b   9.22943200
_cell_length_c   9.22943200
_cell_angle_alpha   90.00000000
_cell_angle_beta   90.00000000
_cell_angle_gamma   90.00000000
_symmetry_Int_Tables_number   1
_chemical_formula_structural   Y4Sb3
_chemical_formula_sum   'Y16 Sb12'
_cell_volume   786.18530723
_cell_formula_units_Z   4
loop_
 _symmetry_equiv_pos_site_id
 _symmetry_equiv_pos_as_xyz
  1  'x, y, z'
loop_
 _atom_site_type_symbol
 _atom_site_label
 _atom_site_symmetry_multiplicity
 _atom_site_fract_x
 _atom_site_fract_y
 _atom_site_fract_z
 _atom_site_occupancy
  Y  Y0  1  0.92737050  0.42737050  0.07262950  1
  Y  Y1  1  0.42737050  0.07262950  0.92737050  1
  Y  Y2  1  0.17737050  0.67737050  0.82262950  1
  Y  Y3  1  0.32262950  0.32262950  0.32262950  1
  Y  Y4  1  0.07262950  0.07262950  0.07262950  1
  Y  Y5  1  0.82262950  0.17737050  0.67737050  1
  Y  Y6  1  0.67737050  0.82262950  0.17737050  1
  Y  Y7  1  0.07262950  0.92737050  0.42737050  1
  Y  Y8  1  0.42737050  0.92737050  0.57262950  1
  Y  Y9  1  0.92737050  0.57262950  0.42737050  1
  Y  Y10  1  0.67737050  0.17737050  0.32262950  1
  Y  Y11  1  0.82262950  0.82262950  0.82262950  1
  Y  Y12  1  0.57262950  0.57262950  0.57262950  1
  Y  Y13  1  0.32262950  0.67737050  0.17737050  1
  Y  Y14  1  0.17737050  0.32262950  0.67737050  1
  Y  Y15  1  0.57262950  0.42737050  0.92737050  1
  Sb  Sb16  1  0.12500000  0.00000000  0.75000000  1
  Sb  Sb17  1  0.25000000  0.37500000  0.00000000  1
  Sb  Sb18  1  0.37500000  0.00000000  0.25000000  1
  Sb  Sb19  1  0.00000000  0.75000000  0.12500000  1
  Sb  Sb20  1  0.00000000  0.25000000  0.37500000  1
  Sb  Sb21  1  0.75000000  0.12500000  0.00000000  1
  Sb  Sb22  1  0.62500000  0.50000000  0.25000000  1
  Sb  Sb23  1  0.75000000  0.87500000  0.50000000  1
  Sb  Sb24  1  0.87500000  0.50000000  0.75000000  1
  Sb  Sb25  1  0.50000000  0.25000000  0.62500000  1
  Sb  Sb26  1  0.50000000  0.75000000  0.87500000  1
  Sb  Sb27  1  0.25000000  0.62500000  0.50000000  1
