# generated using pymatgen
data_U2TeN2
_symmetry_space_group_name_H-M   'P 1'
_cell_length_a   3.88032800
_cell_length_b   3.88032800
_cell_length_c   12.65258400
_cell_angle_alpha   90.00000000
_cell_angle_beta   90.00000000
_cell_angle_gamma   90.00000000
_symmetry_Int_Tables_number   1
_chemical_formula_structural   U2TeN2
_chemical_formula_sum   'U4 Te2 N4'
_cell_volume   190.50926630
_cell_formula_units_Z   2
loop_
 _symmetry_equiv_pos_site_id
 _symmetry_equiv_pos_as_xyz
  1  'x, y, z'
loop_
 _atom_site_type_symbol
 _atom_site_label
 _atom_site_symmetry_multiplicity
 _atom_site_fract_x
 _atom_site_fract_y
 _atom_site_fract_z
 _atom_site_occupancy
  U  U0  1  0.00000000  0.00000000  0.34061700  1
  U  U1  1  0.50000000  0.50000000  0.15938300  1
  U  U2  1  0.50000000  0.50000000  0.84061700  1
  U  U3  1  0.00000000  0.00000000  0.65938300  1
  Te  Te4  1  0.00000000  0.00000000  0.00000000  1
  Te  Te5  1  0.50000000  0.50000000  0.50000000  1
  N  N6  1  0.00000000  0.50000000  0.25000000  1
  N  N7  1  0.50000000  0.00000000  0.25000000  1
  N  N8  1  0.50000000  0.00000000  0.75000000  1
  N  N9  1  0.00000000  0.50000000  0.75000000  1
