# generated using pymatgen
data_Al6Fe
_symmetry_space_group_name_H-M   'P 1'
_cell_length_a   6.44028200
_cell_length_b   7.43001800
_cell_length_c   8.81622600
_cell_angle_alpha   90.00000000
_cell_angle_beta   90.00000000
_cell_angle_gamma   90.00000000
_symmetry_Int_Tables_number   1
_chemical_formula_structural   Al6Fe
_chemical_formula_sum   'Al24 Fe4'
_cell_volume   421.86885543
_cell_formula_units_Z   4
loop_
 _symmetry_equiv_pos_site_id
 _symmetry_equiv_pos_as_xyz
  1  'x, y, z'
loop_
 _atom_site_type_symbol
 _atom_site_label
 _atom_site_symmetry_multiplicity
 _atom_site_fract_x
 _atom_site_fract_y
 _atom_site_fract_z
 _atom_site_occupancy
  Al  Al0  1  0.50000000  0.82259800  0.00000000  1
  Al  Al1  1  0.14590500  0.00000000  0.59789300  1
  Al  Al2  1  0.50000000  0.82259800  0.50000000  1
  Al  Al3  1  0.85409500  0.00000000  0.40210700  1
  Al  Al4  1  0.21033100  0.18184400  0.25000000  1
  Al  Al5  1  0.50000000  0.17740200  0.50000000  1
  Al  Al6  1  0.14590500  0.00000000  0.90210700  1
  Al  Al7  1  0.78966900  0.81815600  0.75000000  1
  Al  Al8  1  0.78966900  0.18184400  0.75000000  1
  Al  Al9  1  0.21033100  0.81815600  0.25000000  1
  Al  Al10  1  0.85409500  0.00000000  0.09789300  1
  Al  Al11  1  0.50000000  0.17740200  0.00000000  1
  Al  Al12  1  0.00000000  0.32259800  0.00000000  1
  Al  Al13  1  0.64590500  0.50000000  0.59789300  1
  Al  Al14  1  0.00000000  0.32259800  0.50000000  1
  Al  Al15  1  0.35409500  0.50000000  0.40210700  1
  Al  Al16  1  0.71033100  0.68184400  0.25000000  1
  Al  Al17  1  0.00000000  0.67740200  0.50000000  1
  Al  Al18  1  0.64590500  0.50000000  0.90210700  1
  Al  Al19  1  0.28966900  0.31815600  0.75000000  1
  Al  Al20  1  0.28966900  0.68184400  0.75000000  1
  Al  Al21  1  0.71033100  0.31815600  0.25000000  1
  Al  Al22  1  0.35409500  0.50000000  0.09789300  1
  Al  Al23  1  0.00000000  0.67740200  0.00000000  1
  Fe  Fe24  1  0.46006900  0.00000000  0.75000000  1
  Fe  Fe25  1  0.53993100  0.00000000  0.25000000  1
  Fe  Fe26  1  0.96006900  0.50000000  0.75000000  1
  Fe  Fe27  1  0.03993100  0.50000000  0.25000000  1
