# generated using pymatgen
data_Ca(PRu)2
_symmetry_space_group_name_H-M   'P 1'
_cell_length_a   4.07941200
_cell_length_b   4.07941200
_cell_length_c   9.85442200
_cell_angle_alpha   90.00000000
_cell_angle_beta   90.00000000
_cell_angle_gamma   90.00000000
_symmetry_Int_Tables_number   1
_chemical_formula_structural   Ca(PRu)2
_chemical_formula_sum   'Ca2 P4 Ru4'
_cell_volume   163.99337148
_cell_formula_units_Z   2
loop_
 _symmetry_equiv_pos_site_id
 _symmetry_equiv_pos_as_xyz
  1  'x, y, z'
loop_
 _atom_site_type_symbol
 _atom_site_label
 _atom_site_symmetry_multiplicity
 _atom_site_fract_x
 _atom_site_fract_y
 _atom_site_fract_z
 _atom_site_occupancy
  Ca  Ca0  1  0.00000000  0.00000000  0.00000000  1
  Ca  Ca1  1  0.50000000  0.50000000  0.50000000  1
  P  P2  1  0.50000000  0.50000000  0.13295900  1
  P  P3  1  0.00000000  0.00000000  0.36704100  1
  P  P4  1  0.00000000  0.00000000  0.63295900  1
  P  P5  1  0.50000000  0.50000000  0.86704100  1
  Ru  Ru6  1  0.00000000  0.50000000  0.25000000  1
  Ru  Ru7  1  0.50000000  0.00000000  0.25000000  1
  Ru  Ru8  1  0.50000000  0.00000000  0.75000000  1
  Ru  Ru9  1  0.00000000  0.50000000  0.75000000  1
