# generated using pymatgen
data_CuRe2Cl
_symmetry_space_group_name_H-M   'P 1'
_cell_length_a   6.04931600
_cell_length_b   6.04931600
_cell_length_c   6.04931600
_cell_angle_alpha   90.00000000
_cell_angle_beta   90.00000000
_cell_angle_gamma   90.00000000
_symmetry_Int_Tables_number   1
_chemical_formula_structural   CuRe2Cl
_chemical_formula_sum   'Cu4 Re8 Cl4'
_cell_volume   221.37002516
_cell_formula_units_Z   4
loop_
 _symmetry_equiv_pos_site_id
 _symmetry_equiv_pos_as_xyz
  1  'x, y, z'
loop_
 _atom_site_type_symbol
 _atom_site_label
 _atom_site_symmetry_multiplicity
 _atom_site_fract_x
 _atom_site_fract_y
 _atom_site_fract_z
 _atom_site_occupancy
  Cu  Cu0  1  0.50000000  0.00000000  0.00000000  1
  Cu  Cu1  1  0.50000000  0.50000000  0.50000000  1
  Cu  Cu2  1  0.00000000  0.00000000  0.50000000  1
  Cu  Cu3  1  0.00000000  0.50000000  0.00000000  1
  Re  Re4  1  0.25000000  0.25000000  0.75000000  1
  Re  Re5  1  0.25000000  0.75000000  0.75000000  1
  Re  Re6  1  0.25000000  0.75000000  0.25000000  1
  Re  Re7  1  0.25000000  0.25000000  0.25000000  1
  Re  Re8  1  0.75000000  0.25000000  0.25000000  1
  Re  Re9  1  0.75000000  0.75000000  0.25000000  1
  Re  Re10  1  0.75000000  0.75000000  0.75000000  1
  Re  Re11  1  0.75000000  0.25000000  0.75000000  1
  Cl  Cl12  1  0.00000000  0.00000000  0.00000000  1
  Cl  Cl13  1  0.00000000  0.50000000  0.50000000  1
  Cl  Cl14  1  0.50000000  0.00000000  0.50000000  1
  Cl  Cl15  1  0.50000000  0.50000000  0.00000000  1
