# generated using pymatgen
data_Ti2Sn3
_symmetry_space_group_name_H-M   'P 1'
_cell_length_a   5.99212000
_cell_length_b   20.10167400
_cell_length_c   7.05846000
_cell_angle_alpha   90.00000000
_cell_angle_beta   90.00000000
_cell_angle_gamma   90.00000000
_symmetry_Int_Tables_number   1
_chemical_formula_structural   Ti2Sn3
_chemical_formula_sum   'Ti16 Sn24'
_cell_volume   850.20310270
_cell_formula_units_Z   8
loop_
 _symmetry_equiv_pos_site_id
 _symmetry_equiv_pos_as_xyz
  1  'x, y, z'
loop_
 _atom_site_type_symbol
 _atom_site_label
 _atom_site_symmetry_multiplicity
 _atom_site_fract_x
 _atom_site_fract_y
 _atom_site_fract_z
 _atom_site_occupancy
  Ti  Ti0  1  0.00000000  0.91919400  0.95194700  1
  Ti  Ti1  1  0.25000000  0.66330200  0.75000000  1
  Ti  Ti2  1  0.75000000  0.83669800  0.25000000  1
  Ti  Ti3  1  0.25000000  0.83669800  0.25000000  1
  Ti  Ti4  1  0.50000000  0.91919400  0.54805300  1
  Ti  Ti5  1  0.75000000  0.66330200  0.75000000  1
  Ti  Ti6  1  0.50000000  0.58080600  0.04805300  1
  Ti  Ti7  1  0.00000000  0.58080600  0.45194700  1
  Ti  Ti8  1  0.50000000  0.41919400  0.95194700  1
  Ti  Ti9  1  0.75000000  0.16330200  0.75000000  1
  Ti  Ti10  1  0.25000000  0.33669800  0.25000000  1
  Ti  Ti11  1  0.75000000  0.33669800  0.25000000  1
  Ti  Ti12  1  0.00000000  0.41919400  0.54805300  1
  Ti  Ti13  1  0.25000000  0.16330200  0.75000000  1
  Ti  Ti14  1  0.00000000  0.08080600  0.04805300  1
  Ti  Ti15  1  0.50000000  0.08080600  0.45194700  1
  Sn  Sn16  1  0.00000000  0.77539500  0.92705100  1
  Sn  Sn17  1  0.50000000  0.62202900  0.42595400  1
  Sn  Sn18  1  0.50000000  0.77539500  0.57294900  1
  Sn  Sn19  1  0.00000000  0.72460500  0.42705100  1
  Sn  Sn20  1  0.75000000  0.97930500  0.25000000  1
  Sn  Sn21  1  0.00000000  0.87797100  0.57404600  1
  Sn  Sn22  1  0.00000000  0.62202900  0.07404600  1
  Sn  Sn23  1  0.25000000  0.52069500  0.75000000  1
  Sn  Sn24  1  0.50000000  0.72460500  0.07294900  1
  Sn  Sn25  1  0.25000000  0.97930500  0.25000000  1
  Sn  Sn26  1  0.75000000  0.52069500  0.75000000  1
  Sn  Sn27  1  0.50000000  0.87797100  0.92595400  1
  Sn  Sn28  1  0.50000000  0.27539500  0.92705100  1
  Sn  Sn29  1  0.00000000  0.12202900  0.42595400  1
  Sn  Sn30  1  0.00000000  0.27539500  0.57294900  1
  Sn  Sn31  1  0.50000000  0.22460500  0.42705100  1
  Sn  Sn32  1  0.25000000  0.47930500  0.25000000  1
  Sn  Sn33  1  0.50000000  0.37797100  0.57404600  1
  Sn  Sn34  1  0.50000000  0.12202900  0.07404600  1
  Sn  Sn35  1  0.75000000  0.02069500  0.75000000  1
  Sn  Sn36  1  0.00000000  0.22460500  0.07294900  1
  Sn  Sn37  1  0.75000000  0.47930500  0.25000000  1
  Sn  Sn38  1  0.25000000  0.02069500  0.75000000  1
  Sn  Sn39  1  0.00000000  0.37797100  0.92595400  1
