# generated using pymatgen
data_ErNi2B2C
_symmetry_space_group_name_H-M   'P 1'
_cell_length_a   3.51228800
_cell_length_b   3.51228800
_cell_length_c   10.43413400
_cell_angle_alpha   90.00000000
_cell_angle_beta   90.00000000
_cell_angle_gamma   90.00000000
_symmetry_Int_Tables_number   1
_chemical_formula_structural   ErNi2B2C
_chemical_formula_sum   'Er2 Ni4 B4 C2'
_cell_volume   128.71721947
_cell_formula_units_Z   2
loop_
 _symmetry_equiv_pos_site_id
 _symmetry_equiv_pos_as_xyz
  1  'x, y, z'
loop_
 _atom_site_type_symbol
 _atom_site_label
 _atom_site_symmetry_multiplicity
 _atom_site_fract_x
 _atom_site_fract_y
 _atom_site_fract_z
 _atom_site_occupancy
  Er  Er0  1  0.00000000  0.00000000  0.00000000  1
  Er  Er1  1  0.50000000  0.50000000  0.50000000  1
  Ni  Ni2  1  0.00000000  0.50000000  0.25000000  1
  Ni  Ni3  1  0.50000000  0.00000000  0.25000000  1
  Ni  Ni4  1  0.50000000  0.00000000  0.75000000  1
  Ni  Ni5  1  0.00000000  0.50000000  0.75000000  1
  B  B6  1  0.00000000  0.00000000  0.35723600  1
  B  B7  1  0.50000000  0.50000000  0.14276400  1
  B  B8  1  0.50000000  0.50000000  0.85723600  1
  B  B9  1  0.00000000  0.00000000  0.64276400  1
  C  C10  1  0.50000000  0.50000000  0.00000000  1
  C  C11  1  0.00000000  0.00000000  0.50000000  1
