# generated using pymatgen
data_V2H
_symmetry_space_group_name_H-M   'P 1'
_cell_length_a   4.44299600
_cell_length_b   2.95138600
_cell_length_c   4.44359888
_cell_angle_alpha   90.00000000
_cell_angle_beta   97.32603652
_cell_angle_gamma   90.00000000
_symmetry_Int_Tables_number   1
_chemical_formula_structural   V2H
_chemical_formula_sum   'V4 H2'
_cell_volume   57.79322283
_cell_formula_units_Z   2
loop_
 _symmetry_equiv_pos_site_id
 _symmetry_equiv_pos_as_xyz
  1  'x, y, z'
loop_
 _atom_site_type_symbol
 _atom_site_label
 _atom_site_symmetry_multiplicity
 _atom_site_fract_x
 _atom_site_fract_y
 _atom_site_fract_z
 _atom_site_occupancy
  V  V0  1  0.26960300  0.00000000  0.73161500  1
  V  V1  1  0.73039700  0.00000000  0.26838500  1
  V  V2  1  0.76960300  0.50000000  0.73161500  1
  V  V3  1  0.23039700  0.50000000  0.26838500  1
  H  H4  1  0.00000000  0.00000000  0.00000000  1
  H  H5  1  0.50000000  0.50000000  0.00000000  1
