# generated using pymatgen
data_Ca4(H4Rh)3
_symmetry_space_group_name_H-M   'P 1'
_cell_length_a   7.29951800
_cell_length_b   7.29951800
_cell_length_c   7.29951800
_cell_angle_alpha   90.00000000
_cell_angle_beta   90.00000000
_cell_angle_gamma   90.00000000
_symmetry_Int_Tables_number   1
_chemical_formula_structural   Ca4(H4Rh)3
_chemical_formula_sum   'Ca8 H24 Rh6'
_cell_volume   388.93994775
_cell_formula_units_Z   2
loop_
 _symmetry_equiv_pos_site_id
 _symmetry_equiv_pos_as_xyz
  1  'x, y, z'
loop_
 _atom_site_type_symbol
 _atom_site_label
 _atom_site_symmetry_multiplicity
 _atom_site_fract_x
 _atom_site_fract_y
 _atom_site_fract_z
 _atom_site_occupancy
  Ca  Ca0  1  0.25000000  0.25000000  0.75000000  1
  Ca  Ca1  1  0.25000000  0.75000000  0.25000000  1
  Ca  Ca2  1  0.75000000  0.25000000  0.25000000  1
  Ca  Ca3  1  0.25000000  0.25000000  0.25000000  1
  Ca  Ca4  1  0.75000000  0.75000000  0.25000000  1
  Ca  Ca5  1  0.75000000  0.25000000  0.75000000  1
  Ca  Ca6  1  0.25000000  0.75000000  0.75000000  1
  Ca  Ca7  1  0.75000000  0.75000000  0.75000000  1
  H  H8  1  0.00000000  0.00000000  0.73428800  1
  H  H9  1  0.00000000  0.26571200  0.00000000  1
  H  H10  1  0.26571200  0.00000000  0.00000000  1
  H  H11  1  0.00000000  0.00000000  0.26571200  1
  H  H12  1  0.00000000  0.73428800  0.00000000  1
  H  H13  1  0.73428800  0.00000000  0.00000000  1
  H  H14  1  0.00000000  0.50000000  0.25000000  1
  H  H15  1  0.00000000  0.25000000  0.50000000  1
  H  H16  1  0.25000000  0.50000000  0.00000000  1
  H  H17  1  0.50000000  0.25000000  0.00000000  1
  H  H18  1  0.50000000  0.00000000  0.25000000  1
  H  H19  1  0.25000000  0.00000000  0.50000000  1
  H  H20  1  0.50000000  0.50000000  0.23428800  1
  H  H21  1  0.50000000  0.76571200  0.50000000  1
  H  H22  1  0.76571200  0.50000000  0.50000000  1
  H  H23  1  0.50000000  0.50000000  0.76571200  1
  H  H24  1  0.50000000  0.23428800  0.50000000  1
  H  H25  1  0.23428800  0.50000000  0.50000000  1
  H  H26  1  0.50000000  0.00000000  0.75000000  1
  H  H27  1  0.50000000  0.75000000  0.00000000  1
  H  H28  1  0.75000000  0.00000000  0.50000000  1
  H  H29  1  0.00000000  0.75000000  0.50000000  1
  H  H30  1  0.00000000  0.50000000  0.75000000  1
  H  H31  1  0.75000000  0.50000000  0.00000000  1
  Rh  Rh32  1  0.50000000  0.00000000  0.00000000  1
  Rh  Rh33  1  0.00000000  0.00000000  0.50000000  1
  Rh  Rh34  1  0.00000000  0.50000000  0.00000000  1
  Rh  Rh35  1  0.00000000  0.50000000  0.50000000  1
  Rh  Rh36  1  0.50000000  0.50000000  0.00000000  1
  Rh  Rh37  1  0.50000000  0.00000000  0.50000000  1
