# generated using pymatgen
data_Sn4Bi2Se7
_symmetry_space_group_name_H-M   'P 1'
_cell_length_a   13.58839800
_cell_length_b   6.01290600
_cell_length_c   9.50292532
_cell_angle_alpha   90.00000000
_cell_angle_beta   99.19672629
_cell_angle_gamma   90.00000000
_symmetry_Int_Tables_number   1
_chemical_formula_structural   Sn4Bi2Se7
_chemical_formula_sum   'Sn8 Bi4 Se14'
_cell_volume   766.46285926
_cell_formula_units_Z   2
loop_
 _symmetry_equiv_pos_site_id
 _symmetry_equiv_pos_as_xyz
  1  'x, y, z'
loop_
 _atom_site_type_symbol
 _atom_site_label
 _atom_site_symmetry_multiplicity
 _atom_site_fract_x
 _atom_site_fract_y
 _atom_site_fract_z
 _atom_site_occupancy
  Sn  Sn0  1  0.92599400  0.50000000  0.76641800  1
  Sn  Sn1  1  0.64166600  0.50000000  0.93908000  1
  Sn  Sn2  1  0.85833400  0.00000000  0.06092000  1
  Sn  Sn3  1  0.57400600  0.00000000  0.23358200  1
  Sn  Sn4  1  0.42599400  0.00000000  0.76641800  1
  Sn  Sn5  1  0.14166600  0.00000000  0.93908000  1
  Sn  Sn6  1  0.35833400  0.50000000  0.06092000  1
  Sn  Sn7  1  0.07400600  0.50000000  0.23358200  1
  Bi  Bi8  1  0.71213800  0.00000000  0.64482700  1
  Bi  Bi9  1  0.78786200  0.50000000  0.35517300  1
  Bi  Bi10  1  0.21213800  0.50000000  0.64482700  1
  Bi  Bi11  1  0.28786200  0.00000000  0.35517300  1
  Se  Se12  1  0.71938900  0.50000000  0.63426600  1
  Se  Se13  1  0.91923900  0.00000000  0.78904200  1
  Se  Se14  1  0.64750400  0.00000000  0.92903700  1
  Se  Se15  1  0.85249600  0.50000000  0.07096300  1
  Se  Se16  1  0.58076100  0.50000000  0.21095800  1
  Se  Se17  1  0.78061100  0.00000000  0.36573400  1
  Se  Se18  1  0.00000000  0.50000000  0.50000000  1
  Se  Se19  1  0.21938900  0.00000000  0.63426600  1
  Se  Se20  1  0.41923900  0.50000000  0.78904200  1
  Se  Se21  1  0.14750400  0.50000000  0.92903700  1
  Se  Se22  1  0.35249600  0.00000000  0.07096300  1
  Se  Se23  1  0.08076100  0.00000000  0.21095800  1
  Se  Se24  1  0.28061100  0.50000000  0.36573400  1
  Se  Se25  1  0.50000000  0.00000000  0.50000000  1
