# generated using pymatgen
data_Sc(CuSi)2
_symmetry_space_group_name_H-M   'P 1'
_cell_length_a   3.81910200
_cell_length_b   3.81910200
_cell_length_c   10.09933000
_cell_angle_alpha   90.00000000
_cell_angle_beta   90.00000000
_cell_angle_gamma   90.00000000
_symmetry_Int_Tables_number   1
_chemical_formula_structural   Sc(CuSi)2
_chemical_formula_sum   'Sc2 Cu4 Si4'
_cell_volume   147.30418256
_cell_formula_units_Z   2
loop_
 _symmetry_equiv_pos_site_id
 _symmetry_equiv_pos_as_xyz
  1  'x, y, z'
loop_
 _atom_site_type_symbol
 _atom_site_label
 _atom_site_symmetry_multiplicity
 _atom_site_fract_x
 _atom_site_fract_y
 _atom_site_fract_z
 _atom_site_occupancy
  Sc  Sc0  1  0.00000000  0.00000000  0.00000000  1
  Sc  Sc1  1  0.50000000  0.50000000  0.50000000  1
  Cu  Cu2  1  0.50000000  0.00000000  0.25000000  1
  Cu  Cu3  1  0.00000000  0.50000000  0.25000000  1
  Cu  Cu4  1  0.00000000  0.50000000  0.75000000  1
  Cu  Cu5  1  0.50000000  0.00000000  0.75000000  1
  Si  Si6  1  0.50000000  0.50000000  0.11291700  1
  Si  Si7  1  0.00000000  0.00000000  0.38708300  1
  Si  Si8  1  0.00000000  0.00000000  0.61291700  1
  Si  Si9  1  0.50000000  0.50000000  0.88708300  1
