# generated using pymatgen
data_Y(Sn3Ru2)2
_symmetry_space_group_name_H-M   'P 1'
_cell_length_a   6.91512600
_cell_length_b   6.91512600
_cell_length_c   9.90340400
_cell_angle_alpha   90.00000000
_cell_angle_beta   90.00000000
_cell_angle_gamma   90.00000000
_symmetry_Int_Tables_number   1
_chemical_formula_structural   Y(Sn3Ru2)2
_chemical_formula_sum   'Y2 Sn12 Ru8'
_cell_volume   473.57055496
_cell_formula_units_Z   2
loop_
 _symmetry_equiv_pos_site_id
 _symmetry_equiv_pos_as_xyz
  1  'x, y, z'
loop_
 _atom_site_type_symbol
 _atom_site_label
 _atom_site_symmetry_multiplicity
 _atom_site_fract_x
 _atom_site_fract_y
 _atom_site_fract_z
 _atom_site_occupancy
  Y  Y0  1  0.00000000  0.00000000  0.00000000  1
  Y  Y1  1  0.50000000  0.50000000  0.50000000  1
  Sn  Sn2  1  0.32381050  0.67618950  0.20680650  1
  Sn  Sn3  1  0.67618950  0.32381050  0.20680650  1
  Sn  Sn4  1  0.82381050  0.82381050  0.29319350  1
  Sn  Sn5  1  0.50000000  0.00000000  0.00000000  1
  Sn  Sn6  1  0.17618950  0.17618950  0.29319350  1
  Sn  Sn7  1  0.00000000  0.50000000  0.00000000  1
  Sn  Sn8  1  0.82381050  0.17618950  0.70680650  1
  Sn  Sn9  1  0.17618950  0.82381050  0.70680650  1
  Sn  Sn10  1  0.32381050  0.32381050  0.79319350  1
  Sn  Sn11  1  0.00000000  0.50000000  0.50000000  1
  Sn  Sn12  1  0.67618950  0.67618950  0.79319350  1
  Sn  Sn13  1  0.50000000  0.00000000  0.50000000  1
  Ru  Ru14  1  0.17302550  0.82697450  0.42272450  1
  Ru  Ru15  1  0.32697450  0.32697450  0.07727550  1
  Ru  Ru16  1  0.82697450  0.17302550  0.42272450  1
  Ru  Ru17  1  0.67302550  0.67302550  0.07727550  1
  Ru  Ru18  1  0.67302550  0.32697450  0.92272450  1
  Ru  Ru19  1  0.82697450  0.82697450  0.57727550  1
  Ru  Ru20  1  0.32697450  0.67302550  0.92272450  1
  Ru  Ru21  1  0.17302550  0.17302550  0.57727550  1
