# generated using pymatgen
data_FeGe2
_symmetry_space_group_name_H-M   'P 1'
_cell_length_a   8.10228800
_cell_length_b   10.53267000
_cell_length_c   8.24499700
_cell_angle_alpha   90.00000000
_cell_angle_beta   90.00000000
_cell_angle_gamma   90.00000000
_symmetry_Int_Tables_number   1
_chemical_formula_structural   FeGe2
_chemical_formula_sum   'Fe16 Ge32'
_cell_volume   703.61753778
_cell_formula_units_Z   16
loop_
 _symmetry_equiv_pos_site_id
 _symmetry_equiv_pos_as_xyz
  1  'x, y, z'
loop_
 _atom_site_type_symbol
 _atom_site_label
 _atom_site_symmetry_multiplicity
 _atom_site_fract_x
 _atom_site_fract_y
 _atom_site_fract_z
 _atom_site_occupancy
  Fe  Fe0  1  0.69663500  0.00000000  0.68760100  1
  Fe  Fe1  1  0.30336500  0.00000000  0.31239900  1
  Fe  Fe2  1  0.50000000  0.21834700  0.50000000  1
  Fe  Fe3  1  0.50000000  0.71834700  0.00000000  1
  Fe  Fe4  1  0.19663500  0.00000000  0.81239900  1
  Fe  Fe5  1  0.50000000  0.78165300  0.50000000  1
  Fe  Fe6  1  0.50000000  0.28165300  0.00000000  1
  Fe  Fe7  1  0.80336500  0.00000000  0.18760100  1
  Fe  Fe8  1  0.19663500  0.50000000  0.68760100  1
  Fe  Fe9  1  0.80336500  0.50000000  0.31239900  1
  Fe  Fe10  1  0.00000000  0.71834700  0.50000000  1
  Fe  Fe11  1  0.00000000  0.21834700  0.00000000  1
  Fe  Fe12  1  0.69663500  0.50000000  0.81239900  1
  Fe  Fe13  1  0.00000000  0.28165300  0.50000000  1
  Fe  Fe14  1  0.00000000  0.78165300  0.00000000  1
  Fe  Fe15  1  0.30336500  0.50000000  0.18760100  1
  Ge  Ge16  1  0.22791500  0.87283600  0.54413400  1
  Ge  Ge17  1  0.53969700  0.62619500  0.26880800  1
  Ge  Ge18  1  0.22791500  0.12716400  0.54413400  1
  Ge  Ge19  1  0.53969700  0.12619500  0.23119200  1
  Ge  Ge20  1  0.46030300  0.62619500  0.73119200  1
  Ge  Ge21  1  0.77208500  0.87283600  0.45586600  1
  Ge  Ge22  1  0.77208500  0.12716400  0.45586600  1
  Ge  Ge23  1  0.72791500  0.12716400  0.95586600  1
  Ge  Ge24  1  0.46030300  0.12619500  0.76880800  1
  Ge  Ge25  1  0.53969700  0.87380500  0.23119200  1
  Ge  Ge26  1  0.27208500  0.87283600  0.04413400  1
  Ge  Ge27  1  0.46030300  0.37380500  0.73119200  1
  Ge  Ge28  1  0.46030300  0.87380500  0.76880800  1
  Ge  Ge29  1  0.53969700  0.37380500  0.26880800  1
  Ge  Ge30  1  0.27208500  0.12716400  0.04413400  1
  Ge  Ge31  1  0.72791500  0.87283600  0.95586600  1
  Ge  Ge32  1  0.72791500  0.37283600  0.54413400  1
  Ge  Ge33  1  0.03969700  0.12619500  0.26880800  1
  Ge  Ge34  1  0.72791500  0.62716400  0.54413400  1
  Ge  Ge35  1  0.03969700  0.62619500  0.23119200  1
  Ge  Ge36  1  0.96030300  0.12619500  0.73119200  1
  Ge  Ge37  1  0.27208500  0.37283600  0.45586600  1
  Ge  Ge38  1  0.27208500  0.62716400  0.45586600  1
  Ge  Ge39  1  0.22791500  0.62716400  0.95586600  1
  Ge  Ge40  1  0.96030300  0.62619500  0.76880800  1
  Ge  Ge41  1  0.03969700  0.37380500  0.23119200  1
  Ge  Ge42  1  0.77208500  0.37283600  0.04413400  1
  Ge  Ge43  1  0.96030300  0.87380500  0.73119200  1
  Ge  Ge44  1  0.96030300  0.37380500  0.76880800  1
  Ge  Ge45  1  0.03969700  0.87380500  0.26880800  1
  Ge  Ge46  1  0.77208500  0.62716400  0.04413400  1
  Ge  Ge47  1  0.22791500  0.37283600  0.95586600  1
