# generated using pymatgen
data_AgAsRu2
_symmetry_space_group_name_H-M   'P 1'
_cell_length_a   6.30817600
_cell_length_b   6.30817600
_cell_length_c   6.30817600
_cell_angle_alpha   90.00000000
_cell_angle_beta   90.00000000
_cell_angle_gamma   90.00000000
_symmetry_Int_Tables_number   1
_chemical_formula_structural   AgAsRu2
_chemical_formula_sum   'Ag4 As4 Ru8'
_cell_volume   251.02178027
_cell_formula_units_Z   4
loop_
 _symmetry_equiv_pos_site_id
 _symmetry_equiv_pos_as_xyz
  1  'x, y, z'
loop_
 _atom_site_type_symbol
 _atom_site_label
 _atom_site_symmetry_multiplicity
 _atom_site_fract_x
 _atom_site_fract_y
 _atom_site_fract_z
 _atom_site_occupancy
  Ag  Ag0  1  0.50000000  0.00000000  0.00000000  1
  Ag  Ag1  1  0.50000000  0.50000000  0.50000000  1
  Ag  Ag2  1  0.00000000  0.00000000  0.50000000  1
  Ag  Ag3  1  0.00000000  0.50000000  0.00000000  1
  As  As4  1  0.25000000  0.25000000  0.25000000  1
  As  As5  1  0.25000000  0.75000000  0.75000000  1
  As  As6  1  0.75000000  0.25000000  0.75000000  1
  As  As7  1  0.75000000  0.75000000  0.25000000  1
  Ru  Ru8  1  0.00000000  0.00000000  0.00000000  1
  Ru  Ru9  1  0.25000000  0.25000000  0.75000000  1
  Ru  Ru10  1  0.00000000  0.50000000  0.50000000  1
  Ru  Ru11  1  0.25000000  0.75000000  0.25000000  1
  Ru  Ru12  1  0.50000000  0.00000000  0.50000000  1
  Ru  Ru13  1  0.75000000  0.25000000  0.25000000  1
  Ru  Ru14  1  0.50000000  0.50000000  0.00000000  1
  Ru  Ru15  1  0.75000000  0.75000000  0.75000000  1
