# generated using pymatgen
data_Mg4Zn7
_symmetry_space_group_name_H-M   'P 1'
_cell_length_a   25.76627723
_cell_length_b   5.28678052
_cell_length_c   14.14062727
_cell_angle_alpha   90.00000000
_cell_angle_beta   102.57315911
_cell_angle_gamma   90.00000000
_symmetry_Int_Tables_number   1
_chemical_formula_structural   Mg4Zn7
_chemical_formula_sum   'Mg40 Zn70'
_cell_volume   1880.05188509
_cell_formula_units_Z   10
loop_
 _symmetry_equiv_pos_site_id
 _symmetry_equiv_pos_as_xyz
  1  'x, y, z'
loop_
 _atom_site_type_symbol
 _atom_site_label
 _atom_site_symmetry_multiplicity
 _atom_site_fract_x
 _atom_site_fract_y
 _atom_site_fract_z
 _atom_site_occupancy
  Mg  Mg0  1  0.62440594  0.50000000  0.10245919  1
  Mg  Mg1  1  0.96272183  0.00000000  0.28724972  1
  Mg  Mg2  1  0.69340449  0.00000000  0.64970647  1
  Mg  Mg3  1  0.55649982  0.00000000  0.04903043  1
  Mg  Mg4  1  0.51471847  0.00000000  0.39931195  1
  Mg  Mg5  1  0.71268964  0.50000000  0.97574905  1
  Mg  Mg6  1  0.63980508  0.00000000  0.42759431  1
  Mg  Mg7  1  0.94056083  0.50000000  0.95640030  1
  Mg  Mg8  1  0.67577745  0.50000000  0.32519802  1
  Mg  Mg9  1  0.98103282  0.50000000  0.60399977  1
  Mg  Mg10  1  0.80267593  0.50000000  0.35275475  1
  Mg  Mg11  1  0.81939245  0.00000000  0.67628561  1
  Mg  Mg12  1  0.99131729  0.00000000  0.09725824  1
  Mg  Mg13  1  0.66010644  0.50000000  0.74858032  1
  Mg  Mg14  1  0.83989356  0.00000000  0.25141968  1
  Mg  Mg15  1  0.85606625  0.50000000  0.57595588  1
  Mg  Mg16  1  0.87559406  0.00000000  0.89754081  1
  Mg  Mg17  1  0.78731036  0.00000000  0.02425095  1
  Mg  Mg18  1  0.53327383  0.50000000  0.71639243  1
  Mg  Mg19  1  0.50502431  0.50000000  0.90691129  1
  Mg  Mg20  1  0.12440594  0.00000000  0.10245919  1
  Mg  Mg21  1  0.46272183  0.50000000  0.28724972  1
  Mg  Mg22  1  0.19340449  0.50000000  0.64970647  1
  Mg  Mg23  1  0.05649982  0.50000000  0.04903043  1
  Mg  Mg24  1  0.01471847  0.50000000  0.39931195  1
  Mg  Mg25  1  0.21268964  0.00000000  0.97574905  1
  Mg  Mg26  1  0.13980508  0.50000000  0.42759431  1
  Mg  Mg27  1  0.44056083  0.00000000  0.95640030  1
  Mg  Mg28  1  0.17577745  0.00000000  0.32519802  1
  Mg  Mg29  1  0.48103282  0.00000000  0.60399977  1
  Mg  Mg30  1  0.30267593  0.00000000  0.35275475  1
  Mg  Mg31  1  0.31939245  0.50000000  0.67628561  1
  Mg  Mg32  1  0.49131729  0.50000000  0.09725824  1
  Mg  Mg33  1  0.16010644  0.00000000  0.74858032  1
  Mg  Mg34  1  0.33989356  0.50000000  0.25141968  1
  Mg  Mg35  1  0.35606625  0.00000000  0.57595588  1
  Mg  Mg36  1  0.37559406  0.50000000  0.89754081  1
  Mg  Mg37  1  0.28731036  0.50000000  0.02425095  1
  Mg  Mg38  1  0.03327383  0.00000000  0.71639243  1
  Mg  Mg39  1  0.00502431  0.00000000  0.90691129  1
  Zn  Zn40  1  0.57582220  0.50000000  0.40829545  1
  Zn  Zn41  1  0.97968445  0.50000000  0.18017203  1
  Zn  Zn42  1  0.73957026  0.00000000  0.33926000  1
  Zn  Zn43  1  0.92950764  0.75507585  0.75603851  1
  Zn  Zn44  1  0.91103165  0.25616451  0.42932121  1
  Zn  Zn45  1  0.57049236  0.25507585  0.24396149  1
  Zn  Zn46  1  0.75000000  0.25000000  0.50000000  1
  Zn  Zn47  1  0.92018642  0.00000000  0.59513139  1
  Zn  Zn48  1  0.80966285  0.50000000  0.14139736  1
  Zn  Zn49  1  0.58572649  0.75568165  0.57449866  1
  Zn  Zn50  1  0.73038935  0.25637334  0.17549547  1
  Zn  Zn51  1  0.66774815  0.00000000  0.03702211  1
  Zn  Zn52  1  0.66665075  0.50000000  0.53433647  1
  Zn  Zn53  1  0.59619368  0.00000000  0.73319399  1
  Zn  Zn54  1  0.51661608  0.00000000  0.82398358  1
  Zn  Zn55  1  0.68676238  0.00000000  0.86182455  1
  Zn  Zn56  1  0.60476740  0.73727155  0.89935063  1
  Zn  Zn57  1  0.91103165  0.74383549  0.42932121  1
  Zn  Zn58  1  0.92950764  0.24492415  0.75603851  1
  Zn  Zn59  1  0.83334925  0.00000000  0.46566353  1
  Zn  Zn60  1  0.89076267  0.76261896  0.10310422  1
  Zn  Zn61  1  0.58896835  0.24383549  0.57067879  1
  Zn  Zn62  1  0.75000000  0.75000000  0.50000000  1
  Zn  Zn63  1  0.64803752  0.00000000  0.21463099  1
  Zn  Zn64  1  0.73038935  0.74362666  0.17549547  1
  Zn  Zn65  1  0.60476740  0.26272845  0.89935063  1
  Zn  Zn66  1  0.85196248  0.50000000  0.78536901  1
  Zn  Zn67  1  0.89076267  0.23738104  0.10310422  1
  Zn  Zn68  1  0.90003212  0.50000000  0.26977083  1
  Zn  Zn69  1  0.76563600  0.75144907  0.82590819  1
  Zn  Zn70  1  0.56735928  0.74875854  0.24812968  1
  Zn  Zn71  1  0.99842976  0.00000000  0.50271813  1
  Zn  Zn72  1  0.76961065  0.24362666  0.82450453  1
  Zn  Zn73  1  0.82835496  0.50000000  0.96501126  1
  Zn  Zn74  1  0.75675347  0.50000000  0.66325926  1
  Zn  Zn75  1  0.07582220  0.00000000  0.40829545  1
  Zn  Zn76  1  0.47968445  0.00000000  0.18017203  1
  Zn  Zn77  1  0.23957026  0.50000000  0.33926000  1
  Zn  Zn78  1  0.42950764  0.25507585  0.75603851  1
  Zn  Zn79  1  0.41103165  0.75616452  0.42932121  1
  Zn  Zn80  1  0.07049236  0.75507585  0.24396149  1
  Zn  Zn81  1  0.25000000  0.75000000  0.50000000  1
  Zn  Zn82  1  0.42018642  0.50000000  0.59513139  1
  Zn  Zn83  1  0.30966285  0.00000000  0.14139736  1
  Zn  Zn84  1  0.08572649  0.25568165  0.57449866  1
  Zn  Zn85  1  0.23038935  0.75637334  0.17549547  1
  Zn  Zn86  1  0.16774815  0.50000000  0.03702211  1
  Zn  Zn87  1  0.16665075  0.00000000  0.53433647  1
  Zn  Zn88  1  0.09619368  0.50000000  0.73319399  1
  Zn  Zn89  1  0.01661608  0.50000000  0.82398358  1
  Zn  Zn90  1  0.18676238  0.50000000  0.86182455  1
  Zn  Zn91  1  0.10476740  0.23727155  0.89935063  1
  Zn  Zn92  1  0.41103165  0.24383549  0.42932121  1
  Zn  Zn93  1  0.42950764  0.74492415  0.75603851  1
  Zn  Zn94  1  0.33334925  0.50000000  0.46566353  1
  Zn  Zn95  1  0.39076267  0.26261896  0.10310422  1
  Zn  Zn96  1  0.08896835  0.74383548  0.57067879  1
  Zn  Zn97  1  0.25000000  0.25000000  0.50000000  1
  Zn  Zn98  1  0.14803752  0.50000000  0.21463099  1
  Zn  Zn99  1  0.23038935  0.24362666  0.17549547  1
  Zn  Zn100  1  0.10476740  0.76272845  0.89935063  1
  Zn  Zn101  1  0.35196248  0.00000000  0.78536901  1
  Zn  Zn102  1  0.39076267  0.73738104  0.10310422  1
  Zn  Zn103  1  0.40003212  0.00000000  0.26977083  1
  Zn  Zn104  1  0.26563600  0.25144907  0.82590819  1
  Zn  Zn105  1  0.06735928  0.24875854  0.24812968  1
  Zn  Zn106  1  0.49842976  0.50000000  0.50271813  1
  Zn  Zn107  1  0.26961065  0.74362666  0.82450453  1
  Zn  Zn108  1  0.32835496  0.00000000  0.96501126  1
  Zn  Zn109  1  0.25675347  0.00000000  0.66325926  1
