# generated using pymatgen
data_NbZn16
_symmetry_space_group_name_H-M   'P 1'
_cell_length_a   7.72068200
_cell_length_b   11.46467400
_cell_length_c   11.71980100
_cell_angle_alpha   90.00000000
_cell_angle_beta   90.00000000
_cell_angle_gamma   90.00000000
_symmetry_Int_Tables_number   1
_chemical_formula_structural   NbZn16
_chemical_formula_sum   'Nb4 Zn64'
_cell_volume   1037.37938313
_cell_formula_units_Z   4
loop_
 _symmetry_equiv_pos_site_id
 _symmetry_equiv_pos_as_xyz
  1  'x, y, z'
loop_
 _atom_site_type_symbol
 _atom_site_label
 _atom_site_symmetry_multiplicity
 _atom_site_fract_x
 _atom_site_fract_y
 _atom_site_fract_z
 _atom_site_occupancy
  Nb  Nb0  1  0.50000000  0.45179000  0.25000000  1
  Nb  Nb1  1  0.50000000  0.54821000  0.75000000  1
  Nb  Nb2  1  0.00000000  0.95179000  0.25000000  1
  Nb  Nb3  1  0.00000000  0.04821000  0.75000000  1
  Zn  Zn4  1  0.70346200  0.94774900  0.86619500  1
  Zn  Zn5  1  0.66817700  0.31315100  0.43071200  1
  Zn  Zn6  1  0.50000000  0.87988500  0.46808700  1
  Zn  Zn7  1  0.33182300  0.31315100  0.06928800  1
  Zn  Zn8  1  0.33678850  0.14396550  0.75000000  1
  Zn  Zn9  1  0.70346200  0.05225100  0.36619500  1
  Zn  Zn10  1  0.50000000  0.12011500  0.96808700  1
  Zn  Zn11  1  0.29653800  0.94774900  0.63380500  1
  Zn  Zn12  1  0.50000000  0.32411900  0.85969200  1
  Zn  Zn13  1  0.66817700  0.68684900  0.56928800  1
  Zn  Zn14  1  0.29653800  0.05225100  0.36619500  1
  Zn  Zn15  1  0.33182300  0.68684900  0.93071200  1
  Zn  Zn16  1  0.66321150  0.85603450  0.25000000  1
  Zn  Zn17  1  0.29653800  0.05225100  0.13380500  1
  Zn  Zn18  1  0.50000000  0.12011500  0.53191300  1
  Zn  Zn19  1  0.29653800  0.94774900  0.86619500  1
  Zn  Zn20  1  0.70346200  0.94774900  0.63380500  1
  Zn  Zn21  1  0.66321150  0.14396550  0.75000000  1
  Zn  Zn22  1  0.00000000  0.00000000  0.50000000  1
  Zn  Zn23  1  0.50000000  0.87988500  0.03191300  1
  Zn  Zn24  1  0.50000000  0.20996300  0.25000000  1
  Zn  Zn25  1  0.33678850  0.85603450  0.25000000  1
  Zn  Zn26  1  0.33182300  0.68684900  0.56928800  1
  Zn  Zn27  1  0.70346200  0.05225100  0.13380500  1
  Zn  Zn28  1  0.50000000  0.32411900  0.64030800  1
  Zn  Zn29  1  0.33182300  0.31315100  0.43071200  1
  Zn  Zn30  1  0.00000000  0.00000000  0.00000000  1
  Zn  Zn31  1  0.66817700  0.68684900  0.93071200  1
  Zn  Zn32  1  0.66817700  0.31315100  0.06928800  1
  Zn  Zn33  1  0.50000000  0.79003700  0.75000000  1
  Zn  Zn34  1  0.50000000  0.67588100  0.35969200  1
  Zn  Zn35  1  0.50000000  0.67588100  0.14030800  1
  Zn  Zn36  1  0.20346200  0.44774900  0.86619500  1
  Zn  Zn37  1  0.16817700  0.81315100  0.43071200  1
  Zn  Zn38  1  0.00000000  0.37988500  0.46808700  1
  Zn  Zn39  1  0.83182300  0.81315100  0.06928800  1
  Zn  Zn40  1  0.83678850  0.64396550  0.75000000  1
  Zn  Zn41  1  0.20346200  0.55225100  0.36619500  1
  Zn  Zn42  1  0.00000000  0.62011500  0.96808700  1
  Zn  Zn43  1  0.79653800  0.44774900  0.63380500  1
  Zn  Zn44  1  0.00000000  0.82411900  0.85969200  1
  Zn  Zn45  1  0.16817700  0.18684900  0.56928800  1
  Zn  Zn46  1  0.79653800  0.55225100  0.36619500  1
  Zn  Zn47  1  0.83182300  0.18684900  0.93071200  1
  Zn  Zn48  1  0.16321150  0.35603450  0.25000000  1
  Zn  Zn49  1  0.79653800  0.55225100  0.13380500  1
  Zn  Zn50  1  0.00000000  0.62011500  0.53191300  1
  Zn  Zn51  1  0.79653800  0.44774900  0.86619500  1
  Zn  Zn52  1  0.20346200  0.44774900  0.63380500  1
  Zn  Zn53  1  0.16321150  0.64396550  0.75000000  1
  Zn  Zn54  1  0.50000000  0.50000000  0.50000000  1
  Zn  Zn55  1  0.00000000  0.37988500  0.03191300  1
  Zn  Zn56  1  0.00000000  0.70996300  0.25000000  1
  Zn  Zn57  1  0.83678850  0.35603450  0.25000000  1
  Zn  Zn58  1  0.83182300  0.18684900  0.56928800  1
  Zn  Zn59  1  0.20346200  0.55225100  0.13380500  1
  Zn  Zn60  1  0.00000000  0.82411900  0.64030800  1
  Zn  Zn61  1  0.83182300  0.81315100  0.43071200  1
  Zn  Zn62  1  0.50000000  0.50000000  0.00000000  1
  Zn  Zn63  1  0.16817700  0.18684900  0.93071200  1
  Zn  Zn64  1  0.16817700  0.81315100  0.06928800  1
  Zn  Zn65  1  0.00000000  0.29003700  0.75000000  1
  Zn  Zn66  1  0.00000000  0.17588100  0.35969200  1
  Zn  Zn67  1  0.00000000  0.17588100  0.14030800  1
