# generated using pymatgen
data_Na2Ti2Sb2O
_symmetry_space_group_name_H-M   'P 1'
_cell_length_a   4.15277600
_cell_length_b   4.15277600
_cell_length_c   16.79049800
_cell_angle_alpha   90.00000000
_cell_angle_beta   90.00000000
_cell_angle_gamma   90.00000000
_symmetry_Int_Tables_number   1
_chemical_formula_structural   Na2Ti2Sb2O
_chemical_formula_sum   'Na4 Ti4 Sb4 O2'
_cell_volume   289.56134770
_cell_formula_units_Z   2
loop_
 _symmetry_equiv_pos_site_id
 _symmetry_equiv_pos_as_xyz
  1  'x, y, z'
loop_
 _atom_site_type_symbol
 _atom_site_label
 _atom_site_symmetry_multiplicity
 _atom_site_fract_x
 _atom_site_fract_y
 _atom_site_fract_z
 _atom_site_occupancy
  Na  Na0  1  0.50000000  0.50000000  0.18278900  1
  Na  Na1  1  0.00000000  0.00000000  0.31721100  1
  Na  Na2  1  0.00000000  0.00000000  0.68278900  1
  Na  Na3  1  0.50000000  0.50000000  0.81721100  1
  Ti  Ti4  1  0.00000000  0.50000000  0.00000000  1
  Ti  Ti5  1  0.50000000  0.00000000  0.00000000  1
  Ti  Ti6  1  0.50000000  0.00000000  0.50000000  1
  Ti  Ti7  1  0.00000000  0.50000000  0.50000000  1
  Sb  Sb8  1  0.00000000  0.00000000  0.12082600  1
  Sb  Sb9  1  0.50000000  0.50000000  0.37917400  1
  Sb  Sb10  1  0.50000000  0.50000000  0.62082600  1
  Sb  Sb11  1  0.00000000  0.00000000  0.87917400  1
  O  O12  1  0.50000000  0.50000000  0.00000000  1
  O  O13  1  0.00000000  0.00000000  0.50000000  1
