# generated using pymatgen
data_YbZn2
_symmetry_space_group_name_H-M   'P 1'
_cell_length_a   4.55052800
_cell_length_b   7.23839400
_cell_length_c   7.50783400
_cell_angle_alpha   90.00000000
_cell_angle_beta   90.00000000
_cell_angle_gamma   90.00000000
_symmetry_Int_Tables_number   1
_chemical_formula_structural   YbZn2
_chemical_formula_sum   'Yb4 Zn8'
_cell_volume   247.29689961
_cell_formula_units_Z   4
loop_
 _symmetry_equiv_pos_site_id
 _symmetry_equiv_pos_as_xyz
  1  'x, y, z'
loop_
 _atom_site_type_symbol
 _atom_site_label
 _atom_site_symmetry_multiplicity
 _atom_site_fract_x
 _atom_site_fract_y
 _atom_site_fract_z
 _atom_site_occupancy
  Yb  Yb0  1  0.00000000  0.25000000  0.45054400  1
  Yb  Yb1  1  0.00000000  0.75000000  0.54945600  1
  Yb  Yb2  1  0.50000000  0.75000000  0.95054400  1
  Yb  Yb3  1  0.50000000  0.25000000  0.04945600  1
  Zn  Zn4  1  0.50000000  0.06004400  0.66417900  1
  Zn  Zn5  1  0.50000000  0.93995600  0.33582100  1
  Zn  Zn6  1  0.00000000  0.93995600  0.16417900  1
  Zn  Zn7  1  0.00000000  0.06004400  0.83582100  1
  Zn  Zn8  1  0.00000000  0.56004400  0.16417900  1
  Zn  Zn9  1  0.00000000  0.43995600  0.83582100  1
  Zn  Zn10  1  0.50000000  0.43995600  0.66417900  1
  Zn  Zn11  1  0.50000000  0.56004400  0.33582100  1
