# generated using pymatgen
data_Ca3Ag8
_symmetry_space_group_name_H-M   'P 1'
_cell_length_a   10.03735000
_cell_length_b   10.03735000
_cell_length_c   10.03735000
_cell_angle_alpha   90.00000000
_cell_angle_beta   90.00000000
_cell_angle_gamma   90.00000000
_symmetry_Int_Tables_number   1
_chemical_formula_structural   Ca3Ag8
_chemical_formula_sum   'Ca12 Ag32'
_cell_volume   1011.24690278
_cell_formula_units_Z   4
loop_
 _symmetry_equiv_pos_site_id
 _symmetry_equiv_pos_as_xyz
  1  'x, y, z'
loop_
 _atom_site_type_symbol
 _atom_site_label
 _atom_site_symmetry_multiplicity
 _atom_site_fract_x
 _atom_site_fract_y
 _atom_site_fract_z
 _atom_site_occupancy
  Ca  Ca0  1  0.00000000  0.27756800  0.00000000  1
  Ca  Ca1  1  0.72243200  0.00000000  0.00000000  1
  Ca  Ca2  1  0.00000000  0.00000000  0.72243200  1
  Ca  Ca3  1  0.00000000  0.00000000  0.27756800  1
  Ca  Ca4  1  0.00000000  0.72243200  0.00000000  1
  Ca  Ca5  1  0.27756800  0.00000000  0.00000000  1
  Ca  Ca6  1  0.50000000  0.77756800  0.50000000  1
  Ca  Ca7  1  0.22243200  0.50000000  0.50000000  1
  Ca  Ca8  1  0.50000000  0.50000000  0.22243200  1
  Ca  Ca9  1  0.50000000  0.50000000  0.77756800  1
  Ca  Ca10  1  0.50000000  0.22243200  0.50000000  1
  Ca  Ca11  1  0.77756800  0.50000000  0.50000000  1
  Ag  Ag12  1  0.00000000  0.34341200  0.34341200  1
  Ag  Ag13  1  0.50000000  0.15658800  0.84341200  1
  Ag  Ag14  1  0.34341200  0.00000000  0.34341200  1
  Ag  Ag15  1  0.84341200  0.50000000  0.15658800  1
  Ag  Ag16  1  0.34341200  0.34341200  0.00000000  1
  Ag  Ag17  1  0.15658800  0.50000000  0.15658800  1
  Ag  Ag18  1  0.84341200  0.15658800  0.50000000  1
  Ag  Ag19  1  0.15658800  0.15658800  0.50000000  1
  Ag  Ag20  1  0.15658800  0.50000000  0.84341200  1
  Ag  Ag21  1  0.75000000  0.25000000  0.25000000  1
  Ag  Ag22  1  0.15658800  0.84341200  0.50000000  1
  Ag  Ag23  1  0.50000000  0.15658800  0.15658800  1
  Ag  Ag24  1  0.50000000  0.84341200  0.15658800  1
  Ag  Ag25  1  0.25000000  0.25000000  0.75000000  1
  Ag  Ag26  1  0.25000000  0.75000000  0.25000000  1
  Ag  Ag27  1  0.25000000  0.25000000  0.25000000  1
  Ag  Ag28  1  0.50000000  0.84341200  0.84341200  1
  Ag  Ag29  1  0.00000000  0.65658800  0.34341200  1
  Ag  Ag30  1  0.84341200  0.50000000  0.84341200  1
  Ag  Ag31  1  0.34341200  0.00000000  0.65658800  1
  Ag  Ag32  1  0.84341200  0.84341200  0.50000000  1
  Ag  Ag33  1  0.65658800  0.00000000  0.65658800  1
  Ag  Ag34  1  0.34341200  0.65658800  0.00000000  1
  Ag  Ag35  1  0.65658800  0.65658800  0.00000000  1
  Ag  Ag36  1  0.65658800  0.00000000  0.34341200  1
  Ag  Ag37  1  0.25000000  0.75000000  0.75000000  1
  Ag  Ag38  1  0.65658800  0.34341200  0.00000000  1
  Ag  Ag39  1  0.00000000  0.65658800  0.65658800  1
  Ag  Ag40  1  0.00000000  0.34341200  0.65658800  1
  Ag  Ag41  1  0.75000000  0.75000000  0.25000000  1
  Ag  Ag42  1  0.75000000  0.25000000  0.75000000  1
  Ag  Ag43  1  0.75000000  0.75000000  0.75000000  1
