# generated using pymatgen
data_Ce(FeP)2
_symmetry_space_group_name_H-M   'P 1'
_cell_length_a   3.81545600
_cell_length_b   3.81545600
_cell_length_c   10.16710000
_cell_angle_alpha   90.00000000
_cell_angle_beta   90.00000000
_cell_angle_gamma   90.00000000
_symmetry_Int_Tables_number   1
_chemical_formula_structural   Ce(FeP)2
_chemical_formula_sum   'Ce2 Fe4 P4'
_cell_volume   148.00963730
_cell_formula_units_Z   2
loop_
 _symmetry_equiv_pos_site_id
 _symmetry_equiv_pos_as_xyz
  1  'x, y, z'
loop_
 _atom_site_type_symbol
 _atom_site_label
 _atom_site_symmetry_multiplicity
 _atom_site_fract_x
 _atom_site_fract_y
 _atom_site_fract_z
 _atom_site_occupancy
  Ce  Ce0  1  0.00000000  0.00000000  0.00000000  1
  Ce  Ce1  1  0.50000000  0.50000000  0.50000000  1
  Fe  Fe2  1  0.00000000  0.50000000  0.25000000  1
  Fe  Fe3  1  0.50000000  0.00000000  0.25000000  1
  Fe  Fe4  1  0.50000000  0.00000000  0.75000000  1
  Fe  Fe5  1  0.00000000  0.50000000  0.75000000  1
  P  P6  1  0.50000000  0.50000000  0.14159200  1
  P  P7  1  0.00000000  0.00000000  0.35840800  1
  P  P8  1  0.00000000  0.00000000  0.64159200  1
  P  P9  1  0.50000000  0.50000000  0.85840800  1
