# generated using pymatgen
data_K3B17
_symmetry_space_group_name_H-M   'P 1'
_cell_length_a   6.00368400
_cell_length_b   6.00368400
_cell_length_c   25.22533800
_cell_angle_alpha   90.00000000
_cell_angle_beta   90.00000000
_cell_angle_gamma   90.00000000
_symmetry_Int_Tables_number   1
_chemical_formula_structural   K3B17
_chemical_formula_sum   'K12 B68'
_cell_volume   909.22767210
_cell_formula_units_Z   4
loop_
 _symmetry_equiv_pos_site_id
 _symmetry_equiv_pos_as_xyz
  1  'x, y, z'
loop_
 _atom_site_type_symbol
 _atom_site_label
 _atom_site_symmetry_multiplicity
 _atom_site_fract_x
 _atom_site_fract_y
 _atom_site_fract_z
 _atom_site_occupancy
  K  K0  1  0.00000000  0.50000000  0.00000000  1
  K  K1  1  0.50000000  0.00000000  0.33255000  1
  K  K2  1  0.00000000  0.50000000  0.16745000  1
  K  K3  1  0.00000000  0.50000000  0.33255000  1
  K  K4  1  0.50000000  0.00000000  0.00000000  1
  K  K5  1  0.50000000  0.00000000  0.16745000  1
  K  K6  1  0.50000000  0.00000000  0.50000000  1
  K  K7  1  0.00000000  0.50000000  0.83255000  1
  K  K8  1  0.50000000  0.00000000  0.66745000  1
  K  K9  1  0.50000000  0.00000000  0.83255000  1
  K  K10  1  0.00000000  0.50000000  0.50000000  1
  K  K11  1  0.00000000  0.50000000  0.66745000  1
  B  B12  1  0.65226150  0.34773850  0.25035150  1
  B  B13  1  0.84773850  0.15226150  0.24964850  1
  B  B14  1  0.85078500  0.14921500  0.41402800  1
  B  B15  1  0.35078500  0.64921500  0.08597200  1
  B  B16  1  0.00000000  0.00000000  0.29592900  1
  B  B17  1  0.00000000  0.00000000  0.36504900  1
  B  B18  1  0.00000000  0.00000000  0.46530300  1
  B  B19  1  0.50000000  0.50000000  0.03469700  1
  B  B20  1  0.15226150  0.15226150  0.24964850  1
  B  B21  1  0.14921500  0.14921500  0.41402800  1
  B  B22  1  0.34773850  0.34773850  0.25035150  1
  B  B23  1  0.50000000  0.50000000  0.13495100  1
  B  B24  1  0.50000000  0.50000000  0.20407100  1
  B  B25  1  0.64921500  0.64921500  0.08597200  1
  B  B26  1  0.15226150  0.84773850  0.24964850  1
  B  B27  1  0.14921500  0.85078500  0.41402800  1
  B  B28  1  0.64921500  0.35078500  0.08597200  1
  B  B29  1  0.34773850  0.65226150  0.25035150  1
  B  B30  1  0.34863650  0.65136350  0.42021750  1
  B  B31  1  0.84863650  0.15136350  0.07978250  1
  B  B32  1  0.50000000  0.50000000  0.29205000  1
  B  B33  1  0.50000000  0.50000000  0.46580500  1
  B  B34  1  0.00000000  0.00000000  0.03419500  1
  B  B35  1  0.65226150  0.65226150  0.25035150  1
  B  B36  1  0.65136350  0.65136350  0.42021750  1
  B  B37  1  0.15136350  0.15136350  0.07978250  1
  B  B38  1  0.84773850  0.84773850  0.24964850  1
  B  B39  1  0.85078500  0.85078500  0.41402800  1
  B  B40  1  0.35078500  0.35078500  0.08597200  1
  B  B41  1  0.00000000  0.00000000  0.20795000  1
  B  B42  1  0.65136350  0.34863650  0.42021750  1
  B  B43  1  0.15136350  0.84863650  0.07978250  1
  B  B44  1  0.34863650  0.34863650  0.42021750  1
  B  B45  1  0.84863650  0.84863650  0.07978250  1
  B  B46  1  0.15226150  0.84773850  0.75035150  1
  B  B47  1  0.34773850  0.65226150  0.74964850  1
  B  B48  1  0.35078500  0.64921500  0.91402800  1
  B  B49  1  0.85078500  0.14921500  0.58597200  1
  B  B50  1  0.50000000  0.50000000  0.79592900  1
  B  B51  1  0.50000000  0.50000000  0.86504900  1
  B  B52  1  0.50000000  0.50000000  0.96530300  1
  B  B53  1  0.00000000  0.00000000  0.53469700  1
  B  B54  1  0.65226150  0.65226150  0.74964850  1
  B  B55  1  0.64921500  0.64921500  0.91402800  1
  B  B56  1  0.84773850  0.84773850  0.75035150  1
  B  B57  1  0.00000000  0.00000000  0.63495100  1
  B  B58  1  0.00000000  0.00000000  0.70407100  1
  B  B59  1  0.14921500  0.14921500  0.58597200  1
  B  B60  1  0.65226150  0.34773850  0.74964850  1
  B  B61  1  0.64921500  0.35078500  0.91402800  1
  B  B62  1  0.14921500  0.85078500  0.58597200  1
  B  B63  1  0.84773850  0.15226150  0.75035150  1
  B  B64  1  0.84863650  0.15136350  0.92021750  1
  B  B65  1  0.34863650  0.65136350  0.57978250  1
  B  B66  1  0.00000000  0.00000000  0.79205000  1
  B  B67  1  0.00000000  0.00000000  0.96580500  1
  B  B68  1  0.50000000  0.50000000  0.53419500  1
  B  B69  1  0.15226150  0.15226150  0.75035150  1
  B  B70  1  0.15136350  0.15136350  0.92021750  1
  B  B71  1  0.65136350  0.65136350  0.57978250  1
  B  B72  1  0.34773850  0.34773850  0.74964850  1
  B  B73  1  0.35078500  0.35078500  0.91402800  1
  B  B74  1  0.85078500  0.85078500  0.58597200  1
  B  B75  1  0.50000000  0.50000000  0.70795000  1
  B  B76  1  0.15136350  0.84863650  0.92021750  1
  B  B77  1  0.65136350  0.34863650  0.57978250  1
  B  B78  1  0.84863650  0.84863650  0.92021750  1
  B  B79  1  0.34863650  0.34863650  0.57978250  1
