# generated using pymatgen
data_Na(WO3)2
_symmetry_space_group_name_H-M   'P 1'
_cell_length_a   5.52816000
_cell_length_b   5.52914800
_cell_length_c   7.81855600
_cell_angle_alpha   90.00000000
_cell_angle_beta   90.00000000
_cell_angle_gamma   90.00000000
_symmetry_Int_Tables_number   1
_chemical_formula_structural   Na(WO3)2
_chemical_formula_sum   'Na2 W4 O12'
_cell_volume   238.98209847
_cell_formula_units_Z   2
loop_
 _symmetry_equiv_pos_site_id
 _symmetry_equiv_pos_as_xyz
  1  'x, y, z'
loop_
 _atom_site_type_symbol
 _atom_site_label
 _atom_site_symmetry_multiplicity
 _atom_site_fract_x
 _atom_site_fract_y
 _atom_site_fract_z
 _atom_site_occupancy
  Na  Na0  1  0.99996200  0.00000000  0.00000000  1
  Na  Na1  1  0.49996200  0.50000000  0.50000000  1
  W  W2  1  0.50535400  0.00000000  0.25235400  1
  W  W3  1  0.50535400  0.00000000  0.74764600  1
  W  W4  1  0.00535400  0.50000000  0.75235400  1
  W  W5  1  0.00535400  0.50000000  0.24764600  1
  O  O6  1  0.25572550  0.24939550  0.75038850  1
  O  O7  1  0.25572550  0.24939550  0.24961150  1
  O  O8  1  0.50943300  0.00000000  0.50000000  1
  O  O9  1  0.25572550  0.75060450  0.75038850  1
  O  O10  1  0.49796100  0.00000000  0.00000000  1
  O  O11  1  0.25572550  0.75060450  0.24961150  1
  O  O12  1  0.75572550  0.74939550  0.25038850  1
  O  O13  1  0.75572550  0.74939550  0.74961150  1
  O  O14  1  0.00943300  0.50000000  0.00000000  1
  O  O15  1  0.75572550  0.25060450  0.25038850  1
  O  O16  1  0.99796100  0.50000000  0.50000000  1
  O  O17  1  0.75572550  0.25060450  0.74961150  1
