# generated using pymatgen
data_LiTaW2
_symmetry_space_group_name_H-M   'P 1'
_cell_length_a   6.34274600
_cell_length_b   6.34274600
_cell_length_c   6.34274600
_cell_angle_alpha   90.00000000
_cell_angle_beta   90.00000000
_cell_angle_gamma   90.00000000
_symmetry_Int_Tables_number   1
_chemical_formula_structural   LiTaW2
_chemical_formula_sum   'Li4 Ta4 W8'
_cell_volume   255.17137879
_cell_formula_units_Z   4
loop_
 _symmetry_equiv_pos_site_id
 _symmetry_equiv_pos_as_xyz
  1  'x, y, z'
loop_
 _atom_site_type_symbol
 _atom_site_label
 _atom_site_symmetry_multiplicity
 _atom_site_fract_x
 _atom_site_fract_y
 _atom_site_fract_z
 _atom_site_occupancy
  Li  Li0  1  0.00000000  0.00000000  0.00000000  1
  Li  Li1  1  0.00000000  0.50000000  0.50000000  1
  Li  Li2  1  0.50000000  0.00000000  0.50000000  1
  Li  Li3  1  0.50000000  0.50000000  0.00000000  1
  Ta  Ta4  1  0.50000000  0.00000000  0.00000000  1
  Ta  Ta5  1  0.50000000  0.50000000  0.50000000  1
  Ta  Ta6  1  0.00000000  0.00000000  0.50000000  1
  Ta  Ta7  1  0.00000000  0.50000000  0.00000000  1
  W  W8  1  0.25000000  0.75000000  0.75000000  1
  W  W9  1  0.25000000  0.25000000  0.75000000  1
  W  W10  1  0.25000000  0.25000000  0.25000000  1
  W  W11  1  0.25000000  0.75000000  0.25000000  1
  W  W12  1  0.75000000  0.75000000  0.25000000  1
  W  W13  1  0.75000000  0.25000000  0.25000000  1
  W  W14  1  0.75000000  0.25000000  0.75000000  1
  W  W15  1  0.75000000  0.75000000  0.75000000  1
