# generated using pymatgen
data_SrCrRh2
_symmetry_space_group_name_H-M   'P 1'
_cell_length_a   6.65623400
_cell_length_b   6.65623400
_cell_length_c   6.65623400
_cell_angle_alpha   90.00000000
_cell_angle_beta   90.00000000
_cell_angle_gamma   90.00000000
_symmetry_Int_Tables_number   1
_chemical_formula_structural   SrCrRh2
_chemical_formula_sum   'Sr4 Cr4 Rh8'
_cell_volume   294.90744975
_cell_formula_units_Z   4
loop_
 _symmetry_equiv_pos_site_id
 _symmetry_equiv_pos_as_xyz
  1  'x, y, z'
loop_
 _atom_site_type_symbol
 _atom_site_label
 _atom_site_symmetry_multiplicity
 _atom_site_fract_x
 _atom_site_fract_y
 _atom_site_fract_z
 _atom_site_occupancy
  Sr  Sr0  1  0.50000000  0.00000000  0.00000000  1
  Sr  Sr1  1  0.50000000  0.50000000  0.50000000  1
  Sr  Sr2  1  0.00000000  0.00000000  0.50000000  1
  Sr  Sr3  1  0.00000000  0.50000000  0.00000000  1
  Cr  Cr4  1  0.00000000  0.00000000  0.00000000  1
  Cr  Cr5  1  0.00000000  0.50000000  0.50000000  1
  Cr  Cr6  1  0.50000000  0.00000000  0.50000000  1
  Cr  Cr7  1  0.50000000  0.50000000  0.00000000  1
  Rh  Rh8  1  0.25000000  0.25000000  0.75000000  1
  Rh  Rh9  1  0.25000000  0.75000000  0.75000000  1
  Rh  Rh10  1  0.25000000  0.75000000  0.25000000  1
  Rh  Rh11  1  0.25000000  0.25000000  0.25000000  1
  Rh  Rh12  1  0.75000000  0.25000000  0.25000000  1
  Rh  Rh13  1  0.75000000  0.75000000  0.25000000  1
  Rh  Rh14  1  0.75000000  0.75000000  0.75000000  1
  Rh  Rh15  1  0.75000000  0.25000000  0.75000000  1
