# generated using pymatgen
data_Na(VS2)2
_symmetry_space_group_name_H-M   'P 1'
_cell_length_a   5.85806000
_cell_length_b   3.39364500
_cell_length_c   7.23362481
_cell_angle_alpha   90.00000000
_cell_angle_beta   103.05069399
_cell_angle_gamma   90.00000000
_symmetry_Int_Tables_number   1
_chemical_formula_structural   Na(VS2)2
_chemical_formula_sum   'Na1 V2 S4'
_cell_volume   140.09132624
_cell_formula_units_Z   1
loop_
 _symmetry_equiv_pos_site_id
 _symmetry_equiv_pos_as_xyz
  1  'x, y, z'
loop_
 _atom_site_type_symbol
 _atom_site_label
 _atom_site_symmetry_multiplicity
 _atom_site_fract_x
 _atom_site_fract_y
 _atom_site_fract_z
 _atom_site_occupancy
  Na  Na0  1  0.34115500  0.50000000  0.50092900  1
  V  V1  1  0.97384100  0.00000000  0.00350300  1
  V  V2  1  0.53028800  0.50000000  0.01384200  1
  S  S3  1  0.38372300  0.00000000  0.19218300  1
  S  S4  1  0.60345800  0.00000000  0.79728800  1
  S  S5  1  0.89812900  0.50000000  0.21698400  1
  S  S6  1  0.11940700  0.50000000  0.82527100  1
