# generated using pymatgen
data_Be5Pd
_symmetry_space_group_name_H-M   'P 1'
_cell_length_a   5.99263000
_cell_length_b   5.99263000
_cell_length_c   5.99263000
_cell_angle_alpha   90.00000000
_cell_angle_beta   90.00000000
_cell_angle_gamma   90.00000000
_symmetry_Int_Tables_number   1
_chemical_formula_structural   Be5Pd
_chemical_formula_sum   'Be20 Pd4'
_cell_volume   215.20501730
_cell_formula_units_Z   4
loop_
 _symmetry_equiv_pos_site_id
 _symmetry_equiv_pos_as_xyz
  1  'x, y, z'
loop_
 _atom_site_type_symbol
 _atom_site_label
 _atom_site_symmetry_multiplicity
 _atom_site_fract_x
 _atom_site_fract_y
 _atom_site_fract_z
 _atom_site_occupancy
  Be  Be0  1  0.25000000  0.25000000  0.75000000  1
  Be  Be1  1  0.12482900  0.37517100  0.12482900  1
  Be  Be2  1  0.62482900  0.12482900  0.87517100  1
  Be  Be3  1  0.37517100  0.12482900  0.12482900  1
  Be  Be4  1  0.87517100  0.37517100  0.87517100  1
  Be  Be5  1  0.25000000  0.75000000  0.25000000  1
  Be  Be6  1  0.12482900  0.87517100  0.62482900  1
  Be  Be7  1  0.62482900  0.62482900  0.37517100  1
  Be  Be8  1  0.37517100  0.62482900  0.62482900  1
  Be  Be9  1  0.87517100  0.87517100  0.37517100  1
  Be  Be10  1  0.75000000  0.25000000  0.25000000  1
  Be  Be11  1  0.62482900  0.37517100  0.62482900  1
  Be  Be12  1  0.12482900  0.12482900  0.37517100  1
  Be  Be13  1  0.87517100  0.12482900  0.62482900  1
  Be  Be14  1  0.37517100  0.37517100  0.37517100  1
  Be  Be15  1  0.75000000  0.75000000  0.75000000  1
  Be  Be16  1  0.62482900  0.87517100  0.12482900  1
  Be  Be17  1  0.12482900  0.62482900  0.87517100  1
  Be  Be18  1  0.87517100  0.62482900  0.12482900  1
  Be  Be19  1  0.37517100  0.87517100  0.87517100  1
  Pd  Pd20  1  0.00000000  0.00000000  0.00000000  1
  Pd  Pd21  1  0.00000000  0.50000000  0.50000000  1
  Pd  Pd22  1  0.50000000  0.00000000  0.50000000  1
  Pd  Pd23  1  0.50000000  0.50000000  0.00000000  1
