# generated using pymatgen
data_Cu2GeTe3
_symmetry_space_group_name_H-M   'P 1'
_cell_length_a   7.35778400
_cell_length_b   12.73188000
_cell_length_c   7.38236107
_cell_angle_alpha   90.00000000
_cell_angle_beta   109.36408381
_cell_angle_gamma   90.00000000
_symmetry_Int_Tables_number   1
_chemical_formula_structural   Cu2GeTe3
_chemical_formula_sum   'Cu8 Ge4 Te12'
_cell_volume   652.44642155
_cell_formula_units_Z   4
loop_
 _symmetry_equiv_pos_site_id
 _symmetry_equiv_pos_as_xyz
  1  'x, y, z'
loop_
 _atom_site_type_symbol
 _atom_site_label
 _atom_site_symmetry_multiplicity
 _atom_site_fract_x
 _atom_site_fract_y
 _atom_site_fract_z
 _atom_site_occupancy
  Cu  Cu0  1  0.42457300  0.58439800  0.00538300  1
  Cu  Cu1  1  0.41527150  0.25022050  0.00227400  1
  Cu  Cu2  1  0.42457300  0.41560200  0.50538300  1
  Cu  Cu3  1  0.41527150  0.74977950  0.50227400  1
  Cu  Cu4  1  0.92457300  0.08439800  0.00538300  1
  Cu  Cu5  1  0.91527150  0.75022050  0.00227400  1
  Cu  Cu6  1  0.92457300  0.91560200  0.50538300  1
  Cu  Cu7  1  0.91527150  0.24977950  0.50227400  1
  Ge  Ge8  1  0.40855000  0.91411700  0.99109900  1
  Ge  Ge9  1  0.40855000  0.08588300  0.49109900  1
  Ge  Ge10  1  0.90855000  0.41411700  0.99109900  1
  Ge  Ge11  1  0.90855000  0.58588300  0.49109900  1
  Te  Te12  1  0.52806500  0.41700500  0.87372200  1
  Te  Te13  1  0.54669350  0.74659850  0.87130900  1
  Te  Te14  1  0.55458450  0.09021550  0.88432100  1
  Te  Te15  1  0.55458450  0.90978450  0.38432100  1
  Te  Te16  1  0.54669350  0.25340150  0.37130900  1
  Te  Te17  1  0.52806500  0.58299500  0.37372200  1
  Te  Te18  1  0.02806500  0.91700500  0.87372200  1
  Te  Te19  1  0.04669350  0.24659850  0.87130900  1
  Te  Te20  1  0.05458450  0.59021550  0.88432100  1
  Te  Te21  1  0.05458450  0.40978450  0.38432100  1
  Te  Te22  1  0.04669350  0.75340150  0.37130900  1
  Te  Te23  1  0.02806500  0.08299500  0.37372200  1
