# generated using pymatgen
data_AlPd
_symmetry_space_group_name_H-M   'P 1'
_cell_length_a   15.78079329
_cell_length_b   15.78079329
_cell_length_c   5.31287009
_cell_angle_alpha   90.00000000
_cell_angle_beta   90.00000000
_cell_angle_gamma   120.00000000
_symmetry_Int_Tables_number   1
_chemical_formula_structural   AlPd
_chemical_formula_sum   'Al39 Pd39'
_cell_volume   1145.82288174
_cell_formula_units_Z   39
loop_
 _symmetry_equiv_pos_site_id
 _symmetry_equiv_pos_as_xyz
  1  'x, y, z'
loop_
 _atom_site_type_symbol
 _atom_site_label
 _atom_site_symmetry_multiplicity
 _atom_site_fract_x
 _atom_site_fract_y
 _atom_site_fract_z
 _atom_site_occupancy
  Al  Al0  1  0.17978800  0.06829300  0.16624300  1
  Al  Al1  1  0.25074533  0.34691267  0.50237267  1
  Al  Al2  1  0.31975400  0.23716600  0.83570600  1
  Al  Al3  1  0.41592133  0.98642067  0.83096067  1
  Al  Al4  1  0.34691267  0.09616733  0.49762733  1
  Al  Al5  1  0.55517167  0.15354533  0.49957633  1
  Al  Al6  1  0.40162633  0.55517167  0.50042367  1
  Al  Al7  1  0.23716600  0.91741200  0.16429400  1
  Al  Al8  1  0.11149500  0.17978800  0.83375700  1
  Al  Al9  1  0.42950067  0.41592133  0.16903933  1
  Al  Al10  1  0.26504033  0.77816167  0.83290967  1
  Al  Al11  1  0.00000000  0.00000000  0.50000000  1
  Al  Al12  1  0.48687867  0.26504033  0.16709033  1
  Al  Al13  1  0.84645467  0.40162633  0.49957633  1
  Al  Al14  1  0.91741200  0.68024600  0.83570600  1
  Al  Al15  1  0.98642067  0.57049933  0.16903933  1
  Al  Al16  1  0.08258800  0.31975400  0.16429400  1
  Al  Al17  1  0.01357933  0.42950067  0.83096067  1
  Al  Al18  1  0.22183833  0.48687867  0.83290967  1
  Al  Al19  1  0.06829300  0.88850500  0.83375700  1
  Al  Al20  1  0.90383267  0.25074533  0.49762733  1
  Al  Al21  1  0.77816167  0.51312133  0.16709033  1
  Al  Al22  1  0.09616733  0.74925467  0.50237267  1
  Al  Al23  1  0.93170700  0.11149500  0.16624300  1
  Al  Al24  1  0.66666667  0.33333333  0.83333333  1
  Al  Al25  1  0.15354533  0.59837367  0.50042367  1
  Al  Al26  1  0.51312133  0.73495967  0.83290967  1
  Al  Al27  1  0.58407867  0.01357933  0.16903933  1
  Al  Al28  1  0.65308733  0.90383267  0.50237267  1
  Al  Al29  1  0.74925467  0.65308733  0.49762733  1
  Al  Al30  1  0.68024600  0.76283400  0.16429400  1
  Al  Al31  1  0.88850500  0.82021200  0.16624300  1
  Al  Al32  1  0.73495967  0.22183833  0.16709033  1
  Al  Al33  1  0.57049933  0.58407867  0.83096067  1
  Al  Al34  1  0.44482833  0.84645467  0.50042367  1
  Al  Al35  1  0.76283400  0.08258800  0.83570600  1
  Al  Al36  1  0.59837367  0.44482833  0.49957633  1
  Al  Al37  1  0.33333333  0.66666667  0.16666667  1
  Al  Al38  1  0.82021200  0.93170700  0.83375700  1
  Pd  Pd39  1  0.26553333  0.77744567  0.33182067  1
  Pd  Pd40  1  0.40113333  0.55588767  0.00151267  1
  Pd  Pd41  1  0.31999867  0.23657033  0.33535233  1
  Pd  Pd42  1  0.23657033  0.91657167  0.66464767  1
  Pd  Pd43  1  0.43009633  0.41676167  0.66868567  1
  Pd  Pd44  1  0.34666800  0.09676300  0.99798100  1
  Pd  Pd45  1  0.48808767  0.26553333  0.66817933  1
  Pd  Pd46  1  0.11077900  0.17857900  0.33484600  1
  Pd  Pd47  1  0.24990500  0.34666800  0.00201900  1
  Pd  Pd48  1  0.41676167  0.98666533  0.33131433  1
  Pd  Pd49  1  0.55588767  0.15475433  0.99848733  1
  Pd  Pd50  1  0.00000000  0.00000000  0.00000000  1
  Pd  Pd51  1  0.17857900  0.06780000  0.66515400  1
  Pd  Pd52  1  0.93220000  0.11077900  0.66515400  1
  Pd  Pd53  1  0.06780000  0.88922100  0.33484600  1
  Pd  Pd54  1  0.98666533  0.56990367  0.66868567  1
  Pd  Pd55  1  0.90323700  0.24990500  0.99798100  1
  Pd  Pd56  1  0.09676300  0.75009500  0.00201900  1
  Pd  Pd57  1  0.01333467  0.43009633  0.33131433  1
  Pd  Pd58  1  0.15475433  0.59886667  0.00151267  1
  Pd  Pd59  1  0.77744567  0.51191233  0.66817933  1
  Pd  Pd60  1  0.91657167  0.68000133  0.33535233  1
  Pd  Pd61  1  0.08342833  0.31999867  0.66464767  1
  Pd  Pd62  1  0.22255433  0.48808767  0.33182067  1
  Pd  Pd63  1  0.66666667  0.33333333  0.33333333  1
  Pd  Pd64  1  0.84524567  0.40113333  0.99848733  1
  Pd  Pd65  1  0.59886667  0.44411233  0.99848733  1
  Pd  Pd66  1  0.73446667  0.22255433  0.66817933  1
  Pd  Pd67  1  0.65333200  0.90323700  0.00201900  1
  Pd  Pd68  1  0.56990367  0.58323833  0.33131433  1
  Pd  Pd69  1  0.76342967  0.08342833  0.33535233  1
  Pd  Pd70  1  0.68000133  0.76342967  0.66464767  1
  Pd  Pd71  1  0.82142100  0.93220000  0.33484600  1
  Pd  Pd72  1  0.44411233  0.84524567  0.00151267  1
  Pd  Pd73  1  0.58323833  0.01333467  0.66868567  1
  Pd  Pd74  1  0.75009500  0.65333200  0.99798100  1
  Pd  Pd75  1  0.88922100  0.82142100  0.66515400  1
  Pd  Pd76  1  0.33333333  0.66666667  0.66666667  1
  Pd  Pd77  1  0.51191233  0.73446667  0.33182067  1
