# generated using pymatgen
data_V2H
_symmetry_space_group_name_H-M   'P 1'
_cell_length_a   5.89967600
_cell_length_b   5.89967600
_cell_length_c   6.67166600
_cell_angle_alpha   90.00000000
_cell_angle_beta   90.00000000
_cell_angle_gamma   90.00000000
_symmetry_Int_Tables_number   1
_chemical_formula_structural   V2H
_chemical_formula_sum   'V16 H8'
_cell_volume   232.21518705
_cell_formula_units_Z   8
loop_
 _symmetry_equiv_pos_site_id
 _symmetry_equiv_pos_as_xyz
  1  'x, y, z'
loop_
 _atom_site_type_symbol
 _atom_site_label
 _atom_site_symmetry_multiplicity
 _atom_site_fract_x
 _atom_site_fract_y
 _atom_site_fract_z
 _atom_site_occupancy
  V  V0  1  0.25154000  0.00000000  0.60587100  1
  V  V1  1  0.50000000  0.25154000  0.35587100  1
  V  V2  1  0.50000000  0.74846000  0.35587100  1
  V  V3  1  0.24846000  0.50000000  0.10587100  1
  V  V4  1  0.24846000  0.00000000  0.14412900  1
  V  V5  1  0.50000000  0.24846000  0.89412900  1
  V  V6  1  0.00000000  0.25154000  0.39412900  1
  V  V7  1  0.75154000  0.00000000  0.14412900  1
  V  V8  1  0.75154000  0.50000000  0.10587100  1
  V  V9  1  0.00000000  0.75154000  0.85587100  1
  V  V10  1  0.00000000  0.24846000  0.85587100  1
  V  V11  1  0.74846000  0.00000000  0.60587100  1
  V  V12  1  0.74846000  0.50000000  0.64412900  1
  V  V13  1  0.00000000  0.74846000  0.39412900  1
  V  V14  1  0.50000000  0.75154000  0.89412900  1
  V  V15  1  0.25154000  0.50000000  0.64412900  1
  H  H16  1  0.25000000  0.50000000  0.37500000  1
  H  H17  1  0.00000000  0.25000000  0.12500000  1
  H  H18  1  0.00000000  0.75000000  0.12500000  1
  H  H19  1  0.75000000  0.50000000  0.37500000  1
  H  H20  1  0.75000000  0.00000000  0.87500000  1
  H  H21  1  0.50000000  0.75000000  0.62500000  1
  H  H22  1  0.50000000  0.25000000  0.62500000  1
  H  H23  1  0.25000000  0.00000000  0.87500000  1
