# generated using pymatgen
data_Na2LiTa
_symmetry_space_group_name_H-M   'P 1'
_cell_length_a   7.16157200
_cell_length_b   7.16157200
_cell_length_c   7.16157200
_cell_angle_alpha   90.00000000
_cell_angle_beta   90.00000000
_cell_angle_gamma   90.00000000
_symmetry_Int_Tables_number   1
_chemical_formula_structural   Na2LiTa
_chemical_formula_sum   'Na8 Li4 Ta4'
_cell_volume   367.30351765
_cell_formula_units_Z   4
loop_
 _symmetry_equiv_pos_site_id
 _symmetry_equiv_pos_as_xyz
  1  'x, y, z'
loop_
 _atom_site_type_symbol
 _atom_site_label
 _atom_site_symmetry_multiplicity
 _atom_site_fract_x
 _atom_site_fract_y
 _atom_site_fract_z
 _atom_site_occupancy
  Na  Na0  1  0.00000000  0.00000000  0.00000000  1
  Na  Na1  1  0.25000000  0.25000000  0.25000000  1
  Na  Na2  1  0.00000000  0.50000000  0.50000000  1
  Na  Na3  1  0.25000000  0.75000000  0.75000000  1
  Na  Na4  1  0.50000000  0.00000000  0.50000000  1
  Na  Na5  1  0.75000000  0.25000000  0.75000000  1
  Na  Na6  1  0.50000000  0.50000000  0.00000000  1
  Na  Na7  1  0.75000000  0.75000000  0.25000000  1
  Li  Li8  1  0.50000000  0.00000000  0.00000000  1
  Li  Li9  1  0.50000000  0.50000000  0.50000000  1
  Li  Li10  1  0.00000000  0.00000000  0.50000000  1
  Li  Li11  1  0.00000000  0.50000000  0.00000000  1
  Ta  Ta12  1  0.25000000  0.25000000  0.75000000  1
  Ta  Ta13  1  0.25000000  0.75000000  0.25000000  1
  Ta  Ta14  1  0.75000000  0.25000000  0.25000000  1
  Ta  Ta15  1  0.75000000  0.75000000  0.75000000  1
