# generated using pymatgen
data_V3O5
_symmetry_space_group_name_H-M   'P 1'
_cell_length_a   7.10674725
_cell_length_b   5.18932500
_cell_length_c   9.98955027
_cell_angle_alpha   90.00000000
_cell_angle_beta   109.17001772
_cell_angle_gamma   90.00000000
_symmetry_Int_Tables_number   1
_chemical_formula_structural   V3O5
_chemical_formula_sum   'V12 O20'
_cell_volume   347.97806060
_cell_formula_units_Z   4
loop_
 _symmetry_equiv_pos_site_id
 _symmetry_equiv_pos_as_xyz
  1  'x, y, z'
loop_
 _atom_site_type_symbol
 _atom_site_label
 _atom_site_symmetry_multiplicity
 _atom_site_fract_x
 _atom_site_fract_y
 _atom_site_fract_z
 _atom_site_occupancy
  V  V0  1  0.34053700  0.75317100  0.62230400  1
  V  V1  1  0.83981100  0.74718300  0.61948600  1
  V  V2  1  0.16018900  0.74718300  0.88051400  1
  V  V3  1  0.65946300  0.75317100  0.87769600  1
  V  V4  1  0.65946300  0.24682900  0.37769600  1
  V  V5  1  0.34053700  0.24682900  0.12230400  1
  V  V6  1  0.83981100  0.25281700  0.11948600  1
  V  V7  1  0.16018900  0.25281700  0.38051400  1
  V  V8  1  0.25154700  0.24749600  0.75122700  1
  V  V9  1  0.74845300  0.24749600  0.74877300  1
  V  V10  1  0.25154700  0.75250400  0.25122700  1
  V  V11  1  0.74845300  0.75250400  0.24877300  1
  O  O12  1  0.72401400  0.91019000  0.06393600  1
  O  O13  1  0.21616000  0.60503200  0.05120600  1
  O  O14  1  0.78384000  0.60503200  0.44879400  1
  O  O15  1  0.27598600  0.91019000  0.43606400  1
  O  O16  1  0.38369900  0.40136100  0.32920100  1
  O  O17  1  0.10928600  0.09928500  0.17114600  1
  O  O18  1  0.89071400  0.09928500  0.32885400  1
  O  O19  1  0.61630100  0.40136100  0.17079900  1
  O  O20  1  0.72401400  0.08981000  0.56393600  1
  O  O21  1  0.27598600  0.08981000  0.93606400  1
  O  O22  1  0.21616000  0.39496800  0.55120600  1
  O  O23  1  0.78384000  0.39496800  0.94879400  1
  O  O24  1  0.00000000  0.54564700  0.25000000  1
  O  O25  1  0.50000000  0.93851500  0.25000000  1
  O  O26  1  0.89071400  0.90071500  0.82885400  1
  O  O27  1  0.38369900  0.59863900  0.82920100  1
  O  O28  1  0.61630100  0.59863900  0.67079900  1
  O  O29  1  0.10928600  0.90071500  0.67114600  1
  O  O30  1  0.00000000  0.45435300  0.75000000  1
  O  O31  1  0.50000000  0.06148500  0.75000000  1
