# generated using pymatgen
data_Mn2NiO4
_symmetry_space_group_name_H-M   'P 1'
_cell_length_a   5.85048192
_cell_length_b   5.85048192
_cell_length_c   9.22258556
_cell_angle_alpha   90.00000000
_cell_angle_beta   90.00000000
_cell_angle_gamma   90.00000000
_symmetry_Int_Tables_number   1
_chemical_formula_structural   Mn2NiO4
_chemical_formula_sum   'Mn8 Ni4 O16'
_cell_volume   315.67193812
_cell_formula_units_Z   4
loop_
 _symmetry_equiv_pos_site_id
 _symmetry_equiv_pos_as_xyz
  1  'x, y, z'
loop_
 _atom_site_type_symbol
 _atom_site_label
 _atom_site_symmetry_multiplicity
 _atom_site_fract_x
 _atom_site_fract_y
 _atom_site_fract_z
 _atom_site_occupancy
  Mn  Mn0  1  0.75000000  0.00000000  0.37500000  1
  Mn  Mn1  1  0.50000000  0.25000000  0.12500000  1
  Mn  Mn2  1  0.50000000  0.75000000  0.12500000  1
  Mn  Mn3  1  0.25000000  0.00000000  0.37500000  1
  Mn  Mn4  1  0.25000000  0.50000000  0.87500000  1
  Mn  Mn5  1  0.00000000  0.75000000  0.62500000  1
  Mn  Mn6  1  0.00000000  0.25000000  0.62500000  1
  Mn  Mn7  1  0.75000000  0.50000000  0.87500000  1
  Ni  Ni8  1  0.00000000  0.00000000  0.00000000  1
  Ni  Ni9  1  0.00000000  0.50000000  0.25000000  1
  Ni  Ni10  1  0.50000000  0.50000000  0.50000000  1
  Ni  Ni11  1  0.50000000  0.00000000  0.75000000  1
  O  O12  1  0.27748450  0.50000000  0.12766800  1
  O  O13  1  0.50000000  0.22251550  0.37766800  1
  O  O14  1  0.27185650  0.00000000  0.13291500  1
  O  O15  1  0.50000000  0.77748450  0.37766800  1
  O  O16  1  0.72251550  0.50000000  0.12766800  1
  O  O17  1  0.50000000  0.72814350  0.88291500  1
  O  O18  1  0.72251550  0.00000000  0.12233200  1
  O  O19  1  0.50000000  0.27748450  0.87233200  1
  O  O20  1  0.77748450  0.00000000  0.62766800  1
  O  O21  1  0.00000000  0.72251550  0.87766800  1
  O  O22  1  0.77185650  0.50000000  0.63291500  1
  O  O23  1  0.00000000  0.27748450  0.87766800  1
  O  O24  1  0.22251550  0.00000000  0.62766800  1
  O  O25  1  0.00000000  0.22814350  0.38291500  1
  O  O26  1  0.22251550  0.50000000  0.62233200  1
  O  O27  1  0.00000000  0.77748450  0.37233200  1
