# generated using pymatgen
data_Cu12Sb4S13
_symmetry_space_group_name_H-M   'P 1'
_cell_length_a   10.35082000
_cell_length_b   10.35082000
_cell_length_c   10.35082000
_cell_angle_alpha   90.00000000
_cell_angle_beta   90.00000000
_cell_angle_gamma   90.00000000
_symmetry_Int_Tables_number   1
_chemical_formula_structural   Cu12Sb4S13
_chemical_formula_sum   'Cu24 Sb8 S26'
_cell_volume   1108.98141723
_cell_formula_units_Z   2
loop_
 _symmetry_equiv_pos_site_id
 _symmetry_equiv_pos_as_xyz
  1  'x, y, z'
loop_
 _atom_site_type_symbol
 _atom_site_label
 _atom_site_symmetry_multiplicity
 _atom_site_fract_x
 _atom_site_fract_y
 _atom_site_fract_z
 _atom_site_occupancy
  Cu  Cu0  1  0.00000000  0.00000000  0.77920500  1
  Cu  Cu1  1  0.22079500  0.00000000  0.00000000  1
  Cu  Cu2  1  0.00000000  0.50000000  0.25000000  1
  Cu  Cu3  1  0.00000000  0.22079500  0.00000000  1
  Cu  Cu4  1  0.77920500  0.00000000  0.00000000  1
  Cu  Cu5  1  0.00000000  0.00000000  0.22079500  1
  Cu  Cu6  1  0.00000000  0.77920500  0.00000000  1
  Cu  Cu7  1  0.25000000  0.00000000  0.50000000  1
  Cu  Cu8  1  0.00000000  0.25000000  0.50000000  1
  Cu  Cu9  1  0.50000000  0.25000000  0.00000000  1
  Cu  Cu10  1  0.25000000  0.50000000  0.00000000  1
  Cu  Cu11  1  0.50000000  0.00000000  0.25000000  1
  Cu  Cu12  1  0.50000000  0.50000000  0.27920500  1
  Cu  Cu13  1  0.72079500  0.50000000  0.50000000  1
  Cu  Cu14  1  0.50000000  0.00000000  0.75000000  1
  Cu  Cu15  1  0.50000000  0.72079500  0.50000000  1
  Cu  Cu16  1  0.27920500  0.50000000  0.50000000  1
  Cu  Cu17  1  0.50000000  0.50000000  0.72079500  1
  Cu  Cu18  1  0.50000000  0.27920500  0.50000000  1
  Cu  Cu19  1  0.75000000  0.50000000  0.00000000  1
  Cu  Cu20  1  0.50000000  0.75000000  0.00000000  1
  Cu  Cu21  1  0.00000000  0.75000000  0.50000000  1
  Cu  Cu22  1  0.75000000  0.00000000  0.50000000  1
  Cu  Cu23  1  0.00000000  0.50000000  0.75000000  1
  Sb  Sb24  1  0.22922450  0.77077550  0.22922450  1
  Sb  Sb25  1  0.22922450  0.22922450  0.77077550  1
  Sb  Sb26  1  0.77077550  0.22922450  0.22922450  1
  Sb  Sb27  1  0.27077550  0.27077550  0.27077550  1
  Sb  Sb28  1  0.72922450  0.27077550  0.72922450  1
  Sb  Sb29  1  0.72922450  0.72922450  0.27077550  1
  Sb  Sb30  1  0.27077550  0.72922450  0.72922450  1
  Sb  Sb31  1  0.77077550  0.77077550  0.77077550  1
  S  S32  1  0.11566750  0.63489050  0.88433250  1
  S  S33  1  0.38433250  0.86510950  0.38433250  1
  S  S34  1  0.11566750  0.88433250  0.63489050  1
  S  S35  1  0.38433250  0.38433250  0.86510950  1
  S  S36  1  0.63489050  0.11566750  0.88433250  1
  S  S37  1  0.86510950  0.38433250  0.38433250  1
  S  S38  1  0.11566750  0.11566750  0.36510950  1
  S  S39  1  0.36510950  0.11566750  0.11566750  1
  S  S40  1  0.11566750  0.36510950  0.11566750  1
  S  S41  1  0.88433250  0.11566750  0.63489050  1
  S  S42  1  0.88433250  0.63489050  0.11566750  1
  S  S43  1  0.63489050  0.88433250  0.11566750  1
  S  S44  1  0.00000000  0.00000000  0.00000000  1
  S  S45  1  0.61566750  0.13489050  0.38433250  1
  S  S46  1  0.88433250  0.36510950  0.88433250  1
  S  S47  1  0.61566750  0.38433250  0.13489050  1
  S  S48  1  0.88433250  0.88433250  0.36510950  1
  S  S49  1  0.13489050  0.61566750  0.38433250  1
  S  S50  1  0.36510950  0.88433250  0.88433250  1
  S  S51  1  0.61566750  0.61566750  0.86510950  1
  S  S52  1  0.86510950  0.61566750  0.61566750  1
  S  S53  1  0.61566750  0.86510950  0.61566750  1
  S  S54  1  0.38433250  0.61566750  0.13489050  1
  S  S55  1  0.38433250  0.13489050  0.61566750  1
  S  S56  1  0.13489050  0.38433250  0.61566750  1
  S  S57  1  0.50000000  0.50000000  0.50000000  1
