# generated using pymatgen
data_NaV2O4
_symmetry_space_group_name_H-M   'P 1'
_cell_length_a   2.92087000
_cell_length_b   9.31961200
_cell_length_c   10.88970500
_cell_angle_alpha   90.00000000
_cell_angle_beta   90.00000000
_cell_angle_gamma   90.00000000
_symmetry_Int_Tables_number   1
_chemical_formula_structural   NaV2O4
_chemical_formula_sum   'Na4 V8 O16'
_cell_volume   296.43274458
_cell_formula_units_Z   4
loop_
 _symmetry_equiv_pos_site_id
 _symmetry_equiv_pos_as_xyz
  1  'x, y, z'
loop_
 _atom_site_type_symbol
 _atom_site_label
 _atom_site_symmetry_multiplicity
 _atom_site_fract_x
 _atom_site_fract_y
 _atom_site_fract_z
 _atom_site_occupancy
  Na  Na0  1  0.75000000  0.25681150  0.84743200  1
  Na  Na1  1  0.75000000  0.75681150  0.65256800  1
  Na  Na2  1  0.25000000  0.24318850  0.34743200  1
  Na  Na3  1  0.25000000  0.74318850  0.15256800  1
  V  V4  1  0.25000000  0.56434350  0.38782500  1
  V  V5  1  0.25000000  0.08131750  0.60408500  1
  V  V6  1  0.75000000  0.91868250  0.39591500  1
  V  V7  1  0.75000000  0.41868250  0.10408500  1
  V  V8  1  0.25000000  0.06434350  0.11217500  1
  V  V9  1  0.75000000  0.93565650  0.88782500  1
  V  V10  1  0.75000000  0.43565650  0.61217500  1
  V  V11  1  0.25000000  0.58131750  0.89591500  1
  O  O12  1  0.25000000  0.47759950  0.21884100  1
  O  O13  1  0.75000000  0.42276650  0.42936200  1
  O  O14  1  0.25000000  0.57723350  0.57063800  1
  O  O15  1  0.25000000  0.97759950  0.28115900  1
  O  O16  1  0.75000000  0.11269250  0.47962500  1
  O  O17  1  0.75000000  0.70807950  0.35109600  1
  O  O18  1  0.25000000  0.88730750  0.52037500  1
  O  O19  1  0.25000000  0.29192050  0.64890400  1
  O  O20  1  0.25000000  0.79192050  0.85109600  1
  O  O21  1  0.75000000  0.20807950  0.14890400  1
  O  O22  1  0.25000000  0.07723350  0.92936200  1
  O  O23  1  0.75000000  0.02240050  0.71884100  1
  O  O24  1  0.75000000  0.52240050  0.78115900  1
  O  O25  1  0.25000000  0.38730750  0.97962500  1
  O  O26  1  0.75000000  0.92276650  0.07063800  1
  O  O27  1  0.75000000  0.61269250  0.02037500  1
