# generated using pymatgen
data_LaReB
_symmetry_space_group_name_H-M   'P 1'
_cell_length_a   6.09595800
_cell_length_b   6.09595800
_cell_length_c   6.09595800
_cell_angle_alpha   90.00000000
_cell_angle_beta   90.00000000
_cell_angle_gamma   90.00000000
_symmetry_Int_Tables_number   1
_chemical_formula_structural   LaReB
_chemical_formula_sum   'La4 Re4 B4'
_cell_volume   226.53009046
_cell_formula_units_Z   4
loop_
 _symmetry_equiv_pos_site_id
 _symmetry_equiv_pos_as_xyz
  1  'x, y, z'
loop_
 _atom_site_type_symbol
 _atom_site_label
 _atom_site_symmetry_multiplicity
 _atom_site_fract_x
 _atom_site_fract_y
 _atom_site_fract_z
 _atom_site_occupancy
  La  La0  1  0.50000000  0.00000000  0.00000000  1
  La  La1  1  0.50000000  0.50000000  0.50000000  1
  La  La2  1  0.00000000  0.00000000  0.50000000  1
  La  La3  1  0.00000000  0.50000000  0.00000000  1
  Re  Re4  1  0.25000000  0.25000000  0.25000000  1
  Re  Re5  1  0.25000000  0.75000000  0.75000000  1
  Re  Re6  1  0.75000000  0.25000000  0.75000000  1
  Re  Re7  1  0.75000000  0.75000000  0.25000000  1
  B  B8  1  0.00000000  0.00000000  0.00000000  1
  B  B9  1  0.00000000  0.50000000  0.50000000  1
  B  B10  1  0.50000000  0.00000000  0.50000000  1
  B  B11  1  0.50000000  0.50000000  0.00000000  1
