# generated using pymatgen
data_CeRu2
_symmetry_space_group_name_H-M   'P 1'
_cell_length_a   7.57881400
_cell_length_b   7.57881400
_cell_length_c   7.57881400
_cell_angle_alpha   90.00000000
_cell_angle_beta   90.00000000
_cell_angle_gamma   90.00000000
_symmetry_Int_Tables_number   1
_chemical_formula_structural   CeRu2
_chemical_formula_sum   'Ce8 Ru16'
_cell_volume   435.31511411
_cell_formula_units_Z   8
loop_
 _symmetry_equiv_pos_site_id
 _symmetry_equiv_pos_as_xyz
  1  'x, y, z'
loop_
 _atom_site_type_symbol
 _atom_site_label
 _atom_site_symmetry_multiplicity
 _atom_site_fract_x
 _atom_site_fract_y
 _atom_site_fract_z
 _atom_site_occupancy
  Ce  Ce0  1  0.25000000  0.25000000  0.25000000  1
  Ce  Ce1  1  0.50000000  0.00000000  0.50000000  1
  Ce  Ce2  1  0.25000000  0.75000000  0.75000000  1
  Ce  Ce3  1  0.50000000  0.50000000  0.00000000  1
  Ce  Ce4  1  0.75000000  0.25000000  0.75000000  1
  Ce  Ce5  1  0.00000000  0.00000000  0.00000000  1
  Ce  Ce6  1  0.75000000  0.75000000  0.25000000  1
  Ce  Ce7  1  0.00000000  0.50000000  0.50000000  1
  Ru  Ru8  1  0.37500000  0.87500000  0.12500000  1
  Ru  Ru9  1  0.37500000  0.62500000  0.37500000  1
  Ru  Ru10  1  0.12500000  0.62500000  0.12500000  1
  Ru  Ru11  1  0.12500000  0.87500000  0.37500000  1
  Ru  Ru12  1  0.37500000  0.37500000  0.62500000  1
  Ru  Ru13  1  0.37500000  0.12500000  0.87500000  1
  Ru  Ru14  1  0.12500000  0.12500000  0.62500000  1
  Ru  Ru15  1  0.12500000  0.37500000  0.87500000  1
  Ru  Ru16  1  0.87500000  0.87500000  0.62500000  1
  Ru  Ru17  1  0.87500000  0.62500000  0.87500000  1
  Ru  Ru18  1  0.62500000  0.62500000  0.62500000  1
  Ru  Ru19  1  0.62500000  0.87500000  0.87500000  1
  Ru  Ru20  1  0.87500000  0.37500000  0.12500000  1
  Ru  Ru21  1  0.87500000  0.12500000  0.37500000  1
  Ru  Ru22  1  0.62500000  0.12500000  0.12500000  1
  Ru  Ru23  1  0.62500000  0.37500000  0.37500000  1
