# generated using pymatgen
data_DyNi2B2C
_symmetry_space_group_name_H-M   'P 1'
_cell_length_a   3.54859800
_cell_length_b   3.54859800
_cell_length_c   10.33523400
_cell_angle_alpha   90.00000000
_cell_angle_beta   90.00000000
_cell_angle_gamma   90.00000000
_symmetry_Int_Tables_number   1
_chemical_formula_structural   DyNi2B2C
_chemical_formula_sum   'Dy2 Ni4 B4 C2'
_cell_volume   130.14692781
_cell_formula_units_Z   2
loop_
 _symmetry_equiv_pos_site_id
 _symmetry_equiv_pos_as_xyz
  1  'x, y, z'
loop_
 _atom_site_type_symbol
 _atom_site_label
 _atom_site_symmetry_multiplicity
 _atom_site_fract_x
 _atom_site_fract_y
 _atom_site_fract_z
 _atom_site_occupancy
  Dy  Dy0  1  0.00000000  0.00000000  0.00000000  1
  Dy  Dy1  1  0.50000000  0.50000000  0.50000000  1
  Ni  Ni2  1  0.00000000  0.50000000  0.25000000  1
  Ni  Ni3  1  0.50000000  0.00000000  0.25000000  1
  Ni  Ni4  1  0.50000000  0.00000000  0.75000000  1
  Ni  Ni5  1  0.00000000  0.50000000  0.75000000  1
  B  B6  1  0.00000000  0.00000000  0.35573100  1
  B  B7  1  0.50000000  0.50000000  0.14426900  1
  B  B8  1  0.50000000  0.50000000  0.85573100  1
  B  B9  1  0.00000000  0.00000000  0.64426900  1
  C  C10  1  0.50000000  0.50000000  0.00000000  1
  C  C11  1  0.00000000  0.00000000  0.50000000  1
