# generated using pymatgen
data_KZr2Nb
_symmetry_space_group_name_H-M   'P 1'
_cell_length_a   7.21889000
_cell_length_b   7.21889000
_cell_length_c   7.21889000
_cell_angle_alpha   90.00000000
_cell_angle_beta   90.00000000
_cell_angle_gamma   90.00000000
_symmetry_Int_Tables_number   1
_chemical_formula_structural   KZr2Nb
_chemical_formula_sum   'K4 Zr8 Nb4'
_cell_volume   376.19348711
_cell_formula_units_Z   4
loop_
 _symmetry_equiv_pos_site_id
 _symmetry_equiv_pos_as_xyz
  1  'x, y, z'
loop_
 _atom_site_type_symbol
 _atom_site_label
 _atom_site_symmetry_multiplicity
 _atom_site_fract_x
 _atom_site_fract_y
 _atom_site_fract_z
 _atom_site_occupancy
  K  K0  1  0.00000000  0.00000000  0.00000000  1
  K  K1  1  0.00000000  0.50000000  0.50000000  1
  K  K2  1  0.50000000  0.00000000  0.50000000  1
  K  K3  1  0.50000000  0.50000000  0.00000000  1
  Zr  Zr4  1  0.25000000  0.75000000  0.75000000  1
  Zr  Zr5  1  0.25000000  0.25000000  0.75000000  1
  Zr  Zr6  1  0.25000000  0.25000000  0.25000000  1
  Zr  Zr7  1  0.25000000  0.75000000  0.25000000  1
  Zr  Zr8  1  0.75000000  0.75000000  0.25000000  1
  Zr  Zr9  1  0.75000000  0.25000000  0.25000000  1
  Zr  Zr10  1  0.75000000  0.25000000  0.75000000  1
  Zr  Zr11  1  0.75000000  0.75000000  0.75000000  1
  Nb  Nb12  1  0.50000000  0.00000000  0.00000000  1
  Nb  Nb13  1  0.50000000  0.50000000  0.50000000  1
  Nb  Nb14  1  0.00000000  0.00000000  0.50000000  1
  Nb  Nb15  1  0.00000000  0.50000000  0.00000000  1
