# generated using pymatgen
data_SrZrZn
_symmetry_space_group_name_H-M   'P 1'
_cell_length_a   6.97117600
_cell_length_b   6.97117600
_cell_length_c   6.97117600
_cell_angle_alpha   90.00000000
_cell_angle_beta   90.00000000
_cell_angle_gamma   90.00000000
_symmetry_Int_Tables_number   1
_chemical_formula_structural   SrZrZn
_chemical_formula_sum   'Sr4 Zr4 Zn4'
_cell_volume   338.78029533
_cell_formula_units_Z   4
loop_
 _symmetry_equiv_pos_site_id
 _symmetry_equiv_pos_as_xyz
  1  'x, y, z'
loop_
 _atom_site_type_symbol
 _atom_site_label
 _atom_site_symmetry_multiplicity
 _atom_site_fract_x
 _atom_site_fract_y
 _atom_site_fract_z
 _atom_site_occupancy
  Sr  Sr0  1  0.00000000  0.00000000  0.00000000  1
  Sr  Sr1  1  0.00000000  0.50000000  0.50000000  1
  Sr  Sr2  1  0.50000000  0.00000000  0.50000000  1
  Sr  Sr3  1  0.50000000  0.50000000  0.00000000  1
  Zr  Zr4  1  0.25000000  0.25000000  0.25000000  1
  Zr  Zr5  1  0.25000000  0.75000000  0.75000000  1
  Zr  Zr6  1  0.75000000  0.25000000  0.75000000  1
  Zr  Zr7  1  0.75000000  0.75000000  0.25000000  1
  Zn  Zn8  1  0.50000000  0.00000000  0.00000000  1
  Zn  Zn9  1  0.50000000  0.50000000  0.50000000  1
  Zn  Zn10  1  0.00000000  0.00000000  0.50000000  1
  Zn  Zn11  1  0.00000000  0.50000000  0.00000000  1
