# generated using pymatgen
data_BaSb3
_symmetry_space_group_name_H-M   'P 1'
_cell_length_a   10.99401200
_cell_length_b   8.62977000
_cell_length_c   6.57745572
_cell_angle_alpha   90.00000000
_cell_angle_beta   112.80458664
_cell_angle_gamma   90.00000000
_symmetry_Int_Tables_number   1
_chemical_formula_structural   BaSb3
_chemical_formula_sum   'Ba4 Sb12'
_cell_volume   575.26135620
_cell_formula_units_Z   4
loop_
 _symmetry_equiv_pos_site_id
 _symmetry_equiv_pos_as_xyz
  1  'x, y, z'
loop_
 _atom_site_type_symbol
 _atom_site_label
 _atom_site_symmetry_multiplicity
 _atom_site_fract_x
 _atom_site_fract_y
 _atom_site_fract_z
 _atom_site_occupancy
  Ba  Ba0  1  0.83463600  0.50000000  0.17859900  1
  Ba  Ba1  1  0.16536400  0.50000000  0.82140100  1
  Ba  Ba2  1  0.33463600  0.00000000  0.17859900  1
  Ba  Ba3  1  0.66536400  0.00000000  0.82140100  1
  Sb  Sb4  1  0.13732850  0.27958750  0.29725100  1
  Sb  Sb5  1  0.86267150  0.27958750  0.70274900  1
  Sb  Sb6  1  0.48728700  0.50000000  0.27144300  1
  Sb  Sb7  1  0.51271300  0.50000000  0.72855700  1
  Sb  Sb8  1  0.13732850  0.72041250  0.29725100  1
  Sb  Sb9  1  0.86267150  0.72041250  0.70274900  1
  Sb  Sb10  1  0.63732850  0.77958750  0.29725100  1
  Sb  Sb11  1  0.36267150  0.77958750  0.70274900  1
  Sb  Sb12  1  0.98728700  0.00000000  0.27144300  1
  Sb  Sb13  1  0.01271300  0.00000000  0.72855700  1
  Sb  Sb14  1  0.63732850  0.22041250  0.29725100  1
  Sb  Sb15  1  0.36267150  0.22041250  0.70274900  1
