# generated using pymatgen
data_In4SbTe3
_symmetry_space_group_name_H-M   'P 1'
_cell_length_a   8.83811760
_cell_length_b   12.46677344
_cell_length_c   6.21888572
_cell_angle_alpha   90.00000000
_cell_angle_beta   134.72110227
_cell_angle_gamma   90.00000000
_symmetry_Int_Tables_number   1
_chemical_formula_structural   In4SbTe3
_chemical_formula_sum   'In8 Sb2 Te6'
_cell_volume   486.87241905
_cell_formula_units_Z   2
loop_
 _symmetry_equiv_pos_site_id
 _symmetry_equiv_pos_as_xyz
  1  'x, y, z'
loop_
 _atom_site_type_symbol
 _atom_site_label
 _atom_site_symmetry_multiplicity
 _atom_site_fract_x
 _atom_site_fract_y
 _atom_site_fract_z
 _atom_site_occupancy
  In  In0  1  0.50408541  0.50000000  0.00142919  1
  In  In1  1  0.99617761  0.50000000  0.99175057  1
  In  In2  1  0.50123432  0.74789530  0.49735802  1
  In  In3  1  0.00123432  0.75210470  0.49735802  1
  In  In4  1  0.00408541  0.00000000  0.00142919  1
  In  In5  1  0.49617761  0.00000000  0.99175057  1
  In  In6  1  0.00123432  0.24789530  0.49735802  1
  In  In7  1  0.50123432  0.25210470  0.49735802  1
  Sb  Sb8  1  0.49918197  0.50000000  0.49649217  1
  Sb  Sb9  1  0.99918197  0.00000000  0.49649217  1
  Te  Te10  1  0.00314809  0.74836478  0.00591411  1
  Te  Te11  1  0.50314809  0.75163522  0.00591411  1
  Te  Te12  1  0.00494448  0.50000000  0.50147461  1
  Te  Te13  1  0.50314809  0.24836478  0.00591411  1
  Te  Te14  1  0.00314809  0.25163522  0.00591411  1
  Te  Te15  1  0.50494448  0.00000000  0.50147461  1
