# generated using pymatgen
data_Sr(BIr)2
_symmetry_space_group_name_H-M   'P 1'
_cell_length_a   6.10307800
_cell_length_b   9.46860200
_cell_length_c   10.78916800
_cell_angle_alpha   90.00000000
_cell_angle_beta   90.00000000
_cell_angle_gamma   90.00000000
_symmetry_Int_Tables_number   1
_chemical_formula_structural   Sr(BIr)2
_chemical_formula_sum   'Sr8 B16 Ir16'
_cell_volume   623.48030335
_cell_formula_units_Z   8
loop_
 _symmetry_equiv_pos_site_id
 _symmetry_equiv_pos_as_xyz
  1  'x, y, z'
loop_
 _atom_site_type_symbol
 _atom_site_label
 _atom_site_symmetry_multiplicity
 _atom_site_fract_x
 _atom_site_fract_y
 _atom_site_fract_z
 _atom_site_occupancy
  Sr  Sr0  1  0.50000000  0.00000000  0.00000000  1
  Sr  Sr1  1  0.75000000  0.25000000  0.25000000  1
  Sr  Sr2  1  0.50000000  0.50000000  0.50000000  1
  Sr  Sr3  1  0.75000000  0.75000000  0.75000000  1
  Sr  Sr4  1  0.00000000  0.00000000  0.50000000  1
  Sr  Sr5  1  0.25000000  0.25000000  0.75000000  1
  Sr  Sr6  1  0.00000000  0.50000000  0.00000000  1
  Sr  Sr7  1  0.25000000  0.75000000  0.25000000  1
  B  B8  1  0.50000000  0.32601700  0.00000000  1
  B  B9  1  0.75000000  0.57601700  0.25000000  1
  B  B10  1  0.50000000  0.67398300  0.00000000  1
  B  B11  1  0.75000000  0.92398300  0.25000000  1
  B  B12  1  0.50000000  0.82601700  0.50000000  1
  B  B13  1  0.75000000  0.07601700  0.75000000  1
  B  B14  1  0.50000000  0.17398300  0.50000000  1
  B  B15  1  0.75000000  0.42398300  0.75000000  1
  B  B16  1  0.00000000  0.32601700  0.50000000  1
  B  B17  1  0.25000000  0.57601700  0.75000000  1
  B  B18  1  0.00000000  0.67398300  0.50000000  1
  B  B19  1  0.25000000  0.92398300  0.75000000  1
  B  B20  1  0.00000000  0.82601700  0.00000000  1
  B  B21  1  0.25000000  0.07601700  0.25000000  1
  B  B22  1  0.00000000  0.17398300  0.00000000  1
  B  B23  1  0.25000000  0.42398300  0.25000000  1
  Ir  Ir24  1  0.00000000  0.00000000  0.13085300  1
  Ir  Ir25  1  0.75000000  0.75000000  0.38085300  1
  Ir  Ir26  1  0.75000000  0.75000000  0.11914700  1
  Ir  Ir27  1  0.50000000  0.00000000  0.36914700  1
  Ir  Ir28  1  0.00000000  0.50000000  0.63085300  1
  Ir  Ir29  1  0.75000000  0.25000000  0.88085300  1
  Ir  Ir30  1  0.75000000  0.25000000  0.61914700  1
  Ir  Ir31  1  0.50000000  0.50000000  0.86914700  1
  Ir  Ir32  1  0.50000000  0.00000000  0.63085300  1
  Ir  Ir33  1  0.25000000  0.75000000  0.88085300  1
  Ir  Ir34  1  0.25000000  0.75000000  0.61914700  1
  Ir  Ir35  1  0.00000000  0.00000000  0.86914700  1
  Ir  Ir36  1  0.50000000  0.50000000  0.13085300  1
  Ir  Ir37  1  0.25000000  0.25000000  0.38085300  1
  Ir  Ir38  1  0.25000000  0.25000000  0.11914700  1
  Ir  Ir39  1  0.00000000  0.50000000  0.36914700  1
