# generated using pymatgen
data_Be2CdP
_symmetry_space_group_name_H-M   'P 1'
_cell_length_a   6.09003600
_cell_length_b   6.09003600
_cell_length_c   6.09003600
_cell_angle_alpha   90.00000000
_cell_angle_beta   90.00000000
_cell_angle_gamma   90.00000000
_symmetry_Int_Tables_number   1
_chemical_formula_structural   Be2CdP
_chemical_formula_sum   'Be8 Cd4 P4'
_cell_volume   225.87053454
_cell_formula_units_Z   4
loop_
 _symmetry_equiv_pos_site_id
 _symmetry_equiv_pos_as_xyz
  1  'x, y, z'
loop_
 _atom_site_type_symbol
 _atom_site_label
 _atom_site_symmetry_multiplicity
 _atom_site_fract_x
 _atom_site_fract_y
 _atom_site_fract_z
 _atom_site_occupancy
  Be  Be0  1  0.25000000  0.75000000  0.75000000  1
  Be  Be1  1  0.25000000  0.25000000  0.75000000  1
  Be  Be2  1  0.25000000  0.25000000  0.25000000  1
  Be  Be3  1  0.25000000  0.75000000  0.25000000  1
  Be  Be4  1  0.75000000  0.75000000  0.25000000  1
  Be  Be5  1  0.75000000  0.25000000  0.25000000  1
  Be  Be6  1  0.75000000  0.25000000  0.75000000  1
  Be  Be7  1  0.75000000  0.75000000  0.75000000  1
  Cd  Cd8  1  0.00000000  0.00000000  0.00000000  1
  Cd  Cd9  1  0.00000000  0.50000000  0.50000000  1
  Cd  Cd10  1  0.50000000  0.00000000  0.50000000  1
  Cd  Cd11  1  0.50000000  0.50000000  0.00000000  1
  P  P12  1  0.50000000  0.00000000  0.00000000  1
  P  P13  1  0.50000000  0.50000000  0.50000000  1
  P  P14  1  0.00000000  0.00000000  0.50000000  1
  P  P15  1  0.00000000  0.50000000  0.00000000  1
