# generated using pymatgen
data_Te2Pd3
_symmetry_space_group_name_H-M   'P 1'
_cell_length_a   3.92183400
_cell_length_b   12.83813200
_cell_length_c   8.06374800
_cell_angle_alpha   90.00000000
_cell_angle_beta   90.00000000
_cell_angle_gamma   90.00000000
_symmetry_Int_Tables_number   1
_chemical_formula_structural   Te2Pd3
_chemical_formula_sum   'Te8 Pd12'
_cell_volume   406.00183008
_cell_formula_units_Z   4
loop_
 _symmetry_equiv_pos_site_id
 _symmetry_equiv_pos_as_xyz
  1  'x, y, z'
loop_
 _atom_site_type_symbol
 _atom_site_label
 _atom_site_symmetry_multiplicity
 _atom_site_fract_x
 _atom_site_fract_y
 _atom_site_fract_z
 _atom_site_occupancy
  Te  Te0  1  0.00000000  0.00000000  0.00000000  1
  Te  Te1  1  0.00000000  0.00000000  0.50000000  1
  Te  Te2  1  0.00000000  0.25764200  0.75000000  1
  Te  Te3  1  0.50000000  0.24235800  0.25000000  1
  Te  Te4  1  0.50000000  0.50000000  0.00000000  1
  Te  Te5  1  0.50000000  0.50000000  0.50000000  1
  Te  Te6  1  0.50000000  0.75764200  0.75000000  1
  Te  Te7  1  0.00000000  0.74235800  0.25000000  1
  Pd  Pd8  1  0.00000000  0.46513600  0.75000000  1
  Pd  Pd9  1  0.50000000  0.03486400  0.25000000  1
  Pd  Pd10  1  0.00000000  0.33775200  0.06644900  1
  Pd  Pd11  1  0.50000000  0.16224800  0.93355100  1
  Pd  Pd12  1  0.00000000  0.33775200  0.43355100  1
  Pd  Pd13  1  0.50000000  0.16224800  0.56644900  1
  Pd  Pd14  1  0.50000000  0.96513600  0.75000000  1
  Pd  Pd15  1  0.00000000  0.53486400  0.25000000  1
  Pd  Pd16  1  0.50000000  0.83775200  0.06644900  1
  Pd  Pd17  1  0.00000000  0.66224800  0.93355100  1
  Pd  Pd18  1  0.50000000  0.83775200  0.43355100  1
  Pd  Pd19  1  0.00000000  0.66224800  0.56644900  1
