# generated using pymatgen
data_SiTe2Os
_symmetry_space_group_name_H-M   'P 1'
_cell_length_a   6.81089000
_cell_length_b   6.81089000
_cell_length_c   6.81089000
_cell_angle_alpha   90.00000000
_cell_angle_beta   90.00000000
_cell_angle_gamma   90.00000000
_symmetry_Int_Tables_number   1
_chemical_formula_structural   SiTe2Os
_chemical_formula_sum   'Si4 Te8 Os4'
_cell_volume   315.94508137
_cell_formula_units_Z   4
loop_
 _symmetry_equiv_pos_site_id
 _symmetry_equiv_pos_as_xyz
  1  'x, y, z'
loop_
 _atom_site_type_symbol
 _atom_site_label
 _atom_site_symmetry_multiplicity
 _atom_site_fract_x
 _atom_site_fract_y
 _atom_site_fract_z
 _atom_site_occupancy
  Si  Si0  1  0.50000000  0.00000000  0.00000000  1
  Si  Si1  1  0.50000000  0.50000000  0.50000000  1
  Si  Si2  1  0.00000000  0.00000000  0.50000000  1
  Si  Si3  1  0.00000000  0.50000000  0.00000000  1
  Te  Te4  1  0.25000000  0.75000000  0.75000000  1
  Te  Te5  1  0.25000000  0.25000000  0.75000000  1
  Te  Te6  1  0.25000000  0.25000000  0.25000000  1
  Te  Te7  1  0.25000000  0.75000000  0.25000000  1
  Te  Te8  1  0.75000000  0.75000000  0.25000000  1
  Te  Te9  1  0.75000000  0.25000000  0.25000000  1
  Te  Te10  1  0.75000000  0.25000000  0.75000000  1
  Te  Te11  1  0.75000000  0.75000000  0.75000000  1
  Os  Os12  1  0.00000000  0.00000000  0.00000000  1
  Os  Os13  1  0.00000000  0.50000000  0.50000000  1
  Os  Os14  1  0.50000000  0.00000000  0.50000000  1
  Os  Os15  1  0.50000000  0.50000000  0.00000000  1
