# generated using pymatgen
data_Nb6Co7
_symmetry_space_group_name_H-M   'P 1'
_cell_length_a   4.89768954
_cell_length_b   4.89768954
_cell_length_c   26.17694016
_cell_angle_alpha   90.00000000
_cell_angle_beta   90.00000000
_cell_angle_gamma   120.00000000
_symmetry_Int_Tables_number   1
_chemical_formula_structural   Nb6Co7
_chemical_formula_sum   'Nb18 Co21'
_cell_volume   543.79100183
_cell_formula_units_Z   3
loop_
 _symmetry_equiv_pos_site_id
 _symmetry_equiv_pos_as_xyz
  1  'x, y, z'
loop_
 _atom_site_type_symbol
 _atom_site_label
 _atom_site_symmetry_multiplicity
 _atom_site_fract_x
 _atom_site_fract_y
 _atom_site_fract_z
 _atom_site_occupancy
  Nb  Nb0  1  0.66666667  0.33333333  0.16795233  1
  Nb  Nb1  1  0.00000000  0.00000000  0.16538100  1
  Nb  Nb2  1  0.33333333  0.66666667  0.32290667  1
  Nb  Nb3  1  0.33333333  0.66666667  0.01042667  1
  Nb  Nb4  1  0.33333333  0.66666667  0.21779267  1
  Nb  Nb5  1  0.33333333  0.66666667  0.11554067  1
  Nb  Nb6  1  0.33333333  0.66666667  0.50128567  1
  Nb  Nb7  1  0.66666667  0.33333333  0.49871433  1
  Nb  Nb8  1  0.00000000  0.00000000  0.65624000  1
  Nb  Nb9  1  0.00000000  0.00000000  0.34376000  1
  Nb  Nb10  1  0.00000000  0.00000000  0.55112600  1
  Nb  Nb11  1  0.00000000  0.00000000  0.44887400  1
  Nb  Nb12  1  0.00000000  0.00000000  0.83461900  1
  Nb  Nb13  1  0.33333333  0.66666667  0.83204767  1
  Nb  Nb14  1  0.66666667  0.33333333  0.98957333  1
  Nb  Nb15  1  0.66666667  0.33333333  0.67709333  1
  Nb  Nb16  1  0.66666667  0.33333333  0.88445933  1
  Nb  Nb17  1  0.66666667  0.33333333  0.78220733  1
  Co  Co18  1  0.00000000  0.00000000  0.00000000  1
  Co  Co19  1  0.83481733  0.16518267  0.07596567  1
  Co  Co20  1  0.83481733  0.66963467  0.07596567  1
  Co  Co21  1  0.33036533  0.16518267  0.07596567  1
  Co  Co22  1  0.83184933  0.16815067  0.25736767  1
  Co  Co23  1  0.83184933  0.66369867  0.25736767  1
  Co  Co24  1  0.33630133  0.16815067  0.25736767  1
  Co  Co25  1  0.66666667  0.33333333  0.33333333  1
  Co  Co26  1  0.50148400  0.49851600  0.40929900  1
  Co  Co27  1  0.50148400  0.00296800  0.40929900  1
  Co  Co28  1  0.99703200  0.49851600  0.40929900  1
  Co  Co29  1  0.49851600  0.50148400  0.59070100  1
  Co  Co30  1  0.49851600  0.99703200  0.59070100  1
  Co  Co31  1  0.00296800  0.50148400  0.59070100  1
  Co  Co32  1  0.33333333  0.66666667  0.66666667  1
  Co  Co33  1  0.16815067  0.83184933  0.74263233  1
  Co  Co34  1  0.16815067  0.33630133  0.74263233  1
  Co  Co35  1  0.66369867  0.83184933  0.74263233  1
  Co  Co36  1  0.16518267  0.83481733  0.92403433  1
  Co  Co37  1  0.16518267  0.33036533  0.92403433  1
  Co  Co38  1  0.66963467  0.83481733  0.92403433  1
