# generated using pymatgen
data_Hf5N5O2
_symmetry_space_group_name_H-M   'P 1'
_cell_length_a   10.35955200
_cell_length_b   3.06914200
_cell_length_c   9.16992847
_cell_angle_alpha   90.00000000
_cell_angle_beta   105.81764126
_cell_angle_gamma   90.00000000
_symmetry_Int_Tables_number   1
_chemical_formula_structural   Hf5N5O2
_chemical_formula_sum   'Hf10 N10 O4'
_cell_volume   280.51721492
_cell_formula_units_Z   2
loop_
 _symmetry_equiv_pos_site_id
 _symmetry_equiv_pos_as_xyz
  1  'x, y, z'
loop_
 _atom_site_type_symbol
 _atom_site_label
 _atom_site_symmetry_multiplicity
 _atom_site_fract_x
 _atom_site_fract_y
 _atom_site_fract_z
 _atom_site_occupancy
  Hf  Hf0  1  0.60932900  0.50000000  0.92003000  1
  Hf  Hf1  1  0.69848800  0.00000000  0.29958000  1
  Hf  Hf2  1  0.80635300  0.50000000  0.70210600  1
  Hf  Hf3  1  0.88778900  0.00000000  0.08143100  1
  Hf  Hf4  1  0.98944100  0.00000000  0.50625700  1
  Hf  Hf5  1  0.10932900  0.00000000  0.92003000  1
  Hf  Hf6  1  0.19848800  0.50000000  0.29958000  1
  Hf  Hf7  1  0.30635300  0.00000000  0.70210600  1
  Hf  Hf8  1  0.38778900  0.50000000  0.08143100  1
  Hf  Hf9  1  0.48944100  0.50000000  0.50625700  1
  N  N10  1  0.50835300  0.00000000  0.01463500  1
  N  N11  1  0.74041600  0.00000000  0.85609000  1
  N  N12  1  0.76604100  0.50000000  0.15201700  1
  N  N13  1  0.83815900  0.50000000  0.44697900  1
  N  N14  1  0.95493900  0.00000000  0.71636500  1
  N  N15  1  0.00835300  0.50000000  0.01463500  1
  N  N16  1  0.24041600  0.50000000  0.85609000  1
  N  N17  1  0.26604100  0.00000000  0.15201700  1
  N  N18  1  0.33815900  0.00000000  0.44697900  1
  N  N19  1  0.45493900  0.50000000  0.71636500  1
  O  O20  1  0.54564700  0.50000000  0.29462000  1
  O  O21  1  0.65378100  0.00000000  0.55182100  1
  O  O22  1  0.04564700  0.00000000  0.29462000  1
  O  O23  1  0.15378100  0.50000000  0.55182100  1
