# generated using pymatgen
data_Li2CuS2
_symmetry_space_group_name_H-M   'P 1'
_cell_length_a   7.89443171
_cell_length_b   7.94202810
_cell_length_c   5.80595841
_cell_angle_alpha   90.00000000
_cell_angle_beta   90.00000000
_cell_angle_gamma   90.00000000
_symmetry_Int_Tables_number   1
_chemical_formula_structural   Li2CuS2
_chemical_formula_sum   'Li8 Cu4 S8'
_cell_volume   364.02081039
_cell_formula_units_Z   4
loop_
 _symmetry_equiv_pos_site_id
 _symmetry_equiv_pos_as_xyz
  1  'x, y, z'
loop_
 _atom_site_type_symbol
 _atom_site_label
 _atom_site_symmetry_multiplicity
 _atom_site_fract_x
 _atom_site_fract_y
 _atom_site_fract_z
 _atom_site_occupancy
  Li  Li0  1  0.25323501  0.74995716  0.75168574  1
  Li  Li1  1  0.75323501  0.75004284  0.75168574  1
  Li  Li2  1  0.25323501  0.74995716  0.24831426  1
  Li  Li3  1  0.75323501  0.75004284  0.24831426  1
  Li  Li4  1  0.75323501  0.24995716  0.75168574  1
  Li  Li5  1  0.25323501  0.25004284  0.75168574  1
  Li  Li6  1  0.75323501  0.24995716  0.24831426  1
  Li  Li7  1  0.25323501  0.25004284  0.24831426  1
  Cu  Cu8  1  0.49919659  0.50000000  0.25142128  1
  Cu  Cu9  1  0.49919659  0.50000000  0.74857872  1
  Cu  Cu10  1  0.99919659  0.00000000  0.25142128  1
  Cu  Cu11  1  0.99919659  0.00000000  0.74857872  1
  S  S12  1  0.27259706  0.50000000  0.00000000  1
  S  S13  1  0.00429591  0.77166762  0.50000000  1
  S  S14  1  0.50429591  0.72833238  0.50000000  1
  S  S15  1  0.22814394  0.00000000  0.00000000  1
  S  S16  1  0.77259706  0.00000000  0.00000000  1
  S  S17  1  0.50429591  0.27166762  0.50000000  1
  S  S18  1  0.00429591  0.22833238  0.50000000  1
  S  S19  1  0.72814394  0.50000000  0.00000000  1
