# generated using pymatgen
data_Na3(CuO2)2
_symmetry_space_group_name_H-M   'P 1'
_cell_length_a   10.87126400
_cell_length_b   2.88965800
_cell_length_c   8.16685753
_cell_angle_alpha   90.00000000
_cell_angle_beta   114.15167515
_cell_angle_gamma   90.00000000
_symmetry_Int_Tables_number   1
_chemical_formula_structural   Na3(CuO2)2
_chemical_formula_sum   'Na6 Cu4 O8'
_cell_volume   234.09812519
_cell_formula_units_Z   2
loop_
 _symmetry_equiv_pos_site_id
 _symmetry_equiv_pos_as_xyz
  1  'x, y, z'
loop_
 _atom_site_type_symbol
 _atom_site_label
 _atom_site_symmetry_multiplicity
 _atom_site_fract_x
 _atom_site_fract_y
 _atom_site_fract_z
 _atom_site_occupancy
  Na  Na0  1  0.87789900  0.50000000  0.11649200  1
  Na  Na1  1  0.00000000  0.00000000  0.50000000  1
  Na  Na2  1  0.12210100  0.50000000  0.88350800  1
  Na  Na3  1  0.37789900  0.00000000  0.11649200  1
  Na  Na4  1  0.50000000  0.50000000  0.50000000  1
  Na  Na5  1  0.62210100  0.00000000  0.88350800  1
  Cu  Cu6  1  0.67131300  0.50000000  0.27938300  1
  Cu  Cu7  1  0.32868700  0.50000000  0.72061700  1
  Cu  Cu8  1  0.17131300  0.00000000  0.27938300  1
  Cu  Cu9  1  0.82868700  0.00000000  0.72061700  1
  O  O10  1  0.25188700  0.00000000  0.80364900  1
  O  O11  1  0.91510700  0.50000000  0.65485900  1
  O  O12  1  0.08489300  0.50000000  0.34514100  1
  O  O13  1  0.74811300  0.00000000  0.19635100  1
  O  O14  1  0.75188700  0.50000000  0.80364900  1
  O  O15  1  0.41510700  0.00000000  0.65485900  1
  O  O16  1  0.58489300  0.00000000  0.34514100  1
  O  O17  1  0.24811300  0.50000000  0.19635100  1
