# generated using pymatgen
data_Ca5Si3
_symmetry_space_group_name_H-M   'P 1'
_cell_length_a   7.64314000
_cell_length_b   7.64314000
_cell_length_c   14.78617000
_cell_angle_alpha   90.00000000
_cell_angle_beta   90.00000000
_cell_angle_gamma   90.00000000
_symmetry_Int_Tables_number   1
_chemical_formula_structural   Ca5Si3
_chemical_formula_sum   'Ca20 Si12'
_cell_volume   863.77240283
_cell_formula_units_Z   4
loop_
 _symmetry_equiv_pos_site_id
 _symmetry_equiv_pos_as_xyz
  1  'x, y, z'
loop_
 _atom_site_type_symbol
 _atom_site_label
 _atom_site_symmetry_multiplicity
 _atom_site_fract_x
 _atom_site_fract_y
 _atom_site_fract_z
 _atom_site_occupancy
  Ca  Ca0  1  0.32006400  0.17993600  0.35998800  1
  Ca  Ca1  1  0.17993600  0.67993600  0.35998800  1
  Ca  Ca2  1  0.82006400  0.32006400  0.35998800  1
  Ca  Ca3  1  0.32006400  0.82006400  0.14001200  1
  Ca  Ca4  1  0.67993600  0.82006400  0.35998800  1
  Ca  Ca5  1  0.17993600  0.32006400  0.14001200  1
  Ca  Ca6  1  0.82006400  0.67993600  0.14001200  1
  Ca  Ca7  1  0.67993600  0.17993600  0.14001200  1
  Ca  Ca8  1  0.00000000  0.00000000  0.00000000  1
  Ca  Ca9  1  0.50000000  0.50000000  0.00000000  1
  Ca  Ca10  1  0.82006400  0.67993600  0.85998800  1
  Ca  Ca11  1  0.67993600  0.17993600  0.85998800  1
  Ca  Ca12  1  0.32006400  0.82006400  0.85998800  1
  Ca  Ca13  1  0.82006400  0.32006400  0.64001200  1
  Ca  Ca14  1  0.17993600  0.32006400  0.85998800  1
  Ca  Ca15  1  0.67993600  0.82006400  0.64001200  1
  Ca  Ca16  1  0.32006400  0.17993600  0.64001200  1
  Ca  Ca17  1  0.17993600  0.67993600  0.64001200  1
  Ca  Ca18  1  0.50000000  0.50000000  0.50000000  1
  Ca  Ca19  1  0.00000000  0.00000000  0.50000000  1
  Si  Si20  1  0.11268200  0.61268200  0.00000000  1
  Si  Si21  1  0.38731800  0.11268200  0.00000000  1
  Si  Si22  1  0.61268200  0.88731800  0.00000000  1
  Si  Si23  1  0.88731800  0.38731800  0.00000000  1
  Si  Si24  1  0.00000000  0.00000000  0.25000000  1
  Si  Si25  1  0.50000000  0.50000000  0.25000000  1
  Si  Si26  1  0.61268200  0.11268200  0.50000000  1
  Si  Si27  1  0.88731800  0.61268200  0.50000000  1
  Si  Si28  1  0.11268200  0.38731800  0.50000000  1
  Si  Si29  1  0.38731800  0.88731800  0.50000000  1
  Si  Si30  1  0.50000000  0.50000000  0.75000000  1
  Si  Si31  1  0.00000000  0.00000000  0.75000000  1
