# generated using pymatgen
data_NaTiS2
_symmetry_space_group_name_H-M   'P 1'
_cell_length_a   3.56665197
_cell_length_b   3.56665197
_cell_length_c   20.36048271
_cell_angle_alpha   90.00000000
_cell_angle_beta   90.00000000
_cell_angle_gamma   120.00000000
_symmetry_Int_Tables_number   1
_chemical_formula_structural   NaTiS2
_chemical_formula_sum   'Na3 Ti3 S6'
_cell_volume   224.30562689
_cell_formula_units_Z   3
loop_
 _symmetry_equiv_pos_site_id
 _symmetry_equiv_pos_as_xyz
  1  'x, y, z'
loop_
 _atom_site_type_symbol
 _atom_site_label
 _atom_site_symmetry_multiplicity
 _atom_site_fract_x
 _atom_site_fract_y
 _atom_site_fract_z
 _atom_site_occupancy
  Na  Na0  1  0.00000000  0.00000000  0.16684800  1
  Na  Na1  1  0.66666667  0.33333333  0.50018133  1
  Na  Na2  1  0.33333333  0.66666667  0.83351467  1
  Ti  Ti3  1  0.66666667  0.33333333  0.33097433  1
  Ti  Ti4  1  0.33333333  0.66666667  0.66430767  1
  Ti  Ti5  1  0.00000000  0.00000000  0.99764100  1
  S  S6  1  0.33333333  0.66666667  0.26155267  1
  S  S7  1  0.33333333  0.66666667  0.06729267  1
  S  S8  1  0.00000000  0.00000000  0.59488600  1
  S  S9  1  0.00000000  0.00000000  0.40062600  1
  S  S10  1  0.66666667  0.33333333  0.92821933  1
  S  S11  1  0.66666667  0.33333333  0.73395933  1
