# generated using pymatgen
data_ReO3
_symmetry_space_group_name_H-M   'P 1'
_cell_length_a   5.34995349
_cell_length_b   5.34995349
_cell_length_c   13.16343303
_cell_angle_alpha   90.00000000
_cell_angle_beta   90.00000000
_cell_angle_gamma   120.00000000
_symmetry_Int_Tables_number   1
_chemical_formula_structural   ReO3
_chemical_formula_sum   'Re6 O18'
_cell_volume   326.28703165
_cell_formula_units_Z   6
loop_
 _symmetry_equiv_pos_site_id
 _symmetry_equiv_pos_as_xyz
  1  'x, y, z'
loop_
 _atom_site_type_symbol
 _atom_site_label
 _atom_site_symmetry_multiplicity
 _atom_site_fract_x
 _atom_site_fract_y
 _atom_site_fract_z
 _atom_site_occupancy
  Re  Re0  1  0.33333333  0.66666667  0.16666667  1
  Re  Re1  1  0.00000000  0.00000000  0.00000000  1
  Re  Re2  1  1.00000000  0.00000000  0.50000000  1
  Re  Re3  1  0.66666667  0.33333333  0.33333333  1
  Re  Re4  1  0.66666667  0.33333333  0.83333333  1
  Re  Re5  1  0.33333333  0.66666667  0.66666667  1
  O  O6  1  0.19367767  0.86034433  0.08333333  1
  O  O7  1  0.00000000  0.52701100  0.25000000  1
  O  O8  1  0.52701100  0.00000000  0.25000000  1
  O  O9  1  0.13965567  0.33333333  0.08333333  1
  O  O10  1  0.66666667  0.80632233  0.08333333  1
  O  O11  1  0.47298900  0.47298900  0.25000000  1
  O  O12  1  0.86034433  0.19367767  0.41666667  1
  O  O13  1  0.66666667  0.86034433  0.58333333  1
  O  O14  1  0.19367767  0.33333333  0.58333333  1
  O  O15  1  0.80632233  0.66666667  0.41666667  1
  O  O16  1  0.33333333  0.13965567  0.41666667  1
  O  O17  1  0.13965567  0.80632233  0.58333333  1
  O  O18  1  0.52701100  0.52701100  0.75000000  1
  O  O19  1  0.33333333  0.19367767  0.91666667  1
  O  O20  1  0.86034433  0.66666667  0.91666667  1
  O  O21  1  0.47298900  0.00000000  0.75000000  1
  O  O22  1  0.00000000  0.47298900  0.75000000  1
  O  O23  1  0.80632233  0.13965567  0.91666667  1
