# generated using pymatgen
data_TaTiO4
_symmetry_space_group_name_H-M   'P 1'
_cell_length_a   6.75139600
_cell_length_b   6.75139600
_cell_length_c   6.08606000
_cell_angle_alpha   90.00000000
_cell_angle_beta   90.00000000
_cell_angle_gamma   90.00000000
_symmetry_Int_Tables_number   1
_chemical_formula_structural   TaTiO4
_chemical_formula_sum   'Ta4 Ti4 O16'
_cell_volume   277.41081850
_cell_formula_units_Z   4
loop_
 _symmetry_equiv_pos_site_id
 _symmetry_equiv_pos_as_xyz
  1  'x, y, z'
loop_
 _atom_site_type_symbol
 _atom_site_label
 _atom_site_symmetry_multiplicity
 _atom_site_fract_x
 _atom_site_fract_y
 _atom_site_fract_z
 _atom_site_occupancy
  Ta  Ta0  1  0.00000000  0.00000000  0.25619700  1
  Ta  Ta1  1  0.50000000  0.00000000  0.50619700  1
  Ta  Ta2  1  0.50000000  0.50000000  0.75619700  1
  Ta  Ta3  1  0.00000000  0.50000000  0.00619700  1
  Ti  Ti4  1  0.50000000  0.50000000  0.24648800  1
  Ti  Ti5  1  0.50000000  0.00000000  0.99648800  1
  Ti  Ti6  1  0.00000000  0.00000000  0.74648800  1
  Ti  Ti7  1  0.00000000  0.50000000  0.49648800  1
  O  O8  1  0.69931350  0.00000000  0.74492750  1
  O  O9  1  0.69871100  0.00000000  0.25373000  1
  O  O10  1  0.00000000  0.80068650  0.49492750  1
  O  O11  1  0.50000000  0.30128900  0.50373000  1
  O  O12  1  0.00000000  0.19871100  0.00373000  1
  O  O13  1  0.00000000  0.19931350  0.49492750  1
  O  O14  1  0.80128900  0.50000000  0.75373000  1
  O  O15  1  0.80068650  0.50000000  0.24492750  1
  O  O16  1  0.19931350  0.50000000  0.24492750  1
  O  O17  1  0.19871100  0.50000000  0.75373000  1
  O  O18  1  0.50000000  0.30068650  0.99492750  1
  O  O19  1  0.00000000  0.80128900  0.00373000  1
  O  O20  1  0.50000000  0.69871100  0.50373000  1
  O  O21  1  0.50000000  0.69931350  0.99492750  1
  O  O22  1  0.30128900  0.00000000  0.25373000  1
  O  O23  1  0.30068650  0.00000000  0.74492750  1
