# generated using pymatgen
data_Zr5N5O2
_symmetry_space_group_name_H-M   'P 1'
_cell_length_a   10.60348400
_cell_length_b   3.11537200
_cell_length_c   9.25826218
_cell_angle_alpha   90.00000000
_cell_angle_beta   105.60606426
_cell_angle_gamma   90.00000000
_symmetry_Int_Tables_number   1
_chemical_formula_structural   Zr5N5O2
_chemical_formula_sum   'Zr10 N10 O4'
_cell_volume   294.56065148
_cell_formula_units_Z   2
loop_
 _symmetry_equiv_pos_site_id
 _symmetry_equiv_pos_as_xyz
  1  'x, y, z'
loop_
 _atom_site_type_symbol
 _atom_site_label
 _atom_site_symmetry_multiplicity
 _atom_site_fract_x
 _atom_site_fract_y
 _atom_site_fract_z
 _atom_site_occupancy
  Zr  Zr0  1  0.62100400  0.50000000  0.92889700  1
  Zr  Zr1  1  0.70652400  0.00000000  0.30972000  1
  Zr  Zr2  1  0.80117000  0.50000000  0.69265200  1
  Zr  Zr3  1  0.89594600  0.00000000  0.08194600  1
  Zr  Zr4  1  0.50420600  0.50000000  0.50462300  1
  Zr  Zr5  1  0.12100400  0.00000000  0.92889700  1
  Zr  Zr6  1  0.20652400  0.50000000  0.30972000  1
  Zr  Zr7  1  0.30117000  0.00000000  0.69265200  1
  Zr  Zr8  1  0.39594600  0.50000000  0.08194600  1
  Zr  Zr9  1  0.00420600  0.00000000  0.50462300  1
  N  N10  1  0.51303200  0.00000000  0.01175300  1
  N  N11  1  0.66043700  0.00000000  0.55788000  1
  N  N12  1  0.74490000  0.00000000  0.85698500  1
  N  N13  1  0.77189500  0.50000000  0.15200500  1
  N  N14  1  0.84733600  0.50000000  0.44898600  1
  N  N15  1  0.01303200  0.50000000  0.01175300  1
  N  N16  1  0.16043700  0.50000000  0.55788000  1
  N  N17  1  0.24490000  0.50000000  0.85698500  1
  N  N18  1  0.27189500  0.00000000  0.15200500  1
  N  N19  1  0.34733600  0.00000000  0.44898600  1
  O  O20  1  0.55134700  0.50000000  0.29282100  1
  O  O21  1  0.96012300  0.00000000  0.71818500  1
  O  O22  1  0.05134700  0.00000000  0.29282100  1
  O  O23  1  0.46012300  0.50000000  0.71818500  1
