# generated using pymatgen
data_Hf3Zn3N
_symmetry_space_group_name_H-M   'P 1'
_cell_length_a   12.04266400
_cell_length_b   12.04266400
_cell_length_c   12.04266400
_cell_angle_alpha   90.00000000
_cell_angle_beta   90.00000000
_cell_angle_gamma   90.00000000
_symmetry_Int_Tables_number   1
_chemical_formula_structural   Hf3Zn3N
_chemical_formula_sum   'Hf48 Zn48 N16'
_cell_volume   1746.49645347
_cell_formula_units_Z   16
loop_
 _symmetry_equiv_pos_site_id
 _symmetry_equiv_pos_as_xyz
  1  'x, y, z'
loop_
 _atom_site_type_symbol
 _atom_site_label
 _atom_site_symmetry_multiplicity
 _atom_site_fract_x
 _atom_site_fract_y
 _atom_site_fract_z
 _atom_site_occupancy
  Hf  Hf0  1  0.18495900  0.00000000  0.50000000  1
  Hf  Hf1  1  0.50000000  0.68495900  0.50000000  1
  Hf  Hf2  1  0.00000000  0.00000000  0.31504100  1
  Hf  Hf3  1  0.81504100  0.00000000  0.50000000  1
  Hf  Hf4  1  0.50000000  0.31504100  0.50000000  1
  Hf  Hf5  1  0.50000000  0.00000000  0.18495900  1
  Hf  Hf6  1  0.06504100  0.75000000  0.25000000  1
  Hf  Hf7  1  0.25000000  0.56504100  0.25000000  1
  Hf  Hf8  1  0.25000000  0.75000000  0.43495900  1
  Hf  Hf9  1  0.43495900  0.75000000  0.25000000  1
  Hf  Hf10  1  0.25000000  0.93495900  0.25000000  1
  Hf  Hf11  1  0.25000000  0.75000000  0.06504100  1
  Hf  Hf12  1  0.18495900  0.50000000  0.00000000  1
  Hf  Hf13  1  0.50000000  0.18495900  0.00000000  1
  Hf  Hf14  1  0.00000000  0.50000000  0.81504100  1
  Hf  Hf15  1  0.81504100  0.50000000  0.00000000  1
  Hf  Hf16  1  0.50000000  0.81504100  0.00000000  1
  Hf  Hf17  1  0.50000000  0.50000000  0.68495900  1
  Hf  Hf18  1  0.06504100  0.25000000  0.75000000  1
  Hf  Hf19  1  0.25000000  0.06504100  0.75000000  1
  Hf  Hf20  1  0.25000000  0.25000000  0.93495900  1
  Hf  Hf21  1  0.43495900  0.25000000  0.75000000  1
  Hf  Hf22  1  0.25000000  0.43495900  0.75000000  1
  Hf  Hf23  1  0.25000000  0.25000000  0.56504100  1
  Hf  Hf24  1  0.68495900  0.00000000  0.00000000  1
  Hf  Hf25  1  0.00000000  0.68495900  0.00000000  1
  Hf  Hf26  1  0.50000000  0.00000000  0.81504100  1
  Hf  Hf27  1  0.31504100  0.00000000  0.00000000  1
  Hf  Hf28  1  0.00000000  0.31504100  0.00000000  1
  Hf  Hf29  1  0.00000000  0.00000000  0.68495900  1
  Hf  Hf30  1  0.56504100  0.75000000  0.75000000  1
  Hf  Hf31  1  0.75000000  0.56504100  0.75000000  1
  Hf  Hf32  1  0.75000000  0.75000000  0.93495900  1
  Hf  Hf33  1  0.93495900  0.75000000  0.75000000  1
  Hf  Hf34  1  0.75000000  0.93495900  0.75000000  1
  Hf  Hf35  1  0.75000000  0.75000000  0.56504100  1
  Hf  Hf36  1  0.68495900  0.50000000  0.50000000  1
  Hf  Hf37  1  0.00000000  0.18495900  0.50000000  1
  Hf  Hf38  1  0.50000000  0.50000000  0.31504100  1
  Hf  Hf39  1  0.31504100  0.50000000  0.50000000  1
  Hf  Hf40  1  0.00000000  0.81504100  0.50000000  1
  Hf  Hf41  1  0.00000000  0.50000000  0.18495900  1
  Hf  Hf42  1  0.56504100  0.25000000  0.25000000  1
  Hf  Hf43  1  0.75000000  0.06504100  0.25000000  1
  Hf  Hf44  1  0.75000000  0.25000000  0.43495900  1
  Hf  Hf45  1  0.93495900  0.25000000  0.25000000  1
  Hf  Hf46  1  0.75000000  0.43495900  0.25000000  1
  Hf  Hf47  1  0.75000000  0.25000000  0.06504100  1
  Zn  Zn48  1  0.58263367  0.08263367  0.41736633  1
  Zn  Zn49  1  0.41736633  0.91736633  0.41736633  1
  Zn  Zn50  1  0.91736633  0.08263367  0.08263367  1
  Zn  Zn51  1  0.08263367  0.91736633  0.08263367  1
  Zn  Zn52  1  0.16736633  0.16736633  0.33263367  1
  Zn  Zn53  1  0.33263367  0.33263367  0.33263367  1
  Zn  Zn54  1  0.33263367  0.16736633  0.16736633  1
  Zn  Zn55  1  0.16736633  0.33263367  0.16736633  1
  Zn  Zn56  1  0.87500000  0.87500000  0.12500000  1
  Zn  Zn57  1  0.12500000  0.12500000  0.12500000  1
  Zn  Zn58  1  0.62500000  0.87500000  0.37500000  1
  Zn  Zn59  1  0.37500000  0.12500000  0.37500000  1
  Zn  Zn60  1  0.58263367  0.58263367  0.91736633  1
  Zn  Zn61  1  0.41736633  0.41736633  0.91736633  1
  Zn  Zn62  1  0.91736633  0.58263367  0.58263367  1
  Zn  Zn63  1  0.08263367  0.41736633  0.58263367  1
  Zn  Zn64  1  0.16736633  0.66736633  0.83263367  1
  Zn  Zn65  1  0.33263367  0.83263367  0.83263367  1
  Zn  Zn66  1  0.33263367  0.66736633  0.66736633  1
  Zn  Zn67  1  0.16736633  0.83263367  0.66736633  1
  Zn  Zn68  1  0.87500000  0.37500000  0.62500000  1
  Zn  Zn69  1  0.12500000  0.62500000  0.62500000  1
  Zn  Zn70  1  0.62500000  0.37500000  0.87500000  1
  Zn  Zn71  1  0.37500000  0.62500000  0.87500000  1
  Zn  Zn72  1  0.08263367  0.08263367  0.91736633  1
  Zn  Zn73  1  0.91736633  0.91736633  0.91736633  1
  Zn  Zn74  1  0.41736633  0.08263367  0.58263367  1
  Zn  Zn75  1  0.58263367  0.91736633  0.58263367  1
  Zn  Zn76  1  0.66736633  0.16736633  0.83263367  1
  Zn  Zn77  1  0.83263367  0.33263367  0.83263367  1
  Zn  Zn78  1  0.83263367  0.16736633  0.66736633  1
  Zn  Zn79  1  0.66736633  0.33263367  0.66736633  1
  Zn  Zn80  1  0.37500000  0.87500000  0.62500000  1
  Zn  Zn81  1  0.62500000  0.12500000  0.62500000  1
  Zn  Zn82  1  0.12500000  0.87500000  0.87500000  1
  Zn  Zn83  1  0.87500000  0.12500000  0.87500000  1
  Zn  Zn84  1  0.08263367  0.58263367  0.41736633  1
  Zn  Zn85  1  0.91736633  0.41736633  0.41736633  1
  Zn  Zn86  1  0.41736633  0.58263367  0.08263367  1
  Zn  Zn87  1  0.58263367  0.41736633  0.08263367  1
  Zn  Zn88  1  0.66736633  0.66736633  0.33263367  1
  Zn  Zn89  1  0.83263367  0.83263367  0.33263367  1
  Zn  Zn90  1  0.83263367  0.66736633  0.16736633  1
  Zn  Zn91  1  0.66736633  0.83263367  0.16736633  1
  Zn  Zn92  1  0.37500000  0.37500000  0.12500000  1
  Zn  Zn93  1  0.62500000  0.62500000  0.12500000  1
  Zn  Zn94  1  0.12500000  0.37500000  0.37500000  1
  Zn  Zn95  1  0.87500000  0.62500000  0.37500000  1
  N  N96  1  0.37500000  0.87500000  0.12500000  1
  N  N97  1  0.12500000  0.62500000  0.12500000  1
  N  N98  1  0.12500000  0.87500000  0.37500000  1
  N  N99  1  0.37500000  0.62500000  0.37500000  1
  N  N100  1  0.37500000  0.37500000  0.62500000  1
  N  N101  1  0.12500000  0.12500000  0.62500000  1
  N  N102  1  0.12500000  0.37500000  0.87500000  1
  N  N103  1  0.37500000  0.12500000  0.87500000  1
  N  N104  1  0.87500000  0.87500000  0.62500000  1
  N  N105  1  0.62500000  0.62500000  0.62500000  1
  N  N106  1  0.62500000  0.87500000  0.87500000  1
  N  N107  1  0.87500000  0.62500000  0.87500000  1
  N  N108  1  0.87500000  0.37500000  0.12500000  1
  N  N109  1  0.62500000  0.12500000  0.12500000  1
  N  N110  1  0.62500000  0.37500000  0.37500000  1
  N  N111  1  0.87500000  0.12500000  0.37500000  1
