# generated using pymatgen
data_BW
_symmetry_space_group_name_H-M   'P 1'
_cell_length_a   3.14574200
_cell_length_b   3.14574200
_cell_length_c   17.04373600
_cell_angle_alpha   90.00000000
_cell_angle_beta   90.00000000
_cell_angle_gamma   90.00000000
_symmetry_Int_Tables_number   1
_chemical_formula_structural   BW
_chemical_formula_sum   'B8 W8'
_cell_volume   168.65957444
_cell_formula_units_Z   8
loop_
 _symmetry_equiv_pos_site_id
 _symmetry_equiv_pos_as_xyz
  1  'x, y, z'
loop_
 _atom_site_type_symbol
 _atom_site_label
 _atom_site_symmetry_multiplicity
 _atom_site_fract_x
 _atom_site_fract_y
 _atom_site_fract_z
 _atom_site_occupancy
  B  B0  1  0.00000000  0.50000000  0.40620100  1
  B  B1  1  0.00000000  0.00000000  0.15620100  1
  B  B2  1  0.50000000  0.50000000  0.34379900  1
  B  B3  1  0.00000000  0.50000000  0.09379900  1
  B  B4  1  0.50000000  0.00000000  0.90620100  1
  B  B5  1  0.50000000  0.50000000  0.65620100  1
  B  B6  1  0.00000000  0.00000000  0.84379900  1
  B  B7  1  0.50000000  0.00000000  0.59379900  1
  W  W8  1  0.50000000  0.00000000  0.05313900  1
  W  W9  1  0.00000000  0.00000000  0.30313900  1
  W  W10  1  0.50000000  0.50000000  0.19686100  1
  W  W11  1  0.50000000  0.00000000  0.44686100  1
  W  W12  1  0.00000000  0.50000000  0.55313900  1
  W  W13  1  0.50000000  0.50000000  0.80313900  1
  W  W14  1  0.00000000  0.00000000  0.69686100  1
  W  W15  1  0.00000000  0.50000000  0.94686100  1
