# generated using pymatgen
data_Ba(PdO2)2
_symmetry_space_group_name_H-M   'P 1'
_cell_length_a   6.37707600
_cell_length_b   6.37707600
_cell_length_c   10.45690600
_cell_angle_alpha   90.00000000
_cell_angle_beta   90.00000000
_cell_angle_gamma   90.00000000
_symmetry_Int_Tables_number   1
_chemical_formula_structural   Ba(PdO2)2
_chemical_formula_sum   'Ba4 Pd8 O16'
_cell_volume   425.25202432
_cell_formula_units_Z   4
loop_
 _symmetry_equiv_pos_site_id
 _symmetry_equiv_pos_as_xyz
  1  'x, y, z'
loop_
 _atom_site_type_symbol
 _atom_site_label
 _atom_site_symmetry_multiplicity
 _atom_site_fract_x
 _atom_site_fract_y
 _atom_site_fract_z
 _atom_site_occupancy
  Ba  Ba0  1  0.00000000  0.50000000  0.25000000  1
  Ba  Ba1  1  0.00000000  0.00000000  0.00000000  1
  Ba  Ba2  1  0.50000000  0.00000000  0.75000000  1
  Ba  Ba3  1  0.50000000  0.50000000  0.50000000  1
  Pd  Pd4  1  0.50000000  0.75000000  0.12500000  1
  Pd  Pd5  1  0.75000000  0.00000000  0.37500000  1
  Pd  Pd6  1  0.25000000  0.00000000  0.37500000  1
  Pd  Pd7  1  0.50000000  0.25000000  0.12500000  1
  Pd  Pd8  1  0.00000000  0.25000000  0.62500000  1
  Pd  Pd9  1  0.25000000  0.50000000  0.87500000  1
  Pd  Pd10  1  0.75000000  0.50000000  0.87500000  1
  Pd  Pd11  1  0.00000000  0.75000000  0.62500000  1
  O  O12  1  0.23658500  0.14860000  0.20694200  1
  O  O13  1  0.85140000  0.73658500  0.45694200  1
  O  O14  1  0.14860000  0.26341500  0.45694200  1
  O  O15  1  0.23658500  0.64860000  0.04305800  1
  O  O16  1  0.76341500  0.85140000  0.20694200  1
  O  O17  1  0.35140000  0.73658500  0.29305800  1
  O  O18  1  0.64860000  0.26341500  0.29305800  1
  O  O19  1  0.76341500  0.35140000  0.04305800  1
  O  O20  1  0.73658500  0.64860000  0.70694200  1
  O  O21  1  0.35140000  0.23658500  0.95694200  1
  O  O22  1  0.64860000  0.76341500  0.95694200  1
  O  O23  1  0.73658500  0.14860000  0.54305800  1
  O  O24  1  0.26341500  0.35140000  0.70694200  1
  O  O25  1  0.85140000  0.23658500  0.79305800  1
  O  O26  1  0.14860000  0.76341500  0.79305800  1
  O  O27  1  0.26341500  0.85140000  0.54305800  1
