# generated using pymatgen
data_Li3FeO4
_symmetry_space_group_name_H-M   'P 1'
_cell_length_a   5.96078507
_cell_length_b   8.12798782
_cell_length_c   2.89161291
_cell_angle_alpha   90.00000000
_cell_angle_beta   90.00000000
_cell_angle_gamma   90.00000000
_symmetry_Int_Tables_number   1
_chemical_formula_structural   Li3FeO4
_chemical_formula_sum   'Li6 Fe2 O8'
_cell_volume   140.09629873
_cell_formula_units_Z   2
loop_
 _symmetry_equiv_pos_site_id
 _symmetry_equiv_pos_as_xyz
  1  'x, y, z'
loop_
 _atom_site_type_symbol
 _atom_site_label
 _atom_site_symmetry_multiplicity
 _atom_site_fract_x
 _atom_site_fract_y
 _atom_site_fract_z
 _atom_site_occupancy
  Li  Li0  1  0.25165800  0.24825700  0.50000000  1
  Li  Li1  1  0.50000000  0.00459700  0.00000000  1
  Li  Li2  1  0.74834200  0.24825700  0.50000000  1
  Li  Li3  1  0.75165800  0.74825700  0.50000000  1
  Li  Li4  1  0.00000000  0.50459700  0.00000000  1
  Li  Li5  1  0.24834200  0.74825700  0.50000000  1
  Fe  Fe6  1  0.50000000  0.49838400  0.00000000  1
  Fe  Fe7  1  0.00000000  0.99838400  0.00000000  1
  O  O8  1  0.77059300  0.99883200  0.50000000  1
  O  O9  1  0.50000000  0.26979500  0.00000000  1
  O  O10  1  0.72940700  0.49883200  0.50000000  1
  O  O11  1  0.00000000  0.22687550  0.00000000  1
  O  O12  1  0.27059300  0.49883200  0.50000000  1
  O  O13  1  0.00000000  0.76979500  0.00000000  1
  O  O14  1  0.22940700  0.99883200  0.50000000  1
  O  O15  1  0.50000000  0.72687550  0.00000000  1
