# generated using pymatgen
data_CuNi3O4
_symmetry_space_group_name_H-M   'P 1'
_cell_length_a   5.86277859
_cell_length_b   8.87446200
_cell_length_c   2.93152471
_cell_angle_alpha   90.00000000
_cell_angle_beta   90.00000000
_cell_angle_gamma   90.00000000
_symmetry_Int_Tables_number   1
_chemical_formula_structural   CuNi3O4
_chemical_formula_sum   'Cu2 Ni6 O8'
_cell_volume   152.52431616
_cell_formula_units_Z   2
loop_
 _symmetry_equiv_pos_site_id
 _symmetry_equiv_pos_as_xyz
  1  'x, y, z'
loop_
 _atom_site_type_symbol
 _atom_site_label
 _atom_site_symmetry_multiplicity
 _atom_site_fract_x
 _atom_site_fract_y
 _atom_site_fract_z
 _atom_site_occupancy
  Cu  Cu0  1  0.50000000  0.50000000  0.00000000  1
  Cu  Cu1  1  0.00000000  0.00000000  0.00000000  1
  Ni  Ni2  1  0.00000000  0.50000000  0.00000000  1
  Ni  Ni3  1  0.25000000  0.25000000  0.50000000  1
  Ni  Ni4  1  0.25000000  0.75000000  0.50000000  1
  Ni  Ni5  1  0.50000000  0.00000000  0.00000000  1
  Ni  Ni6  1  0.75000000  0.75000000  0.50000000  1
  Ni  Ni7  1  0.75000000  0.25000000  0.50000000  1
  O  O8  1  0.50000000  0.22760625  0.00000000  1
  O  O9  1  0.50000000  0.77239375  0.00000000  1
  O  O10  1  0.26339925  0.50000000  0.50000000  1
  O  O11  1  0.73660075  0.50000000  0.50000000  1
  O  O12  1  0.00000000  0.72760625  0.00000000  1
  O  O13  1  0.00000000  0.27239375  0.00000000  1
  O  O14  1  0.76339925  0.00000000  0.50000000  1
  O  O15  1  0.23660075  0.00000000  0.50000000  1
