# generated using pymatgen
data_Li4Fe3O8
_symmetry_space_group_name_H-M   'P 1'
_cell_length_a   5.82859755
_cell_length_b   5.82859755
_cell_length_c   15.41385583
_cell_angle_alpha   90.00000000
_cell_angle_beta   90.00000000
_cell_angle_gamma   120.00000000
_symmetry_Int_Tables_number   1
_chemical_formula_structural   Li4Fe3O8
_chemical_formula_sum   'Li12 Fe9 O24'
_cell_volume   453.49245151
_cell_formula_units_Z   3
loop_
 _symmetry_equiv_pos_site_id
 _symmetry_equiv_pos_as_xyz
  1  'x, y, z'
loop_
 _atom_site_type_symbol
 _atom_site_label
 _atom_site_symmetry_multiplicity
 _atom_site_fract_x
 _atom_site_fract_y
 _atom_site_fract_z
 _atom_site_occupancy
  Li  Li0  1  0.00000000  0.00000000  0.00000000  1
  Li  Li1  1  0.33333333  0.66666667  0.30683067  1
  Li  Li2  1  0.33333333  0.66666667  0.16666667  1
  Li  Li3  1  0.33333333  0.66666667  0.02650267  1
  Li  Li4  1  0.66666667  0.33333333  0.33333333  1
  Li  Li5  1  0.00000000  0.00000000  0.64016400  1
  Li  Li6  1  1.00000000  1.00000000  0.50000000  1
  Li  Li7  1  0.00000000  0.00000000  0.35983600  1
  Li  Li8  1  0.33333333  0.66666667  0.66666667  1
  Li  Li9  1  0.66666667  0.33333333  0.97349733  1
  Li  Li10  1  0.66666667  0.33333333  0.83333333  1
  Li  Li11  1  0.66666667  0.33333333  0.69316933  1
  Fe  Fe12  1  0.83333333  0.16666667  0.16666667  1
  Fe  Fe13  1  0.83333333  0.66666667  0.16666667  1
  Fe  Fe14  1  0.33333333  0.16666667  0.16666667  1
  Fe  Fe15  1  0.50000000  0.50000000  0.50000000  1
  Fe  Fe16  1  0.50000000  0.00000000  0.50000000  1
  Fe  Fe17  1  0.00000000  0.50000000  0.50000000  1
  Fe  Fe18  1  0.16666667  0.83333333  0.83333333  1
  Fe  Fe19  1  0.16666667  0.33333333  0.83333333  1
  Fe  Fe20  1  0.66666667  0.83333333  0.83333333  1
  O  O21  1  0.66666667  0.33333333  0.09400033  1
  O  O22  1  0.15792367  0.84207633  0.09670533  1
  O  O23  1  0.15792367  0.31584733  0.09670533  1
  O  O24  1  0.68415267  0.84207633  0.09670533  1
  O  O25  1  0.00000000  0.00000000  0.23933300  1
  O  O26  1  0.50874300  0.49125700  0.23662800  1
  O  O27  1  0.50874300  0.01748600  0.23662800  1
  O  O28  1  0.98251400  0.49125700  0.23662800  1
  O  O29  1  0.33333333  0.66666667  0.42733367  1
  O  O30  1  0.82459033  0.17540967  0.43003867  1
  O  O31  1  0.82459033  0.64918067  0.43003867  1
  O  O32  1  0.35081933  0.17540967  0.43003867  1
  O  O33  1  0.66666667  0.33333333  0.57266633  1
  O  O34  1  0.17540967  0.82459033  0.56996133  1
  O  O35  1  0.17540967  0.35081933  0.56996133  1
  O  O36  1  0.64918067  0.82459033  0.56996133  1
  O  O37  1  0.00000000  0.00000000  0.76066700  1
  O  O38  1  0.49125700  0.50874300  0.76337200  1
  O  O39  1  0.49125700  0.98251400  0.76337200  1
  O  O40  1  0.01748600  0.50874300  0.76337200  1
  O  O41  1  0.33333333  0.66666667  0.90599967  1
  O  O42  1  0.84207633  0.15792367  0.90329467  1
  O  O43  1  0.84207633  0.68415267  0.90329467  1
  O  O44  1  0.31584733  0.15792367  0.90329467  1
