# generated using pymatgen
data_Ba3(AlSn)2
_symmetry_space_group_name_H-M   'P 1'
_cell_length_a   4.62913000
_cell_length_b   5.27966000
_cell_length_c   20.84850600
_cell_angle_alpha   90.00000000
_cell_angle_beta   90.00000000
_cell_angle_gamma   90.00000000
_symmetry_Int_Tables_number   1
_chemical_formula_structural   Ba3(AlSn)2
_chemical_formula_sum   'Ba6 Al4 Sn4'
_cell_volume   509.54233383
_cell_formula_units_Z   2
loop_
 _symmetry_equiv_pos_site_id
 _symmetry_equiv_pos_as_xyz
  1  'x, y, z'
loop_
 _atom_site_type_symbol
 _atom_site_label
 _atom_site_symmetry_multiplicity
 _atom_site_fract_x
 _atom_site_fract_y
 _atom_site_fract_z
 _atom_site_occupancy
  Ba  Ba0  1  0.50000000  0.00000000  0.00000000  1
  Ba  Ba1  1  0.00000000  0.00000000  0.81829600  1
  Ba  Ba2  1  0.50000000  0.50000000  0.68170400  1
  Ba  Ba3  1  0.00000000  0.50000000  0.50000000  1
  Ba  Ba4  1  0.50000000  0.50000000  0.31829600  1
  Ba  Ba5  1  0.00000000  0.00000000  0.18170400  1
  Al  Al6  1  0.00000000  0.50000000  0.93861500  1
  Al  Al7  1  0.50000000  0.00000000  0.56138500  1
  Al  Al8  1  0.50000000  0.00000000  0.43861500  1
  Al  Al9  1  0.00000000  0.50000000  0.06138500  1
  Sn  Sn10  1  0.50000000  0.50000000  0.86407900  1
  Sn  Sn11  1  0.00000000  0.00000000  0.63592100  1
  Sn  Sn12  1  0.00000000  0.00000000  0.36407900  1
  Sn  Sn13  1  0.50000000  0.50000000  0.13592100  1
