# generated using pymatgen
data_ScUS3
_symmetry_space_group_name_H-M   'P 1'
_cell_length_a   3.72007400
_cell_length_b   12.19590600
_cell_length_c   9.14170100
_cell_angle_alpha   90.00000000
_cell_angle_beta   90.00000000
_cell_angle_gamma   90.00000000
_symmetry_Int_Tables_number   1
_chemical_formula_structural   ScUS3
_chemical_formula_sum   'Sc4 U4 S12'
_cell_volume   414.75598336
_cell_formula_units_Z   4
loop_
 _symmetry_equiv_pos_site_id
 _symmetry_equiv_pos_as_xyz
  1  'x, y, z'
loop_
 _atom_site_type_symbol
 _atom_site_label
 _atom_site_symmetry_multiplicity
 _atom_site_fract_x
 _atom_site_fract_y
 _atom_site_fract_z
 _atom_site_occupancy
  Sc  Sc0  1  0.50000000  0.00000000  0.00000000  1
  Sc  Sc1  1  0.50000000  0.00000000  0.50000000  1
  Sc  Sc2  1  0.00000000  0.50000000  0.00000000  1
  Sc  Sc3  1  0.00000000  0.50000000  0.50000000  1
  U  U4  1  0.50000000  0.25080700  0.75000000  1
  U  U5  1  0.00000000  0.24919300  0.25000000  1
  U  U6  1  0.00000000  0.75080700  0.75000000  1
  U  U7  1  0.50000000  0.74919300  0.25000000  1
  S  S8  1  0.50000000  0.35835300  0.43645600  1
  S  S9  1  0.00000000  0.14164700  0.56354400  1
  S  S10  1  0.00000000  0.14164700  0.93645600  1
  S  S11  1  0.50000000  0.35835300  0.06354400  1
  S  S12  1  0.50000000  0.08525200  0.25000000  1
  S  S13  1  0.00000000  0.41474800  0.75000000  1
  S  S14  1  0.00000000  0.85835300  0.43645600  1
  S  S15  1  0.50000000  0.64164700  0.56354400  1
  S  S16  1  0.50000000  0.64164700  0.93645600  1
  S  S17  1  0.00000000  0.85835300  0.06354400  1
  S  S18  1  0.00000000  0.58525200  0.25000000  1
  S  S19  1  0.50000000  0.91474800  0.75000000  1
