# generated using pymatgen
data_MnCo3O8
_symmetry_space_group_name_H-M   'P 1'
_cell_length_a   5.72165638
_cell_length_b   5.72165638
_cell_length_c   14.12709231
_cell_angle_alpha   90.00000000
_cell_angle_beta   90.00000000
_cell_angle_gamma   120.00000000
_symmetry_Int_Tables_number   1
_chemical_formula_structural   MnCo3O8
_chemical_formula_sum   'Mn3 Co9 O24'
_cell_volume   400.52253775
_cell_formula_units_Z   3
loop_
 _symmetry_equiv_pos_site_id
 _symmetry_equiv_pos_as_xyz
  1  'x, y, z'
loop_
 _atom_site_type_symbol
 _atom_site_label
 _atom_site_symmetry_multiplicity
 _atom_site_fract_x
 _atom_site_fract_y
 _atom_site_fract_z
 _atom_site_occupancy
  Mn  Mn0  1  0.00000000  0.00000000  0.00000000  1
  Mn  Mn1  1  0.66666667  0.33333333  0.33333333  1
  Mn  Mn2  1  0.33333333  0.66666667  0.66666667  1
  Co  Co3  1  0.00000000  0.50000000  0.00000000  1
  Co  Co4  1  0.50000000  0.00000000  0.00000000  1
  Co  Co5  1  0.50000000  0.50000000  0.00000000  1
  Co  Co6  1  0.66666667  0.83333333  0.33333333  1
  Co  Co7  1  0.16666667  0.33333333  0.33333333  1
  Co  Co8  1  0.16666667  0.83333333  0.33333333  1
  Co  Co9  1  0.33333333  0.16666667  0.66666667  1
  Co  Co10  1  0.83333333  0.66666667  0.66666667  1
  Co  Co11  1  0.83333333  0.16666667  0.66666667  1
  O  O12  1  0.16983267  0.83016733  0.06681433  1
  O  O13  1  0.16983267  0.33966533  0.06681433  1
  O  O14  1  0.66033467  0.83016733  0.06681433  1
  O  O15  1  0.66666667  0.33333333  0.06607333  1
  O  O16  1  0.00000000  0.00000000  0.26726000  1
  O  O17  1  0.00633200  0.50316600  0.26651900  1
  O  O18  1  0.49683400  0.99366800  0.26651900  1
  O  O19  1  0.49683400  0.50316600  0.26651900  1
  O  O20  1  0.83649933  0.16350067  0.40014767  1
  O  O21  1  0.83649933  0.67299867  0.40014767  1
  O  O22  1  0.32700133  0.16350067  0.40014767  1
  O  O23  1  0.33333333  0.66666667  0.39940667  1
  O  O24  1  0.66666667  0.33333333  0.60059333  1
  O  O25  1  0.67299867  0.83649933  0.59985233  1
  O  O26  1  0.16350067  0.32700133  0.59985233  1
  O  O27  1  0.16350067  0.83649933  0.59985233  1
  O  O28  1  0.50316600  0.49683400  0.73348100  1
  O  O29  1  0.50316600  0.00633200  0.73348100  1
  O  O30  1  0.99366800  0.49683400  0.73348100  1
  O  O31  1  0.00000000  0.00000000  0.73274000  1
  O  O32  1  0.33333333  0.66666667  0.93392667  1
  O  O33  1  0.33966533  0.16983267  0.93318567  1
  O  O34  1  0.83016733  0.66033467  0.93318567  1
  O  O35  1  0.83016733  0.16983267  0.93318567  1
