# generated using pymatgen
data_CuHgO2
_symmetry_space_group_name_H-M   'P 1'
_cell_length_a   6.87920800
_cell_length_b   2.98580600
_cell_length_c   6.01554081
_cell_angle_alpha   90.00000000
_cell_angle_beta   110.87475830
_cell_angle_gamma   90.00000000
_symmetry_Int_Tables_number   1
_chemical_formula_structural   CuHgO2
_chemical_formula_sum   'Cu2 Hg2 O4'
_cell_volume   115.44886312
_cell_formula_units_Z   2
loop_
 _symmetry_equiv_pos_site_id
 _symmetry_equiv_pos_as_xyz
  1  'x, y, z'
loop_
 _atom_site_type_symbol
 _atom_site_label
 _atom_site_symmetry_multiplicity
 _atom_site_fract_x
 _atom_site_fract_y
 _atom_site_fract_z
 _atom_site_occupancy
  Cu  Cu0  1  0.00000000  0.00000000  0.00000000  1
  Cu  Cu1  1  0.50000000  0.50000000  0.00000000  1
  Hg  Hg2  1  0.00000000  0.50000000  0.50000000  1
  Hg  Hg3  1  0.50000000  0.00000000  0.50000000  1
  O  O4  1  0.38656600  0.00000000  0.78028000  1
  O  O5  1  0.61343400  0.00000000  0.21972000  1
  O  O6  1  0.88656600  0.50000000  0.78028000  1
  O  O7  1  0.11343400  0.50000000  0.21972000  1
