# generated using pymatgen
data_Sr(ZnGe)2
_symmetry_space_group_name_H-M   'P 1'
_cell_length_a   4.45687200
_cell_length_b   4.45687200
_cell_length_c   10.61045800
_cell_angle_alpha   90.00000000
_cell_angle_beta   90.00000000
_cell_angle_gamma   90.00000000
_symmetry_Int_Tables_number   1
_chemical_formula_structural   Sr(ZnGe)2
_chemical_formula_sum   'Sr2 Zn4 Ge4'
_cell_volume   210.76303972
_cell_formula_units_Z   2
loop_
 _symmetry_equiv_pos_site_id
 _symmetry_equiv_pos_as_xyz
  1  'x, y, z'
loop_
 _atom_site_type_symbol
 _atom_site_label
 _atom_site_symmetry_multiplicity
 _atom_site_fract_x
 _atom_site_fract_y
 _atom_site_fract_z
 _atom_site_occupancy
  Sr  Sr0  1  0.00000000  0.00000000  0.00000000  1
  Sr  Sr1  1  0.50000000  0.50000000  0.50000000  1
  Zn  Zn2  1  0.50000000  0.00000000  0.25000000  1
  Zn  Zn3  1  0.00000000  0.50000000  0.25000000  1
  Zn  Zn4  1  0.00000000  0.50000000  0.75000000  1
  Zn  Zn5  1  0.50000000  0.00000000  0.75000000  1
  Ge  Ge6  1  0.50000000  0.50000000  0.12072400  1
  Ge  Ge7  1  0.00000000  0.00000000  0.37927600  1
  Ge  Ge8  1  0.00000000  0.00000000  0.62072400  1
  Ge  Ge9  1  0.50000000  0.50000000  0.87927600  1
