# generated using pymatgen
data_ZrCoO3
_symmetry_space_group_name_H-M   'P 1'
_cell_length_a   5.42420594
_cell_length_b   5.42420594
_cell_length_c   14.25227041
_cell_angle_alpha   90.00000000
_cell_angle_beta   90.00000000
_cell_angle_gamma   120.00000000
_symmetry_Int_Tables_number   1
_chemical_formula_structural   ZrCoO3
_chemical_formula_sum   'Zr6 Co6 O18'
_cell_volume   363.15081681
_cell_formula_units_Z   6
loop_
 _symmetry_equiv_pos_site_id
 _symmetry_equiv_pos_as_xyz
  1  'x, y, z'
loop_
 _atom_site_type_symbol
 _atom_site_label
 _atom_site_symmetry_multiplicity
 _atom_site_fract_x
 _atom_site_fract_y
 _atom_site_fract_z
 _atom_site_occupancy
  Zr  Zr0  1  0.66666667  0.33333333  0.19211983  1
  Zr  Zr1  1  0.00000000  0.00000000  0.14121350  1
  Zr  Zr2  1  0.33333333  0.66666667  0.52545317  1
  Zr  Zr3  1  0.66666667  0.33333333  0.47454683  1
  Zr  Zr4  1  0.00000000  0.00000000  0.85878650  1
  Zr  Zr5  1  0.33333333  0.66666667  0.80788017  1
  Co  Co6  1  0.33333333  0.66666667  0.31475283  1
  Co  Co7  1  0.33333333  0.66666667  0.01858050  1
  Co  Co8  1  0.00000000  0.00000000  0.64808617  1
  Co  Co9  1  0.00000000  0.00000000  0.35191383  1
  Co  Co10  1  0.66666667  0.33333333  0.98141950  1
  Co  Co11  1  0.66666667  0.33333333  0.68524717  1
  O  O12  1  0.30077400  0.29791500  0.24946000  1
  O  O13  1  0.99714100  0.69922600  0.24946000  1
  O  O14  1  0.70208500  0.00285900  0.24946000  1
  O  O15  1  0.96458167  0.33047433  0.08387333  1
  O  O16  1  0.66952567  0.63410733  0.08387333  1
  O  O17  1  0.36589267  0.03541833  0.08387333  1
  O  O18  1  0.96744067  0.63124833  0.58279333  1
  O  O19  1  0.66380767  0.03255933  0.58279333  1
  O  O20  1  0.36875167  0.33619233  0.58279333  1
  O  O21  1  0.63124833  0.66380767  0.41720667  1
  O  O22  1  0.33619233  0.96744067  0.41720667  1
  O  O23  1  0.03255933  0.36875167  0.41720667  1
  O  O24  1  0.63410733  0.96458167  0.91612667  1
  O  O25  1  0.33047433  0.36589267  0.91612667  1
  O  O26  1  0.03541833  0.66952567  0.91612667  1
  O  O27  1  0.29791500  0.99714100  0.75054000  1
  O  O28  1  0.00285900  0.30077400  0.75054000  1
  O  O29  1  0.69922600  0.70208500  0.75054000  1
