# generated using pymatgen
data_Li2Ti3O6
_symmetry_space_group_name_H-M   'P 1'
_cell_length_a   5.10236600
_cell_length_b   8.82089600
_cell_length_c   5.27457118
_cell_angle_alpha   90.00000000
_cell_angle_beta   108.58422335
_cell_angle_gamma   90.00000000
_symmetry_Int_Tables_number   1
_chemical_formula_structural   Li2Ti3O6
_chemical_formula_sum   'Li4 Ti6 O12'
_cell_volume   225.01627074
_cell_formula_units_Z   2
loop_
 _symmetry_equiv_pos_site_id
 _symmetry_equiv_pos_as_xyz
  1  'x, y, z'
loop_
 _atom_site_type_symbol
 _atom_site_label
 _atom_site_symmetry_multiplicity
 _atom_site_fract_x
 _atom_site_fract_y
 _atom_site_fract_z
 _atom_site_occupancy
  Li  Li0  1  0.50000000  0.66737300  0.50000000  1
  Li  Li1  1  0.50000000  0.33262700  0.50000000  1
  Li  Li2  1  0.00000000  0.16737300  0.50000000  1
  Li  Li3  1  0.00000000  0.83262700  0.50000000  1
  Ti  Ti4  1  0.50000000  0.83747400  0.00000000  1
  Ti  Ti5  1  0.50000000  0.16252600  0.00000000  1
  Ti  Ti6  1  0.00000000  0.00000000  0.00000000  1
  Ti  Ti7  1  0.00000000  0.33747400  0.00000000  1
  Ti  Ti8  1  0.00000000  0.66252600  0.00000000  1
  Ti  Ti9  1  0.50000000  0.50000000  0.00000000  1
  O  O10  1  0.75168100  0.00000000  0.22656400  1
  O  O11  1  0.23576000  0.82865000  0.22122500  1
  O  O12  1  0.23576000  0.17135000  0.22122500  1
  O  O13  1  0.76424000  0.82865000  0.77877500  1
  O  O14  1  0.76424000  0.17135000  0.77877500  1
  O  O15  1  0.24831900  0.00000000  0.77343600  1
  O  O16  1  0.25168100  0.50000000  0.22656400  1
  O  O17  1  0.73576000  0.32865000  0.22122500  1
  O  O18  1  0.73576000  0.67135000  0.22122500  1
  O  O19  1  0.26424000  0.32865000  0.77877500  1
  O  O20  1  0.26424000  0.67135000  0.77877500  1
  O  O21  1  0.74831900  0.50000000  0.77343600  1
