# generated using pymatgen
data_Sr3(AlSi)2
_symmetry_space_group_name_H-M   'P 1'
_cell_length_a   4.20462400
_cell_length_b   4.83594200
_cell_length_c   19.28449400
_cell_angle_alpha   90.00000000
_cell_angle_beta   90.00000000
_cell_angle_gamma   90.00000000
_symmetry_Int_Tables_number   1
_chemical_formula_structural   Sr3(AlSi)2
_chemical_formula_sum   'Sr6 Al4 Si4'
_cell_volume   392.11774503
_cell_formula_units_Z   2
loop_
 _symmetry_equiv_pos_site_id
 _symmetry_equiv_pos_as_xyz
  1  'x, y, z'
loop_
 _atom_site_type_symbol
 _atom_site_label
 _atom_site_symmetry_multiplicity
 _atom_site_fract_x
 _atom_site_fract_y
 _atom_site_fract_z
 _atom_site_occupancy
  Sr  Sr0  1  0.50000000  0.00000000  0.00000000  1
  Sr  Sr1  1  0.00000000  0.00000000  0.81494700  1
  Sr  Sr2  1  0.50000000  0.50000000  0.68505300  1
  Sr  Sr3  1  0.00000000  0.50000000  0.50000000  1
  Sr  Sr4  1  0.50000000  0.50000000  0.31494700  1
  Sr  Sr5  1  0.00000000  0.00000000  0.18505300  1
  Al  Al6  1  0.50000000  0.00000000  0.56696500  1
  Al  Al7  1  0.00000000  0.50000000  0.93303500  1
  Al  Al8  1  0.00000000  0.50000000  0.06696500  1
  Al  Al9  1  0.50000000  0.00000000  0.43303500  1
  Si  Si10  1  0.00000000  0.00000000  0.63943000  1
  Si  Si11  1  0.50000000  0.50000000  0.86057000  1
  Si  Si12  1  0.50000000  0.50000000  0.13943000  1
  Si  Si13  1  0.00000000  0.00000000  0.36057000  1
