# generated using pymatgen
data_ZnReO4
_symmetry_space_group_name_H-M   'P 1'
_cell_length_a   6.54986800
_cell_length_b   6.72760600
_cell_length_c   3.10969000
_cell_angle_alpha   90.00000000
_cell_angle_beta   90.00000000
_cell_angle_gamma   90.00000000
_symmetry_Int_Tables_number   1
_chemical_formula_structural   ZnReO4
_chemical_formula_sum   'Zn2 Re2 O8'
_cell_volume   137.02827608
_cell_formula_units_Z   2
loop_
 _symmetry_equiv_pos_site_id
 _symmetry_equiv_pos_as_xyz
  1  'x, y, z'
loop_
 _atom_site_type_symbol
 _atom_site_label
 _atom_site_symmetry_multiplicity
 _atom_site_fract_x
 _atom_site_fract_y
 _atom_site_fract_z
 _atom_site_occupancy
  Zn  Zn0  1  0.00000000  0.00000000  0.00000000  1
  Zn  Zn1  1  0.50000000  0.50000000  0.00000000  1
  Re  Re2  1  0.50000000  0.00000000  0.50000000  1
  Re  Re3  1  0.00000000  0.50000000  0.50000000  1
  O  O4  1  0.21752200  0.00000000  0.50000000  1
  O  O5  1  0.50000000  0.81293700  0.00000000  1
  O  O6  1  0.50000000  0.18706300  0.00000000  1
  O  O7  1  0.78247800  0.00000000  0.50000000  1
  O  O8  1  0.71752200  0.50000000  0.50000000  1
  O  O9  1  0.00000000  0.31293700  0.00000000  1
  O  O10  1  0.00000000  0.68706300  0.00000000  1
  O  O11  1  0.28247800  0.50000000  0.50000000  1
