# generated using pymatgen
data_Li3(CuO)4
_symmetry_space_group_name_H-M   'P 1'
_cell_length_a   3.73006200
_cell_length_b   8.39148400
_cell_length_c   8.75254800
_cell_angle_alpha   90.00000000
_cell_angle_beta   90.00000000
_cell_angle_gamma   90.00000000
_symmetry_Int_Tables_number   1
_chemical_formula_structural   Li3(CuO)4
_chemical_formula_sum   'Li6 Cu8 O8'
_cell_volume   273.96136576
_cell_formula_units_Z   2
loop_
 _symmetry_equiv_pos_site_id
 _symmetry_equiv_pos_as_xyz
  1  'x, y, z'
loop_
 _atom_site_type_symbol
 _atom_site_label
 _atom_site_symmetry_multiplicity
 _atom_site_fract_x
 _atom_site_fract_y
 _atom_site_fract_z
 _atom_site_occupancy
  Li  Li0  1  0.50000000  0.76047000  0.85846400  1
  Li  Li1  1  0.00000000  0.62679050  0.00000000  1
  Li  Li2  1  0.50000000  0.76047000  0.14153600  1
  Li  Li3  1  0.00000000  0.26047000  0.35846400  1
  Li  Li4  1  0.50000000  0.12679050  0.50000000  1
  Li  Li5  1  0.00000000  0.26047000  0.64153600  1
  Cu  Cu6  1  0.00000000  0.90840050  0.65831250  1
  Cu  Cu7  1  0.50000000  0.08146800  0.15196000  1
  Cu  Cu8  1  0.00000000  0.90840050  0.34168750  1
  Cu  Cu9  1  0.50000000  0.08146800  0.84804000  1
  Cu  Cu10  1  0.50000000  0.40840050  0.15831250  1
  Cu  Cu11  1  0.00000000  0.58146800  0.65196000  1
  Cu  Cu12  1  0.50000000  0.40840050  0.84168750  1
  Cu  Cu13  1  0.00000000  0.58146800  0.34804000  1
  O  O14  1  0.00000000  0.74070150  0.79429350  1
  O  O15  1  0.50000000  0.55748450  0.00000000  1
  O  O16  1  0.50000000  0.93546450  0.00000000  1
  O  O17  1  0.00000000  0.74070150  0.20570650  1
  O  O18  1  0.50000000  0.24070150  0.29429350  1
  O  O19  1  0.00000000  0.05748450  0.50000000  1
  O  O20  1  0.00000000  0.43546450  0.50000000  1
  O  O21  1  0.50000000  0.24070150  0.70570650  1
