# generated using pymatgen
data_TaCo3
_symmetry_space_group_name_H-M   'P 1'
_cell_length_a   5.16283416
_cell_length_b   5.16283416
_cell_length_c   18.75548276
_cell_angle_alpha   90.00000000
_cell_angle_beta   90.00000000
_cell_angle_gamma   120.00000000
_symmetry_Int_Tables_number   1
_chemical_formula_structural   TaCo3
_chemical_formula_sum   'Ta9 Co27'
_cell_volume   432.94749206
_cell_formula_units_Z   9
loop_
 _symmetry_equiv_pos_site_id
 _symmetry_equiv_pos_as_xyz
  1  'x, y, z'
loop_
 _atom_site_type_symbol
 _atom_site_label
 _atom_site_symmetry_multiplicity
 _atom_site_fract_x
 _atom_site_fract_y
 _atom_site_fract_z
 _atom_site_occupancy
  Ta  Ta0  1  0.00000000  0.00000000  0.00000000  1
  Ta  Ta1  1  0.66666667  0.33333333  0.11490233  1
  Ta  Ta2  1  0.00000000  0.00000000  0.21843100  1
  Ta  Ta3  1  0.66666667  0.33333333  0.33333333  1
  Ta  Ta4  1  0.33333333  0.66666667  0.44823567  1
  Ta  Ta5  1  0.66666667  0.33333333  0.55176433  1
  Ta  Ta6  1  0.33333333  0.66666667  0.66666667  1
  Ta  Ta7  1  0.00000000  0.00000000  0.78156900  1
  Ta  Ta8  1  0.33333333  0.66666667  0.88509767  1
  Co  Co9  1  0.00000000  0.50000000  0.00000000  1
  Co  Co10  1  0.50000000  0.50000000  0.00000000  1
  Co  Co11  1  0.50000000  0.00000000  0.00000000  1
  Co  Co12  1  0.17598033  0.35196067  0.11007867  1
  Co  Co13  1  0.64803933  0.82401967  0.11007867  1
  Co  Co14  1  0.17598033  0.82401967  0.11007867  1
  Co  Co15  1  0.49068633  0.50931367  0.22325467  1
  Co  Co16  1  0.49068633  0.98137267  0.22325467  1
  Co  Co17  1  0.01862733  0.50931367  0.22325467  1
  Co  Co18  1  0.66666667  0.83333333  0.33333333  1
  Co  Co19  1  0.16666667  0.83333333  0.33333333  1
  Co  Co20  1  0.16666667  0.33333333  0.33333333  1
  Co  Co21  1  0.84264700  0.68529400  0.44341200  1
  Co  Co22  1  0.31470600  0.15735300  0.44341200  1
  Co  Co23  1  0.84264700  0.15735300  0.44341200  1
  Co  Co24  1  0.15735300  0.84264700  0.55658800  1
  Co  Co25  1  0.15735300  0.31470600  0.55658800  1
  Co  Co26  1  0.68529400  0.84264700  0.55658800  1
  Co  Co27  1  0.33333333  0.16666667  0.66666667  1
  Co  Co28  1  0.83333333  0.16666667  0.66666667  1
  Co  Co29  1  0.83333333  0.66666667  0.66666667  1
  Co  Co30  1  0.50931367  0.01862733  0.77674533  1
  Co  Co31  1  0.98137267  0.49068633  0.77674533  1
  Co  Co32  1  0.50931367  0.49068633  0.77674533  1
  Co  Co33  1  0.82401967  0.17598033  0.88992133  1
  Co  Co34  1  0.82401967  0.64803933  0.88992133  1
  Co  Co35  1  0.35196067  0.17598033  0.88992133  1
