# generated using pymatgen
data_Li2ZrCuO4
_symmetry_space_group_name_H-M   'P 1'
_cell_length_a   4.23036400
_cell_length_b   4.23036400
_cell_length_c   9.00502400
_cell_angle_alpha   90.00000000
_cell_angle_beta   90.00000000
_cell_angle_gamma   90.00000000
_symmetry_Int_Tables_number   1
_chemical_formula_structural   Li2ZrCuO4
_chemical_formula_sum   'Li4 Zr2 Cu2 O8'
_cell_volume   161.15372555
_cell_formula_units_Z   2
loop_
 _symmetry_equiv_pos_site_id
 _symmetry_equiv_pos_as_xyz
  1  'x, y, z'
loop_
 _atom_site_type_symbol
 _atom_site_label
 _atom_site_symmetry_multiplicity
 _atom_site_fract_x
 _atom_site_fract_y
 _atom_site_fract_z
 _atom_site_occupancy
  Li  Li0  1  0.50000000  0.50000000  0.00000000  1
  Li  Li1  1  0.50000000  0.00000000  0.25000000  1
  Li  Li2  1  0.00000000  0.00000000  0.50000000  1
  Li  Li3  1  0.00000000  0.50000000  0.75000000  1
  Zr  Zr4  1  0.00000000  0.50000000  0.25000000  1
  Zr  Zr5  1  0.50000000  0.00000000  0.75000000  1
  Cu  Cu6  1  0.00000000  0.00000000  0.00000000  1
  Cu  Cu7  1  0.50000000  0.50000000  0.50000000  1
  O  O8  1  0.00000000  0.50000000  0.48711900  1
  O  O9  1  0.00000000  0.00000000  0.25298700  1
  O  O10  1  0.00000000  0.50000000  0.01288100  1
  O  O11  1  0.50000000  0.50000000  0.24701300  1
  O  O12  1  0.50000000  0.00000000  0.98711900  1
  O  O13  1  0.50000000  0.50000000  0.75298700  1
  O  O14  1  0.50000000  0.00000000  0.51288100  1
  O  O15  1  0.00000000  0.00000000  0.74701300  1
