# generated using pymatgen
data_Ni15O16
_symmetry_space_group_name_H-M   'P 1'
_cell_length_a   8.40250800
_cell_length_b   8.40250800
_cell_length_c   8.40250800
_cell_angle_alpha   90.00000000
_cell_angle_beta   90.00000000
_cell_angle_gamma   90.00000000
_symmetry_Int_Tables_number   1
_chemical_formula_structural   Ni15O16
_chemical_formula_sum   'Ni30 O32'
_cell_volume   593.23505197
_cell_formula_units_Z   2
loop_
 _symmetry_equiv_pos_site_id
 _symmetry_equiv_pos_as_xyz
  1  'x, y, z'
loop_
 _atom_site_type_symbol
 _atom_site_label
 _atom_site_symmetry_multiplicity
 _atom_site_fract_x
 _atom_site_fract_y
 _atom_site_fract_z
 _atom_site_occupancy
  Ni  Ni0  1  0.25408200  0.74591800  0.50000000  1
  Ni  Ni1  1  0.00000000  0.00000000  0.50000000  1
  Ni  Ni2  1  0.00000000  0.24591800  0.24591800  1
  Ni  Ni3  1  0.74591800  0.50000000  0.25408200  1
  Ni  Ni4  1  0.50000000  0.74591800  0.25408200  1
  Ni  Ni5  1  0.50000000  0.00000000  0.00000000  1
  Ni  Ni6  1  0.24591800  0.00000000  0.24591800  1
  Ni  Ni7  1  0.24591800  0.24591800  0.00000000  1
  Ni  Ni8  1  0.00000000  0.50000000  0.00000000  1
  Ni  Ni9  1  0.50000000  0.25408200  0.25408200  1
  Ni  Ni10  1  0.25408200  0.25408200  0.50000000  1
  Ni  Ni11  1  0.25408200  0.50000000  0.25408200  1
  Ni  Ni12  1  0.50000000  0.25408200  0.74591800  1
  Ni  Ni13  1  0.25408200  0.50000000  0.74591800  1
  Ni  Ni14  1  0.74591800  0.25408200  0.50000000  1
  Ni  Ni15  1  0.75408200  0.24591800  0.00000000  1
  Ni  Ni16  1  0.50000000  0.50000000  0.00000000  1
  Ni  Ni17  1  0.50000000  0.74591800  0.74591800  1
  Ni  Ni18  1  0.24591800  0.00000000  0.75408200  1
  Ni  Ni19  1  0.00000000  0.24591800  0.75408200  1
  Ni  Ni20  1  0.00000000  0.50000000  0.50000000  1
  Ni  Ni21  1  0.74591800  0.50000000  0.74591800  1
  Ni  Ni22  1  0.74591800  0.74591800  0.50000000  1
  Ni  Ni23  1  0.50000000  0.00000000  0.50000000  1
  Ni  Ni24  1  0.00000000  0.75408200  0.75408200  1
  Ni  Ni25  1  0.75408200  0.75408200  0.00000000  1
  Ni  Ni26  1  0.75408200  0.00000000  0.75408200  1
  Ni  Ni27  1  0.00000000  0.75408200  0.24591800  1
  Ni  Ni28  1  0.75408200  0.00000000  0.24591800  1
  Ni  Ni29  1  0.24591800  0.75408200  0.00000000  1
  O  O30  1  0.00000000  0.00000000  0.73084100  1
  O  O31  1  0.25000000  0.75000000  0.25000000  1
  O  O32  1  0.26915900  0.00000000  0.00000000  1
  O  O33  1  0.00000000  0.00000000  0.26915900  1
  O  O34  1  0.00000000  0.26915900  0.00000000  1
  O  O35  1  0.25000000  0.00000000  0.50000000  1
  O  O36  1  0.25000000  0.25000000  0.25000000  1
  O  O37  1  0.00000000  0.25000000  0.50000000  1
  O  O38  1  0.00000000  0.50000000  0.25000000  1
  O  O39  1  0.25000000  0.25000000  0.75000000  1
  O  O40  1  0.73084100  0.00000000  0.00000000  1
  O  O41  1  0.50000000  0.00000000  0.25000000  1
  O  O42  1  0.50000000  0.25000000  0.00000000  1
  O  O43  1  0.25000000  0.50000000  0.00000000  1
  O  O44  1  0.75000000  0.25000000  0.25000000  1
  O  O45  1  0.00000000  0.73084100  0.00000000  1
  O  O46  1  0.50000000  0.50000000  0.23084100  1
  O  O47  1  0.75000000  0.25000000  0.75000000  1
  O  O48  1  0.76915900  0.50000000  0.50000000  1
  O  O49  1  0.50000000  0.50000000  0.76915900  1
  O  O50  1  0.50000000  0.76915900  0.50000000  1
  O  O51  1  0.75000000  0.50000000  0.00000000  1
  O  O52  1  0.75000000  0.75000000  0.75000000  1
  O  O53  1  0.50000000  0.75000000  0.00000000  1
  O  O54  1  0.50000000  0.00000000  0.75000000  1
  O  O55  1  0.75000000  0.75000000  0.25000000  1
  O  O56  1  0.23084100  0.50000000  0.50000000  1
  O  O57  1  0.00000000  0.50000000  0.75000000  1
  O  O58  1  0.00000000  0.75000000  0.50000000  1
  O  O59  1  0.75000000  0.00000000  0.50000000  1
  O  O60  1  0.25000000  0.75000000  0.75000000  1
  O  O61  1  0.50000000  0.23084100  0.50000000  1
