# generated using pymatgen
data_Ti2O3
_symmetry_space_group_name_H-M   'P 1'
_cell_length_a   7.66366000
_cell_length_b   3.00369100
_cell_length_c   13.33235871
_cell_angle_alpha   90.00000000
_cell_angle_beta   98.96210636
_cell_angle_gamma   90.00000000
_symmetry_Int_Tables_number   1
_chemical_formula_structural   Ti2O3
_chemical_formula_sum   'Ti12 O18'
_cell_volume   303.15434295
_cell_formula_units_Z   6
loop_
 _symmetry_equiv_pos_site_id
 _symmetry_equiv_pos_as_xyz
  1  'x, y, z'
loop_
 _atom_site_type_symbol
 _atom_site_label
 _atom_site_symmetry_multiplicity
 _atom_site_fract_x
 _atom_site_fract_y
 _atom_site_fract_z
 _atom_site_occupancy
  Ti  Ti0  1  0.80668500  0.25000000  0.98131600  1
  Ti  Ti1  1  0.45718200  0.25000000  0.88252300  1
  Ti  Ti2  1  0.84091400  0.75000000  0.78050800  1
  Ti  Ti3  1  0.17979600  0.75000000  0.72483400  1
  Ti  Ti4  1  0.51074200  0.25000000  0.60097200  1
  Ti  Ti5  1  0.86591800  0.25000000  0.56417300  1
  Ti  Ti6  1  0.13408200  0.75000000  0.43582700  1
  Ti  Ti7  1  0.48925800  0.75000000  0.39902800  1
  Ti  Ti8  1  0.82020400  0.25000000  0.27516600  1
  Ti  Ti9  1  0.15908600  0.25000000  0.21949200  1
  Ti  Ti10  1  0.54281800  0.75000000  0.11747700  1
  Ti  Ti11  1  0.19331500  0.75000000  0.01868400  1
  O  O12  1  0.61484900  0.75000000  0.96683700  1
  O  O13  1  0.26979900  0.75000000  0.87488100  1
  O  O14  1  0.94996600  0.75000000  0.92408600  1
  O  O15  1  0.68993600  0.25000000  0.82415700  1
  O  O16  1  0.36027100  0.25000000  0.71542600  1
  O  O17  1  0.99227300  0.25000000  0.73395800  1
  O  O18  1  0.05307600  0.75000000  0.57806300  1
  O  O19  1  0.71452300  0.75000000  0.63268400  1
  O  O20  1  0.36804500  0.75000000  0.52827100  1
  O  O21  1  0.63195500  0.25000000  0.47172900  1
  O  O22  1  0.28547700  0.25000000  0.36731600  1
  O  O23  1  0.94692400  0.25000000  0.42193700  1
  O  O24  1  0.00772700  0.75000000  0.26604200  1
  O  O25  1  0.63972900  0.75000000  0.28457400  1
  O  O26  1  0.31006400  0.75000000  0.17584300  1
  O  O27  1  0.05003400  0.25000000  0.07591400  1
  O  O28  1  0.73020100  0.25000000  0.12511900  1
  O  O29  1  0.38515100  0.25000000  0.03316300  1
