# generated using pymatgen
data_Li2(NiO2)3
_symmetry_space_group_name_H-M   'P 1'
_cell_length_a   4.97210200
_cell_length_b   8.60086600
_cell_length_c   5.12169197
_cell_angle_alpha   90.00000000
_cell_angle_beta   109.13215342
_cell_angle_gamma   90.00000000
_symmetry_Int_Tables_number   1
_chemical_formula_structural   Li2(NiO2)3
_chemical_formula_sum   'Li4 Ni6 O12'
_cell_volume   206.92812560
_cell_formula_units_Z   2
loop_
 _symmetry_equiv_pos_site_id
 _symmetry_equiv_pos_as_xyz
  1  'x, y, z'
loop_
 _atom_site_type_symbol
 _atom_site_label
 _atom_site_symmetry_multiplicity
 _atom_site_fract_x
 _atom_site_fract_y
 _atom_site_fract_z
 _atom_site_occupancy
  Li  Li0  1  0.50000000  0.82924100  0.00000000  1
  Li  Li1  1  0.50000000  0.17075900  0.00000000  1
  Li  Li2  1  0.00000000  0.32924100  0.00000000  1
  Li  Li3  1  0.00000000  0.67075900  0.00000000  1
  Ni  Ni4  1  0.50000000  0.66496900  0.50000000  1
  Ni  Ni5  1  0.50000000  0.00000000  0.50000000  1
  Ni  Ni6  1  0.50000000  0.33503100  0.50000000  1
  Ni  Ni7  1  0.00000000  0.16496900  0.50000000  1
  Ni  Ni8  1  0.00000000  0.50000000  0.50000000  1
  Ni  Ni9  1  0.00000000  0.83503100  0.50000000  1
  O  O10  1  0.75512800  0.00000000  0.29671000  1
  O  O11  1  0.26996950  0.82205450  0.28462800  1
  O  O12  1  0.26996950  0.17794550  0.28462800  1
  O  O13  1  0.73003050  0.82205450  0.71537200  1
  O  O14  1  0.73003050  0.17794550  0.71537200  1
  O  O15  1  0.24487200  0.00000000  0.70329000  1
  O  O16  1  0.25512800  0.50000000  0.29671000  1
  O  O17  1  0.76996950  0.32205450  0.28462800  1
  O  O18  1  0.76996950  0.67794550  0.28462800  1
  O  O19  1  0.23003050  0.32205450  0.71537200  1
  O  O20  1  0.23003050  0.67794550  0.71537200  1
  O  O21  1  0.74487200  0.50000000  0.70329000  1
