# generated using pymatgen
data_Ta2CuO6
_symmetry_space_group_name_H-M   'P 1'
_cell_length_a   9.18341800
_cell_length_b   5.17091400
_cell_length_c   5.64067769
_cell_angle_alpha   90.00000000
_cell_angle_beta   123.66714386
_cell_angle_gamma   90.00000000
_symmetry_Int_Tables_number   1
_chemical_formula_structural   Ta2CuO6
_chemical_formula_sum   'Ta4 Cu2 O12'
_cell_volume   222.92989890
_cell_formula_units_Z   2
loop_
 _symmetry_equiv_pos_site_id
 _symmetry_equiv_pos_as_xyz
  1  'x, y, z'
loop_
 _atom_site_type_symbol
 _atom_site_label
 _atom_site_symmetry_multiplicity
 _atom_site_fract_x
 _atom_site_fract_y
 _atom_site_fract_z
 _atom_site_occupancy
  Ta  Ta0  1  0.25410750  0.75015450  0.76175200  1
  Ta  Ta1  1  0.74589250  0.75015450  0.23824800  1
  Ta  Ta2  1  0.75410750  0.25015450  0.76175200  1
  Ta  Ta3  1  0.24589250  0.25015450  0.23824800  1
  Cu  Cu4  1  0.00000000  0.23387300  0.50000000  1
  Cu  Cu5  1  0.50000000  0.73387300  0.50000000  1
  O  O6  1  0.19025400  0.07229700  0.50417300  1
  O  O7  1  0.80974600  0.07229700  0.49582700  1
  O  O8  1  0.00000000  0.61549700  0.50000000  1
  O  O9  1  0.00000000  0.34433300  0.00000000  1
  O  O10  1  0.19804000  0.95900700  0.98978100  1
  O  O11  1  0.80196000  0.95900700  0.01021900  1
  O  O12  1  0.69025400  0.57229700  0.50417300  1
  O  O13  1  0.30974600  0.57229700  0.49582700  1
  O  O14  1  0.50000000  0.11549700  0.50000000  1
  O  O15  1  0.50000000  0.84433300  0.00000000  1
  O  O16  1  0.69804000  0.45900700  0.98978100  1
  O  O17  1  0.30196000  0.45900700  0.01021900  1
