# generated using pymatgen
data_TiCuGe
_symmetry_space_group_name_H-M   'P 1'
_cell_length_a   3.77651000
_cell_length_b   9.13771800
_cell_length_c   5.13596600
_cell_angle_alpha   90.00000000
_cell_angle_beta   90.00000000
_cell_angle_gamma   90.00000000
_symmetry_Int_Tables_number   1
_chemical_formula_structural   TiCuGe
_chemical_formula_sum   'Ti4 Cu4 Ge4'
_cell_volume   177.23542467
_cell_formula_units_Z   4
loop_
 _symmetry_equiv_pos_site_id
 _symmetry_equiv_pos_as_xyz
  1  'x, y, z'
loop_
 _atom_site_type_symbol
 _atom_site_label
 _atom_site_symmetry_multiplicity
 _atom_site_fract_x
 _atom_site_fract_y
 _atom_site_fract_z
 _atom_site_occupancy
  Ti  Ti0  1  0.00000000  0.29985100  0.75000000  1
  Ti  Ti1  1  0.50000000  0.20014900  0.25000000  1
  Ti  Ti2  1  0.50000000  0.79985100  0.75000000  1
  Ti  Ti3  1  0.00000000  0.70014900  0.25000000  1
  Cu  Cu4  1  0.00000000  0.00000000  0.50000000  1
  Cu  Cu5  1  0.00000000  0.00000000  0.00000000  1
  Cu  Cu6  1  0.50000000  0.50000000  0.50000000  1
  Cu  Cu7  1  0.50000000  0.50000000  0.00000000  1
  Ge  Ge8  1  0.50000000  0.10712300  0.75000000  1
  Ge  Ge9  1  0.00000000  0.39287700  0.25000000  1
  Ge  Ge10  1  0.00000000  0.60712300  0.75000000  1
  Ge  Ge11  1  0.50000000  0.89287700  0.25000000  1
