# generated using pymatgen
data_Cu2OF2
_symmetry_space_group_name_H-M   'P 1'
_cell_length_a   5.70585800
_cell_length_b   5.70585800
_cell_length_c   10.16585800
_cell_angle_alpha   90.00000000
_cell_angle_beta   90.00000000
_cell_angle_gamma   90.00000000
_symmetry_Int_Tables_number   1
_chemical_formula_structural   Cu2OF2
_chemical_formula_sum   'Cu8 O4 F8'
_cell_volume   330.96796347
_cell_formula_units_Z   4
loop_
 _symmetry_equiv_pos_site_id
 _symmetry_equiv_pos_as_xyz
  1  'x, y, z'
loop_
 _atom_site_type_symbol
 _atom_site_label
 _atom_site_symmetry_multiplicity
 _atom_site_fract_x
 _atom_site_fract_y
 _atom_site_fract_z
 _atom_site_occupancy
  Cu  Cu0  1  0.00000000  0.75000000  0.12500000  1
  Cu  Cu1  1  0.00000000  0.25000000  0.12500000  1
  Cu  Cu2  1  0.75000000  0.50000000  0.37500000  1
  Cu  Cu3  1  0.25000000  0.50000000  0.37500000  1
  Cu  Cu4  1  0.50000000  0.25000000  0.62500000  1
  Cu  Cu5  1  0.50000000  0.75000000  0.62500000  1
  Cu  Cu6  1  0.25000000  0.00000000  0.87500000  1
  Cu  Cu7  1  0.75000000  0.00000000  0.87500000  1
  O  O8  1  0.00000000  0.50000000  0.25000000  1
  O  O9  1  0.00000000  0.00000000  0.00000000  1
  O  O10  1  0.50000000  0.00000000  0.75000000  1
  O  O11  1  0.50000000  0.50000000  0.50000000  1
  F  F12  1  0.00000000  0.00000000  0.25414500  1
  F  F13  1  0.50000000  0.00000000  0.00414500  1
  F  F14  1  0.50000000  0.50000000  0.24585500  1
  F  F15  1  0.50000000  0.00000000  0.49585500  1
  F  F16  1  0.50000000  0.50000000  0.75414500  1
  F  F17  1  0.00000000  0.50000000  0.50414500  1
  F  F18  1  0.00000000  0.00000000  0.74585500  1
  F  F19  1  0.00000000  0.50000000  0.99585500  1
