# generated using pymatgen
data_LiVS2
_symmetry_space_group_name_H-M   'P 1'
_cell_length_a   3.50457616
_cell_length_b   3.50457616
_cell_length_c   17.94529808
_cell_angle_alpha   90.00000000
_cell_angle_beta   90.00000000
_cell_angle_gamma   120.00000000
_symmetry_Int_Tables_number   1
_chemical_formula_structural   LiVS2
_chemical_formula_sum   'Li3 V3 S6'
_cell_volume   190.87643414
_cell_formula_units_Z   3
loop_
 _symmetry_equiv_pos_site_id
 _symmetry_equiv_pos_as_xyz
  1  'x, y, z'
loop_
 _atom_site_type_symbol
 _atom_site_label
 _atom_site_symmetry_multiplicity
 _atom_site_fract_x
 _atom_site_fract_y
 _atom_site_fract_z
 _atom_site_occupancy
  Li  Li0  1  0.00000000  0.00000000  0.00000000  1
  Li  Li1  1  0.66666667  0.33333333  0.33333333  1
  Li  Li2  1  0.33333333  0.66666667  0.66666667  1
  V  V3  1  0.33333333  0.66666667  0.16666667  1
  V  V4  1  1.00000000  1.00000000  0.50000000  1
  V  V5  1  0.66666667  0.33333333  0.83333333  1
  S  S6  1  0.66666667  0.33333333  0.09004633  1
  S  S7  1  0.00000000  0.00000000  0.24328700  1
  S  S8  1  0.33333333  0.66666667  0.42337967  1
  S  S9  1  0.66666667  0.33333333  0.57662033  1
  S  S10  1  0.00000000  0.00000000  0.75671300  1
  S  S11  1  0.33333333  0.66666667  0.90995367  1
