# generated using pymatgen
data_Li2CuS2
_symmetry_space_group_name_H-M   'P 1'
_cell_length_a   8.15726200
_cell_length_b   3.43154400
_cell_length_c   6.16711344
_cell_angle_alpha   90.00000000
_cell_angle_beta   103.66522614
_cell_angle_gamma   90.00000000
_symmetry_Int_Tables_number   1
_chemical_formula_structural   Li2CuS2
_chemical_formula_sum   'Li4 Cu2 S4'
_cell_volume   167.74317250
_cell_formula_units_Z   2
loop_
 _symmetry_equiv_pos_site_id
 _symmetry_equiv_pos_as_xyz
  1  'x, y, z'
loop_
 _atom_site_type_symbol
 _atom_site_label
 _atom_site_symmetry_multiplicity
 _atom_site_fract_x
 _atom_site_fract_y
 _atom_site_fract_z
 _atom_site_occupancy
  Li  Li0  1  0.66576600  0.00000000  0.66537700  1
  Li  Li1  1  0.83423400  0.50000000  0.33462300  1
  Li  Li2  1  0.16576600  0.50000000  0.66537700  1
  Li  Li3  1  0.33423400  0.00000000  0.33462300  1
  Cu  Cu4  1  0.00000000  0.00000000  0.00000000  1
  Cu  Cu5  1  0.50000000  0.50000000  0.00000000  1
  S  S6  1  0.60936300  0.00000000  0.24565500  1
  S  S7  1  0.89063700  0.50000000  0.75434500  1
  S  S8  1  0.10936300  0.50000000  0.24565500  1
  S  S9  1  0.39063700  0.00000000  0.75434500  1
