# generated using pymatgen
data_Co3TeO8
_symmetry_space_group_name_H-M   'P 1'
_cell_length_a   5.70823203
_cell_length_b   5.70823203
_cell_length_c   14.54060764
_cell_angle_alpha   90.00000000
_cell_angle_beta   90.00000000
_cell_angle_gamma   120.00000000
_symmetry_Int_Tables_number   1
_chemical_formula_structural   Co3TeO8
_chemical_formula_sum   'Co9 Te3 O24'
_cell_volume   410.31408292
_cell_formula_units_Z   3
loop_
 _symmetry_equiv_pos_site_id
 _symmetry_equiv_pos_as_xyz
  1  'x, y, z'
loop_
 _atom_site_type_symbol
 _atom_site_label
 _atom_site_symmetry_multiplicity
 _atom_site_fract_x
 _atom_site_fract_y
 _atom_site_fract_z
 _atom_site_occupancy
  Co  Co0  1  0.50000000  0.00000000  0.00000000  1
  Co  Co1  1  0.50000000  0.50000000  0.00000000  1
  Co  Co2  1  0.00000000  0.50000000  0.00000000  1
  Co  Co3  1  0.16666667  0.33333333  0.33333333  1
  Co  Co4  1  0.16666667  0.83333333  0.33333333  1
  Co  Co5  1  0.66666667  0.83333333  0.33333333  1
  Co  Co6  1  0.83333333  0.66666667  0.66666667  1
  Co  Co7  1  0.83333333  0.16666667  0.66666667  1
  Co  Co8  1  0.33333333  0.16666667  0.66666667  1
  Te  Te9  1  0.33333333  0.66666667  0.16666667  1
  Te  Te10  1  1.00000000  1.00000000  0.50000000  1
  Te  Te11  1  0.66666667  0.33333333  0.83333333  1
  O  O12  1  0.48628267  0.51371733  0.25579033  1
  O  O13  1  0.48628267  0.97256533  0.25579033  1
  O  O14  1  0.00000000  0.00000000  0.27306900  1
  O  O15  1  0.02743467  0.51371733  0.25579033  1
  O  O16  1  0.63923200  0.81961600  0.07754300  1
  O  O17  1  0.66666667  0.33333333  0.06026433  1
  O  O18  1  0.18038400  0.36076800  0.07754300  1
  O  O19  1  0.18038400  0.81961600  0.07754300  1
  O  O20  1  0.15294933  0.84705067  0.58912367  1
  O  O21  1  0.15294933  0.30589867  0.58912367  1
  O  O22  1  0.66666667  0.33333333  0.60640233  1
  O  O23  1  0.69410133  0.84705067  0.58912367  1
  O  O24  1  0.30589867  0.15294933  0.41087633  1
  O  O25  1  0.33333333  0.66666667  0.39359767  1
  O  O26  1  0.84705067  0.69410133  0.41087633  1
  O  O27  1  0.84705067  0.15294933  0.41087633  1
  O  O28  1  0.81961600  0.18038400  0.92245700  1
  O  O29  1  0.81961600  0.63923200  0.92245700  1
  O  O30  1  0.33333333  0.66666667  0.93973567  1
  O  O31  1  0.36076800  0.18038400  0.92245700  1
  O  O32  1  0.97256533  0.48628267  0.74420967  1
  O  O33  1  0.00000000  0.00000000  0.72693100  1
  O  O34  1  0.51371733  0.02743467  0.74420967  1
  O  O35  1  0.51371733  0.48628267  0.74420967  1
