# generated using pymatgen
data_BaCuO2
_symmetry_space_group_name_H-M   'P 1'
_cell_length_a   3.76948933
_cell_length_b   5.75462251
_cell_length_c   11.75018900
_cell_angle_alpha   90.00000000
_cell_angle_beta   90.00000000
_cell_angle_gamma   90.00000000
_symmetry_Int_Tables_number   1
_chemical_formula_structural   BaCuO2
_chemical_formula_sum   'Ba4 Cu4 O8'
_cell_volume   254.88496018
_cell_formula_units_Z   4
loop_
 _symmetry_equiv_pos_site_id
 _symmetry_equiv_pos_as_xyz
  1  'x, y, z'
loop_
 _atom_site_type_symbol
 _atom_site_label
 _atom_site_symmetry_multiplicity
 _atom_site_fract_x
 _atom_site_fract_y
 _atom_site_fract_z
 _atom_site_occupancy
  Ba  Ba0  1  0.50544600  0.97383100  0.86222350  1
  Ba  Ba1  1  0.50544600  0.02616900  0.13777650  1
  Ba  Ba2  1  0.49455400  0.47383100  0.63777650  1
  Ba  Ba3  1  0.49455400  0.52616900  0.36222350  1
  Cu  Cu4  1  0.98549600  0.98608100  0.62350450  1
  Cu  Cu5  1  0.98549600  0.01391900  0.37649550  1
  Cu  Cu6  1  0.01450400  0.48608100  0.87649550  1
  Cu  Cu7  1  0.01450400  0.51391900  0.12350450  1
  O  O8  1  0.97174500  0.77129900  0.49756050  1
  O  O9  1  0.02825500  0.72870100  0.99756050  1
  O  O10  1  0.99985100  0.77328500  0.24842450  1
  O  O11  1  0.99985100  0.22671500  0.75157550  1
  O  O12  1  0.97174500  0.22870100  0.50243950  1
  O  O13  1  0.02825500  0.27129900  0.00243950  1
  O  O14  1  0.00014900  0.27328500  0.25157550  1
  O  O15  1  0.00014900  0.72671500  0.74842450  1
