# generated using pymatgen
data_Ti3NO4
_symmetry_space_group_name_H-M   'P 1'
_cell_length_a   3.87909000
_cell_length_b   9.53477200
_cell_length_c   10.05278800
_cell_angle_alpha   90.00000000
_cell_angle_beta   90.00000000
_cell_angle_gamma   90.00000000
_symmetry_Int_Tables_number   1
_chemical_formula_structural   Ti3NO4
_chemical_formula_sum   'Ti12 N4 O16'
_cell_volume   371.81481674
_cell_formula_units_Z   4
loop_
 _symmetry_equiv_pos_site_id
 _symmetry_equiv_pos_as_xyz
  1  'x, y, z'
loop_
 _atom_site_type_symbol
 _atom_site_label
 _atom_site_symmetry_multiplicity
 _atom_site_fract_x
 _atom_site_fract_y
 _atom_site_fract_z
 _atom_site_occupancy
  Ti  Ti0  1  0.00000000  0.35713100  0.92763300  1
  Ti  Ti1  1  0.00000000  0.35713100  0.57236700  1
  Ti  Ti2  1  0.00000000  0.30174400  0.25000000  1
  Ti  Ti3  1  0.50000000  0.14286900  0.42763300  1
  Ti  Ti4  1  0.50000000  0.14286900  0.07236700  1
  Ti  Ti5  1  0.50000000  0.19825600  0.75000000  1
  Ti  Ti6  1  0.50000000  0.85713100  0.92763300  1
  Ti  Ti7  1  0.50000000  0.85713100  0.57236700  1
  Ti  Ti8  1  0.50000000  0.80174400  0.25000000  1
  Ti  Ti9  1  0.00000000  0.64286900  0.42763300  1
  Ti  Ti10  1  0.00000000  0.64286900  0.07236700  1
  Ti  Ti11  1  0.00000000  0.69825600  0.75000000  1
  N  N12  1  0.00000000  0.26884300  0.75000000  1
  N  N13  1  0.50000000  0.23115700  0.25000000  1
  N  N14  1  0.50000000  0.76884300  0.75000000  1
  N  N15  1  0.00000000  0.73115700  0.25000000  1
  O  O16  1  0.00000000  0.18481800  0.06264900  1
  O  O17  1  0.00000000  0.45286500  0.38038800  1
  O  O18  1  0.00000000  0.45286500  0.11961200  1
  O  O19  1  0.00000000  0.18481800  0.43735100  1
  O  O20  1  0.50000000  0.04713500  0.88038800  1
  O  O21  1  0.50000000  0.04713500  0.61961200  1
  O  O22  1  0.50000000  0.31518200  0.56264900  1
  O  O23  1  0.50000000  0.31518200  0.93735100  1
  O  O24  1  0.50000000  0.68481800  0.06264900  1
  O  O25  1  0.50000000  0.95286500  0.38038800  1
  O  O26  1  0.50000000  0.95286500  0.11961200  1
  O  O27  1  0.50000000  0.68481800  0.43735100  1
  O  O28  1  0.00000000  0.54713500  0.88038800  1
  O  O29  1  0.00000000  0.54713500  0.61961200  1
  O  O30  1  0.00000000  0.81518200  0.56264900  1
  O  O31  1  0.00000000  0.81518200  0.93735100  1
