# generated using pymatgen
data_Cu2O3
_symmetry_space_group_name_H-M   'P 1'
_cell_length_a   9.34019400
_cell_length_b   9.34019400
_cell_length_c   9.34019400
_cell_angle_alpha   90.00000000
_cell_angle_beta   90.00000000
_cell_angle_gamma   90.00000000
_symmetry_Int_Tables_number   1
_chemical_formula_structural   Cu2O3
_chemical_formula_sum   'Cu32 O48'
_cell_volume   814.83127617
_cell_formula_units_Z   16
loop_
 _symmetry_equiv_pos_site_id
 _symmetry_equiv_pos_as_xyz
  1  'x, y, z'
loop_
 _atom_site_type_symbol
 _atom_site_label
 _atom_site_symmetry_multiplicity
 _atom_site_fract_x
 _atom_site_fract_y
 _atom_site_fract_z
 _atom_site_occupancy
  Cu  Cu0  1  0.75000000  0.25000000  0.25000000  1
  Cu  Cu1  1  0.75000000  0.46595900  0.50000000  1
  Cu  Cu2  1  0.00000000  0.75000000  0.03404100  1
  Cu  Cu3  1  0.00000000  0.25000000  0.46595900  1
  Cu  Cu4  1  0.03404100  0.00000000  0.75000000  1
  Cu  Cu5  1  0.03404100  0.50000000  0.25000000  1
  Cu  Cu6  1  0.25000000  0.46595900  0.00000000  1
  Cu  Cu7  1  0.25000000  0.75000000  0.25000000  1
  Cu  Cu8  1  0.25000000  0.25000000  0.75000000  1
  Cu  Cu9  1  0.25000000  0.03404100  0.50000000  1
  Cu  Cu10  1  0.25000000  0.25000000  0.25000000  1
  Cu  Cu11  1  0.46595900  0.00000000  0.25000000  1
  Cu  Cu12  1  0.46595900  0.50000000  0.75000000  1
  Cu  Cu13  1  0.50000000  0.75000000  0.46595900  1
  Cu  Cu14  1  0.50000000  0.25000000  0.03404100  1
  Cu  Cu15  1  0.75000000  0.03404100  0.00000000  1
  Cu  Cu16  1  0.25000000  0.75000000  0.75000000  1
  Cu  Cu17  1  0.25000000  0.96595900  0.00000000  1
  Cu  Cu18  1  0.50000000  0.25000000  0.53404100  1
  Cu  Cu19  1  0.50000000  0.75000000  0.96595900  1
  Cu  Cu20  1  0.53404100  0.50000000  0.25000000  1
  Cu  Cu21  1  0.53404100  0.00000000  0.75000000  1
  Cu  Cu22  1  0.75000000  0.96595900  0.50000000  1
  Cu  Cu23  1  0.75000000  0.25000000  0.75000000  1
  Cu  Cu24  1  0.75000000  0.75000000  0.25000000  1
  Cu  Cu25  1  0.75000000  0.53404100  0.00000000  1
  Cu  Cu26  1  0.75000000  0.75000000  0.75000000  1
  Cu  Cu27  1  0.96595900  0.50000000  0.75000000  1
  Cu  Cu28  1  0.96595900  0.00000000  0.25000000  1
  Cu  Cu29  1  0.00000000  0.25000000  0.96595900  1
  Cu  Cu30  1  0.00000000  0.75000000  0.53404100  1
  Cu  Cu31  1  0.25000000  0.53404100  0.50000000  1
  O  O32  1  0.89643400  0.62170200  0.16424300  1
  O  O33  1  0.89643400  0.37829800  0.33575700  1
  O  O34  1  0.37829800  0.66424300  0.60356600  1
  O  O35  1  0.87829800  0.33575700  0.60356600  1
  O  O36  1  0.12170200  0.16424300  0.60356600  1
  O  O37  1  0.12170200  0.33575700  0.10356600  1
  O  O38  1  0.60356600  0.37829800  0.66424300  1
  O  O39  1  0.10356600  0.12170200  0.33575700  1
  O  O40  1  0.66424300  0.60356600  0.37829800  1
  O  O41  1  0.16424300  0.39643400  0.37829800  1
  O  O42  1  0.16424300  0.89643400  0.62170200  1
  O  O43  1  0.16424300  0.60356600  0.12170200  1
  O  O44  1  0.33575700  0.89643400  0.37829800  1
  O  O45  1  0.33575700  0.10356600  0.12170200  1
  O  O46  1  0.33575700  0.60356600  0.87829800  1
  O  O47  1  0.83575700  0.89643400  0.12170200  1
  O  O48  1  0.89643400  0.12170200  0.83575700  1
  O  O49  1  0.39643400  0.37829800  0.16424300  1
  O  O50  1  0.37829800  0.16424300  0.39643400  1
  O  O51  1  0.37829800  0.33575700  0.89643400  1
  O  O52  1  0.62170200  0.16424300  0.89643400  1
  O  O53  1  0.12170200  0.83575700  0.89643400  1
  O  O54  1  0.60356600  0.87829800  0.33575700  1
  O  O55  1  0.60356600  0.12170200  0.16424300  1
  O  O56  1  0.39643400  0.12170200  0.66424300  1
  O  O57  1  0.39643400  0.87829800  0.83575700  1
  O  O58  1  0.87829800  0.16424300  0.10356600  1
  O  O59  1  0.37829800  0.83575700  0.10356600  1
  O  O60  1  0.62170200  0.66424300  0.10356600  1
  O  O61  1  0.62170200  0.83575700  0.60356600  1
  O  O62  1  0.10356600  0.87829800  0.16424300  1
  O  O63  1  0.60356600  0.62170200  0.83575700  1
  O  O64  1  0.16424300  0.10356600  0.87829800  1
  O  O65  1  0.66424300  0.89643400  0.87829800  1
  O  O66  1  0.66424300  0.39643400  0.12170200  1
  O  O67  1  0.66424300  0.10356600  0.62170200  1
  O  O68  1  0.83575700  0.39643400  0.87829800  1
  O  O69  1  0.83575700  0.60356600  0.62170200  1
  O  O70  1  0.83575700  0.10356600  0.37829800  1
  O  O71  1  0.33575700  0.39643400  0.62170200  1
  O  O72  1  0.39643400  0.62170200  0.33575700  1
  O  O73  1  0.89643400  0.87829800  0.66424300  1
  O  O74  1  0.87829800  0.66424300  0.89643400  1
  O  O75  1  0.87829800  0.83575700  0.39643400  1
  O  O76  1  0.12170200  0.66424300  0.39643400  1
  O  O77  1  0.62170200  0.33575700  0.39643400  1
  O  O78  1  0.10356600  0.37829800  0.83575700  1
  O  O79  1  0.10356600  0.62170200  0.66424300  1
