# generated using pymatgen
data_CoSnO3
_symmetry_space_group_name_H-M   'P 1'
_cell_length_a   5.35915454
_cell_length_b   5.35915454
_cell_length_c   14.24682225
_cell_angle_alpha   90.00000000
_cell_angle_beta   90.00000000
_cell_angle_gamma   120.00000000
_symmetry_Int_Tables_number   1
_chemical_formula_structural   CoSnO3
_chemical_formula_sum   'Co6 Sn6 O18'
_cell_volume   354.35714969
_cell_formula_units_Z   6
loop_
 _symmetry_equiv_pos_site_id
 _symmetry_equiv_pos_as_xyz
  1  'x, y, z'
loop_
 _atom_site_type_symbol
 _atom_site_label
 _atom_site_symmetry_multiplicity
 _atom_site_fract_x
 _atom_site_fract_y
 _atom_site_fract_z
 _atom_site_occupancy
  Co  Co0  1  0.33333333  0.66666667  0.30815067  1
  Co  Co1  1  0.33333333  0.66666667  0.02518267  1
  Co  Co2  1  0.00000000  0.00000000  0.64148400  1
  Co  Co3  1  0.00000000  0.00000000  0.35851600  1
  Co  Co4  1  0.66666667  0.33333333  0.97481733  1
  Co  Co5  1  0.66666667  0.33333333  0.69184933  1
  Sn  Sn6  1  0.66666667  0.33333333  0.18618583  1
  Sn  Sn7  1  0.00000000  0.00000000  0.14714750  1
  Sn  Sn8  1  0.33333333  0.66666667  0.51951917  1
  Sn  Sn9  1  0.66666667  0.33333333  0.48048083  1
  Sn  Sn10  1  0.00000000  0.00000000  0.85285250  1
  Sn  Sn11  1  0.33333333  0.66666667  0.81381417  1
  O  O12  1  0.99467350  0.69695100  0.24889800  1
  O  O13  1  0.70227750  0.00532650  0.24889800  1
  O  O14  1  0.36361767  0.03561083  0.08443533  1
  O  O15  1  0.30304900  0.29772250  0.24889800  1
  O  O16  1  0.96438917  0.32800683  0.08443533  1
  O  O17  1  0.67199317  0.63638233  0.08443533  1
  O  O18  1  0.66134017  0.03028433  0.58223133  1
  O  O19  1  0.36894417  0.33865983  0.58223133  1
  O  O20  1  0.03028433  0.36894417  0.41776867  1
  O  O21  1  0.96971567  0.63105583  0.58223133  1
  O  O22  1  0.63105583  0.66134017  0.41776867  1
  O  O23  1  0.33865983  0.96971567  0.41776867  1
  O  O24  1  0.32800683  0.36361767  0.91556467  1
  O  O25  1  0.03561083  0.67199317  0.91556467  1
  O  O26  1  0.69695100  0.70227750  0.75110200  1
  O  O27  1  0.63638233  0.96438917  0.91556467  1
  O  O28  1  0.29772250  0.99467350  0.75110200  1
  O  O29  1  0.00532650  0.30304900  0.75110200  1
