# generated using pymatgen
data_Sr3(AlSn)2
_symmetry_space_group_name_H-M   'P 1'
_cell_length_a   4.50823000
_cell_length_b   4.98257800
_cell_length_c   20.05367000
_cell_angle_alpha   90.00000000
_cell_angle_beta   90.00000000
_cell_angle_gamma   90.00000000
_symmetry_Int_Tables_number   1
_chemical_formula_structural   Sr3(AlSn)2
_chemical_formula_sum   'Sr6 Al4 Sn4'
_cell_volume   450.45772049
_cell_formula_units_Z   2
loop_
 _symmetry_equiv_pos_site_id
 _symmetry_equiv_pos_as_xyz
  1  'x, y, z'
loop_
 _atom_site_type_symbol
 _atom_site_label
 _atom_site_symmetry_multiplicity
 _atom_site_fract_x
 _atom_site_fract_y
 _atom_site_fract_z
 _atom_site_occupancy
  Sr  Sr0  1  0.50000000  0.50000000  0.68234600  1
  Sr  Sr1  1  0.00000000  0.00000000  0.81765400  1
  Sr  Sr2  1  0.50000000  0.00000000  0.00000000  1
  Sr  Sr3  1  0.00000000  0.00000000  0.18234600  1
  Sr  Sr4  1  0.50000000  0.50000000  0.31765400  1
  Sr  Sr5  1  0.00000000  0.50000000  0.50000000  1
  Al  Al6  1  0.00000000  0.50000000  0.93663600  1
  Al  Al7  1  0.50000000  0.00000000  0.56336400  1
  Al  Al8  1  0.50000000  0.00000000  0.43663600  1
  Al  Al9  1  0.00000000  0.50000000  0.06336400  1
  Sn  Sn10  1  0.50000000  0.50000000  0.85838500  1
  Sn  Sn11  1  0.00000000  0.00000000  0.64161500  1
  Sn  Sn12  1  0.00000000  0.00000000  0.35838500  1
  Sn  Sn13  1  0.50000000  0.50000000  0.14161500  1
