# generated using pymatgen
data_YUO4
_symmetry_space_group_name_H-M   'P 1'
_cell_length_a   5.36755000
_cell_length_b   5.36755000
_cell_length_c   10.69983800
_cell_angle_alpha   90.00000000
_cell_angle_beta   90.00000000
_cell_angle_gamma   90.00000000
_symmetry_Int_Tables_number   1
_chemical_formula_structural   YUO4
_chemical_formula_sum   'Y4 U4 O16'
_cell_volume   308.26867781
_cell_formula_units_Z   4
loop_
 _symmetry_equiv_pos_site_id
 _symmetry_equiv_pos_as_xyz
  1  'x, y, z'
loop_
 _atom_site_type_symbol
 _atom_site_label
 _atom_site_symmetry_multiplicity
 _atom_site_fract_x
 _atom_site_fract_y
 _atom_site_fract_z
 _atom_site_occupancy
  Y  Y0  1  0.00000000  0.50000000  0.25000000  1
  Y  Y1  1  0.00000000  0.00000000  0.00000000  1
  Y  Y2  1  0.50000000  0.00000000  0.75000000  1
  Y  Y3  1  0.50000000  0.50000000  0.50000000  1
  U  U4  1  0.50000000  0.00000000  0.25000000  1
  U  U5  1  0.50000000  0.50000000  0.00000000  1
  U  U6  1  0.00000000  0.50000000  0.75000000  1
  U  U7  1  0.00000000  0.00000000  0.50000000  1
  O  O8  1  0.25000000  0.23738600  0.37500000  1
  O  O9  1  0.75000000  0.76261400  0.37500000  1
  O  O10  1  0.75000000  0.23738600  0.37500000  1
  O  O11  1  0.25000000  0.76261400  0.37500000  1
  O  O12  1  0.73738600  0.25000000  0.12500000  1
  O  O13  1  0.26261400  0.75000000  0.12500000  1
  O  O14  1  0.26261400  0.25000000  0.12500000  1
  O  O15  1  0.73738600  0.75000000  0.12500000  1
  O  O16  1  0.75000000  0.73738600  0.87500000  1
  O  O17  1  0.25000000  0.26261400  0.87500000  1
  O  O18  1  0.25000000  0.73738600  0.87500000  1
  O  O19  1  0.75000000  0.26261400  0.87500000  1
  O  O20  1  0.23738600  0.75000000  0.62500000  1
  O  O21  1  0.76261400  0.25000000  0.62500000  1
  O  O22  1  0.76261400  0.75000000  0.62500000  1
  O  O23  1  0.23738600  0.25000000  0.62500000  1
