# generated using pymatgen
data_Nb5SiSn2
_symmetry_space_group_name_H-M   'P 1'
_cell_length_a   10.67506400
_cell_length_b   10.67506400
_cell_length_c   5.16702600
_cell_angle_alpha   90.00000000
_cell_angle_beta   90.00000000
_cell_angle_gamma   90.00000000
_symmetry_Int_Tables_number   1
_chemical_formula_structural   Nb5SiSn2
_chemical_formula_sum   'Nb20 Si4 Sn8'
_cell_volume   588.81873747
_cell_formula_units_Z   4
loop_
 _symmetry_equiv_pos_site_id
 _symmetry_equiv_pos_as_xyz
  1  'x, y, z'
loop_
 _atom_site_type_symbol
 _atom_site_label
 _atom_site_symmetry_multiplicity
 _atom_site_fract_x
 _atom_site_fract_y
 _atom_site_fract_z
 _atom_site_occupancy
  Nb  Nb0  1  0.43020950  0.28942550  0.50000000  1
  Nb  Nb1  1  0.21057450  0.06979050  0.50000000  1
  Nb  Nb2  1  0.56979050  0.71057450  0.50000000  1
  Nb  Nb3  1  0.50000000  0.00000000  0.25000000  1
  Nb  Nb4  1  0.78942550  0.06979050  0.00000000  1
  Nb  Nb5  1  0.21057450  0.93020950  0.00000000  1
  Nb  Nb6  1  0.50000000  0.00000000  0.75000000  1
  Nb  Nb7  1  0.43020950  0.71057450  0.00000000  1
  Nb  Nb8  1  0.78942550  0.93020950  0.50000000  1
  Nb  Nb9  1  0.56979050  0.28942550  0.00000000  1
  Nb  Nb10  1  0.93020950  0.78942550  0.00000000  1
  Nb  Nb11  1  0.71057450  0.56979050  0.00000000  1
  Nb  Nb12  1  0.06979050  0.21057450  0.00000000  1
  Nb  Nb13  1  0.00000000  0.50000000  0.75000000  1
  Nb  Nb14  1  0.28942550  0.56979050  0.50000000  1
  Nb  Nb15  1  0.71057450  0.43020950  0.50000000  1
  Nb  Nb16  1  0.00000000  0.50000000  0.25000000  1
  Nb  Nb17  1  0.93020950  0.21057450  0.50000000  1
  Nb  Nb18  1  0.28942550  0.43020950  0.00000000  1
  Nb  Nb19  1  0.06979050  0.78942550  0.50000000  1
  Si  Si20  1  0.00000000  0.00000000  0.75000000  1
  Si  Si21  1  0.00000000  0.00000000  0.25000000  1
  Si  Si22  1  0.50000000  0.50000000  0.25000000  1
  Si  Si23  1  0.50000000  0.50000000  0.75000000  1
  Sn  Sn24  1  0.66881500  0.83118500  0.00000000  1
  Sn  Sn25  1  0.66881500  0.16881500  0.50000000  1
  Sn  Sn26  1  0.33118500  0.16881500  0.00000000  1
  Sn  Sn27  1  0.33118500  0.83118500  0.50000000  1
  Sn  Sn28  1  0.16881500  0.33118500  0.50000000  1
  Sn  Sn29  1  0.16881500  0.66881500  0.00000000  1
  Sn  Sn30  1  0.83118500  0.66881500  0.50000000  1
  Sn  Sn31  1  0.83118500  0.33118500  0.00000000  1
