# generated using pymatgen
data_Sr(SiAu)2
_symmetry_space_group_name_H-M   'P 1'
_cell_length_a   4.46220400
_cell_length_b   4.46220400
_cell_length_c   10.21996200
_cell_angle_alpha   90.00000000
_cell_angle_beta   90.00000000
_cell_angle_gamma   90.00000000
_symmetry_Int_Tables_number   1
_chemical_formula_structural   Sr(SiAu)2
_chemical_formula_sum   'Sr2 Si4 Au4'
_cell_volume   203.49236695
_cell_formula_units_Z   2
loop_
 _symmetry_equiv_pos_site_id
 _symmetry_equiv_pos_as_xyz
  1  'x, y, z'
loop_
 _atom_site_type_symbol
 _atom_site_label
 _atom_site_symmetry_multiplicity
 _atom_site_fract_x
 _atom_site_fract_y
 _atom_site_fract_z
 _atom_site_occupancy
  Sr  Sr0  1  0.00000000  0.00000000  0.00000000  1
  Sr  Sr1  1  0.50000000  0.50000000  0.50000000  1
  Si  Si2  1  0.50000000  0.50000000  0.11663400  1
  Si  Si3  1  0.00000000  0.00000000  0.38336600  1
  Si  Si4  1  0.00000000  0.00000000  0.61663400  1
  Si  Si5  1  0.50000000  0.50000000  0.88336600  1
  Au  Au6  1  0.00000000  0.50000000  0.25000000  1
  Au  Au7  1  0.50000000  0.00000000  0.25000000  1
  Au  Au8  1  0.50000000  0.00000000  0.75000000  1
  Au  Au9  1  0.00000000  0.50000000  0.75000000  1
