# generated using pymatgen
data_HfNi3
_symmetry_space_group_name_H-M   'P 1'
_cell_length_a   5.26838780
_cell_length_b   5.26838780
_cell_length_c   19.27061826
_cell_angle_alpha   90.00000000
_cell_angle_beta   90.00000000
_cell_angle_gamma   120.00000000
_symmetry_Int_Tables_number   1
_chemical_formula_structural   HfNi3
_chemical_formula_sum   'Hf9 Ni27'
_cell_volume   463.21407872
_cell_formula_units_Z   9
loop_
 _symmetry_equiv_pos_site_id
 _symmetry_equiv_pos_as_xyz
  1  'x, y, z'
loop_
 _atom_site_type_symbol
 _atom_site_label
 _atom_site_symmetry_multiplicity
 _atom_site_fract_x
 _atom_site_fract_y
 _atom_site_fract_z
 _atom_site_occupancy
  Hf  Hf0  1  0.66666667  0.33333333  0.11455833  1
  Hf  Hf1  1  0.00000000  0.00000000  0.21877500  1
  Hf  Hf2  1  0.00000000  0.00000000  0.00000000  1
  Hf  Hf3  1  0.33333333  0.66666667  0.44789167  1
  Hf  Hf4  1  0.66666667  0.33333333  0.55210833  1
  Hf  Hf5  1  0.66666667  0.33333333  0.33333333  1
  Hf  Hf6  1  0.00000000  0.00000000  0.78122500  1
  Hf  Hf7  1  0.33333333  0.66666667  0.88544167  1
  Hf  Hf8  1  0.33333333  0.66666667  0.66666667  1
  Ni  Ni9  1  0.02100933  0.51050467  0.22325767  1
  Ni  Ni10  1  0.48949533  0.51050467  0.22325767  1
  Ni  Ni11  1  0.48949533  0.97899067  0.22325767  1
  Ni  Ni12  1  0.50000000  0.00000000  0.00000000  1
  Ni  Ni13  1  0.50000000  0.50000000  0.00000000  1
  Ni  Ni14  1  0.00000000  0.50000000  0.00000000  1
  Ni  Ni15  1  0.17717133  0.35434267  0.11007567  1
  Ni  Ni16  1  0.17717133  0.82282867  0.11007567  1
  Ni  Ni17  1  0.64565733  0.82282867  0.11007567  1
  Ni  Ni18  1  0.68767600  0.84383800  0.55659100  1
  Ni  Ni19  1  0.15616200  0.84383800  0.55659100  1
  Ni  Ni20  1  0.15616200  0.31232400  0.55659100  1
  Ni  Ni21  1  0.16666667  0.33333333  0.33333333  1
  Ni  Ni22  1  0.16666667  0.83333333  0.33333333  1
  Ni  Ni23  1  0.66666667  0.83333333  0.33333333  1
  Ni  Ni24  1  0.84383800  0.68767600  0.44340900  1
  Ni  Ni25  1  0.84383800  0.15616200  0.44340900  1
  Ni  Ni26  1  0.31232400  0.15616200  0.44340900  1
  Ni  Ni27  1  0.35434267  0.17717133  0.88992433  1
  Ni  Ni28  1  0.82282867  0.17717133  0.88992433  1
  Ni  Ni29  1  0.82282867  0.64565733  0.88992433  1
  Ni  Ni30  1  0.83333333  0.66666667  0.66666667  1
  Ni  Ni31  1  0.83333333  0.16666667  0.66666667  1
  Ni  Ni32  1  0.33333333  0.16666667  0.66666667  1
  Ni  Ni33  1  0.51050467  0.02100933  0.77674233  1
  Ni  Ni34  1  0.51050467  0.48949533  0.77674233  1
  Ni  Ni35  1  0.97899067  0.48949533  0.77674233  1
