# generated using pymatgen
data_V2NiSe4
_symmetry_space_group_name_H-M   'P 1'
_cell_length_a   12.95611800
_cell_length_b   3.39550400
_cell_length_c   6.19321991
_cell_angle_alpha   90.00000000
_cell_angle_beta   116.76664345
_cell_angle_gamma   90.00000000
_symmetry_Int_Tables_number   1
_chemical_formula_structural   V2NiSe4
_chemical_formula_sum   'V4 Ni2 Se8'
_cell_volume   243.26142717
_cell_formula_units_Z   2
loop_
 _symmetry_equiv_pos_site_id
 _symmetry_equiv_pos_as_xyz
  1  'x, y, z'
loop_
 _atom_site_type_symbol
 _atom_site_label
 _atom_site_symmetry_multiplicity
 _atom_site_fract_x
 _atom_site_fract_y
 _atom_site_fract_z
 _atom_site_occupancy
  V  V0  1  0.25474400  0.00000000  0.31259700  1
  V  V1  1  0.24525600  0.50000000  0.68740300  1
  V  V2  1  0.75474400  0.50000000  0.31259700  1
  V  V3  1  0.74525600  0.00000000  0.68740300  1
  Ni  Ni4  1  0.00000000  0.00000000  0.00000000  1
  Ni  Ni5  1  0.50000000  0.50000000  0.00000000  1
  Se  Se6  1  0.36061000  0.00000000  0.02213900  1
  Se  Se7  1  0.13939000  0.50000000  0.97786100  1
  Se  Se8  1  0.10484600  0.00000000  0.44654500  1
  Se  Se9  1  0.39515400  0.50000000  0.55345500  1
  Se  Se10  1  0.86061000  0.50000000  0.02213900  1
  Se  Se11  1  0.63939000  0.00000000  0.97786100  1
  Se  Se12  1  0.60484600  0.50000000  0.44654500  1
  Se  Se13  1  0.89515400  0.00000000  0.55345500  1
