# generated using pymatgen
data_SnP3
_symmetry_space_group_name_H-M   'P 1'
_cell_length_a   7.49276712
_cell_length_b   7.49276712
_cell_length_c   10.70125613
_cell_angle_alpha   90.00000000
_cell_angle_beta   90.00000000
_cell_angle_gamma   120.00000000
_symmetry_Int_Tables_number   1
_chemical_formula_structural   SnP3
_chemical_formula_sum   'Sn6 P18'
_cell_volume   520.29524884
_cell_formula_units_Z   6
loop_
 _symmetry_equiv_pos_site_id
 _symmetry_equiv_pos_as_xyz
  1  'x, y, z'
loop_
 _atom_site_type_symbol
 _atom_site_label
 _atom_site_symmetry_multiplicity
 _atom_site_fract_x
 _atom_site_fract_y
 _atom_site_fract_z
 _atom_site_occupancy
  Sn  Sn0  1  0.33333333  0.66666667  0.40937967  1
  Sn  Sn1  1  0.33333333  0.66666667  0.92395367  1
  Sn  Sn2  1  0.00000000  0.00000000  0.74271300  1
  Sn  Sn3  1  0.00000000  0.00000000  0.25728700  1
  Sn  Sn4  1  0.66666667  0.33333333  0.07604633  1
  Sn  Sn5  1  0.66666667  0.33333333  0.59062033  1
  P  P6  1  0.69722200  0.84861100  0.04941500  1
  P  P7  1  0.15138900  0.84861100  0.04941500  1
  P  P8  1  0.15138900  0.30277800  0.04941500  1
  P  P9  1  0.96944467  0.48472233  0.28391833  1
  P  P10  1  0.51527767  0.48472233  0.28391833  1
  P  P11  1  0.51527767  0.03055533  0.28391833  1
  P  P12  1  0.36388867  0.18194433  0.38274833  1
  P  P13  1  0.81805567  0.18194433  0.38274833  1
  P  P14  1  0.81805567  0.63611133  0.38274833  1
  P  P15  1  0.63611133  0.81805567  0.61725167  1
  P  P16  1  0.18194433  0.81805567  0.61725167  1
  P  P17  1  0.18194433  0.36388867  0.61725167  1
  P  P18  1  0.03055533  0.51527767  0.71608167  1
  P  P19  1  0.48472233  0.51527767  0.71608167  1
  P  P20  1  0.48472233  0.96944467  0.71608167  1
  P  P21  1  0.30277800  0.15138900  0.95058500  1
  P  P22  1  0.84861100  0.15138900  0.95058500  1
  P  P23  1  0.84861100  0.69722200  0.95058500  1
