# generated using pymatgen
data_Ni3C
_symmetry_space_group_name_H-M   'P 1'
_cell_length_a   4.58125204
_cell_length_b   4.58125204
_cell_length_c   12.90935560
_cell_angle_alpha   90.00000000
_cell_angle_beta   90.00000000
_cell_angle_gamma   120.00000000
_symmetry_Int_Tables_number   1
_chemical_formula_structural   Ni3C
_chemical_formula_sum   'Ni18 C6'
_cell_volume   234.64081953
_cell_formula_units_Z   6
loop_
 _symmetry_equiv_pos_site_id
 _symmetry_equiv_pos_as_xyz
  1  'x, y, z'
loop_
 _atom_site_type_symbol
 _atom_site_label
 _atom_site_symmetry_multiplicity
 _atom_site_fract_x
 _atom_site_fract_y
 _atom_site_fract_z
 _atom_site_occupancy
  Ni  Ni0  1  0.00000000  0.67308100  0.25000000  1
  Ni  Ni1  1  0.67308100  0.00000000  0.25000000  1
  Ni  Ni2  1  0.32691900  0.32691900  0.25000000  1
  Ni  Ni3  1  0.99358567  0.33333333  0.08333333  1
  Ni  Ni4  1  0.33974767  0.00641433  0.08333333  1
  Ni  Ni5  1  0.66666667  0.66025233  0.08333333  1
  Ni  Ni6  1  0.66666667  0.00641433  0.58333333  1
  Ni  Ni7  1  0.33974767  0.33333333  0.58333333  1
  Ni  Ni8  1  0.99358567  0.66025233  0.58333333  1
  Ni  Ni9  1  0.66025233  0.66666667  0.41666667  1
  Ni  Ni10  1  0.00641433  0.33974767  0.41666667  1
  Ni  Ni11  1  0.33333333  0.99358567  0.41666667  1
  Ni  Ni12  1  0.33333333  0.33974767  0.91666667  1
  Ni  Ni13  1  0.00641433  0.66666667  0.91666667  1
  Ni  Ni14  1  0.66025233  0.99358567  0.91666667  1
  Ni  Ni15  1  0.32691900  0.00000000  0.75000000  1
  Ni  Ni16  1  0.67308100  0.67308100  0.75000000  1
  Ni  Ni17  1  0.00000000  0.32691900  0.75000000  1
  C  C18  1  0.00000000  0.00000000  0.00000000  1
  C  C19  1  0.33333333  0.66666667  0.16666667  1
  C  C20  1  0.66666667  0.33333333  0.33333333  1
  C  C21  1  0.00000000  0.00000000  0.50000000  1
  C  C22  1  0.33333333  0.66666667  0.66666667  1
  C  C23  1  0.66666667  0.33333333  0.83333333  1
