# generated using pymatgen
data_Nb2CrSe4
_symmetry_space_group_name_H-M   'P 1'
_cell_length_a   13.71679000
_cell_length_b   3.53510600
_cell_length_c   6.38954207
_cell_angle_alpha   90.00000000
_cell_angle_beta   115.71824293
_cell_angle_gamma   90.00000000
_symmetry_Int_Tables_number   1
_chemical_formula_structural   Nb2CrSe4
_chemical_formula_sum   'Nb4 Cr2 Se8'
_cell_volume   279.13866877
_cell_formula_units_Z   2
loop_
 _symmetry_equiv_pos_site_id
 _symmetry_equiv_pos_as_xyz
  1  'x, y, z'
loop_
 _atom_site_type_symbol
 _atom_site_label
 _atom_site_symmetry_multiplicity
 _atom_site_fract_x
 _atom_site_fract_y
 _atom_site_fract_z
 _atom_site_occupancy
  Nb  Nb0  1  0.24330900  0.50000000  0.67896100  1
  Nb  Nb1  1  0.25669100  0.00000000  0.32103900  1
  Nb  Nb2  1  0.74330900  0.00000000  0.67896100  1
  Nb  Nb3  1  0.75669100  0.50000000  0.32103900  1
  Cr  Cr4  1  0.00000000  0.00000000  0.00000000  1
  Cr  Cr5  1  0.50000000  0.50000000  0.00000000  1
  Se  Se6  1  0.10031000  0.00000000  0.44551000  1
  Se  Se7  1  0.13571000  0.50000000  0.97636400  1
  Se  Se8  1  0.39969000  0.50000000  0.55449000  1
  Se  Se9  1  0.36429000  0.00000000  0.02363600  1
  Se  Se10  1  0.60031000  0.50000000  0.44551000  1
  Se  Se11  1  0.63571000  0.00000000  0.97636400  1
  Se  Se12  1  0.89969000  0.00000000  0.55449000  1
  Se  Se13  1  0.86429000  0.50000000  0.02363600  1
