# generated using pymatgen
data_Zr2O
_symmetry_space_group_name_H-M   'P 1'
_cell_length_a   5.68273040
_cell_length_b   5.68273040
_cell_length_c   10.52538900
_cell_angle_alpha   90.00000000
_cell_angle_beta   90.00000000
_cell_angle_gamma   120.00000000
_symmetry_Int_Tables_number   1
_chemical_formula_structural   Zr2O
_chemical_formula_sum   'Zr12 O6'
_cell_volume   294.36277750
_cell_formula_units_Z   6
loop_
 _symmetry_equiv_pos_site_id
 _symmetry_equiv_pos_as_xyz
  1  'x, y, z'
loop_
 _atom_site_type_symbol
 _atom_site_label
 _atom_site_symmetry_multiplicity
 _atom_site_fract_x
 _atom_site_fract_y
 _atom_site_fract_z
 _atom_site_occupancy
  Zr  Zr0  1  0.66719000  0.99189800  0.87119900  1
  Zr  Zr1  1  0.66643700  0.00021200  0.37378500  1
  Zr  Zr2  1  0.66643700  0.66622500  0.62621500  1
  Zr  Zr3  1  0.66719000  0.67529200  0.12880100  1
  Zr  Zr4  1  0.99978800  0.66622500  0.37378500  1
  Zr  Zr5  1  0.00810200  0.67529200  0.87119900  1
  Zr  Zr6  1  0.99978800  0.33356300  0.62621500  1
  Zr  Zr7  1  0.00810200  0.33281000  0.12880100  1
  Zr  Zr8  1  0.33377500  0.00021200  0.62621500  1
  Zr  Zr9  1  0.32470800  0.99189800  0.12880100  1
  Zr  Zr10  1  0.32470800  0.33281000  0.87119900  1
  Zr  Zr11  1  0.33377500  0.33356300  0.37378500  1
  O  O12  1  0.00000000  0.00000000  0.74280100  1
  O  O13  1  0.00000000  0.00000000  0.25719900  1
  O  O14  1  0.00000000  0.00000000  0.00000000  1
  O  O15  1  0.66666667  0.33333333  0.50000000  1
  O  O16  1  0.33333333  0.66666667  0.50000000  1
  O  O17  1  0.33333333  0.66666667  0.00000000  1
