# generated using pymatgen
data_CuAsO3
_symmetry_space_group_name_H-M   'P 1'
_cell_length_a   5.01339343
_cell_length_b   5.01339343
_cell_length_c   15.03603331
_cell_angle_alpha   90.00000000
_cell_angle_beta   90.00000000
_cell_angle_gamma   120.00000000
_symmetry_Int_Tables_number   1
_chemical_formula_structural   CuAsO3
_chemical_formula_sum   'Cu6 As6 O18'
_cell_volume   327.28604288
_cell_formula_units_Z   6
loop_
 _symmetry_equiv_pos_site_id
 _symmetry_equiv_pos_as_xyz
  1  'x, y, z'
loop_
 _atom_site_type_symbol
 _atom_site_label
 _atom_site_symmetry_multiplicity
 _atom_site_fract_x
 _atom_site_fract_y
 _atom_site_fract_z
 _atom_site_occupancy
  Cu  Cu0  1  0.66666667  0.33333333  0.20266233  1
  Cu  Cu1  1  0.00000000  0.00000000  0.13067100  1
  Cu  Cu2  1  0.33333333  0.66666667  0.53599567  1
  Cu  Cu3  1  0.66666667  0.33333333  0.46400433  1
  Cu  Cu4  1  0.00000000  0.00000000  0.86932900  1
  Cu  Cu5  1  0.33333333  0.66666667  0.79733767  1
  As  As6  1  0.33333333  0.66666667  0.32888367  1
  As  As7  1  0.33333333  0.66666667  0.00444967  1
  As  As8  1  0.00000000  0.00000000  0.66221700  1
  As  As9  1  0.00000000  0.00000000  0.33778300  1
  As  As10  1  0.66666667  0.33333333  0.99555033  1
  As  As11  1  0.66666667  0.33333333  0.67111633  1
  O  O12  1  0.67293567  0.71059533  0.26172133  1
  O  O13  1  0.37726200  0.37099300  0.07161200  1
  O  O14  1  0.62900700  0.00626900  0.07161200  1
  O  O15  1  0.03765967  0.32706433  0.26172133  1
  O  O16  1  0.28940467  0.96234033  0.26172133  1
  O  O17  1  0.99373100  0.62273800  0.07161200  1
  O  O18  1  0.33960233  0.04392867  0.59505467  1
  O  O19  1  0.04392867  0.70432633  0.40494533  1
  O  O20  1  0.29567367  0.33960233  0.40494533  1
  O  O21  1  0.70432633  0.66039767  0.59505467  1
  O  O22  1  0.95607133  0.29567367  0.59505467  1
  O  O23  1  0.66039767  0.95607133  0.40494533  1
  O  O24  1  0.00626900  0.37726200  0.92838800  1
  O  O25  1  0.71059533  0.03765967  0.73827867  1
  O  O26  1  0.96234033  0.67293567  0.73827867  1
  O  O27  1  0.37099300  0.99373100  0.92838800  1
  O  O28  1  0.62273800  0.62900700  0.92838800  1
  O  O29  1  0.32706433  0.28940467  0.73827867  1
