# generated using pymatgen
data_CrP2S7
_symmetry_space_group_name_H-M   'P 1'
_cell_length_a   8.57604600
_cell_length_b   9.48286800
_cell_length_c   6.53536939
_cell_angle_alpha   90.00000000
_cell_angle_beta   97.23001949
_cell_angle_gamma   90.00000000
_symmetry_Int_Tables_number   1
_chemical_formula_structural   CrP2S7
_chemical_formula_sum   'Cr2 P4 S14'
_cell_volume   527.26631362
_cell_formula_units_Z   2
loop_
 _symmetry_equiv_pos_site_id
 _symmetry_equiv_pos_as_xyz
  1  'x, y, z'
loop_
 _atom_site_type_symbol
 _atom_site_label
 _atom_site_symmetry_multiplicity
 _atom_site_fract_x
 _atom_site_fract_y
 _atom_site_fract_z
 _atom_site_occupancy
  Cr  Cr0  1  0.50000000  0.99310900  0.00000000  1
  Cr  Cr1  1  0.00000000  0.49310900  0.00000000  1
  P  P2  1  0.19565400  0.84919300  0.07664000  1
  P  P3  1  0.80434600  0.84919300  0.92336000  1
  P  P4  1  0.69565400  0.34919300  0.07664000  1
  P  P5  1  0.30434600  0.34919300  0.92336000  1
  S  S6  1  0.31844450  0.82960850  0.82993200  1
  S  S7  1  0.35776400  0.16923100  0.78110100  1
  S  S8  1  0.34272150  0.97294050  0.27145900  1
  S  S9  1  0.50000000  0.48444400  0.00000000  1
  S  S10  1  0.65727850  0.97294050  0.72854100  1
  S  S11  1  0.64223600  0.16923100  0.21889900  1
  S  S12  1  0.68155550  0.82960850  0.17006800  1
  S  S13  1  0.81844450  0.32960850  0.82993200  1
  S  S14  1  0.85776400  0.66923100  0.78110100  1
  S  S15  1  0.84272150  0.47294050  0.27145900  1
  S  S16  1  0.00000000  0.98444400  0.00000000  1
  S  S17  1  0.15727850  0.47294050  0.72854100  1
  S  S18  1  0.14223600  0.66923100  0.21889900  1
  S  S19  1  0.18155550  0.32960850  0.17006800  1
