# generated using pymatgen
data_Cu2OF2
_symmetry_space_group_name_H-M   'P 1'
_cell_length_a   6.72799830
_cell_length_b   9.25875422
_cell_length_c   10.15688462
_cell_angle_alpha   90.00000000
_cell_angle_beta   90.00000000
_cell_angle_gamma   90.00000000
_symmetry_Int_Tables_number   1
_chemical_formula_structural   Cu2OF2
_chemical_formula_sum   'Cu16 O8 F16'
_cell_volume   632.70162147
_cell_formula_units_Z   8
loop_
 _symmetry_equiv_pos_site_id
 _symmetry_equiv_pos_as_xyz
  1  'x, y, z'
loop_
 _atom_site_type_symbol
 _atom_site_label
 _atom_site_symmetry_multiplicity
 _atom_site_fract_x
 _atom_site_fract_y
 _atom_site_fract_z
 _atom_site_occupancy
  Cu  Cu0  1  0.37500000  0.37500000  0.12500000  1
  Cu  Cu1  1  0.12500000  0.12500000  0.12500000  1
  Cu  Cu2  1  0.37500000  0.12500000  0.37500000  1
  Cu  Cu3  1  0.62500000  0.87500000  0.37500000  1
  Cu  Cu4  1  0.37500000  0.87500000  0.62500000  1
  Cu  Cu5  1  0.12500000  0.62500000  0.62500000  1
  Cu  Cu6  1  0.37500000  0.62500000  0.87500000  1
  Cu  Cu7  1  0.62500000  0.37500000  0.87500000  1
  Cu  Cu8  1  0.87500000  0.37500000  0.62500000  1
  Cu  Cu9  1  0.62500000  0.12500000  0.62500000  1
  Cu  Cu10  1  0.87500000  0.12500000  0.87500000  1
  Cu  Cu11  1  0.12500000  0.87500000  0.87500000  1
  Cu  Cu12  1  0.87500000  0.87500000  0.12500000  1
  Cu  Cu13  1  0.62500000  0.62500000  0.12500000  1
  Cu  Cu14  1  0.87500000  0.62500000  0.37500000  1
  Cu  Cu15  1  0.12500000  0.37500000  0.37500000  1
  O  O16  1  0.25000000  0.25000000  0.25000000  1
  O  O17  1  0.50000000  0.00000000  0.50000000  1
  O  O18  1  0.25000000  0.75000000  0.75000000  1
  O  O19  1  0.50000000  0.50000000  0.00000000  1
  O  O20  1  0.75000000  0.25000000  0.75000000  1
  O  O21  1  0.00000000  0.00000000  0.00000000  1
  O  O22  1  0.75000000  0.75000000  0.25000000  1
  O  O23  1  0.00000000  0.50000000  0.50000000  1
  F  F24  1  0.00000000  0.00000000  0.25667900  1
  F  F25  1  0.25000000  0.25000000  0.50667900  1
  F  F26  1  0.50000000  0.00000000  0.24332100  1
  F  F27  1  0.75000000  0.25000000  0.49332100  1
  F  F28  1  0.00000000  0.50000000  0.75667900  1
  F  F29  1  0.25000000  0.75000000  0.00667900  1
  F  F30  1  0.50000000  0.50000000  0.74332100  1
  F  F31  1  0.75000000  0.75000000  0.99332100  1
  F  F32  1  0.50000000  0.00000000  0.75667900  1
  F  F33  1  0.75000000  0.25000000  0.00667900  1
  F  F34  1  0.00000000  0.00000000  0.74332100  1
  F  F35  1  0.25000000  0.25000000  0.99332100  1
  F  F36  1  0.50000000  0.50000000  0.25667900  1
  F  F37  1  0.75000000  0.75000000  0.50667900  1
  F  F38  1  0.00000000  0.50000000  0.24332100  1
  F  F39  1  0.25000000  0.75000000  0.49332100  1
