# generated using pymatgen
data_Nb4N5
_symmetry_space_group_name_H-M   'P 1'
_cell_length_a   6.93624400
_cell_length_b   6.93624400
_cell_length_c   4.32242800
_cell_angle_alpha   90.00000000
_cell_angle_beta   90.00000000
_cell_angle_gamma   90.00000000
_symmetry_Int_Tables_number   1
_chemical_formula_structural   Nb4N5
_chemical_formula_sum   'Nb8 N10'
_cell_volume   207.95841185
_cell_formula_units_Z   2
loop_
 _symmetry_equiv_pos_site_id
 _symmetry_equiv_pos_as_xyz
  1  'x, y, z'
loop_
 _atom_site_type_symbol
 _atom_site_label
 _atom_site_symmetry_multiplicity
 _atom_site_fract_x
 _atom_site_fract_y
 _atom_site_fract_z
 _atom_site_occupancy
  Nb  Nb0  1  0.28430050  0.89509550  0.50000000  1
  Nb  Nb1  1  0.60490450  0.78430050  0.00000000  1
  Nb  Nb2  1  0.39509550  0.21569950  0.00000000  1
  Nb  Nb3  1  0.71569950  0.10490450  0.50000000  1
  Nb  Nb4  1  0.78430050  0.39509550  0.00000000  1
  Nb  Nb5  1  0.10490450  0.28430050  0.50000000  1
  Nb  Nb6  1  0.89509550  0.71569950  0.50000000  1
  Nb  Nb7  1  0.21569950  0.60490450  0.00000000  1
  N  N8  1  0.00000000  0.00000000  0.50000000  1
  N  N9  1  0.69388800  0.09228400  0.00000000  1
  N  N10  1  0.40771600  0.19388800  0.50000000  1
  N  N11  1  0.59228400  0.80611200  0.50000000  1
  N  N12  1  0.30611200  0.90771600  0.00000000  1
  N  N13  1  0.50000000  0.50000000  0.00000000  1
  N  N14  1  0.19388800  0.59228400  0.50000000  1
  N  N15  1  0.90771600  0.69388800  0.00000000  1
  N  N16  1  0.09228400  0.30611200  0.00000000  1
  N  N17  1  0.80611200  0.40771600  0.50000000  1
