# generated using pymatgen
data_ZrSn2
_symmetry_space_group_name_H-M   'P 1'
_cell_length_a   5.73186200
_cell_length_b   9.70620800
_cell_length_c   9.99411600
_cell_angle_alpha   90.00000000
_cell_angle_beta   90.00000000
_cell_angle_gamma   90.00000000
_symmetry_Int_Tables_number   1
_chemical_formula_structural   ZrSn2
_chemical_formula_sum   'Zr8 Sn16'
_cell_volume   556.01909374
_cell_formula_units_Z   8
loop_
 _symmetry_equiv_pos_site_id
 _symmetry_equiv_pos_as_xyz
  1  'x, y, z'
loop_
 _atom_site_type_symbol
 _atom_site_label
 _atom_site_symmetry_multiplicity
 _atom_site_fract_x
 _atom_site_fract_y
 _atom_site_fract_z
 _atom_site_occupancy
  Zr  Zr0  1  0.75000000  0.75000000  0.25000000  1
  Zr  Zr1  1  0.00000000  0.00000000  0.00000000  1
  Zr  Zr2  1  0.75000000  0.25000000  0.75000000  1
  Zr  Zr3  1  0.00000000  0.50000000  0.50000000  1
  Zr  Zr4  1  0.25000000  0.75000000  0.75000000  1
  Zr  Zr5  1  0.50000000  0.00000000  0.50000000  1
  Zr  Zr6  1  0.25000000  0.25000000  0.25000000  1
  Zr  Zr7  1  0.50000000  0.50000000  0.00000000  1
  Sn  Sn8  1  0.75000000  0.41882000  0.25000000  1
  Sn  Sn9  1  0.75000000  0.08118000  0.25000000  1
  Sn  Sn10  1  0.50000000  0.83118000  0.00000000  1
  Sn  Sn11  1  0.50000000  0.16882000  0.00000000  1
  Sn  Sn12  1  0.75000000  0.91882000  0.75000000  1
  Sn  Sn13  1  0.75000000  0.58118000  0.75000000  1
  Sn  Sn14  1  0.50000000  0.33118000  0.50000000  1
  Sn  Sn15  1  0.50000000  0.66882000  0.50000000  1
  Sn  Sn16  1  0.25000000  0.41882000  0.75000000  1
  Sn  Sn17  1  0.25000000  0.08118000  0.75000000  1
  Sn  Sn18  1  0.00000000  0.83118000  0.50000000  1
  Sn  Sn19  1  0.00000000  0.16882000  0.50000000  1
  Sn  Sn20  1  0.25000000  0.91882000  0.25000000  1
  Sn  Sn21  1  0.25000000  0.58118000  0.25000000  1
  Sn  Sn22  1  0.00000000  0.33118000  0.00000000  1
  Sn  Sn23  1  0.00000000  0.66882000  0.00000000  1
