# generated using pymatgen
data_MgCoO3
_symmetry_space_group_name_H-M   'P 1'
_cell_length_a   4.92590037
_cell_length_b   4.92590037
_cell_length_c   13.61691144
_cell_angle_alpha   90.00000000
_cell_angle_beta   90.00000000
_cell_angle_gamma   120.00000000
_symmetry_Int_Tables_number   1
_chemical_formula_structural   MgCoO3
_chemical_formula_sum   'Mg6 Co6 O18'
_cell_volume   286.14126448
_cell_formula_units_Z   6
loop_
 _symmetry_equiv_pos_site_id
 _symmetry_equiv_pos_as_xyz
  1  'x, y, z'
loop_
 _atom_site_type_symbol
 _atom_site_label
 _atom_site_symmetry_multiplicity
 _atom_site_fract_x
 _atom_site_fract_y
 _atom_site_fract_z
 _atom_site_occupancy
  Mg  Mg0  1  0.33333333  0.66666667  0.02705867  1
  Mg  Mg1  1  0.33333333  0.66666667  0.30627467  1
  Mg  Mg2  1  0.00000000  0.00000000  0.36039200  1
  Mg  Mg3  1  0.00000000  0.00000000  0.63960800  1
  Mg  Mg4  1  0.66666667  0.33333333  0.69372533  1
  Mg  Mg5  1  0.66666667  0.33333333  0.97294133  1
  Co  Co6  1  0.00000000  0.00000000  0.16042300  1
  Co  Co7  1  0.66666667  0.33333333  0.17291033  1
  Co  Co8  1  0.66666667  0.33333333  0.49375633  1
  Co  Co9  1  0.33333333  0.66666667  0.50624367  1
  Co  Co10  1  0.33333333  0.66666667  0.82708967  1
  Co  Co11  1  0.00000000  0.00000000  0.83957700  1
  O  O12  1  0.69738133  0.65008267  0.08980867  1
  O  O13  1  0.95270133  0.30261867  0.08980867  1
  O  O14  1  0.34991733  0.04729867  0.08980867  1
  O  O15  1  0.31674933  0.28603467  0.24352467  1
  O  O16  1  0.71396533  0.03071467  0.24352467  1
  O  O17  1  0.96928533  0.68325067  0.24352467  1
  O  O18  1  0.36404800  0.98341600  0.42314200  1
  O  O19  1  0.61936800  0.63595200  0.42314200  1
  O  O20  1  0.01658400  0.38063200  0.42314200  1
  O  O21  1  0.98341600  0.61936800  0.57685800  1
  O  O22  1  0.38063200  0.36404800  0.57685800  1
  O  O23  1  0.63595200  0.01658400  0.57685800  1
  O  O24  1  0.03071467  0.31674933  0.75647533  1
  O  O25  1  0.28603467  0.96928533  0.75647533  1
  O  O26  1  0.68325067  0.71396533  0.75647533  1
  O  O27  1  0.65008267  0.95270133  0.91019133  1
  O  O28  1  0.04729867  0.69738133  0.91019133  1
  O  O29  1  0.30261867  0.34991733  0.91019133  1
