# generated using pymatgen
data_La(BiO2)2
_symmetry_space_group_name_H-M   'P 1'
_cell_length_a   4.03073634
_cell_length_b   4.03073634
_cell_length_c   27.86783509
_cell_angle_alpha   90.00000000
_cell_angle_beta   90.00000000
_cell_angle_gamma   120.00000000
_symmetry_Int_Tables_number   1
_chemical_formula_structural   La(BiO2)2
_chemical_formula_sum   'La3 Bi6 O12'
_cell_volume   392.10523982
_cell_formula_units_Z   3
loop_
 _symmetry_equiv_pos_site_id
 _symmetry_equiv_pos_as_xyz
  1  'x, y, z'
loop_
 _atom_site_type_symbol
 _atom_site_label
 _atom_site_symmetry_multiplicity
 _atom_site_fract_x
 _atom_site_fract_y
 _atom_site_fract_z
 _atom_site_occupancy
  La  La0  1  0.00000000  0.00000000  0.00000000  1
  La  La1  1  0.66666667  0.33333333  0.33333333  1
  La  La2  1  0.33333333  0.66666667  0.66666667  1
  Bi  Bi3  1  0.66666667  0.33333333  0.11060233  1
  Bi  Bi4  1  0.00000000  0.00000000  0.22273100  1
  Bi  Bi5  1  0.33333333  0.66666667  0.44393567  1
  Bi  Bi6  1  0.66666667  0.33333333  0.55606433  1
  Bi  Bi7  1  0.00000000  0.00000000  0.77726900  1
  Bi  Bi8  1  0.33333333  0.66666667  0.88939767  1
  O  O9  1  0.66666667  0.33333333  0.03337233  1
  O  O10  1  0.66666667  0.33333333  0.23763533  1
  O  O11  1  0.00000000  0.00000000  0.29996100  1
  O  O12  1  0.00000000  0.00000000  0.09569800  1
  O  O13  1  0.33333333  0.66666667  0.36670567  1
  O  O14  1  0.33333333  0.66666667  0.57096867  1
  O  O15  1  0.66666667  0.33333333  0.63329433  1
  O  O16  1  0.66666667  0.33333333  0.42903133  1
  O  O17  1  0.00000000  0.00000000  0.70003900  1
  O  O18  1  0.00000000  0.00000000  0.90430200  1
  O  O19  1  0.33333333  0.66666667  0.96662767  1
  O  O20  1  0.33333333  0.66666667  0.76236467  1
