# generated using pymatgen
data_LiCuF3
_symmetry_space_group_name_H-M   'P 1'
_cell_length_a   5.13127170
_cell_length_b   5.13127170
_cell_length_c   14.01807505
_cell_angle_alpha   90.00000000
_cell_angle_beta   90.00000000
_cell_angle_gamma   120.00000000
_symmetry_Int_Tables_number   1
_chemical_formula_structural   LiCuF3
_chemical_formula_sum   'Li6 Cu6 F18'
_cell_volume   319.64582378
_cell_formula_units_Z   6
loop_
 _symmetry_equiv_pos_site_id
 _symmetry_equiv_pos_as_xyz
  1  'x, y, z'
loop_
 _atom_site_type_symbol
 _atom_site_label
 _atom_site_symmetry_multiplicity
 _atom_site_fract_x
 _atom_site_fract_y
 _atom_site_fract_z
 _atom_site_occupancy
  Li  Li0  1  0.66666667  0.33333333  0.13902133  1
  Li  Li1  1  0.00000000  0.00000000  0.30568800  1
  Li  Li2  1  0.33333333  0.66666667  0.47235467  1
  Li  Li3  1  0.66666667  0.33333333  0.63902133  1
  Li  Li4  1  0.00000000  0.00000000  0.80568800  1
  Li  Li5  1  0.33333333  0.66666667  0.97235467  1
  Cu  Cu6  1  0.33333333  0.66666667  0.17722067  1
  Cu  Cu7  1  0.00000000  0.00000000  0.01055400  1
  Cu  Cu8  1  0.00000000  0.00000000  0.51055400  1
  Cu  Cu9  1  0.66666667  0.33333333  0.34388733  1
  Cu  Cu10  1  0.66666667  0.33333333  0.84388733  1
  Cu  Cu11  1  0.33333333  0.66666667  0.67722067  1
  F  F12  1  0.64785633  0.97011467  0.08440767  1
  F  F13  1  0.36321867  0.01881033  0.25107433  1
  F  F14  1  0.65559167  0.63678133  0.25107433  1
  F  F15  1  0.02988533  0.67774167  0.08440767  1
  F  F16  1  0.32225833  0.35214367  0.08440767  1
  F  F17  1  0.98118967  0.34440833  0.25107433  1
  F  F18  1  0.31452300  0.30344800  0.41774100  1
  F  F19  1  0.02988533  0.35214367  0.58440767  1
  F  F20  1  0.32225833  0.97011467  0.58440767  1
  F  F21  1  0.69655200  0.01107500  0.41774100  1
  F  F22  1  0.98892500  0.68547700  0.41774100  1
  F  F23  1  0.64785633  0.67774167  0.58440767  1
  F  F24  1  0.98118967  0.63678133  0.75107433  1
  F  F25  1  0.69655200  0.68547700  0.91774100  1
  F  F26  1  0.98892500  0.30344800  0.91774100  1
  F  F27  1  0.36321867  0.34440833  0.75107433  1
  F  F28  1  0.65559167  0.01881033  0.75107433  1
  F  F29  1  0.31452300  0.01107500  0.91774100  1
