# generated using pymatgen
data_Li(CuP)2
_symmetry_space_group_name_H-M   'P 1'
_cell_length_a   3.88414600
_cell_length_b   3.88414600
_cell_length_c   9.53258000
_cell_angle_alpha   90.00000000
_cell_angle_beta   90.00000000
_cell_angle_gamma   90.00000000
_symmetry_Int_Tables_number   1
_chemical_formula_structural   Li(CuP)2
_chemical_formula_sum   'Li2 Cu4 P4'
_cell_volume   143.81412753
_cell_formula_units_Z   2
loop_
 _symmetry_equiv_pos_site_id
 _symmetry_equiv_pos_as_xyz
  1  'x, y, z'
loop_
 _atom_site_type_symbol
 _atom_site_label
 _atom_site_symmetry_multiplicity
 _atom_site_fract_x
 _atom_site_fract_y
 _atom_site_fract_z
 _atom_site_occupancy
  Li  Li0  1  0.00000000  0.00000000  0.00000000  1
  Li  Li1  1  0.50000000  0.50000000  0.50000000  1
  Cu  Cu2  1  0.00000000  0.50000000  0.25000000  1
  Cu  Cu3  1  0.50000000  0.00000000  0.25000000  1
  Cu  Cu4  1  0.50000000  0.00000000  0.75000000  1
  Cu  Cu5  1  0.00000000  0.50000000  0.75000000  1
  P  P6  1  0.50000000  0.50000000  0.11271000  1
  P  P7  1  0.00000000  0.00000000  0.38729000  1
  P  P8  1  0.00000000  0.00000000  0.61271000  1
  P  P9  1  0.50000000  0.50000000  0.88729000  1
