# generated using pymatgen
data_MnCoO4
_symmetry_space_group_name_H-M   'P 1'
_cell_length_a   6.13085800
_cell_length_b   6.18561600
_cell_length_c   2.91659300
_cell_angle_alpha   90.00000000
_cell_angle_beta   90.00000000
_cell_angle_gamma   90.00000000
_symmetry_Int_Tables_number   1
_chemical_formula_structural   MnCoO4
_chemical_formula_sum   'Mn2 Co2 O8'
_cell_volume   110.60634523
_cell_formula_units_Z   2
loop_
 _symmetry_equiv_pos_site_id
 _symmetry_equiv_pos_as_xyz
  1  'x, y, z'
loop_
 _atom_site_type_symbol
 _atom_site_label
 _atom_site_symmetry_multiplicity
 _atom_site_fract_x
 _atom_site_fract_y
 _atom_site_fract_z
 _atom_site_occupancy
  Mn  Mn0  1  0.00000000  0.00000000  0.50000000  1
  Mn  Mn1  1  0.50000000  0.50000000  0.50000000  1
  Co  Co2  1  0.50000000  0.00000000  0.00000000  1
  Co  Co3  1  0.00000000  0.50000000  0.00000000  1
  O  O4  1  0.50000000  0.80957900  0.50000000  1
  O  O5  1  0.20036700  0.00000000  0.00000000  1
  O  O6  1  0.79963300  0.00000000  0.00000000  1
  O  O7  1  0.50000000  0.19042100  0.50000000  1
  O  O8  1  0.00000000  0.30957900  0.50000000  1
  O  O9  1  0.70036700  0.50000000  0.00000000  1
  O  O10  1  0.29963300  0.50000000  0.00000000  1
  O  O11  1  0.00000000  0.69042100  0.50000000  1
