# generated using pymatgen
data_HgPtO2
_symmetry_space_group_name_H-M   'P 1'
_cell_length_a   3.20152610
_cell_length_b   3.20152610
_cell_length_c   23.23110651
_cell_angle_alpha   90.00000000
_cell_angle_beta   90.00000000
_cell_angle_gamma   120.00000000
_symmetry_Int_Tables_number   1
_chemical_formula_structural   HgPtO2
_chemical_formula_sum   'Hg3 Pt3 O6'
_cell_volume   206.21232545
_cell_formula_units_Z   3
loop_
 _symmetry_equiv_pos_site_id
 _symmetry_equiv_pos_as_xyz
  1  'x, y, z'
loop_
 _atom_site_type_symbol
 _atom_site_label
 _atom_site_symmetry_multiplicity
 _atom_site_fract_x
 _atom_site_fract_y
 _atom_site_fract_z
 _atom_site_occupancy
  Hg  Hg0  1  0.00000000  0.00000000  0.00000000  1
  Hg  Hg1  1  0.66666667  0.33333333  0.33333333  1
  Hg  Hg2  1  0.33333333  0.66666667  0.66666667  1
  Pt  Pt3  1  0.33333333  0.66666667  0.16666667  1
  Pt  Pt4  1  1.00000000  1.00000000  0.50000000  1
  Pt  Pt5  1  0.66666667  0.33333333  0.83333333  1
  O  O6  1  0.66666667  0.33333333  0.20753933  1
  O  O7  1  0.00000000  0.00000000  0.12579400  1
  O  O8  1  0.33333333  0.66666667  0.54087267  1
  O  O9  1  0.66666667  0.33333333  0.45912733  1
  O  O10  1  0.00000000  0.00000000  0.87420600  1
  O  O11  1  0.33333333  0.66666667  0.79246067  1
