# generated using pymatgen
data_KTiF4
_symmetry_space_group_name_H-M   'P 1'
_cell_length_a   13.02173945
_cell_length_b   8.70183782
_cell_length_c   4.01223537
_cell_angle_alpha   90.00000000
_cell_angle_beta   107.23731949
_cell_angle_gamma   90.00000000
_symmetry_Int_Tables_number   1
_chemical_formula_structural   KTiF4
_chemical_formula_sum   'K4 Ti4 F16'
_cell_volume   434.21884013
_cell_formula_units_Z   4
loop_
 _symmetry_equiv_pos_site_id
 _symmetry_equiv_pos_as_xyz
  1  'x, y, z'
loop_
 _atom_site_type_symbol
 _atom_site_label
 _atom_site_symmetry_multiplicity
 _atom_site_fract_x
 _atom_site_fract_y
 _atom_site_fract_z
 _atom_site_occupancy
  K  K0  1  0.80778758  0.50000000  0.31367081  1
  K  K1  1  0.69221242  0.00000000  0.68632919  1
  K  K2  1  0.30778758  0.00000000  0.31367081  1
  K  K3  1  0.19221242  0.50000000  0.68632919  1
  Ti  Ti4  1  0.00000000  0.81071644  0.00000000  1
  Ti  Ti5  1  0.50000000  0.68928356  0.00000000  1
  Ti  Ti6  1  0.50000000  0.31071644  0.00000000  1
  Ti  Ti7  1  0.00000000  0.18928356  0.00000000  1
  F  F8  1  0.89912051  0.00000000  0.90166609  1
  F  F9  1  0.12181658  0.67794182  0.11775633  1
  F  F10  1  0.62181658  0.82205818  0.11775633  1
  F  F11  1  0.00000000  0.80465527  0.50000000  1
  F  F12  1  0.50000000  0.69534473  0.50000000  1
  F  F13  1  0.87818342  0.67794182  0.88224367  1
  F  F14  1  0.37818342  0.82205818  0.88224367  1
  F  F15  1  0.60087949  0.50000000  0.09833391  1
  F  F16  1  0.39912051  0.50000000  0.90166609  1
  F  F17  1  0.62181658  0.17794182  0.11775633  1
  F  F18  1  0.12181658  0.32205818  0.11775633  1
  F  F19  1  0.50000000  0.30465527  0.50000000  1
  F  F20  1  0.00000000  0.19534473  0.50000000  1
  F  F21  1  0.37818342  0.17794182  0.88224367  1
  F  F22  1  0.87818342  0.32205818  0.88224367  1
  F  F23  1  0.10087949  0.00000000  0.09833391  1
