# generated using pymatgen
data_ZrTi2O
_symmetry_space_group_name_H-M   'P 1'
_cell_length_a   4.94152800
_cell_length_b   8.13499000
_cell_length_c   6.06128400
_cell_angle_alpha   90.00000000
_cell_angle_beta   90.00000000
_cell_angle_gamma   90.00000000
_symmetry_Int_Tables_number   1
_chemical_formula_structural   ZrTi2O
_chemical_formula_sum   'Zr4 Ti8 O4'
_cell_volume   243.65925792
_cell_formula_units_Z   4
loop_
 _symmetry_equiv_pos_site_id
 _symmetry_equiv_pos_as_xyz
  1  'x, y, z'
loop_
 _atom_site_type_symbol
 _atom_site_label
 _atom_site_symmetry_multiplicity
 _atom_site_fract_x
 _atom_site_fract_y
 _atom_site_fract_z
 _atom_site_occupancy
  Zr  Zr0  1  0.00000000  0.00000000  0.00000000  1
  Zr  Zr1  1  0.00000000  0.00000000  0.50000000  1
  Zr  Zr2  1  0.50000000  0.50000000  0.00000000  1
  Zr  Zr3  1  0.50000000  0.50000000  0.50000000  1
  Ti  Ti4  1  0.50000000  0.83670400  0.25357600  1
  Ti  Ti5  1  0.50000000  0.83670400  0.74642400  1
  Ti  Ti6  1  0.50000000  0.16329600  0.74642400  1
  Ti  Ti7  1  0.50000000  0.16329600  0.25357600  1
  Ti  Ti8  1  0.00000000  0.33670400  0.25357600  1
  Ti  Ti9  1  0.00000000  0.33670400  0.74642400  1
  Ti  Ti10  1  0.00000000  0.66329600  0.74642400  1
  Ti  Ti11  1  0.00000000  0.66329600  0.25357600  1
  O  O12  1  0.25000000  0.75000000  0.00000000  1
  O  O13  1  0.25000000  0.25000000  0.00000000  1
  O  O14  1  0.75000000  0.25000000  0.00000000  1
  O  O15  1  0.75000000  0.75000000  0.00000000  1
