# generated using pymatgen
data_LiSi
_symmetry_space_group_name_H-M   'P 1'
_cell_length_a   9.32715800
_cell_length_b   9.32715800
_cell_length_c   5.74071000
_cell_angle_alpha   90.00000000
_cell_angle_beta   90.00000000
_cell_angle_gamma   90.00000000
_symmetry_Int_Tables_number   1
_chemical_formula_structural   LiSi
_chemical_formula_sum   'Li16 Si16'
_cell_volume   499.41809736
_cell_formula_units_Z   16
loop_
 _symmetry_equiv_pos_site_id
 _symmetry_equiv_pos_as_xyz
  1  'x, y, z'
loop_
 _atom_site_type_symbol
 _atom_site_label
 _atom_site_symmetry_multiplicity
 _atom_site_fract_x
 _atom_site_fract_y
 _atom_site_fract_z
 _atom_site_occupancy
  Li  Li0  1  0.58096850  0.13552150  0.92932850  1
  Li  Li1  1  0.86447850  0.08096850  0.67932850  1
  Li  Li2  1  0.13552150  0.91903150  0.67932850  1
  Li  Li3  1  0.41903150  0.86447850  0.92932850  1
  Li  Li4  1  0.41903150  0.36447850  0.82067150  1
  Li  Li5  1  0.63552150  0.91903150  0.57067150  1
  Li  Li6  1  0.36447850  0.08096850  0.57067150  1
  Li  Li7  1  0.58096850  0.63552150  0.82067150  1
  Li  Li8  1  0.08096850  0.63552150  0.42932850  1
  Li  Li9  1  0.36447850  0.58096850  0.17932850  1
  Li  Li10  1  0.63552150  0.41903150  0.17932850  1
  Li  Li11  1  0.91903150  0.36447850  0.42932850  1
  Li  Li12  1  0.91903150  0.86447850  0.32067150  1
  Li  Li13  1  0.13552150  0.41903150  0.07067150  1
  Li  Li14  1  0.86447850  0.58096850  0.07067150  1
  Li  Li15  1  0.08096850  0.13552150  0.32067150  1
  Si  Si16  1  0.61067950  0.20265850  0.46962250  1
  Si  Si17  1  0.79734150  0.11067950  0.21962250  1
  Si  Si18  1  0.20265850  0.88932050  0.21962250  1
  Si  Si19  1  0.38932050  0.79734150  0.46962250  1
  Si  Si20  1  0.38932050  0.29734150  0.28037750  1
  Si  Si21  1  0.70265850  0.88932050  0.03037750  1
  Si  Si22  1  0.29734150  0.11067950  0.03037750  1
  Si  Si23  1  0.61067950  0.70265850  0.28037750  1
  Si  Si24  1  0.11067950  0.70265850  0.96962250  1
  Si  Si25  1  0.29734150  0.61067950  0.71962250  1
  Si  Si26  1  0.70265850  0.38932050  0.71962250  1
  Si  Si27  1  0.88932050  0.29734150  0.96962250  1
  Si  Si28  1  0.88932050  0.79734150  0.78037750  1
  Si  Si29  1  0.20265850  0.38932050  0.53037750  1
  Si  Si30  1  0.79734150  0.61067950  0.53037750  1
  Si  Si31  1  0.11067950  0.20265850  0.78037750  1
