# generated using pymatgen
data_PrYO2
_symmetry_space_group_name_H-M   'P 1'
_cell_length_a   3.46977652
_cell_length_b   3.46977652
_cell_length_c   17.97029870
_cell_angle_alpha   90.00000000
_cell_angle_beta   90.00000000
_cell_angle_gamma   120.00000000
_symmetry_Int_Tables_number   1
_chemical_formula_structural   PrYO2
_chemical_formula_sum   'Pr3 Y3 O6'
_cell_volume   187.36520212
_cell_formula_units_Z   3
loop_
 _symmetry_equiv_pos_site_id
 _symmetry_equiv_pos_as_xyz
  1  'x, y, z'
loop_
 _atom_site_type_symbol
 _atom_site_label
 _atom_site_symmetry_multiplicity
 _atom_site_fract_x
 _atom_site_fract_y
 _atom_site_fract_z
 _atom_site_occupancy
  Pr  Pr0  1  0.33333333  0.66666667  0.16666667  1
  Pr  Pr1  1  1.00000000  1.00000000  0.50000000  1
  Pr  Pr2  1  0.66666667  0.33333333  0.83333333  1
  Y  Y3  1  0.00000000  0.00000000  0.00000000  1
  Y  Y4  1  0.66666667  0.33333333  0.33333333  1
  Y  Y5  1  0.33333333  0.66666667  0.66666667  1
  O  O6  1  0.66666667  0.33333333  0.06639333  1
  O  O7  1  0.00000000  0.00000000  0.26694000  1
  O  O8  1  0.33333333  0.66666667  0.39972667  1
  O  O9  1  0.66666667  0.33333333  0.60027333  1
  O  O10  1  0.00000000  0.00000000  0.73306000  1
  O  O11  1  0.33333333  0.66666667  0.93360667  1
