# generated using pymatgen
data_AlBMo
_symmetry_space_group_name_H-M   'P 1'
_cell_length_a   3.22755000
_cell_length_b   14.02920600
_cell_length_c   3.11322300
_cell_angle_alpha   90.00000000
_cell_angle_beta   90.00000000
_cell_angle_gamma   90.00000000
_symmetry_Int_Tables_number   1
_chemical_formula_structural   AlBMo
_chemical_formula_sum   'Al4 B4 Mo4'
_cell_volume   140.96662482
_cell_formula_units_Z   4
loop_
 _symmetry_equiv_pos_site_id
 _symmetry_equiv_pos_as_xyz
  1  'x, y, z'
loop_
 _atom_site_type_symbol
 _atom_site_label
 _atom_site_symmetry_multiplicity
 _atom_site_fract_x
 _atom_site_fract_y
 _atom_site_fract_z
 _atom_site_occupancy
  Al  Al0  1  0.00000000  0.30151000  0.25000000  1
  Al  Al1  1  0.50000000  0.19849000  0.75000000  1
  Al  Al2  1  0.50000000  0.80151000  0.25000000  1
  Al  Al3  1  0.00000000  0.69849000  0.75000000  1
  B  B4  1  0.50000000  0.03334600  0.75000000  1
  B  B5  1  0.00000000  0.46665400  0.25000000  1
  B  B6  1  0.00000000  0.53334600  0.75000000  1
  B  B7  1  0.50000000  0.96665400  0.25000000  1
  Mo  Mo8  1  0.50000000  0.41059800  0.75000000  1
  Mo  Mo9  1  0.00000000  0.08940200  0.25000000  1
  Mo  Mo10  1  0.00000000  0.91059800  0.75000000  1
  Mo  Mo11  1  0.50000000  0.58940200  0.25000000  1
