# generated using pymatgen
data_ZrBiO4
_symmetry_space_group_name_H-M   'P 1'
_cell_length_a   5.32620800
_cell_length_b   5.32620800
_cell_length_c   10.83536400
_cell_angle_alpha   90.00000000
_cell_angle_beta   90.00000000
_cell_angle_gamma   90.00000000
_symmetry_Int_Tables_number   1
_chemical_formula_structural   ZrBiO4
_chemical_formula_sum   'Zr4 Bi4 O16'
_cell_volume   307.38293326
_cell_formula_units_Z   4
loop_
 _symmetry_equiv_pos_site_id
 _symmetry_equiv_pos_as_xyz
  1  'x, y, z'
loop_
 _atom_site_type_symbol
 _atom_site_label
 _atom_site_symmetry_multiplicity
 _atom_site_fract_x
 _atom_site_fract_y
 _atom_site_fract_z
 _atom_site_occupancy
  Zr  Zr0  1  0.00000000  0.50000000  0.25000000  1
  Zr  Zr1  1  0.00000000  0.00000000  0.00000000  1
  Zr  Zr2  1  0.50000000  0.00000000  0.75000000  1
  Zr  Zr3  1  0.50000000  0.50000000  0.50000000  1
  Bi  Bi4  1  0.50000000  0.00000000  0.25000000  1
  Bi  Bi5  1  0.50000000  0.50000000  0.00000000  1
  Bi  Bi6  1  0.00000000  0.50000000  0.75000000  1
  Bi  Bi7  1  0.00000000  0.00000000  0.50000000  1
  O  O8  1  0.23255850  0.26163950  0.35426350  1
  O  O9  1  0.76744150  0.73836050  0.35426350  1
  O  O10  1  0.23836050  0.73255850  0.14573650  1
  O  O11  1  0.76163950  0.26744150  0.14573650  1
  O  O12  1  0.23836050  0.23255850  0.10426350  1
  O  O13  1  0.76163950  0.76744150  0.10426350  1
  O  O14  1  0.73255850  0.26163950  0.39573650  1
  O  O15  1  0.26744150  0.73836050  0.39573650  1
  O  O16  1  0.73255850  0.76163950  0.85426350  1
  O  O17  1  0.26744150  0.23836050  0.85426350  1
  O  O18  1  0.73836050  0.23255850  0.64573650  1
  O  O19  1  0.26163950  0.76744150  0.64573650  1
  O  O20  1  0.73836050  0.73255850  0.60426350  1
  O  O21  1  0.26163950  0.26744150  0.60426350  1
  O  O22  1  0.23255850  0.76163950  0.89573650  1
  O  O23  1  0.76744150  0.23836050  0.89573650  1
