# generated using pymatgen
data_Mn2AlB2
_symmetry_space_group_name_H-M   'P 1'
_cell_length_a   2.89649000
_cell_length_b   11.08203200
_cell_length_c   2.83371300
_cell_angle_alpha   90.00000000
_cell_angle_beta   90.00000000
_cell_angle_gamma   90.00000000
_symmetry_Int_Tables_number   1
_chemical_formula_structural   Mn2AlB2
_chemical_formula_sum   'Mn4 Al2 B4'
_cell_volume   90.95933904
_cell_formula_units_Z   2
loop_
 _symmetry_equiv_pos_site_id
 _symmetry_equiv_pos_as_xyz
  1  'x, y, z'
loop_
 _atom_site_type_symbol
 _atom_site_label
 _atom_site_symmetry_multiplicity
 _atom_site_fract_x
 _atom_site_fract_y
 _atom_site_fract_z
 _atom_site_occupancy
  Mn  Mn0  1  0.00000000  0.35489600  0.50000000  1
  Mn  Mn1  1  0.50000000  0.14510400  0.50000000  1
  Mn  Mn2  1  0.50000000  0.85489600  0.50000000  1
  Mn  Mn3  1  0.00000000  0.64510400  0.50000000  1
  Al  Al4  1  0.00000000  0.00000000  0.00000000  1
  Al  Al5  1  0.50000000  0.50000000  0.00000000  1
  B  B6  1  0.50000000  0.29392700  0.00000000  1
  B  B7  1  0.00000000  0.20607300  0.00000000  1
  B  B8  1  0.00000000  0.79392700  0.00000000  1
  B  B9  1  0.50000000  0.70607300  0.00000000  1
