# generated using pymatgen
data_Ca(SiAu)2
_symmetry_space_group_name_H-M   'P 1'
_cell_length_a   4.38197800
_cell_length_b   4.38197800
_cell_length_c   10.10921400
_cell_angle_alpha   90.00000000
_cell_angle_beta   90.00000000
_cell_angle_gamma   90.00000000
_symmetry_Int_Tables_number   1
_chemical_formula_structural   Ca(SiAu)2
_chemical_formula_sum   'Ca2 Si4 Au4'
_cell_volume   194.11440980
_cell_formula_units_Z   2
loop_
 _symmetry_equiv_pos_site_id
 _symmetry_equiv_pos_as_xyz
  1  'x, y, z'
loop_
 _atom_site_type_symbol
 _atom_site_label
 _atom_site_symmetry_multiplicity
 _atom_site_fract_x
 _atom_site_fract_y
 _atom_site_fract_z
 _atom_site_occupancy
  Ca  Ca0  1  0.00000000  0.00000000  0.00000000  1
  Ca  Ca1  1  0.50000000  0.50000000  0.50000000  1
  Si  Si2  1  0.50000000  0.50000000  0.11494400  1
  Si  Si3  1  0.00000000  0.00000000  0.38505600  1
  Si  Si4  1  0.00000000  0.00000000  0.61494400  1
  Si  Si5  1  0.50000000  0.50000000  0.88505600  1
  Au  Au6  1  0.00000000  0.50000000  0.25000000  1
  Au  Au7  1  0.50000000  0.00000000  0.25000000  1
  Au  Au8  1  0.50000000  0.00000000  0.75000000  1
  Au  Au9  1  0.00000000  0.50000000  0.75000000  1
