# generated using pymatgen
data_NbO2
_symmetry_space_group_name_H-M   'P 1'
_cell_length_a   13.13286600
_cell_length_b   3.98747000
_cell_length_c   6.90766579
_cell_angle_alpha   90.00000000
_cell_angle_beta   107.59178432
_cell_angle_gamma   90.00000000
_symmetry_Int_Tables_number   1
_chemical_formula_structural   NbO2
_chemical_formula_sum   'Nb8 O16'
_cell_volume   344.81630232
_cell_formula_units_Z   8
loop_
 _symmetry_equiv_pos_site_id
 _symmetry_equiv_pos_as_xyz
  1  'x, y, z'
loop_
 _atom_site_type_symbol
 _atom_site_label
 _atom_site_symmetry_multiplicity
 _atom_site_fract_x
 _atom_site_fract_y
 _atom_site_fract_z
 _atom_site_occupancy
  Nb  Nb0  1  0.09970100  0.00000000  0.20696400  1
  Nb  Nb1  1  0.19510500  0.00000000  0.78963500  1
  Nb  Nb2  1  0.30489500  0.50000000  0.21036500  1
  Nb  Nb3  1  0.40029900  0.50000000  0.79303600  1
  Nb  Nb4  1  0.59970100  0.50000000  0.20696400  1
  Nb  Nb5  1  0.69510500  0.50000000  0.78963500  1
  Nb  Nb6  1  0.80489500  0.00000000  0.21036500  1
  Nb  Nb7  1  0.90029900  0.00000000  0.79303600  1
  O  O8  1  0.05656200  0.00000000  0.86267200  1
  O  O9  1  0.13660100  0.50000000  0.19332000  1
  O  O10  1  0.13719100  0.00000000  0.50324400  1
  O  O11  1  0.25977600  0.00000000  0.15235800  1
  O  O12  1  0.24022400  0.50000000  0.84764200  1
  O  O13  1  0.36280900  0.50000000  0.49675600  1
  O  O14  1  0.36339900  0.00000000  0.80668000  1
  O  O15  1  0.44343800  0.50000000  0.13732800  1
  O  O16  1  0.55656200  0.50000000  0.86267200  1
  O  O17  1  0.63660100  0.00000000  0.19332000  1
  O  O18  1  0.63719100  0.50000000  0.50324400  1
  O  O19  1  0.75977600  0.50000000  0.15235800  1
  O  O20  1  0.74022400  0.00000000  0.84764200  1
  O  O21  1  0.86280900  0.00000000  0.49675600  1
  O  O22  1  0.86339900  0.50000000  0.80668000  1
  O  O23  1  0.94343800  0.00000000  0.13732800  1
