# generated using pymatgen
data_Ca(BRh)2
_symmetry_space_group_name_H-M   'P 1'
_cell_length_a   5.93971200
_cell_length_b   9.30235800
_cell_length_c   10.63823200
_cell_angle_alpha   90.00000000
_cell_angle_beta   90.00000000
_cell_angle_gamma   90.00000000
_symmetry_Int_Tables_number   1
_chemical_formula_structural   Ca(BRh)2
_chemical_formula_sum   'Ca8 B16 Rh16'
_cell_volume   587.79771609
_cell_formula_units_Z   8
loop_
 _symmetry_equiv_pos_site_id
 _symmetry_equiv_pos_as_xyz
  1  'x, y, z'
loop_
 _atom_site_type_symbol
 _atom_site_label
 _atom_site_symmetry_multiplicity
 _atom_site_fract_x
 _atom_site_fract_y
 _atom_site_fract_z
 _atom_site_occupancy
  Ca  Ca0  1  0.50000000  0.00000000  0.00000000  1
  Ca  Ca1  1  0.75000000  0.25000000  0.25000000  1
  Ca  Ca2  1  0.50000000  0.50000000  0.50000000  1
  Ca  Ca3  1  0.75000000  0.75000000  0.75000000  1
  Ca  Ca4  1  0.00000000  0.00000000  0.50000000  1
  Ca  Ca5  1  0.25000000  0.25000000  0.75000000  1
  Ca  Ca6  1  0.00000000  0.50000000  0.00000000  1
  Ca  Ca7  1  0.25000000  0.75000000  0.25000000  1
  B  B8  1  0.50000000  0.32430400  0.00000000  1
  B  B9  1  0.75000000  0.57430400  0.25000000  1
  B  B10  1  0.50000000  0.67569600  0.00000000  1
  B  B11  1  0.75000000  0.92569600  0.25000000  1
  B  B12  1  0.50000000  0.82430400  0.50000000  1
  B  B13  1  0.75000000  0.07430400  0.75000000  1
  B  B14  1  0.50000000  0.17569600  0.50000000  1
  B  B15  1  0.75000000  0.42569600  0.75000000  1
  B  B16  1  0.00000000  0.32430400  0.50000000  1
  B  B17  1  0.25000000  0.57430400  0.75000000  1
  B  B18  1  0.00000000  0.67569600  0.50000000  1
  B  B19  1  0.25000000  0.92569600  0.75000000  1
  B  B20  1  0.00000000  0.82430400  0.00000000  1
  B  B21  1  0.25000000  0.07430400  0.25000000  1
  B  B22  1  0.00000000  0.17569600  0.00000000  1
  B  B23  1  0.25000000  0.42569600  0.25000000  1
  Rh  Rh24  1  0.00000000  0.00000000  0.13015600  1
  Rh  Rh25  1  0.75000000  0.75000000  0.38015600  1
  Rh  Rh26  1  0.75000000  0.75000000  0.11984400  1
  Rh  Rh27  1  0.50000000  0.00000000  0.36984400  1
  Rh  Rh28  1  0.00000000  0.50000000  0.63015600  1
  Rh  Rh29  1  0.75000000  0.25000000  0.88015600  1
  Rh  Rh30  1  0.75000000  0.25000000  0.61984400  1
  Rh  Rh31  1  0.50000000  0.50000000  0.86984400  1
  Rh  Rh32  1  0.50000000  0.00000000  0.63015600  1
  Rh  Rh33  1  0.25000000  0.75000000  0.88015600  1
  Rh  Rh34  1  0.25000000  0.75000000  0.61984400  1
  Rh  Rh35  1  0.00000000  0.00000000  0.86984400  1
  Rh  Rh36  1  0.50000000  0.50000000  0.13015600  1
  Rh  Rh37  1  0.25000000  0.25000000  0.38015600  1
  Rh  Rh38  1  0.25000000  0.25000000  0.11984400  1
  Rh  Rh39  1  0.00000000  0.50000000  0.36984400  1
