# generated using pymatgen
data_Mg2Cu
_symmetry_space_group_name_H-M   'P 1'
_cell_length_a   5.23996000
_cell_length_b   6.28512400
_cell_length_c   6.70446200
_cell_angle_alpha   90.00000000
_cell_angle_beta   90.00000000
_cell_angle_gamma   90.00000000
_symmetry_Int_Tables_number   1
_chemical_formula_structural   Mg2Cu
_chemical_formula_sum   'Mg8 Cu4'
_cell_volume   220.80339959
_cell_formula_units_Z   4
loop_
 _symmetry_equiv_pos_site_id
 _symmetry_equiv_pos_as_xyz
  1  'x, y, z'
loop_
 _atom_site_type_symbol
 _atom_site_label
 _atom_site_symmetry_multiplicity
 _atom_site_fract_x
 _atom_site_fract_y
 _atom_site_fract_z
 _atom_site_occupancy
  Mg  Mg0  1  0.50000000  0.16127400  0.32775400  1
  Mg  Mg1  1  0.50000000  0.83872600  0.67224600  1
  Mg  Mg2  1  0.00000000  0.83872600  0.32775400  1
  Mg  Mg3  1  0.00000000  0.16127400  0.67224600  1
  Mg  Mg4  1  0.00000000  0.66127400  0.82775400  1
  Mg  Mg5  1  0.00000000  0.33872600  0.17224600  1
  Mg  Mg6  1  0.50000000  0.33872600  0.82775400  1
  Mg  Mg7  1  0.50000000  0.66127400  0.17224600  1
  Cu  Cu8  1  0.25000000  0.00000000  0.00000000  1
  Cu  Cu9  1  0.75000000  0.00000000  0.00000000  1
  Cu  Cu10  1  0.75000000  0.50000000  0.50000000  1
  Cu  Cu11  1  0.25000000  0.50000000  0.50000000  1
