# generated using pymatgen
data_Li6CuS4
_symmetry_space_group_name_H-M   'P 1'
_cell_length_a   3.60217600
_cell_length_b   7.18886600
_cell_length_c   13.10496600
_cell_angle_alpha   90.00000000
_cell_angle_beta   90.00000000
_cell_angle_gamma   90.00000000
_symmetry_Int_Tables_number   1
_chemical_formula_structural   Li6CuS4
_chemical_formula_sum   'Li12 Cu2 S8'
_cell_volume   339.36044085
_cell_formula_units_Z   2
loop_
 _symmetry_equiv_pos_site_id
 _symmetry_equiv_pos_as_xyz
  1  'x, y, z'
loop_
 _atom_site_type_symbol
 _atom_site_label
 _atom_site_symmetry_multiplicity
 _atom_site_fract_x
 _atom_site_fract_y
 _atom_site_fract_z
 _atom_site_occupancy
  Li  Li0  1  0.50000000  0.20991550  0.38049250  1
  Li  Li1  1  0.50000000  0.03534000  0.14358300  1
  Li  Li2  1  0.50000000  0.41711750  0.18744050  1
  Li  Li3  1  0.00000000  0.91711750  0.31255950  1
  Li  Li4  1  0.00000000  0.53534000  0.35641700  1
  Li  Li5  1  0.00000000  0.70991550  0.11950750  1
  Li  Li6  1  0.00000000  0.70991550  0.88049250  1
  Li  Li7  1  0.00000000  0.53534000  0.64358300  1
  Li  Li8  1  0.00000000  0.91711750  0.68744050  1
  Li  Li9  1  0.50000000  0.41711750  0.81255950  1
  Li  Li10  1  0.50000000  0.03534000  0.85641700  1
  Li  Li11  1  0.50000000  0.20991550  0.61950750  1
  Cu  Cu12  1  0.00000000  0.28150400  0.00000000  1
  Cu  Cu13  1  0.50000000  0.78150400  0.50000000  1
  S  S14  1  0.00000000  0.97467000  0.00000000  1
  S  S15  1  0.00000000  0.23492400  0.25334200  1
  S  S16  1  0.50000000  0.73492400  0.24665800  1
  S  S17  1  0.50000000  0.46805200  0.00000000  1
  S  S18  1  0.50000000  0.47467000  0.50000000  1
  S  S19  1  0.50000000  0.73492400  0.75334200  1
  S  S20  1  0.00000000  0.23492400  0.74665800  1
  S  S21  1  0.00000000  0.96805200  0.50000000  1
