# generated using pymatgen
data_Ca3CrN3
_symmetry_space_group_name_H-M   'P 1'
_cell_length_a   8.43815000
_cell_length_b   10.27972600
_cell_length_c   5.06085300
_cell_angle_alpha   90.00000000
_cell_angle_beta   90.00000000
_cell_angle_gamma   90.00000000
_symmetry_Int_Tables_number   1
_chemical_formula_structural   Ca3CrN3
_chemical_formula_sum   'Ca12 Cr4 N12'
_cell_volume   438.98785275
_cell_formula_units_Z   4
loop_
 _symmetry_equiv_pos_site_id
 _symmetry_equiv_pos_as_xyz
  1  'x, y, z'
loop_
 _atom_site_type_symbol
 _atom_site_label
 _atom_site_symmetry_multiplicity
 _atom_site_fract_x
 _atom_site_fract_y
 _atom_site_fract_z
 _atom_site_occupancy
  Ca  Ca0  1  0.71302850  0.11746150  0.25000000  1
  Ca  Ca1  1  0.50000000  0.60677800  0.75000000  1
  Ca  Ca2  1  0.71302850  0.88253850  0.75000000  1
  Ca  Ca3  1  0.50000000  0.39322200  0.25000000  1
  Ca  Ca4  1  0.28697150  0.88253850  0.75000000  1
  Ca  Ca5  1  0.28697150  0.11746150  0.25000000  1
  Ca  Ca6  1  0.21302850  0.61746150  0.25000000  1
  Ca  Ca7  1  0.00000000  0.10677800  0.75000000  1
  Ca  Ca8  1  0.21302850  0.38253850  0.75000000  1
  Ca  Ca9  1  0.00000000  0.89322200  0.25000000  1
  Ca  Ca10  1  0.78697150  0.38253850  0.75000000  1
  Ca  Ca11  1  0.78697150  0.61746150  0.25000000  1
  Cr  Cr12  1  0.50000000  0.19579500  0.75000000  1
  Cr  Cr13  1  0.50000000  0.80420500  0.25000000  1
  Cr  Cr14  1  0.00000000  0.69579500  0.75000000  1
  Cr  Cr15  1  0.00000000  0.30420500  0.25000000  1
  N  N16  1  0.69184800  0.12616200  0.75000000  1
  N  N17  1  0.50000000  0.62697800  0.25000000  1
  N  N18  1  0.50000000  0.37302200  0.75000000  1
  N  N19  1  0.69184800  0.87383800  0.25000000  1
  N  N20  1  0.30815200  0.87383800  0.25000000  1
  N  N21  1  0.30815200  0.12616200  0.75000000  1
  N  N22  1  0.19184800  0.62616200  0.75000000  1
  N  N23  1  0.00000000  0.12697800  0.25000000  1
  N  N24  1  0.00000000  0.87302200  0.75000000  1
  N  N25  1  0.19184800  0.37383800  0.25000000  1
  N  N26  1  0.80815200  0.37383800  0.25000000  1
  N  N27  1  0.80815200  0.62616200  0.75000000  1
