# generated using pymatgen
data_DyMgSn
_symmetry_space_group_name_H-M   'P 1'
_cell_length_a   4.40071400
_cell_length_b   4.40071400
_cell_length_c   15.91774400
_cell_angle_alpha   90.00000000
_cell_angle_beta   90.00000000
_cell_angle_gamma   90.00000000
_symmetry_Int_Tables_number   1
_chemical_formula_structural   DyMgSn
_chemical_formula_sum   'Dy4 Mg4 Sn4'
_cell_volume   308.26754632
_cell_formula_units_Z   4
loop_
 _symmetry_equiv_pos_site_id
 _symmetry_equiv_pos_as_xyz
  1  'x, y, z'
loop_
 _atom_site_type_symbol
 _atom_site_label
 _atom_site_symmetry_multiplicity
 _atom_site_fract_x
 _atom_site_fract_y
 _atom_site_fract_z
 _atom_site_occupancy
  Dy  Dy0  1  0.50000000  0.50000000  0.16697500  1
  Dy  Dy1  1  0.00000000  0.00000000  0.33302500  1
  Dy  Dy2  1  0.00000000  0.00000000  0.66697500  1
  Dy  Dy3  1  0.50000000  0.50000000  0.83302500  1
  Mg  Mg4  1  0.50000000  0.00000000  0.00000000  1
  Mg  Mg5  1  0.00000000  0.50000000  0.00000000  1
  Mg  Mg6  1  0.00000000  0.50000000  0.50000000  1
  Mg  Mg7  1  0.50000000  0.00000000  0.50000000  1
  Sn  Sn8  1  0.00000000  0.00000000  0.13572900  1
  Sn  Sn9  1  0.50000000  0.50000000  0.36427100  1
  Sn  Sn10  1  0.50000000  0.50000000  0.63572900  1
  Sn  Sn11  1  0.00000000  0.00000000  0.86427100  1
