# generated using pymatgen
data_LiGaAg2
_symmetry_space_group_name_H-M   'P 1'
_cell_length_a   6.40052200
_cell_length_b   6.40052200
_cell_length_c   6.40052200
_cell_angle_alpha   90.00000000
_cell_angle_beta   90.00000000
_cell_angle_gamma   90.00000000
_symmetry_Int_Tables_number   1
_chemical_formula_structural   LiGaAg2
_chemical_formula_sum   'Li4 Ga4 Ag8'
_cell_volume   262.20814859
_cell_formula_units_Z   4
loop_
 _symmetry_equiv_pos_site_id
 _symmetry_equiv_pos_as_xyz
  1  'x, y, z'
loop_
 _atom_site_type_symbol
 _atom_site_label
 _atom_site_symmetry_multiplicity
 _atom_site_fract_x
 _atom_site_fract_y
 _atom_site_fract_z
 _atom_site_occupancy
  Li  Li0  1  0.00000000  0.00000000  0.00000000  1
  Li  Li1  1  0.00000000  0.50000000  0.50000000  1
  Li  Li2  1  0.50000000  0.00000000  0.50000000  1
  Li  Li3  1  0.50000000  0.50000000  0.00000000  1
  Ga  Ga4  1  0.50000000  0.00000000  0.00000000  1
  Ga  Ga5  1  0.50000000  0.50000000  0.50000000  1
  Ga  Ga6  1  0.00000000  0.00000000  0.50000000  1
  Ga  Ga7  1  0.00000000  0.50000000  0.00000000  1
  Ag  Ag8  1  0.25000000  0.25000000  0.75000000  1
  Ag  Ag9  1  0.25000000  0.75000000  0.75000000  1
  Ag  Ag10  1  0.25000000  0.75000000  0.25000000  1
  Ag  Ag11  1  0.25000000  0.25000000  0.25000000  1
  Ag  Ag12  1  0.75000000  0.25000000  0.25000000  1
  Ag  Ag13  1  0.75000000  0.75000000  0.25000000  1
  Ag  Ag14  1  0.75000000  0.75000000  0.75000000  1
  Ag  Ag15  1  0.75000000  0.25000000  0.75000000  1
