# generated using pymatgen
data_PdPtF6
_symmetry_space_group_name_H-M   'P 1'
_cell_length_a   5.18933619
_cell_length_b   5.18933619
_cell_length_c   14.45340449
_cell_angle_alpha   90.00000000
_cell_angle_beta   90.00000000
_cell_angle_gamma   120.00000000
_symmetry_Int_Tables_number   1
_chemical_formula_structural   PdPtF6
_chemical_formula_sum   'Pd3 Pt3 F18'
_cell_volume   337.07333877
_cell_formula_units_Z   3
loop_
 _symmetry_equiv_pos_site_id
 _symmetry_equiv_pos_as_xyz
  1  'x, y, z'
loop_
 _atom_site_type_symbol
 _atom_site_label
 _atom_site_symmetry_multiplicity
 _atom_site_fract_x
 _atom_site_fract_y
 _atom_site_fract_z
 _atom_site_occupancy
  Pd  Pd0  1  0.00000000  0.00000000  0.00000000  1
  Pd  Pd1  1  0.66666667  0.33333333  0.33333333  1
  Pd  Pd2  1  0.33333333  0.66666667  0.66666667  1
  Pt  Pt3  1  0.33333333  0.66666667  0.16666667  1
  Pt  Pt4  1  1.00000000  0.00000000  0.50000000  1
  Pt  Pt5  1  0.66666667  0.33333333  0.83333333  1
  F  F6  1  0.64401933  0.97836267  0.24636767  1
  F  F7  1  0.33434333  0.35598067  0.24636767  1
  F  F8  1  0.64502933  0.66767667  0.08696567  1
  F  F9  1  0.33232333  0.97735267  0.08696567  1
  F  F10  1  0.02264733  0.35497067  0.08696567  1
  F  F11  1  0.02163733  0.66565667  0.24636767  1
  F  F12  1  0.31068600  0.31169600  0.57970100  1
  F  F13  1  0.00101000  0.68931400  0.57970100  1
  F  F14  1  0.31169600  0.00101000  0.42029900  1
  F  F15  1  0.99899000  0.31068600  0.42029900  1
  F  F16  1  0.68931400  0.68830400  0.42029900  1
  F  F17  1  0.68830400  0.99899000  0.57970100  1
  F  F18  1  0.97735267  0.64502933  0.91303433  1
  F  F19  1  0.66767667  0.02264733  0.91303433  1
  F  F20  1  0.97836267  0.33434333  0.75363233  1
  F  F21  1  0.66565667  0.64401933  0.75363233  1
  F  F22  1  0.35598067  0.02163733  0.75363233  1
  F  F23  1  0.35497067  0.33232333  0.91303433  1
