# generated using pymatgen
data_PaZn3
_symmetry_space_group_name_H-M   'P 1'
_cell_length_a   6.29377013
_cell_length_b   6.29377013
_cell_length_c   4.40826200
_cell_angle_alpha   90.00000000
_cell_angle_beta   90.00000000
_cell_angle_gamma   120.00000000
_symmetry_Int_Tables_number   1
_chemical_formula_structural   PaZn3
_chemical_formula_sum   'Pa2 Zn6'
_cell_volume   151.22367350
_cell_formula_units_Z   2
loop_
 _symmetry_equiv_pos_site_id
 _symmetry_equiv_pos_as_xyz
  1  'x, y, z'
loop_
 _atom_site_type_symbol
 _atom_site_label
 _atom_site_symmetry_multiplicity
 _atom_site_fract_x
 _atom_site_fract_y
 _atom_site_fract_z
 _atom_site_occupancy
  Pa  Pa0  1  0.66666667  0.33333333  0.25000000  1
  Pa  Pa1  1  0.33333333  0.66666667  0.75000000  1
  Zn  Zn2  1  0.84977900  0.69955800  0.75000000  1
  Zn  Zn3  1  0.69955800  0.84977900  0.25000000  1
  Zn  Zn4  1  0.15022100  0.84977900  0.25000000  1
  Zn  Zn5  1  0.15022100  0.30044200  0.25000000  1
  Zn  Zn6  1  0.30044200  0.15022100  0.75000000  1
  Zn  Zn7  1  0.84977900  0.15022100  0.75000000  1
