# generated using pymatgen
data_LiTi3O4
_symmetry_space_group_name_H-M   'P 1'
_cell_length_a   6.07588200
_cell_length_b   8.33959800
_cell_length_c   2.96385800
_cell_angle_alpha   90.00000000
_cell_angle_beta   90.00000000
_cell_angle_gamma   90.00000000
_symmetry_Int_Tables_number   1
_chemical_formula_structural   LiTi3O4
_chemical_formula_sum   'Li2 Ti6 O8'
_cell_volume   150.17991005
_cell_formula_units_Z   2
loop_
 _symmetry_equiv_pos_site_id
 _symmetry_equiv_pos_as_xyz
  1  'x, y, z'
loop_
 _atom_site_type_symbol
 _atom_site_label
 _atom_site_symmetry_multiplicity
 _atom_site_fract_x
 _atom_site_fract_y
 _atom_site_fract_z
 _atom_site_occupancy
  Li  Li0  1  0.50000000  0.00000000  0.50000000  1
  Li  Li1  1  0.00000000  0.50000000  0.50000000  1
  Ti  Ti2  1  0.00000000  0.00000000  0.50000000  1
  Ti  Ti3  1  0.25000000  0.75000000  0.00000000  1
  Ti  Ti4  1  0.25000000  0.25000000  0.00000000  1
  Ti  Ti5  1  0.50000000  0.50000000  0.50000000  1
  Ti  Ti6  1  0.75000000  0.25000000  0.00000000  1
  Ti  Ti7  1  0.75000000  0.75000000  0.00000000  1
  O  O8  1  0.74454200  0.00000000  0.00000000  1
  O  O9  1  0.50000000  0.23915200  0.50000000  1
  O  O10  1  0.25545800  0.00000000  0.00000000  1
  O  O11  1  0.50000000  0.76084800  0.50000000  1
  O  O12  1  0.24454200  0.50000000  0.00000000  1
  O  O13  1  0.00000000  0.73915200  0.50000000  1
  O  O14  1  0.75545800  0.50000000  0.00000000  1
  O  O15  1  0.00000000  0.26084800  0.50000000  1
