# generated using pymatgen
data_Pm2ZnSn
_symmetry_space_group_name_H-M   'P 1'
_cell_length_a   7.52617600
_cell_length_b   7.52617600
_cell_length_c   7.52617600
_cell_angle_alpha   90.00000000
_cell_angle_beta   90.00000000
_cell_angle_gamma   90.00000000
_symmetry_Int_Tables_number   1
_chemical_formula_structural   Pm2ZnSn
_chemical_formula_sum   'Pm8 Zn4 Sn4'
_cell_volume   426.30763455
_cell_formula_units_Z   4
loop_
 _symmetry_equiv_pos_site_id
 _symmetry_equiv_pos_as_xyz
  1  'x, y, z'
loop_
 _atom_site_type_symbol
 _atom_site_label
 _atom_site_symmetry_multiplicity
 _atom_site_fract_x
 _atom_site_fract_y
 _atom_site_fract_z
 _atom_site_occupancy
  Pm  Pm0  1  0.25000000  0.75000000  0.75000000  1
  Pm  Pm1  1  0.25000000  0.25000000  0.75000000  1
  Pm  Pm2  1  0.25000000  0.25000000  0.25000000  1
  Pm  Pm3  1  0.25000000  0.75000000  0.25000000  1
  Pm  Pm4  1  0.75000000  0.75000000  0.25000000  1
  Pm  Pm5  1  0.75000000  0.25000000  0.25000000  1
  Pm  Pm6  1  0.75000000  0.25000000  0.75000000  1
  Pm  Pm7  1  0.75000000  0.75000000  0.75000000  1
  Zn  Zn8  1  0.00000000  0.00000000  0.00000000  1
  Zn  Zn9  1  0.00000000  0.50000000  0.50000000  1
  Zn  Zn10  1  0.50000000  0.00000000  0.50000000  1
  Zn  Zn11  1  0.50000000  0.50000000  0.00000000  1
  Sn  Sn12  1  0.50000000  0.00000000  0.00000000  1
  Sn  Sn13  1  0.50000000  0.50000000  0.50000000  1
  Sn  Sn14  1  0.00000000  0.00000000  0.50000000  1
  Sn  Sn15  1  0.00000000  0.50000000  0.00000000  1
