# generated using pymatgen
data_Dy2IrRu
_symmetry_space_group_name_H-M   'P 1'
_cell_length_a   6.82865800
_cell_length_b   6.82865800
_cell_length_c   6.82865800
_cell_angle_alpha   90.00000000
_cell_angle_beta   90.00000000
_cell_angle_gamma   90.00000000
_symmetry_Int_Tables_number   1
_chemical_formula_structural   Dy2IrRu
_chemical_formula_sum   'Dy8 Ir4 Ru4'
_cell_volume   318.42421543
_cell_formula_units_Z   4
loop_
 _symmetry_equiv_pos_site_id
 _symmetry_equiv_pos_as_xyz
  1  'x, y, z'
loop_
 _atom_site_type_symbol
 _atom_site_label
 _atom_site_symmetry_multiplicity
 _atom_site_fract_x
 _atom_site_fract_y
 _atom_site_fract_z
 _atom_site_occupancy
  Dy  Dy0  1  0.25000000  0.25000000  0.75000000  1
  Dy  Dy1  1  0.25000000  0.75000000  0.75000000  1
  Dy  Dy2  1  0.25000000  0.75000000  0.25000000  1
  Dy  Dy3  1  0.25000000  0.25000000  0.25000000  1
  Dy  Dy4  1  0.75000000  0.25000000  0.25000000  1
  Dy  Dy5  1  0.75000000  0.75000000  0.25000000  1
  Dy  Dy6  1  0.75000000  0.75000000  0.75000000  1
  Dy  Dy7  1  0.75000000  0.25000000  0.75000000  1
  Ir  Ir8  1  0.50000000  0.00000000  0.00000000  1
  Ir  Ir9  1  0.50000000  0.50000000  0.50000000  1
  Ir  Ir10  1  0.00000000  0.00000000  0.50000000  1
  Ir  Ir11  1  0.00000000  0.50000000  0.00000000  1
  Ru  Ru12  1  0.00000000  0.00000000  0.00000000  1
  Ru  Ru13  1  0.00000000  0.50000000  0.50000000  1
  Ru  Ru14  1  0.50000000  0.00000000  0.50000000  1
  Ru  Ru15  1  0.50000000  0.50000000  0.00000000  1
