# generated using pymatgen
data_Ca3Ni7B2
_symmetry_space_group_name_H-M   'P 1'
_cell_length_a   5.13405596
_cell_length_b   5.13405596
_cell_length_c   21.27486902
_cell_angle_alpha   90.00000000
_cell_angle_beta   90.00000000
_cell_angle_gamma   120.00000000
_symmetry_Int_Tables_number   1
_chemical_formula_structural   Ca3Ni7B2
_chemical_formula_sum   'Ca9 Ni21 B6'
_cell_volume   485.64477779
_cell_formula_units_Z   3
loop_
 _symmetry_equiv_pos_site_id
 _symmetry_equiv_pos_as_xyz
  1  'x, y, z'
loop_
 _atom_site_type_symbol
 _atom_site_label
 _atom_site_symmetry_multiplicity
 _atom_site_fract_x
 _atom_site_fract_y
 _atom_site_fract_z
 _atom_site_occupancy
  Ca  Ca0  1  0.33333333  0.66666667  0.31151267  1
  Ca  Ca1  1  0.33333333  0.66666667  0.02182067  1
  Ca  Ca2  1  0.33333333  0.66666667  0.16666667  1
  Ca  Ca3  1  0.00000000  0.00000000  0.64484600  1
  Ca  Ca4  1  0.00000000  0.00000000  0.35515400  1
  Ca  Ca5  1  1.00000000  1.00000000  0.50000000  1
  Ca  Ca6  1  0.66666667  0.33333333  0.97817933  1
  Ca  Ca7  1  0.66666667  0.33333333  0.68848733  1
  Ca  Ca8  1  0.66666667  0.33333333  0.83333333  1
  Ni  Ni9  1  0.34054333  0.17027167  0.23141567  1
  Ni  Ni10  1  0.82972833  0.65945667  0.23141567  1
  Ni  Ni11  1  0.82972833  0.17027167  0.23141567  1
  Ni  Ni12  1  0.83693833  0.16306167  0.10191767  1
  Ni  Ni13  1  0.83693833  0.67387667  0.10191767  1
  Ni  Ni14  1  0.32612333  0.16306167  0.10191767  1
  Ni  Ni15  1  0.00000000  0.00000000  0.00000000  1
  Ni  Ni16  1  0.00721000  0.50360500  0.56474900  1
  Ni  Ni17  1  0.49639500  0.99279000  0.56474900  1
  Ni  Ni18  1  0.49639500  0.50360500  0.56474900  1
  Ni  Ni19  1  0.50360500  0.49639500  0.43525100  1
  Ni  Ni20  1  0.50360500  0.00721000  0.43525100  1
  Ni  Ni21  1  0.99279000  0.49639500  0.43525100  1
  Ni  Ni22  1  0.66666667  0.33333333  0.33333333  1
  Ni  Ni23  1  0.67387667  0.83693833  0.89808233  1
  Ni  Ni24  1  0.16306167  0.32612333  0.89808233  1
  Ni  Ni25  1  0.16306167  0.83693833  0.89808233  1
  Ni  Ni26  1  0.17027167  0.82972833  0.76858433  1
  Ni  Ni27  1  0.17027167  0.34054333  0.76858433  1
  Ni  Ni28  1  0.65945667  0.82972833  0.76858433  1
  Ni  Ni29  1  0.33333333  0.66666667  0.66666667  1
  B  B30  1  0.66666667  0.33333333  0.16427033  1
  B  B31  1  0.00000000  0.00000000  0.16906300  1
  B  B32  1  0.33333333  0.66666667  0.49760367  1
  B  B33  1  0.66666667  0.33333333  0.50239633  1
  B  B34  1  0.00000000  0.00000000  0.83093700  1
  B  B35  1  0.33333333  0.66666667  0.83572967  1
