# generated using pymatgen
data_Tm2InOs
_symmetry_space_group_name_H-M   'P 1'
_cell_length_a   7.04459200
_cell_length_b   7.04459200
_cell_length_c   7.04459200
_cell_angle_alpha   90.00000000
_cell_angle_beta   90.00000000
_cell_angle_gamma   90.00000000
_symmetry_Int_Tables_number   1
_chemical_formula_structural   Tm2InOs
_chemical_formula_sum   'Tm8 In4 Os4'
_cell_volume   349.59687004
_cell_formula_units_Z   4
loop_
 _symmetry_equiv_pos_site_id
 _symmetry_equiv_pos_as_xyz
  1  'x, y, z'
loop_
 _atom_site_type_symbol
 _atom_site_label
 _atom_site_symmetry_multiplicity
 _atom_site_fract_x
 _atom_site_fract_y
 _atom_site_fract_z
 _atom_site_occupancy
  Tm  Tm0  1  0.25000000  0.75000000  0.75000000  1
  Tm  Tm1  1  0.25000000  0.25000000  0.75000000  1
  Tm  Tm2  1  0.25000000  0.25000000  0.25000000  1
  Tm  Tm3  1  0.25000000  0.75000000  0.25000000  1
  Tm  Tm4  1  0.75000000  0.75000000  0.25000000  1
  Tm  Tm5  1  0.75000000  0.25000000  0.25000000  1
  Tm  Tm6  1  0.75000000  0.25000000  0.75000000  1
  Tm  Tm7  1  0.75000000  0.75000000  0.75000000  1
  In  In8  1  0.50000000  0.00000000  0.00000000  1
  In  In9  1  0.50000000  0.50000000  0.50000000  1
  In  In10  1  0.00000000  0.00000000  0.50000000  1
  In  In11  1  0.00000000  0.50000000  0.00000000  1
  Os  Os12  1  0.00000000  0.00000000  0.00000000  1
  Os  Os13  1  0.00000000  0.50000000  0.50000000  1
  Os  Os14  1  0.50000000  0.00000000  0.50000000  1
  Os  Os15  1  0.50000000  0.50000000  0.00000000  1
