# generated using pymatgen
data_Ba3FeN3
_symmetry_space_group_name_H-M   'P 1'
_cell_length_a   8.17605000
_cell_length_b   8.17605000
_cell_length_c   5.62874100
_cell_angle_alpha   90.00000000
_cell_angle_beta   90.00000000
_cell_angle_gamma   120.00000000
_symmetry_Int_Tables_number   1
_chemical_formula_structural   Ba3FeN3
_chemical_formula_sum   'Ba6 Fe2 N6'
_cell_volume   325.85844035
_cell_formula_units_Z   2
loop_
 _symmetry_equiv_pos_site_id
 _symmetry_equiv_pos_as_xyz
  1  'x, y, z'
loop_
 _atom_site_type_symbol
 _atom_site_label
 _atom_site_symmetry_multiplicity
 _atom_site_fract_x
 _atom_site_fract_y
 _atom_site_fract_z
 _atom_site_occupancy
  Ba  Ba0  1  0.63639400  0.91761600  0.25000000  1
  Ba  Ba1  1  0.71877800  0.63639400  0.75000000  1
  Ba  Ba2  1  0.91761600  0.28122200  0.75000000  1
  Ba  Ba3  1  0.08238400  0.71877800  0.25000000  1
  Ba  Ba4  1  0.28122200  0.36360600  0.25000000  1
  Ba  Ba5  1  0.36360600  0.08238400  0.75000000  1
  Fe  Fe6  1  0.33333333  0.66666667  0.75000000  1
  Fe  Fe7  1  0.66666667  0.33333333  0.25000000  1
  N  N8  1  0.87049000  0.31704700  0.25000000  1
  N  N9  1  0.55344300  0.87049000  0.75000000  1
  N  N10  1  0.31704700  0.44655700  0.75000000  1
  N  N11  1  0.68295300  0.55344300  0.25000000  1
  N  N12  1  0.44655700  0.12951000  0.25000000  1
  N  N13  1  0.12951000  0.68295300  0.75000000  1
