# generated using pymatgen
data_ErSi2Rh3
_symmetry_space_group_name_H-M   'P 1'
_cell_length_a   5.55191000
_cell_length_b   7.18738200
_cell_length_c   9.61652400
_cell_angle_alpha   90.00000000
_cell_angle_beta   90.00000000
_cell_angle_gamma   90.00000000
_symmetry_Int_Tables_number   1
_chemical_formula_structural   ErSi2Rh3
_chemical_formula_sum   'Er4 Si8 Rh12'
_cell_volume   383.73486950
_cell_formula_units_Z   4
loop_
 _symmetry_equiv_pos_site_id
 _symmetry_equiv_pos_as_xyz
  1  'x, y, z'
loop_
 _atom_site_type_symbol
 _atom_site_label
 _atom_site_symmetry_multiplicity
 _atom_site_fract_x
 _atom_site_fract_y
 _atom_site_fract_z
 _atom_site_occupancy
  Er  Er0  1  0.79782500  0.50000000  0.75000000  1
  Er  Er1  1  0.20217500  0.50000000  0.25000000  1
  Er  Er2  1  0.29782500  0.00000000  0.25000000  1
  Er  Er3  1  0.70217500  0.00000000  0.75000000  1
  Si  Si4  1  0.30690400  0.50000000  0.92157900  1
  Si  Si5  1  0.30690400  0.50000000  0.57842100  1
  Si  Si6  1  0.69309600  0.50000000  0.07842100  1
  Si  Si7  1  0.69309600  0.50000000  0.42157900  1
  Si  Si8  1  0.80690400  0.00000000  0.42157900  1
  Si  Si9  1  0.80690400  0.00000000  0.07842100  1
  Si  Si10  1  0.19309600  0.00000000  0.57842100  1
  Si  Si11  1  0.19309600  0.00000000  0.92157900  1
  Rh  Rh12  1  0.50000000  0.78633200  0.00000000  1
  Rh  Rh13  1  0.50000000  0.21366800  0.00000000  1
  Rh  Rh14  1  0.75000000  0.25000000  0.25000000  1
  Rh  Rh15  1  0.25000000  0.25000000  0.75000000  1
  Rh  Rh16  1  0.00000000  0.28633200  0.00000000  1
  Rh  Rh17  1  0.00000000  0.71366800  0.00000000  1
  Rh  Rh18  1  0.00000000  0.28633200  0.50000000  1
  Rh  Rh19  1  0.00000000  0.71366800  0.50000000  1
  Rh  Rh20  1  0.25000000  0.75000000  0.75000000  1
  Rh  Rh21  1  0.75000000  0.75000000  0.25000000  1
  Rh  Rh22  1  0.50000000  0.78633200  0.50000000  1
  Rh  Rh23  1  0.50000000  0.21366800  0.50000000  1
