# generated using pymatgen
data_AlFeRh2
_symmetry_space_group_name_H-M   'P 1'
_cell_length_a   6.02012400
_cell_length_b   6.02012400
_cell_length_c   6.02012400
_cell_angle_alpha   90.00000000
_cell_angle_beta   90.00000000
_cell_angle_gamma   90.00000000
_symmetry_Int_Tables_number   1
_chemical_formula_structural   AlFeRh2
_chemical_formula_sum   'Al4 Fe4 Rh8'
_cell_volume   218.18068971
_cell_formula_units_Z   4
loop_
 _symmetry_equiv_pos_site_id
 _symmetry_equiv_pos_as_xyz
  1  'x, y, z'
loop_
 _atom_site_type_symbol
 _atom_site_label
 _atom_site_symmetry_multiplicity
 _atom_site_fract_x
 _atom_site_fract_y
 _atom_site_fract_z
 _atom_site_occupancy
  Al  Al0  1  0.50000000  0.00000000  0.00000000  1
  Al  Al1  1  0.50000000  0.50000000  0.50000000  1
  Al  Al2  1  0.00000000  0.00000000  0.50000000  1
  Al  Al3  1  0.00000000  0.50000000  0.00000000  1
  Fe  Fe4  1  0.00000000  0.00000000  0.00000000  1
  Fe  Fe5  1  0.00000000  0.50000000  0.50000000  1
  Fe  Fe6  1  0.50000000  0.00000000  0.50000000  1
  Fe  Fe7  1  0.50000000  0.50000000  0.00000000  1
  Rh  Rh8  1  0.25000000  0.75000000  0.75000000  1
  Rh  Rh9  1  0.25000000  0.25000000  0.75000000  1
  Rh  Rh10  1  0.25000000  0.25000000  0.25000000  1
  Rh  Rh11  1  0.25000000  0.75000000  0.25000000  1
  Rh  Rh12  1  0.75000000  0.75000000  0.25000000  1
  Rh  Rh13  1  0.75000000  0.25000000  0.25000000  1
  Rh  Rh14  1  0.75000000  0.25000000  0.75000000  1
  Rh  Rh15  1  0.75000000  0.75000000  0.75000000  1
