# generated using pymatgen
data_LuTaOs2
_symmetry_space_group_name_H-M   'P 1'
_cell_length_a   6.50372200
_cell_length_b   6.50372200
_cell_length_c   6.50372200
_cell_angle_alpha   90.00000000
_cell_angle_beta   90.00000000
_cell_angle_gamma   90.00000000
_symmetry_Int_Tables_number   1
_chemical_formula_structural   LuTaOs2
_chemical_formula_sum   'Lu4 Ta4 Os8'
_cell_volume   275.09703369
_cell_formula_units_Z   4
loop_
 _symmetry_equiv_pos_site_id
 _symmetry_equiv_pos_as_xyz
  1  'x, y, z'
loop_
 _atom_site_type_symbol
 _atom_site_label
 _atom_site_symmetry_multiplicity
 _atom_site_fract_x
 _atom_site_fract_y
 _atom_site_fract_z
 _atom_site_occupancy
  Lu  Lu0  1  0.00000000  0.00000000  0.00000000  1
  Lu  Lu1  1  0.00000000  0.50000000  0.50000000  1
  Lu  Lu2  1  0.50000000  0.00000000  0.50000000  1
  Lu  Lu3  1  0.50000000  0.50000000  0.00000000  1
  Ta  Ta4  1  0.50000000  0.00000000  0.00000000  1
  Ta  Ta5  1  0.50000000  0.50000000  0.50000000  1
  Ta  Ta6  1  0.00000000  0.00000000  0.50000000  1
  Ta  Ta7  1  0.00000000  0.50000000  0.00000000  1
  Os  Os8  1  0.25000000  0.25000000  0.75000000  1
  Os  Os9  1  0.25000000  0.75000000  0.75000000  1
  Os  Os10  1  0.25000000  0.75000000  0.25000000  1
  Os  Os11  1  0.25000000  0.25000000  0.25000000  1
  Os  Os12  1  0.75000000  0.25000000  0.25000000  1
  Os  Os13  1  0.75000000  0.75000000  0.25000000  1
  Os  Os14  1  0.75000000  0.75000000  0.75000000  1
  Os  Os15  1  0.75000000  0.25000000  0.75000000  1
