# generated using pymatgen
data_K(Cu2As)2
_symmetry_space_group_name_H-M   'P 1'
_cell_length_a   4.12558420
_cell_length_b   4.12558420
_cell_length_c   25.98136704
_cell_angle_alpha   90.00000000
_cell_angle_beta   90.00000000
_cell_angle_gamma   120.00000000
_symmetry_Int_Tables_number   1
_chemical_formula_structural   K(Cu2As)2
_chemical_formula_sum   'K3 Cu12 As6'
_cell_volume   382.96892973
_cell_formula_units_Z   3
loop_
 _symmetry_equiv_pos_site_id
 _symmetry_equiv_pos_as_xyz
  1  'x, y, z'
loop_
 _atom_site_type_symbol
 _atom_site_label
 _atom_site_symmetry_multiplicity
 _atom_site_fract_x
 _atom_site_fract_y
 _atom_site_fract_z
 _atom_site_occupancy
  K  K0  1  0.00000000  0.00000000  0.00000000  1
  K  K1  1  0.66666667  0.33333333  0.33333333  1
  K  K2  1  0.33333333  0.66666667  0.66666667  1
  Cu  Cu3  1  0.66666667  0.33333333  0.18780533  1
  Cu  Cu4  1  0.00000000  0.00000000  0.14552800  1
  Cu  Cu5  1  0.33333333  0.66666667  0.22072267  1
  Cu  Cu6  1  0.33333333  0.66666667  0.11261067  1
  Cu  Cu7  1  0.33333333  0.66666667  0.52113867  1
  Cu  Cu8  1  0.66666667  0.33333333  0.47886133  1
  Cu  Cu9  1  0.00000000  0.00000000  0.55405600  1
  Cu  Cu10  1  0.00000000  0.00000000  0.44594400  1
  Cu  Cu11  1  0.00000000  0.00000000  0.85447200  1
  Cu  Cu12  1  0.33333333  0.66666667  0.81219467  1
  Cu  Cu13  1  0.66666667  0.33333333  0.88738933  1
  Cu  Cu14  1  0.66666667  0.33333333  0.77927733  1
  As  As15  1  0.66666667  0.33333333  0.09177133  1
  As  As16  1  0.00000000  0.00000000  0.24156200  1
  As  As17  1  0.33333333  0.66666667  0.42510467  1
  As  As18  1  0.66666667  0.33333333  0.57489533  1
  As  As19  1  0.00000000  0.00000000  0.75843800  1
  As  As20  1  0.33333333  0.66666667  0.90822867  1
