# generated using pymatgen
data_DyCoSi2
_symmetry_space_group_name_H-M   'P 1'
_cell_length_a   4.02729000
_cell_length_b   16.20766200
_cell_length_c   3.98624200
_cell_angle_alpha   90.00000000
_cell_angle_beta   90.00000000
_cell_angle_gamma   90.00000000
_symmetry_Int_Tables_number   1
_chemical_formula_structural   DyCoSi2
_chemical_formula_sum   'Dy4 Co4 Si8'
_cell_volume   260.19379507
_cell_formula_units_Z   4
loop_
 _symmetry_equiv_pos_site_id
 _symmetry_equiv_pos_as_xyz
  1  'x, y, z'
loop_
 _atom_site_type_symbol
 _atom_site_label
 _atom_site_symmetry_multiplicity
 _atom_site_fract_x
 _atom_site_fract_y
 _atom_site_fract_z
 _atom_site_occupancy
  Dy  Dy0  1  0.50000000  0.39273800  0.75000000  1
  Dy  Dy1  1  0.00000000  0.10726200  0.25000000  1
  Dy  Dy2  1  0.00000000  0.89273800  0.75000000  1
  Dy  Dy3  1  0.50000000  0.60726200  0.25000000  1
  Co  Co4  1  0.50000000  0.17940700  0.75000000  1
  Co  Co5  1  0.00000000  0.32059300  0.25000000  1
  Co  Co6  1  0.00000000  0.67940700  0.75000000  1
  Co  Co7  1  0.50000000  0.82059300  0.25000000  1
  Si  Si8  1  0.50000000  0.25013300  0.25000000  1
  Si  Si9  1  0.00000000  0.24986700  0.75000000  1
  Si  Si10  1  0.00000000  0.45750500  0.25000000  1
  Si  Si11  1  0.50000000  0.04249500  0.75000000  1
  Si  Si12  1  0.00000000  0.75013300  0.25000000  1
  Si  Si13  1  0.50000000  0.74986700  0.75000000  1
  Si  Si14  1  0.50000000  0.95750500  0.25000000  1
  Si  Si15  1  0.00000000  0.54249500  0.75000000  1
