# generated using pymatgen
data_MnSiTc2
_symmetry_space_group_name_H-M   'P 1'
_cell_length_a   5.96070800
_cell_length_b   5.96070800
_cell_length_c   5.96070800
_cell_angle_alpha   90.00000000
_cell_angle_beta   90.00000000
_cell_angle_gamma   90.00000000
_symmetry_Int_Tables_number   1
_chemical_formula_structural   MnSiTc2
_chemical_formula_sum   'Mn4 Si4 Tc8'
_cell_volume   211.78419284
_cell_formula_units_Z   4
loop_
 _symmetry_equiv_pos_site_id
 _symmetry_equiv_pos_as_xyz
  1  'x, y, z'
loop_
 _atom_site_type_symbol
 _atom_site_label
 _atom_site_symmetry_multiplicity
 _atom_site_fract_x
 _atom_site_fract_y
 _atom_site_fract_z
 _atom_site_occupancy
  Mn  Mn0  1  0.00000000  0.50000000  0.00000000  1
  Mn  Mn1  1  0.00000000  0.00000000  0.50000000  1
  Mn  Mn2  1  0.50000000  0.50000000  0.50000000  1
  Mn  Mn3  1  0.50000000  0.00000000  0.00000000  1
  Si  Si4  1  0.00000000  0.00000000  0.00000000  1
  Si  Si5  1  0.00000000  0.50000000  0.50000000  1
  Si  Si6  1  0.50000000  0.00000000  0.50000000  1
  Si  Si7  1  0.50000000  0.50000000  0.00000000  1
  Tc  Tc8  1  0.75000000  0.75000000  0.25000000  1
  Tc  Tc9  1  0.25000000  0.75000000  0.25000000  1
  Tc  Tc10  1  0.75000000  0.25000000  0.75000000  1
  Tc  Tc11  1  0.25000000  0.25000000  0.75000000  1
  Tc  Tc12  1  0.25000000  0.75000000  0.75000000  1
  Tc  Tc13  1  0.75000000  0.75000000  0.75000000  1
  Tc  Tc14  1  0.25000000  0.25000000  0.25000000  1
  Tc  Tc15  1  0.75000000  0.25000000  0.25000000  1
