# generated using pymatgen
data_ErAl3
_symmetry_space_group_name_H-M   'P 1'
_cell_length_a   6.06088403
_cell_length_b   6.06088403
_cell_length_c   35.93279076
_cell_angle_alpha   90.00000000
_cell_angle_beta   90.00000000
_cell_angle_gamma   120.00000000
_symmetry_Int_Tables_number   1
_chemical_formula_structural   ErAl3
_chemical_formula_sum   'Er15 Al45'
_cell_volume   1143.12448724
_cell_formula_units_Z   15
loop_
 _symmetry_equiv_pos_site_id
 _symmetry_equiv_pos_as_xyz
  1  'x, y, z'
loop_
 _atom_site_type_symbol
 _atom_site_label
 _atom_site_symmetry_multiplicity
 _atom_site_fract_x
 _atom_site_fract_y
 _atom_site_fract_z
 _atom_site_occupancy
  Er  Er0  1  0.00000000  0.00000000  0.00000000  1
  Er  Er1  1  0.66666667  0.33333333  0.20209033  1
  Er  Er2  1  0.00000000  0.00000000  0.13124300  1
  Er  Er3  1  0.33333333  0.66666667  0.26668267  1
  Er  Er4  1  0.33333333  0.66666667  0.06665067  1
  Er  Er5  1  0.66666667  0.33333333  0.33333333  1
  Er  Er6  1  0.33333333  0.66666667  0.53542367  1
  Er  Er7  1  0.66666667  0.33333333  0.46457633  1
  Er  Er8  1  0.00000000  0.00000000  0.60001600  1
  Er  Er9  1  0.00000000  0.00000000  0.39998400  1
  Er  Er10  1  0.33333333  0.66666667  0.66666667  1
  Er  Er11  1  0.00000000  0.00000000  0.86875700  1
  Er  Er12  1  0.33333333  0.66666667  0.79790967  1
  Er  Er13  1  0.66666667  0.33333333  0.93334933  1
  Er  Er14  1  0.66666667  0.33333333  0.73331733  1
  Al  Al15  1  0.16528800  0.83471200  0.19967400  1
  Al  Al16  1  0.16528800  0.33057600  0.19967400  1
  Al  Al17  1  0.66942400  0.83471200  0.19967400  1
  Al  Al18  1  0.99724267  0.49862133  0.13365933  1
  Al  Al19  1  0.50137867  0.00275733  0.13365933  1
  Al  Al20  1  0.50137867  0.49862133  0.13365933  1
  Al  Al21  1  0.84971000  0.15029000  0.26705100  1
  Al  Al22  1  0.84971000  0.69942000  0.26705100  1
  Al  Al23  1  0.30058000  0.15029000  0.26705100  1
  Al  Al24  1  0.36608667  0.18304333  0.06628233  1
  Al  Al25  1  0.81695667  0.63391333  0.06628233  1
  Al  Al26  1  0.81695667  0.18304333  0.06628233  1
  Al  Al27  1  0.50000000  0.00000000  0.00000000  1
  Al  Al28  1  0.00000000  0.50000000  0.00000000  1
  Al  Al29  1  0.50000000  0.50000000  0.00000000  1
  Al  Al30  1  0.83195467  0.16804533  0.53300733  1
  Al  Al31  1  0.83195467  0.66390933  0.53300733  1
  Al  Al32  1  0.33609067  0.16804533  0.53300733  1
  Al  Al33  1  0.66390933  0.83195467  0.46699267  1
  Al  Al34  1  0.16804533  0.33609067  0.46699267  1
  Al  Al35  1  0.16804533  0.83195467  0.46699267  1
  Al  Al36  1  0.51637667  0.48362333  0.60038433  1
  Al  Al37  1  0.51637667  0.03275333  0.60038433  1
  Al  Al38  1  0.96724667  0.48362333  0.60038433  1
  Al  Al39  1  0.03275333  0.51637667  0.39961567  1
  Al  Al40  1  0.48362333  0.96724667  0.39961567  1
  Al  Al41  1  0.48362333  0.51637667  0.39961567  1
  Al  Al42  1  0.16666667  0.33333333  0.33333333  1
  Al  Al43  1  0.66666667  0.83333333  0.33333333  1
  Al  Al44  1  0.16666667  0.83333333  0.33333333  1
  Al  Al45  1  0.49862133  0.50137867  0.86634067  1
  Al  Al46  1  0.49862133  0.99724267  0.86634067  1
  Al  Al47  1  0.00275733  0.50137867  0.86634067  1
  Al  Al48  1  0.33057600  0.16528800  0.80032600  1
  Al  Al49  1  0.83471200  0.66942400  0.80032600  1
  Al  Al50  1  0.83471200  0.16528800  0.80032600  1
  Al  Al51  1  0.18304333  0.81695667  0.93371767  1
  Al  Al52  1  0.18304333  0.36608667  0.93371767  1
  Al  Al53  1  0.63391333  0.81695667  0.93371767  1
  Al  Al54  1  0.69942000  0.84971000  0.73294900  1
  Al  Al55  1  0.15029000  0.30058000  0.73294900  1
  Al  Al56  1  0.15029000  0.84971000  0.73294900  1
  Al  Al57  1  0.83333333  0.66666667  0.66666667  1
  Al  Al58  1  0.33333333  0.16666667  0.66666667  1
  Al  Al59  1  0.83333333  0.16666667  0.66666667  1
