# generated using pymatgen
data_SmScSi
_symmetry_space_group_name_H-M   'P 1'
_cell_length_a   4.26178200
_cell_length_b   4.26178200
_cell_length_c   15.73130000
_cell_angle_alpha   90.00000000
_cell_angle_beta   90.00000000
_cell_angle_gamma   90.00000000
_symmetry_Int_Tables_number   1
_chemical_formula_structural   SmScSi
_chemical_formula_sum   'Sm4 Sc4 Si4'
_cell_volume   285.72423250
_cell_formula_units_Z   4
loop_
 _symmetry_equiv_pos_site_id
 _symmetry_equiv_pos_as_xyz
  1  'x, y, z'
loop_
 _atom_site_type_symbol
 _atom_site_label
 _atom_site_symmetry_multiplicity
 _atom_site_fract_x
 _atom_site_fract_y
 _atom_site_fract_z
 _atom_site_occupancy
  Sm  Sm0  1  0.00000000  0.00000000  0.32293500  1
  Sm  Sm1  1  0.50000000  0.50000000  0.17706500  1
  Sm  Sm2  1  0.50000000  0.50000000  0.82293500  1
  Sm  Sm3  1  0.00000000  0.00000000  0.67706500  1
  Sc  Sc4  1  0.00000000  0.50000000  0.00000000  1
  Sc  Sc5  1  0.50000000  0.00000000  0.00000000  1
  Sc  Sc6  1  0.50000000  0.00000000  0.50000000  1
  Sc  Sc7  1  0.00000000  0.50000000  0.50000000  1
  Si  Si8  1  0.50000000  0.50000000  0.37597800  1
  Si  Si9  1  0.00000000  0.00000000  0.12402200  1
  Si  Si10  1  0.00000000  0.00000000  0.87597800  1
  Si  Si11  1  0.50000000  0.50000000  0.62402200  1
