# generated using pymatgen
data_Mg2Ni3P
_symmetry_space_group_name_H-M   'P 1'
_cell_length_a   4.98230437
_cell_length_b   4.98230437
_cell_length_c   10.81696655
_cell_angle_alpha   90.00000000
_cell_angle_beta   90.00000000
_cell_angle_gamma   120.00000000
_symmetry_Int_Tables_number   1
_chemical_formula_structural   Mg2Ni3P
_chemical_formula_sum   'Mg6 Ni9 P3'
_cell_volume   232.53944362
_cell_formula_units_Z   3
loop_
 _symmetry_equiv_pos_site_id
 _symmetry_equiv_pos_as_xyz
  1  'x, y, z'
loop_
 _atom_site_type_symbol
 _atom_site_label
 _atom_site_symmetry_multiplicity
 _atom_site_fract_x
 _atom_site_fract_y
 _atom_site_fract_z
 _atom_site_occupancy
  Mg  Mg0  1  0.33333333  0.66666667  0.04077767  1
  Mg  Mg1  1  0.33333333  0.66666667  0.29255567  1
  Mg  Mg2  1  0.00000000  0.00000000  0.37411100  1
  Mg  Mg3  1  0.00000000  0.00000000  0.62588900  1
  Mg  Mg4  1  0.66666667  0.33333333  0.70744433  1
  Mg  Mg5  1  0.66666667  0.33333333  0.95922233  1
  Ni  Ni6  1  0.16666667  0.33333333  0.83333333  1
  Ni  Ni7  1  0.33333333  0.16666667  0.16666667  1
  Ni  Ni8  1  0.83333333  0.16666667  0.16666667  1
  Ni  Ni9  1  0.83333333  0.66666667  0.16666667  1
  Ni  Ni10  1  0.00000000  0.50000000  0.50000000  1
  Ni  Ni11  1  0.50000000  0.50000000  0.50000000  1
  Ni  Ni12  1  0.50000000  0.00000000  0.50000000  1
  Ni  Ni13  1  0.66666667  0.83333333  0.83333333  1
  Ni  Ni14  1  0.16666667  0.83333333  0.83333333  1
  P  P15  1  0.00000000  0.00000000  0.00000000  1
  P  P16  1  0.66666667  0.33333333  0.33333333  1
  P  P17  1  0.33333333  0.66666667  0.66666667  1
