# generated using pymatgen
data_Te4Pt3
_symmetry_space_group_name_H-M   'P 1'
_cell_length_a   4.04944008
_cell_length_b   4.04944008
_cell_length_c   36.41400542
_cell_angle_alpha   90.00000000
_cell_angle_beta   90.00000000
_cell_angle_gamma   120.00000000
_symmetry_Int_Tables_number   1
_chemical_formula_structural   Te4Pt3
_chemical_formula_sum   'Te12 Pt9'
_cell_volume   517.11726666
_cell_formula_units_Z   3
loop_
 _symmetry_equiv_pos_site_id
 _symmetry_equiv_pos_as_xyz
  1  'x, y, z'
loop_
 _atom_site_type_symbol
 _atom_site_label
 _atom_site_symmetry_multiplicity
 _atom_site_fract_x
 _atom_site_fract_y
 _atom_site_fract_z
 _atom_site_occupancy
  Te  Te0  1  0.00000000  0.00000000  0.05368000  1
  Te  Te1  1  0.66666667  0.33333333  0.27965333  1
  Te  Te2  1  0.66666667  0.33333333  0.12877333  1
  Te  Te3  1  0.00000000  0.00000000  0.20456000  1
  Te  Te4  1  0.66666667  0.33333333  0.38701333  1
  Te  Te5  1  0.33333333  0.66666667  0.61298667  1
  Te  Te6  1  0.33333333  0.66666667  0.46210667  1
  Te  Te7  1  0.66666667  0.33333333  0.53789333  1
  Te  Te8  1  0.33333333  0.66666667  0.72034667  1
  Te  Te9  1  0.00000000  0.00000000  0.94632000  1
  Te  Te10  1  0.00000000  0.00000000  0.79544000  1
  Te  Te11  1  0.33333333  0.66666667  0.87122667  1
  Pt  Pt12  1  0.33333333  0.66666667  0.16666667  1
  Pt  Pt13  1  0.33333333  0.66666667  0.02032867  1
  Pt  Pt14  1  0.33333333  0.66666667  0.31300467  1
  Pt  Pt15  1  1.00000000  1.00000000  0.50000000  1
  Pt  Pt16  1  0.00000000  0.00000000  0.35366200  1
  Pt  Pt17  1  0.00000000  0.00000000  0.64633800  1
  Pt  Pt18  1  0.66666667  0.33333333  0.83333333  1
  Pt  Pt19  1  0.66666667  0.33333333  0.68699533  1
  Pt  Pt20  1  0.66666667  0.33333333  0.97967133  1
