# generated using pymatgen
data_NdRhC2
_symmetry_space_group_name_H-M   'P 1'
_cell_length_a   4.73082200
_cell_length_b   6.63714200
_cell_length_c   3.71836400
_cell_angle_alpha   90.00000000
_cell_angle_beta   90.00000000
_cell_angle_gamma   90.00000000
_symmetry_Int_Tables_number   1
_chemical_formula_structural   NdRhC2
_chemical_formula_sum   'Nd2 Rh2 C4'
_cell_volume   116.75342210
_cell_formula_units_Z   2
loop_
 _symmetry_equiv_pos_site_id
 _symmetry_equiv_pos_as_xyz
  1  'x, y, z'
loop_
 _atom_site_type_symbol
 _atom_site_label
 _atom_site_symmetry_multiplicity
 _atom_site_fract_x
 _atom_site_fract_y
 _atom_site_fract_z
 _atom_site_occupancy
  Nd  Nd0  1  0.50000000  0.47495500  0.00000000  1
  Nd  Nd1  1  0.00000000  0.97495500  0.00000000  1
  Rh  Rh2  1  0.50000000  0.85074800  0.50000000  1
  Rh  Rh3  1  0.00000000  0.35074800  0.50000000  1
  C  C4  1  0.35734400  0.16114900  0.50000000  1
  C  C5  1  0.64265600  0.16114900  0.50000000  1
  C  C6  1  0.85734400  0.66114900  0.50000000  1
  C  C7  1  0.14265600  0.66114900  0.50000000  1
