# generated using pymatgen
data_TiFeSi
_symmetry_space_group_name_H-M   'P 1'
_cell_length_a   6.25932200
_cell_length_b   6.94084400
_cell_length_c   10.74694000
_cell_angle_alpha   90.00000000
_cell_angle_beta   90.00000000
_cell_angle_gamma   90.00000000
_symmetry_Int_Tables_number   1
_chemical_formula_structural   TiFeSi
_chemical_formula_sum   'Ti12 Fe12 Si12'
_cell_volume   466.90056701
_cell_formula_units_Z   12
loop_
 _symmetry_equiv_pos_site_id
 _symmetry_equiv_pos_as_xyz
  1  'x, y, z'
loop_
 _atom_site_type_symbol
 _atom_site_label
 _atom_site_symmetry_multiplicity
 _atom_site_fract_x
 _atom_site_fract_y
 _atom_site_fract_z
 _atom_site_occupancy
  Ti  Ti0  1  0.41607700  0.25000000  0.50336050  1
  Ti  Ti1  1  0.26489900  0.25000000  0.77355650  1
  Ti  Ti2  1  0.76489900  0.25000000  0.72644350  1
  Ti  Ti3  1  0.29937950  0.75000000  0.80415300  1
  Ti  Ti4  1  0.91607700  0.25000000  0.99663950  1
  Ti  Ti5  1  0.79937950  0.75000000  0.69584700  1
  Ti  Ti6  1  0.91607700  0.75000000  0.00336050  1
  Ti  Ti7  1  0.76489900  0.75000000  0.27355650  1
  Ti  Ti8  1  0.26489900  0.75000000  0.22644350  1
  Ti  Ti9  1  0.79937950  0.25000000  0.30415300  1
  Ti  Ti10  1  0.41607700  0.75000000  0.49663950  1
  Ti  Ti11  1  0.29937950  0.25000000  0.19584700  1
  Fe  Fe12  1  0.75132050  0.00000000  0.50000000  1
  Fe  Fe13  1  0.75132050  0.50000000  0.50000000  1
  Fe  Fe14  1  0.12109400  0.53367700  0.62334950  1
  Fe  Fe15  1  0.62109400  0.53367700  0.87665050  1
  Fe  Fe16  1  0.12109400  0.96632300  0.62334950  1
  Fe  Fe17  1  0.62109400  0.96632300  0.87665050  1
  Fe  Fe18  1  0.25132050  0.50000000  0.00000000  1
  Fe  Fe19  1  0.25132050  0.00000000  0.00000000  1
  Fe  Fe20  1  0.62109400  0.03367700  0.12334950  1
  Fe  Fe21  1  0.12109400  0.03367700  0.37665050  1
  Fe  Fe22  1  0.62109400  0.46632300  0.12334950  1
  Fe  Fe23  1  0.12109400  0.46632300  0.37665050  1
  Si  Si24  1  0.50708450  0.25000000  0.96978700  1
  Si  Si25  1  0.99507850  0.99157850  0.83253100  1
  Si  Si26  1  0.99507850  0.50842150  0.83253100  1
  Si  Si27  1  0.49507850  0.99157850  0.66746900  1
  Si  Si28  1  0.00708450  0.25000000  0.53021300  1
  Si  Si29  1  0.49507850  0.50842150  0.66746900  1
  Si  Si30  1  0.00708450  0.75000000  0.46978700  1
  Si  Si31  1  0.49507850  0.49157850  0.33253100  1
  Si  Si32  1  0.49507850  0.00842150  0.33253100  1
  Si  Si33  1  0.99507850  0.49157850  0.16746900  1
  Si  Si34  1  0.50708450  0.75000000  0.03021300  1
  Si  Si35  1  0.99507850  0.00842150  0.16746900  1
