# generated using pymatgen
data_KTl2Bi
_symmetry_space_group_name_H-M   'P 1'
_cell_length_a   8.18321400
_cell_length_b   8.18321400
_cell_length_c   8.18321400
_cell_angle_alpha   90.00000000
_cell_angle_beta   90.00000000
_cell_angle_gamma   90.00000000
_symmetry_Int_Tables_number   1
_chemical_formula_structural   KTl2Bi
_chemical_formula_sum   'K4 Tl8 Bi4'
_cell_volume   547.98885489
_cell_formula_units_Z   4
loop_
 _symmetry_equiv_pos_site_id
 _symmetry_equiv_pos_as_xyz
  1  'x, y, z'
loop_
 _atom_site_type_symbol
 _atom_site_label
 _atom_site_symmetry_multiplicity
 _atom_site_fract_x
 _atom_site_fract_y
 _atom_site_fract_z
 _atom_site_occupancy
  K  K0  1  0.50000000  0.00000000  0.00000000  1
  K  K1  1  0.50000000  0.50000000  0.50000000  1
  K  K2  1  0.00000000  0.00000000  0.50000000  1
  K  K3  1  0.00000000  0.50000000  0.00000000  1
  Tl  Tl4  1  0.25000000  0.25000000  0.75000000  1
  Tl  Tl5  1  0.25000000  0.75000000  0.75000000  1
  Tl  Tl6  1  0.25000000  0.75000000  0.25000000  1
  Tl  Tl7  1  0.25000000  0.25000000  0.25000000  1
  Tl  Tl8  1  0.75000000  0.25000000  0.25000000  1
  Tl  Tl9  1  0.75000000  0.75000000  0.25000000  1
  Tl  Tl10  1  0.75000000  0.75000000  0.75000000  1
  Tl  Tl11  1  0.75000000  0.25000000  0.75000000  1
  Bi  Bi12  1  0.00000000  0.00000000  0.00000000  1
  Bi  Bi13  1  0.00000000  0.50000000  0.50000000  1
  Bi  Bi14  1  0.50000000  0.00000000  0.50000000  1
  Bi  Bi15  1  0.50000000  0.50000000  0.00000000  1
