# generated using pymatgen
data_Cu2P2O7
_symmetry_space_group_name_H-M   'P 1'
_cell_length_a   7.11711000
_cell_length_b   8.22352000
_cell_length_c   4.66546726
_cell_angle_alpha   90.00000000
_cell_angle_beta   111.07700113
_cell_angle_gamma   90.00000000
_symmetry_Int_Tables_number   1
_chemical_formula_structural   Cu2P2O7
_chemical_formula_sum   'Cu4 P4 O14'
_cell_volume   254.79084491
_cell_formula_units_Z   2
loop_
 _symmetry_equiv_pos_site_id
 _symmetry_equiv_pos_as_xyz
  1  'x, y, z'
loop_
 _atom_site_type_symbol
 _atom_site_label
 _atom_site_symmetry_multiplicity
 _atom_site_fract_x
 _atom_site_fract_y
 _atom_site_fract_z
 _atom_site_occupancy
  Cu  Cu0  1  0.50000000  0.18793400  0.50000000  1
  Cu  Cu1  1  0.50000000  0.81206600  0.50000000  1
  Cu  Cu2  1  0.00000000  0.68793400  0.50000000  1
  Cu  Cu3  1  0.00000000  0.31206600  0.50000000  1
  P  P4  1  0.19512900  0.00000000  0.90960400  1
  P  P5  1  0.80487100  0.00000000  0.09039600  1
  P  P6  1  0.69512900  0.50000000  0.90960400  1
  P  P7  1  0.30487100  0.50000000  0.09039600  1
  O  O8  1  0.80210750  0.84546250  0.26897100  1
  O  O9  1  0.19789250  0.84546250  0.73102900  1
  O  O10  1  0.19789250  0.15453750  0.73102900  1
  O  O11  1  0.80210750  0.15453750  0.26897100  1
  O  O12  1  0.00000000  0.00000000  0.00000000  1
  O  O13  1  0.62282200  0.00000000  0.77888800  1
  O  O14  1  0.37717800  0.00000000  0.22111200  1
  O  O15  1  0.30210750  0.34546250  0.26897100  1
  O  O16  1  0.69789250  0.34546250  0.73102900  1
  O  O17  1  0.69789250  0.65453750  0.73102900  1
  O  O18  1  0.30210750  0.65453750  0.26897100  1
  O  O19  1  0.50000000  0.50000000  0.00000000  1
  O  O20  1  0.12282200  0.50000000  0.77888800  1
  O  O21  1  0.87717800  0.50000000  0.22111200  1
