# generated using pymatgen
data_Sm2CuIr
_symmetry_space_group_name_H-M   'P 1'
_cell_length_a   7.03759400
_cell_length_b   7.03759400
_cell_length_c   7.03759400
_cell_angle_alpha   90.00000000
_cell_angle_beta   90.00000000
_cell_angle_gamma   90.00000000
_symmetry_Int_Tables_number   1
_chemical_formula_structural   Sm2CuIr
_chemical_formula_sum   'Sm8 Cu4 Ir4'
_cell_volume   348.55605062
_cell_formula_units_Z   4
loop_
 _symmetry_equiv_pos_site_id
 _symmetry_equiv_pos_as_xyz
  1  'x, y, z'
loop_
 _atom_site_type_symbol
 _atom_site_label
 _atom_site_symmetry_multiplicity
 _atom_site_fract_x
 _atom_site_fract_y
 _atom_site_fract_z
 _atom_site_occupancy
  Sm  Sm0  1  0.25000000  0.25000000  0.75000000  1
  Sm  Sm1  1  0.25000000  0.75000000  0.75000000  1
  Sm  Sm2  1  0.25000000  0.75000000  0.25000000  1
  Sm  Sm3  1  0.25000000  0.25000000  0.25000000  1
  Sm  Sm4  1  0.75000000  0.25000000  0.25000000  1
  Sm  Sm5  1  0.75000000  0.75000000  0.25000000  1
  Sm  Sm6  1  0.75000000  0.75000000  0.75000000  1
  Sm  Sm7  1  0.75000000  0.25000000  0.75000000  1
  Cu  Cu8  1  0.00000000  0.00000000  0.00000000  1
  Cu  Cu9  1  0.00000000  0.50000000  0.50000000  1
  Cu  Cu10  1  0.50000000  0.00000000  0.50000000  1
  Cu  Cu11  1  0.50000000  0.50000000  0.00000000  1
  Ir  Ir12  1  0.50000000  0.00000000  0.00000000  1
  Ir  Ir13  1  0.50000000  0.50000000  0.50000000  1
  Ir  Ir14  1  0.00000000  0.00000000  0.50000000  1
  Ir  Ir15  1  0.00000000  0.50000000  0.00000000  1
