# generated using pymatgen
data_LiBePt2
_symmetry_space_group_name_H-M   'P 1'
_cell_length_a   5.75798200
_cell_length_b   5.75798200
_cell_length_c   5.75798200
_cell_angle_alpha   90.00000000
_cell_angle_beta   90.00000000
_cell_angle_gamma   90.00000000
_symmetry_Int_Tables_number   1
_chemical_formula_structural   LiBePt2
_chemical_formula_sum   'Li4 Be4 Pt8'
_cell_volume   190.90218917
_cell_formula_units_Z   4
loop_
 _symmetry_equiv_pos_site_id
 _symmetry_equiv_pos_as_xyz
  1  'x, y, z'
loop_
 _atom_site_type_symbol
 _atom_site_label
 _atom_site_symmetry_multiplicity
 _atom_site_fract_x
 _atom_site_fract_y
 _atom_site_fract_z
 _atom_site_occupancy
  Li  Li0  1  0.00000000  0.00000000  0.00000000  1
  Li  Li1  1  0.00000000  0.50000000  0.50000000  1
  Li  Li2  1  0.50000000  0.00000000  0.50000000  1
  Li  Li3  1  0.50000000  0.50000000  0.00000000  1
  Be  Be4  1  0.50000000  0.00000000  0.00000000  1
  Be  Be5  1  0.50000000  0.50000000  0.50000000  1
  Be  Be6  1  0.00000000  0.00000000  0.50000000  1
  Be  Be7  1  0.00000000  0.50000000  0.00000000  1
  Pt  Pt8  1  0.25000000  0.75000000  0.75000000  1
  Pt  Pt9  1  0.25000000  0.25000000  0.75000000  1
  Pt  Pt10  1  0.25000000  0.25000000  0.25000000  1
  Pt  Pt11  1  0.25000000  0.75000000  0.25000000  1
  Pt  Pt12  1  0.75000000  0.75000000  0.25000000  1
  Pt  Pt13  1  0.75000000  0.25000000  0.25000000  1
  Pt  Pt14  1  0.75000000  0.25000000  0.75000000  1
  Pt  Pt15  1  0.75000000  0.75000000  0.75000000  1
