# generated using pymatgen
data_Ho2Cr2C3
_symmetry_space_group_name_H-M   'P 1'
_cell_length_a   10.43236400
_cell_length_b   3.35538200
_cell_length_c   5.55061461
_cell_angle_alpha   90.00000000
_cell_angle_beta   105.97482286
_cell_angle_gamma   90.00000000
_symmetry_Int_Tables_number   1
_chemical_formula_structural   Ho2Cr2C3
_chemical_formula_sum   'Ho4 Cr4 C6'
_cell_volume   186.79364243
_cell_formula_units_Z   2
loop_
 _symmetry_equiv_pos_site_id
 _symmetry_equiv_pos_as_xyz
  1  'x, y, z'
loop_
 _atom_site_type_symbol
 _atom_site_label
 _atom_site_symmetry_multiplicity
 _atom_site_fract_x
 _atom_site_fract_y
 _atom_site_fract_z
 _atom_site_occupancy
  Ho  Ho0  1  0.39352500  0.00000000  0.18345000  1
  Ho  Ho1  1  0.10647500  0.50000000  0.81655000  1
  Ho  Ho2  1  0.89352500  0.50000000  0.18345000  1
  Ho  Ho3  1  0.60647500  0.00000000  0.81655000  1
  Cr  Cr4  1  0.15636400  0.00000000  0.38954200  1
  Cr  Cr5  1  0.34363600  0.50000000  0.61045800  1
  Cr  Cr6  1  0.65636400  0.50000000  0.38954200  1
  Cr  Cr7  1  0.84363600  0.00000000  0.61045800  1
  C  C8  1  0.21603300  0.50000000  0.26844200  1
  C  C9  1  0.28396700  0.00000000  0.73155800  1
  C  C10  1  0.00000000  0.00000000  0.50000000  1
  C  C11  1  0.71603300  0.00000000  0.26844200  1
  C  C12  1  0.78396700  0.50000000  0.73155800  1
  C  C13  1  0.50000000  0.50000000  0.50000000  1
