# generated using pymatgen
data_GaCu3
_symmetry_space_group_name_H-M   'P 1'
_cell_length_a   5.22173219
_cell_length_b   5.22173219
_cell_length_c   4.23146500
_cell_angle_alpha   90.00000000
_cell_angle_beta   90.00000000
_cell_angle_gamma   120.00000000
_symmetry_Int_Tables_number   1
_chemical_formula_structural   GaCu3
_chemical_formula_sum   'Ga2 Cu6'
_cell_volume   99.91957378
_cell_formula_units_Z   2
loop_
 _symmetry_equiv_pos_site_id
 _symmetry_equiv_pos_as_xyz
  1  'x, y, z'
loop_
 _atom_site_type_symbol
 _atom_site_label
 _atom_site_symmetry_multiplicity
 _atom_site_fract_x
 _atom_site_fract_y
 _atom_site_fract_z
 _atom_site_occupancy
  Ga  Ga0  1  0.66666667  0.33333333  0.25000000  1
  Ga  Ga1  1  0.33333333  0.66666667  0.75000000  1
  Cu  Cu2  1  0.33069900  0.16534950  0.75000000  1
  Cu  Cu3  1  0.83465050  0.16534950  0.75000000  1
  Cu  Cu4  1  0.83465050  0.66930100  0.75000000  1
  Cu  Cu5  1  0.66930100  0.83465050  0.25000000  1
  Cu  Cu6  1  0.16534950  0.83465050  0.25000000  1
  Cu  Cu7  1  0.16534950  0.33069900  0.25000000  1
