# generated using pymatgen
data_Ho2OsAu
_symmetry_space_group_name_H-M   'P 1'
_cell_length_a   6.96853400
_cell_length_b   6.96853400
_cell_length_c   6.96853400
_cell_angle_alpha   90.00000000
_cell_angle_beta   90.00000000
_cell_angle_gamma   90.00000000
_symmetry_Int_Tables_number   1
_chemical_formula_structural   Ho2OsAu
_chemical_formula_sum   'Ho8 Os4 Au4'
_cell_volume   338.39525914
_cell_formula_units_Z   4
loop_
 _symmetry_equiv_pos_site_id
 _symmetry_equiv_pos_as_xyz
  1  'x, y, z'
loop_
 _atom_site_type_symbol
 _atom_site_label
 _atom_site_symmetry_multiplicity
 _atom_site_fract_x
 _atom_site_fract_y
 _atom_site_fract_z
 _atom_site_occupancy
  Ho  Ho0  1  0.25000000  0.75000000  0.75000000  1
  Ho  Ho1  1  0.25000000  0.25000000  0.75000000  1
  Ho  Ho2  1  0.25000000  0.25000000  0.25000000  1
  Ho  Ho3  1  0.25000000  0.75000000  0.25000000  1
  Ho  Ho4  1  0.75000000  0.75000000  0.25000000  1
  Ho  Ho5  1  0.75000000  0.25000000  0.25000000  1
  Ho  Ho6  1  0.75000000  0.25000000  0.75000000  1
  Ho  Ho7  1  0.75000000  0.75000000  0.75000000  1
  Os  Os8  1  0.00000000  0.00000000  0.00000000  1
  Os  Os9  1  0.00000000  0.50000000  0.50000000  1
  Os  Os10  1  0.50000000  0.00000000  0.50000000  1
  Os  Os11  1  0.50000000  0.50000000  0.00000000  1
  Au  Au12  1  0.50000000  0.00000000  0.00000000  1
  Au  Au13  1  0.50000000  0.50000000  0.50000000  1
  Au  Au14  1  0.00000000  0.00000000  0.50000000  1
  Au  Au15  1  0.00000000  0.50000000  0.00000000  1
