# generated using pymatgen
data_Ta4N5
_symmetry_space_group_name_H-M   'P 1'
_cell_length_a   6.89849200
_cell_length_b   6.89849200
_cell_length_c   4.29446400
_cell_angle_alpha   90.00000000
_cell_angle_beta   90.00000000
_cell_angle_gamma   90.00000000
_symmetry_Int_Tables_number   1
_chemical_formula_structural   Ta4N5
_chemical_formula_sum   'Ta8 N10'
_cell_volume   204.37007129
_cell_formula_units_Z   2
loop_
 _symmetry_equiv_pos_site_id
 _symmetry_equiv_pos_as_xyz
  1  'x, y, z'
loop_
 _atom_site_type_symbol
 _atom_site_label
 _atom_site_symmetry_multiplicity
 _atom_site_fract_x
 _atom_site_fract_y
 _atom_site_fract_z
 _atom_site_occupancy
  Ta  Ta0  1  0.28378850  0.89490650  0.50000000  1
  Ta  Ta1  1  0.39490650  0.21621150  0.00000000  1
  Ta  Ta2  1  0.60509350  0.78378850  0.00000000  1
  Ta  Ta3  1  0.71621150  0.10509350  0.50000000  1
  Ta  Ta4  1  0.78378850  0.39490650  0.00000000  1
  Ta  Ta5  1  0.89490650  0.71621150  0.50000000  1
  Ta  Ta6  1  0.10509350  0.28378850  0.50000000  1
  Ta  Ta7  1  0.21621150  0.60509350  0.00000000  1
  N  N8  1  0.00000000  0.00000000  0.50000000  1
  N  N9  1  0.40841200  0.19281600  0.50000000  1
  N  N10  1  0.69281600  0.09158800  0.00000000  1
  N  N11  1  0.30718400  0.90841200  0.00000000  1
  N  N12  1  0.59158800  0.80718400  0.50000000  1
  N  N13  1  0.50000000  0.50000000  0.00000000  1
  N  N14  1  0.90841200  0.69281600  0.00000000  1
  N  N15  1  0.19281600  0.59158800  0.50000000  1
  N  N16  1  0.80718400  0.40841200  0.50000000  1
  N  N17  1  0.09158800  0.30718400  0.00000000  1
