# generated using pymatgen
data_TiMn2W
_symmetry_space_group_name_H-M   'P 1'
_cell_length_a   5.96411200
_cell_length_b   5.96411200
_cell_length_c   5.96411200
_cell_angle_alpha   90.00000000
_cell_angle_beta   90.00000000
_cell_angle_gamma   90.00000000
_symmetry_Int_Tables_number   1
_chemical_formula_structural   TiMn2W
_chemical_formula_sum   'Ti4 Mn8 W4'
_cell_volume   212.14723285
_cell_formula_units_Z   4
loop_
 _symmetry_equiv_pos_site_id
 _symmetry_equiv_pos_as_xyz
  1  'x, y, z'
loop_
 _atom_site_type_symbol
 _atom_site_label
 _atom_site_symmetry_multiplicity
 _atom_site_fract_x
 _atom_site_fract_y
 _atom_site_fract_z
 _atom_site_occupancy
  Ti  Ti0  1  0.50000000  0.00000000  0.00000000  1
  Ti  Ti1  1  0.50000000  0.50000000  0.50000000  1
  Ti  Ti2  1  0.00000000  0.00000000  0.50000000  1
  Ti  Ti3  1  0.00000000  0.50000000  0.00000000  1
  Mn  Mn4  1  0.25000000  0.75000000  0.75000000  1
  Mn  Mn5  1  0.25000000  0.25000000  0.75000000  1
  Mn  Mn6  1  0.25000000  0.25000000  0.25000000  1
  Mn  Mn7  1  0.25000000  0.75000000  0.25000000  1
  Mn  Mn8  1  0.75000000  0.75000000  0.25000000  1
  Mn  Mn9  1  0.75000000  0.25000000  0.25000000  1
  Mn  Mn10  1  0.75000000  0.25000000  0.75000000  1
  Mn  Mn11  1  0.75000000  0.75000000  0.75000000  1
  W  W12  1  0.00000000  0.00000000  0.00000000  1
  W  W13  1  0.00000000  0.50000000  0.50000000  1
  W  W14  1  0.50000000  0.00000000  0.50000000  1
  W  W15  1  0.50000000  0.50000000  0.00000000  1
