# generated using pymatgen
data_SrNiSn2
_symmetry_space_group_name_H-M   'P 1'
_cell_length_a   4.64933000
_cell_length_b   18.88950800
_cell_length_c   4.59327100
_cell_angle_alpha   90.00000000
_cell_angle_beta   90.00000000
_cell_angle_gamma   90.00000000
_symmetry_Int_Tables_number   1
_chemical_formula_structural   SrNiSn2
_chemical_formula_sum   'Sr4 Ni4 Sn8'
_cell_volume   403.39739395
_cell_formula_units_Z   4
loop_
 _symmetry_equiv_pos_site_id
 _symmetry_equiv_pos_as_xyz
  1  'x, y, z'
loop_
 _atom_site_type_symbol
 _atom_site_label
 _atom_site_symmetry_multiplicity
 _atom_site_fract_x
 _atom_site_fract_y
 _atom_site_fract_z
 _atom_site_occupancy
  Sr  Sr0  1  0.50000000  0.10950900  0.25000000  1
  Sr  Sr1  1  0.00000000  0.39049100  0.75000000  1
  Sr  Sr2  1  0.00000000  0.60950900  0.25000000  1
  Sr  Sr3  1  0.50000000  0.89049100  0.75000000  1
  Ni  Ni4  1  0.00000000  0.18141800  0.75000000  1
  Ni  Ni5  1  0.50000000  0.31858200  0.25000000  1
  Ni  Ni6  1  0.50000000  0.68141800  0.75000000  1
  Ni  Ni7  1  0.00000000  0.81858200  0.25000000  1
  Sn  Sn8  1  0.00000000  0.04717800  0.75000000  1
  Sn  Sn9  1  0.00000000  0.24941100  0.25000000  1
  Sn  Sn10  1  0.50000000  0.25058900  0.75000000  1
  Sn  Sn11  1  0.50000000  0.45282200  0.25000000  1
  Sn  Sn12  1  0.50000000  0.54717800  0.75000000  1
  Sn  Sn13  1  0.50000000  0.74941100  0.25000000  1
  Sn  Sn14  1  0.00000000  0.75058900  0.75000000  1
  Sn  Sn15  1  0.00000000  0.95282200  0.25000000  1
