# generated using pymatgen
data_ScSnRu2
_symmetry_space_group_name_H-M   'P 1'
_cell_length_a   6.43229200
_cell_length_b   6.43229200
_cell_length_c   6.43229200
_cell_angle_alpha   90.00000000
_cell_angle_beta   90.00000000
_cell_angle_gamma   90.00000000
_symmetry_Int_Tables_number   1
_chemical_formula_structural   ScSnRu2
_chemical_formula_sum   'Sc4 Sn4 Ru8'
_cell_volume   266.13209588
_cell_formula_units_Z   4
loop_
 _symmetry_equiv_pos_site_id
 _symmetry_equiv_pos_as_xyz
  1  'x, y, z'
loop_
 _atom_site_type_symbol
 _atom_site_label
 _atom_site_symmetry_multiplicity
 _atom_site_fract_x
 _atom_site_fract_y
 _atom_site_fract_z
 _atom_site_occupancy
  Sc  Sc0  1  0.50000000  0.00000000  0.00000000  1
  Sc  Sc1  1  0.50000000  0.50000000  0.50000000  1
  Sc  Sc2  1  0.00000000  0.00000000  0.50000000  1
  Sc  Sc3  1  0.00000000  0.50000000  0.00000000  1
  Sn  Sn4  1  0.00000000  0.00000000  0.00000000  1
  Sn  Sn5  1  0.00000000  0.50000000  0.50000000  1
  Sn  Sn6  1  0.50000000  0.00000000  0.50000000  1
  Sn  Sn7  1  0.50000000  0.50000000  0.00000000  1
  Ru  Ru8  1  0.25000000  0.75000000  0.75000000  1
  Ru  Ru9  1  0.25000000  0.25000000  0.75000000  1
  Ru  Ru10  1  0.25000000  0.25000000  0.25000000  1
  Ru  Ru11  1  0.25000000  0.75000000  0.25000000  1
  Ru  Ru12  1  0.75000000  0.75000000  0.25000000  1
  Ru  Ru13  1  0.75000000  0.25000000  0.25000000  1
  Ru  Ru14  1  0.75000000  0.25000000  0.75000000  1
  Ru  Ru15  1  0.75000000  0.75000000  0.75000000  1
