# generated using pymatgen
data_AsPd2
_symmetry_space_group_name_H-M   'P 1'
_cell_length_a   3.33114400
_cell_length_b   17.19301400
_cell_length_c   6.70494500
_cell_angle_alpha   90.00000000
_cell_angle_beta   90.00000000
_cell_angle_gamma   90.00000000
_symmetry_Int_Tables_number   1
_chemical_formula_structural   AsPd2
_chemical_formula_sum   'As8 Pd16'
_cell_volume   384.00832841
_cell_formula_units_Z   8
loop_
 _symmetry_equiv_pos_site_id
 _symmetry_equiv_pos_as_xyz
  1  'x, y, z'
loop_
 _atom_site_type_symbol
 _atom_site_label
 _atom_site_symmetry_multiplicity
 _atom_site_fract_x
 _atom_site_fract_y
 _atom_site_fract_z
 _atom_site_occupancy
  As  As0  1  0.00000000  0.79612000  0.23182700  1
  As  As1  1  0.50000000  0.70388000  0.73182700  1
  As  As2  1  0.50000000  0.94160700  0.69726300  1
  As  As3  1  0.00000000  0.55839300  0.19726300  1
  As  As4  1  0.50000000  0.29612000  0.23182700  1
  As  As5  1  0.00000000  0.20388000  0.73182700  1
  As  As6  1  0.00000000  0.44160700  0.69726300  1
  As  As7  1  0.50000000  0.05839300  0.19726300  1
  Pd  Pd8  1  0.50000000  0.82540400  0.96082600  1
  Pd  Pd9  1  0.00000000  0.67459600  0.46082600  1
  Pd  Pd10  1  0.00000000  0.58499900  0.82690900  1
  Pd  Pd11  1  0.50000000  0.91500100  0.32690900  1
  Pd  Pd12  1  0.00000000  0.82906000  0.60771400  1
  Pd  Pd13  1  0.50000000  0.67094000  0.10771400  1
  Pd  Pd14  1  0.50000000  0.53832900  0.48976100  1
  Pd  Pd15  1  0.00000000  0.96167100  0.98976100  1
  Pd  Pd16  1  0.00000000  0.32540400  0.96082600  1
  Pd  Pd17  1  0.50000000  0.17459600  0.46082600  1
  Pd  Pd18  1  0.50000000  0.08499900  0.82690900  1
  Pd  Pd19  1  0.00000000  0.41500100  0.32690900  1
  Pd  Pd20  1  0.50000000  0.32906000  0.60771400  1
  Pd  Pd21  1  0.00000000  0.17094000  0.10771400  1
  Pd  Pd22  1  0.00000000  0.03832900  0.48976100  1
  Pd  Pd23  1  0.50000000  0.46167100  0.98976100  1
