# generated using pymatgen
data_MnV3
_symmetry_space_group_name_H-M   'P 1'
_cell_length_a   5.86172400
_cell_length_b   5.86172400
_cell_length_c   5.86172400
_cell_angle_alpha   90.00000000
_cell_angle_beta   90.00000000
_cell_angle_gamma   90.00000000
_symmetry_Int_Tables_number   1
_chemical_formula_structural   MnV3
_chemical_formula_sum   'Mn4 V12'
_cell_volume   201.40771267
_cell_formula_units_Z   4
loop_
 _symmetry_equiv_pos_site_id
 _symmetry_equiv_pos_as_xyz
  1  'x, y, z'
loop_
 _atom_site_type_symbol
 _atom_site_label
 _atom_site_symmetry_multiplicity
 _atom_site_fract_x
 _atom_site_fract_y
 _atom_site_fract_z
 _atom_site_occupancy
  Mn  Mn0  1  0.00000000  0.00000000  0.00000000  1
  Mn  Mn1  1  0.00000000  0.50000000  0.50000000  1
  Mn  Mn2  1  0.50000000  0.00000000  0.50000000  1
  Mn  Mn3  1  0.50000000  0.50000000  0.00000000  1
  V  V4  1  0.25000000  0.75000000  0.75000000  1
  V  V5  1  0.25000000  0.25000000  0.75000000  1
  V  V6  1  0.50000000  0.00000000  0.00000000  1
  V  V7  1  0.25000000  0.25000000  0.25000000  1
  V  V8  1  0.25000000  0.75000000  0.25000000  1
  V  V9  1  0.50000000  0.50000000  0.50000000  1
  V  V10  1  0.75000000  0.75000000  0.25000000  1
  V  V11  1  0.75000000  0.25000000  0.25000000  1
  V  V12  1  0.00000000  0.00000000  0.50000000  1
  V  V13  1  0.75000000  0.25000000  0.75000000  1
  V  V14  1  0.75000000  0.75000000  0.75000000  1
  V  V15  1  0.00000000  0.50000000  0.00000000  1
