# generated using pymatgen
data_Dy2MgTl
_symmetry_space_group_name_H-M   'P 1'
_cell_length_a   7.55374800
_cell_length_b   7.55374800
_cell_length_c   7.55374800
_cell_angle_alpha   90.00000000
_cell_angle_beta   90.00000000
_cell_angle_gamma   90.00000000
_symmetry_Int_Tables_number   1
_chemical_formula_structural   Dy2MgTl
_chemical_formula_sum   'Dy8 Mg4 Tl4'
_cell_volume   431.01012934
_cell_formula_units_Z   4
loop_
 _symmetry_equiv_pos_site_id
 _symmetry_equiv_pos_as_xyz
  1  'x, y, z'
loop_
 _atom_site_type_symbol
 _atom_site_label
 _atom_site_symmetry_multiplicity
 _atom_site_fract_x
 _atom_site_fract_y
 _atom_site_fract_z
 _atom_site_occupancy
  Dy  Dy0  1  0.25000000  0.25000000  0.75000000  1
  Dy  Dy1  1  0.25000000  0.75000000  0.75000000  1
  Dy  Dy2  1  0.25000000  0.75000000  0.25000000  1
  Dy  Dy3  1  0.25000000  0.25000000  0.25000000  1
  Dy  Dy4  1  0.75000000  0.25000000  0.25000000  1
  Dy  Dy5  1  0.75000000  0.75000000  0.25000000  1
  Dy  Dy6  1  0.75000000  0.75000000  0.75000000  1
  Dy  Dy7  1  0.75000000  0.25000000  0.75000000  1
  Mg  Mg8  1  0.50000000  0.00000000  0.00000000  1
  Mg  Mg9  1  0.50000000  0.50000000  0.50000000  1
  Mg  Mg10  1  0.00000000  0.00000000  0.50000000  1
  Mg  Mg11  1  0.00000000  0.50000000  0.00000000  1
  Tl  Tl12  1  0.00000000  0.00000000  0.00000000  1
  Tl  Tl13  1  0.00000000  0.50000000  0.50000000  1
  Tl  Tl14  1  0.50000000  0.00000000  0.50000000  1
  Tl  Tl15  1  0.50000000  0.50000000  0.00000000  1
