# generated using pymatgen
data_ZrCuF6
_symmetry_space_group_name_H-M   'P 1'
_cell_length_a   5.64539795
_cell_length_b   5.64539795
_cell_length_c   14.14187483
_cell_angle_alpha   90.00000000
_cell_angle_beta   90.00000000
_cell_angle_gamma   120.00000000
_symmetry_Int_Tables_number   1
_chemical_formula_structural   ZrCuF6
_chemical_formula_sum   'Zr3 Cu3 F18'
_cell_volume   390.32533641
_cell_formula_units_Z   3
loop_
 _symmetry_equiv_pos_site_id
 _symmetry_equiv_pos_as_xyz
  1  'x, y, z'
loop_
 _atom_site_type_symbol
 _atom_site_label
 _atom_site_symmetry_multiplicity
 _atom_site_fract_x
 _atom_site_fract_y
 _atom_site_fract_z
 _atom_site_occupancy
  Zr  Zr0  1  0.33333333  0.66666667  0.16666667  1
  Zr  Zr1  1  1.00000000  0.00000000  0.50000000  1
  Zr  Zr2  1  0.66666667  0.33333333  0.83333333  1
  Cu  Cu3  1  0.00000000  0.00000000  0.00000000  1
  Cu  Cu4  1  0.66666667  0.33333333  0.33333333  1
  Cu  Cu5  1  0.33333333  0.66666667  0.66666667  1
  F  F6  1  0.44592100  0.00092300  0.25014800  1
  F  F7  1  0.11166467  0.77925433  0.08318533  1
  F  F8  1  0.99907700  0.44499800  0.25014800  1
  F  F9  1  0.22074567  0.33241033  0.08318533  1
  F  F10  1  0.66758967  0.88833533  0.08318533  1
  F  F11  1  0.55500200  0.55407900  0.25014800  1
  F  F12  1  0.11258767  0.33425633  0.58348133  1
  F  F13  1  0.77833133  0.11258767  0.41651867  1
  F  F14  1  0.66574367  0.77833133  0.58348133  1
  F  F15  1  0.88741233  0.66574367  0.41651867  1
  F  F16  1  0.33425633  0.22166867  0.41651867  1
  F  F17  1  0.22166867  0.88741233  0.58348133  1
  F  F18  1  0.77925433  0.66758967  0.91681467  1
  F  F19  1  0.44499800  0.44592100  0.74985200  1
  F  F20  1  0.33241033  0.11166467  0.91681467  1
  F  F21  1  0.55407900  0.99907700  0.74985200  1
  F  F22  1  0.00092300  0.55500200  0.74985200  1
  F  F23  1  0.88833533  0.22074567  0.91681467  1
