# generated using pymatgen
data_LiZrAu2
_symmetry_space_group_name_H-M   'P 1'
_cell_length_a   6.64218600
_cell_length_b   6.64218600
_cell_length_c   6.64218600
_cell_angle_alpha   90.00000000
_cell_angle_beta   90.00000000
_cell_angle_gamma   90.00000000
_symmetry_Int_Tables_number   1
_chemical_formula_structural   LiZrAu2
_chemical_formula_sum   'Li4 Zr4 Au8'
_cell_volume   293.04417880
_cell_formula_units_Z   4
loop_
 _symmetry_equiv_pos_site_id
 _symmetry_equiv_pos_as_xyz
  1  'x, y, z'
loop_
 _atom_site_type_symbol
 _atom_site_label
 _atom_site_symmetry_multiplicity
 _atom_site_fract_x
 _atom_site_fract_y
 _atom_site_fract_z
 _atom_site_occupancy
  Li  Li0  1  0.50000000  0.00000000  0.00000000  1
  Li  Li1  1  0.50000000  0.50000000  0.50000000  1
  Li  Li2  1  0.00000000  0.00000000  0.50000000  1
  Li  Li3  1  0.00000000  0.50000000  0.00000000  1
  Zr  Zr4  1  0.00000000  0.00000000  0.00000000  1
  Zr  Zr5  1  0.00000000  0.50000000  0.50000000  1
  Zr  Zr6  1  0.50000000  0.00000000  0.50000000  1
  Zr  Zr7  1  0.50000000  0.50000000  0.00000000  1
  Au  Au8  1  0.25000000  0.25000000  0.75000000  1
  Au  Au9  1  0.25000000  0.75000000  0.75000000  1
  Au  Au10  1  0.25000000  0.75000000  0.25000000  1
  Au  Au11  1  0.25000000  0.25000000  0.25000000  1
  Au  Au12  1  0.75000000  0.25000000  0.25000000  1
  Au  Au13  1  0.75000000  0.75000000  0.25000000  1
  Au  Au14  1  0.75000000  0.75000000  0.75000000  1
  Au  Au15  1  0.75000000  0.25000000  0.75000000  1
