# generated using pymatgen
data_Ba2Cd
_symmetry_space_group_name_H-M   'P 1'
_cell_length_a   4.31587600
_cell_length_b   4.31587600
_cell_length_c   15.32252000
_cell_angle_alpha   90.00000000
_cell_angle_beta   90.00000000
_cell_angle_gamma   90.00000000
_symmetry_Int_Tables_number   1
_chemical_formula_structural   Ba2Cd
_chemical_formula_sum   'Ba4 Cd2'
_cell_volume   285.40929562
_cell_formula_units_Z   2
loop_
 _symmetry_equiv_pos_site_id
 _symmetry_equiv_pos_as_xyz
  1  'x, y, z'
loop_
 _atom_site_type_symbol
 _atom_site_label
 _atom_site_symmetry_multiplicity
 _atom_site_fract_x
 _atom_site_fract_y
 _atom_site_fract_z
 _atom_site_occupancy
  Ba  Ba0  1  0.50000000  0.50000000  0.13271000  1
  Ba  Ba1  1  0.00000000  0.00000000  0.36729000  1
  Ba  Ba2  1  0.00000000  0.00000000  0.63271000  1
  Ba  Ba3  1  0.50000000  0.50000000  0.86729000  1
  Cd  Cd4  1  0.00000000  0.00000000  0.00000000  1
  Cd  Cd5  1  0.50000000  0.50000000  0.50000000  1
