# generated using pymatgen
data_V4GeSe8
_symmetry_space_group_name_H-M   'P 1'
_cell_length_a   10.24680000
_cell_length_b   10.24680000
_cell_length_c   10.24680000
_cell_angle_alpha   90.00000000
_cell_angle_beta   90.00000000
_cell_angle_gamma   90.00000000
_symmetry_Int_Tables_number   1
_chemical_formula_structural   V4GeSe8
_chemical_formula_sum   'V16 Ge4 Se32'
_cell_volume   1075.88233985
_cell_formula_units_Z   4
loop_
 _symmetry_equiv_pos_site_id
 _symmetry_equiv_pos_as_xyz
  1  'x, y, z'
loop_
 _atom_site_type_symbol
 _atom_site_label
 _atom_site_symmetry_multiplicity
 _atom_site_fract_x
 _atom_site_fract_y
 _atom_site_fract_z
 _atom_site_occupancy
  V  V0  1  0.89782000  0.39782000  0.89782000  1
  V  V1  1  0.10218000  0.39782000  0.10218000  1
  V  V2  1  0.60218000  0.10218000  0.89782000  1
  V  V3  1  0.39782000  0.10218000  0.10218000  1
  V  V4  1  0.89782000  0.89782000  0.39782000  1
  V  V5  1  0.10218000  0.89782000  0.60218000  1
  V  V6  1  0.60218000  0.60218000  0.39782000  1
  V  V7  1  0.39782000  0.60218000  0.60218000  1
  V  V8  1  0.39782000  0.39782000  0.39782000  1
  V  V9  1  0.60218000  0.39782000  0.60218000  1
  V  V10  1  0.10218000  0.10218000  0.39782000  1
  V  V11  1  0.89782000  0.10218000  0.60218000  1
  V  V12  1  0.39782000  0.89782000  0.89782000  1
  V  V13  1  0.60218000  0.89782000  0.10218000  1
  V  V14  1  0.10218000  0.60218000  0.89782000  1
  V  V15  1  0.89782000  0.60218000  0.10218000  1
  Ge  Ge16  1  0.00000000  0.00000000  0.00000000  1
  Ge  Ge17  1  0.00000000  0.50000000  0.50000000  1
  Ge  Ge18  1  0.50000000  0.00000000  0.50000000  1
  Ge  Ge19  1  0.50000000  0.50000000  0.00000000  1
  Se  Se20  1  0.36872300  0.13127700  0.86872300  1
  Se  Se21  1  0.86872300  0.36872300  0.13127700  1
  Se  Se22  1  0.13127700  0.36872300  0.86872300  1
  Se  Se23  1  0.63127700  0.13127700  0.13127700  1
  Se  Se24  1  0.36068100  0.13931900  0.36068100  1
  Se  Se25  1  0.36068100  0.36068100  0.13931900  1
  Se  Se26  1  0.13931900  0.36068100  0.36068100  1
  Se  Se27  1  0.13931900  0.13931900  0.13931900  1
  Se  Se28  1  0.36872300  0.63127700  0.36872300  1
  Se  Se29  1  0.86872300  0.86872300  0.63127700  1
  Se  Se30  1  0.13127700  0.86872300  0.36872300  1
  Se  Se31  1  0.63127700  0.63127700  0.63127700  1
  Se  Se32  1  0.36068100  0.63931900  0.86068100  1
  Se  Se33  1  0.36068100  0.86068100  0.63931900  1
  Se  Se34  1  0.13931900  0.86068100  0.86068100  1
  Se  Se35  1  0.13931900  0.63931900  0.63931900  1
  Se  Se36  1  0.86872300  0.13127700  0.36872300  1
  Se  Se37  1  0.36872300  0.36872300  0.63127700  1
  Se  Se38  1  0.63127700  0.36872300  0.36872300  1
  Se  Se39  1  0.13127700  0.13127700  0.63127700  1
  Se  Se40  1  0.86068100  0.13931900  0.86068100  1
  Se  Se41  1  0.86068100  0.36068100  0.63931900  1
  Se  Se42  1  0.63931900  0.36068100  0.86068100  1
  Se  Se43  1  0.63931900  0.13931900  0.63931900  1
  Se  Se44  1  0.86872300  0.63127700  0.86872300  1
  Se  Se45  1  0.36872300  0.86872300  0.13127700  1
  Se  Se46  1  0.63127700  0.86872300  0.86872300  1
  Se  Se47  1  0.13127700  0.63127700  0.13127700  1
  Se  Se48  1  0.86068100  0.63931900  0.36068100  1
  Se  Se49  1  0.86068100  0.86068100  0.13931900  1
  Se  Se50  1  0.63931900  0.86068100  0.36068100  1
  Se  Se51  1  0.63931900  0.63931900  0.13931900  1
