# generated using pymatgen
data_SmRhC2
_symmetry_space_group_name_H-M   'P 1'
_cell_length_a   4.71530600
_cell_length_b   6.60512600
_cell_length_c   3.63957200
_cell_angle_alpha   90.00000000
_cell_angle_beta   90.00000000
_cell_angle_gamma   90.00000000
_symmetry_Int_Tables_number   1
_chemical_formula_structural   SmRhC2
_chemical_formula_sum   'Sm2 Rh2 C4'
_cell_volume   113.35516240
_cell_formula_units_Z   2
loop_
 _symmetry_equiv_pos_site_id
 _symmetry_equiv_pos_as_xyz
  1  'x, y, z'
loop_
 _atom_site_type_symbol
 _atom_site_label
 _atom_site_symmetry_multiplicity
 _atom_site_fract_x
 _atom_site_fract_y
 _atom_site_fract_z
 _atom_site_occupancy
  Sm  Sm0  1  0.50000000  0.49931000  0.00000000  1
  Sm  Sm1  1  0.00000000  0.99931000  0.00000000  1
  Rh  Rh2  1  0.50000000  0.87494100  0.50000000  1
  Rh  Rh3  1  0.00000000  0.37494100  0.50000000  1
  C  C4  1  0.35685400  0.18572500  0.50000000  1
  C  C5  1  0.64314600  0.18572500  0.50000000  1
  C  C6  1  0.85685400  0.68572500  0.50000000  1
  C  C7  1  0.14314600  0.68572500  0.50000000  1
