# generated using pymatgen
data_Li2PrIn
_symmetry_space_group_name_H-M   'P 1'
_cell_length_a   7.04730400
_cell_length_b   7.04730400
_cell_length_c   7.04730400
_cell_angle_alpha   90.00000000
_cell_angle_beta   90.00000000
_cell_angle_gamma   90.00000000
_symmetry_Int_Tables_number   1
_chemical_formula_structural   Li2PrIn
_chemical_formula_sum   'Li8 Pr4 In4'
_cell_volume   350.00078489
_cell_formula_units_Z   4
loop_
 _symmetry_equiv_pos_site_id
 _symmetry_equiv_pos_as_xyz
  1  'x, y, z'
loop_
 _atom_site_type_symbol
 _atom_site_label
 _atom_site_symmetry_multiplicity
 _atom_site_fract_x
 _atom_site_fract_y
 _atom_site_fract_z
 _atom_site_occupancy
  Li  Li0  1  0.25000000  0.25000000  0.75000000  1
  Li  Li1  1  0.25000000  0.75000000  0.75000000  1
  Li  Li2  1  0.25000000  0.75000000  0.25000000  1
  Li  Li3  1  0.25000000  0.25000000  0.25000000  1
  Li  Li4  1  0.75000000  0.25000000  0.25000000  1
  Li  Li5  1  0.75000000  0.75000000  0.25000000  1
  Li  Li6  1  0.75000000  0.75000000  0.75000000  1
  Li  Li7  1  0.75000000  0.25000000  0.75000000  1
  Pr  Pr8  1  0.50000000  0.00000000  0.00000000  1
  Pr  Pr9  1  0.50000000  0.50000000  0.50000000  1
  Pr  Pr10  1  0.00000000  0.00000000  0.50000000  1
  Pr  Pr11  1  0.00000000  0.50000000  0.00000000  1
  In  In12  1  0.00000000  0.00000000  0.00000000  1
  In  In13  1  0.00000000  0.50000000  0.50000000  1
  In  In14  1  0.50000000  0.00000000  0.50000000  1
  In  In15  1  0.50000000  0.50000000  0.00000000  1
