# generated using pymatgen
data_BMo
_symmetry_space_group_name_H-M   'P 1'
_cell_length_a   3.16479000
_cell_length_b   8.53925200
_cell_length_c   3.09570800
_cell_angle_alpha   90.00000000
_cell_angle_beta   90.00000000
_cell_angle_gamma   90.00000000
_symmetry_Int_Tables_number   1
_chemical_formula_structural   BMo
_chemical_formula_sum   'B4 Mo4'
_cell_volume   83.66132091
_cell_formula_units_Z   4
loop_
 _symmetry_equiv_pos_site_id
 _symmetry_equiv_pos_as_xyz
  1  'x, y, z'
loop_
 _atom_site_type_symbol
 _atom_site_label
 _atom_site_symmetry_multiplicity
 _atom_site_fract_x
 _atom_site_fract_y
 _atom_site_fract_z
 _atom_site_occupancy
  B  B0  1  0.00000000  0.44053400  0.25000000  1
  B  B1  1  0.50000000  0.05946600  0.75000000  1
  B  B2  1  0.50000000  0.94053400  0.25000000  1
  B  B3  1  0.00000000  0.55946600  0.75000000  1
  Mo  Mo4  1  0.00000000  0.14431300  0.25000000  1
  Mo  Mo5  1  0.50000000  0.35568700  0.75000000  1
  Mo  Mo6  1  0.50000000  0.64431300  0.25000000  1
  Mo  Mo7  1  0.00000000  0.85568700  0.75000000  1
