# generated using pymatgen
data_Li2Mg
_symmetry_space_group_name_H-M   'P 1'
_cell_length_a   11.45533000
_cell_length_b   3.18709600
_cell_length_c   7.01742481
_cell_angle_alpha   90.00000000
_cell_angle_beta   106.43794653
_cell_angle_gamma   90.00000000
_symmetry_Int_Tables_number   1
_chemical_formula_structural   Li2Mg
_chemical_formula_sum   'Li8 Mg4'
_cell_volume   245.72906666
_cell_formula_units_Z   4
loop_
 _symmetry_equiv_pos_site_id
 _symmetry_equiv_pos_as_xyz
  1  'x, y, z'
loop_
 _atom_site_type_symbol
 _atom_site_label
 _atom_site_symmetry_multiplicity
 _atom_site_fract_x
 _atom_site_fract_y
 _atom_site_fract_z
 _atom_site_occupancy
  Li  Li0  1  0.51700700  0.50000000  0.29328500  1
  Li  Li1  1  0.81659900  0.50000000  0.38404900  1
  Li  Li2  1  0.68340100  0.00000000  0.61595100  1
  Li  Li3  1  0.98299300  0.00000000  0.70671500  1
  Li  Li4  1  0.01700700  0.00000000  0.29328500  1
  Li  Li5  1  0.31659900  0.00000000  0.38404900  1
  Li  Li6  1  0.18340100  0.50000000  0.61595100  1
  Li  Li7  1  0.48299300  0.50000000  0.70671500  1
  Mg  Mg8  1  0.85423500  0.50000000  0.94802800  1
  Mg  Mg9  1  0.64576500  0.00000000  0.05197200  1
  Mg  Mg10  1  0.35423500  0.00000000  0.94802800  1
  Mg  Mg11  1  0.14576500  0.50000000  0.05197200  1
