# generated using pymatgen
data_VB
_symmetry_space_group_name_H-M   'P 1'
_cell_length_a   3.05287800
_cell_length_b   8.03465400
_cell_length_c   2.96925800
_cell_angle_alpha   90.00000000
_cell_angle_beta   90.00000000
_cell_angle_gamma   90.00000000
_symmetry_Int_Tables_number   1
_chemical_formula_structural   VB
_chemical_formula_sum   'V4 B4'
_cell_volume   72.83239037
_cell_formula_units_Z   4
loop_
 _symmetry_equiv_pos_site_id
 _symmetry_equiv_pos_as_xyz
  1  'x, y, z'
loop_
 _atom_site_type_symbol
 _atom_site_label
 _atom_site_symmetry_multiplicity
 _atom_site_fract_x
 _atom_site_fract_y
 _atom_site_fract_z
 _atom_site_occupancy
  V  V0  1  0.50000000  0.35232500  0.75000000  1
  V  V1  1  0.00000000  0.14767500  0.25000000  1
  V  V2  1  0.00000000  0.85232500  0.75000000  1
  V  V3  1  0.50000000  0.64767500  0.25000000  1
  B  B4  1  0.50000000  0.06250300  0.75000000  1
  B  B5  1  0.00000000  0.43749700  0.25000000  1
  B  B6  1  0.00000000  0.56250300  0.75000000  1
  B  B7  1  0.50000000  0.93749700  0.25000000  1
