# generated using pymatgen
data_SmGa2Co
_symmetry_space_group_name_H-M   'P 1'
_cell_length_a   4.12652000
_cell_length_b   17.79330000
_cell_length_c   4.08913800
_cell_angle_alpha   90.00000000
_cell_angle_beta   90.00000000
_cell_angle_gamma   90.00000000
_symmetry_Int_Tables_number   1
_chemical_formula_structural   SmGa2Co
_chemical_formula_sum   'Sm4 Ga8 Co4'
_cell_volume   300.24253817
_cell_formula_units_Z   4
loop_
 _symmetry_equiv_pos_site_id
 _symmetry_equiv_pos_as_xyz
  1  'x, y, z'
loop_
 _atom_site_type_symbol
 _atom_site_label
 _atom_site_symmetry_multiplicity
 _atom_site_fract_x
 _atom_site_fract_y
 _atom_site_fract_z
 _atom_site_occupancy
  Sm  Sm0  1  0.50000000  0.35749500  0.00000000  1
  Sm  Sm1  1  0.00000000  0.14250500  0.00000000  1
  Sm  Sm2  1  0.00000000  0.85749500  0.00000000  1
  Sm  Sm3  1  0.50000000  0.64250500  0.00000000  1
  Ga  Ga4  1  0.00000000  0.00000000  0.50000000  1
  Ga  Ga5  1  0.50000000  0.00000000  0.00000000  1
  Ga  Ga6  1  0.50000000  0.20805100  0.50000000  1
  Ga  Ga7  1  0.00000000  0.29194900  0.50000000  1
  Ga  Ga8  1  0.50000000  0.50000000  0.50000000  1
  Ga  Ga9  1  0.00000000  0.50000000  0.00000000  1
  Ga  Ga10  1  0.00000000  0.70805100  0.50000000  1
  Ga  Ga11  1  0.50000000  0.79194900  0.50000000  1
  Co  Co12  1  0.50000000  0.07331800  0.50000000  1
  Co  Co13  1  0.00000000  0.42668200  0.50000000  1
  Co  Co14  1  0.00000000  0.57331800  0.50000000  1
  Co  Co15  1  0.50000000  0.92668200  0.50000000  1
