# generated using pymatgen
data_Sr6Sn2NO
_symmetry_space_group_name_H-M   'P 1'
_cell_length_a   10.43596000
_cell_length_b   10.43596000
_cell_length_c   10.43596000
_cell_angle_alpha   90.00000000
_cell_angle_beta   90.00000000
_cell_angle_gamma   90.00000000
_symmetry_Int_Tables_number   1
_chemical_formula_structural   Sr6Sn2NO
_chemical_formula_sum   'Sr24 Sn8 N4 O4'
_cell_volume   1136.57269269
_cell_formula_units_Z   4
loop_
 _symmetry_equiv_pos_site_id
 _symmetry_equiv_pos_as_xyz
  1  'x, y, z'
loop_
 _atom_site_type_symbol
 _atom_site_label
 _atom_site_symmetry_multiplicity
 _atom_site_fract_x
 _atom_site_fract_y
 _atom_site_fract_z
 _atom_site_occupancy
  Sr  Sr0  1  0.75203600  0.00000000  0.00000000  1
  Sr  Sr1  1  0.50000000  0.74796400  0.00000000  1
  Sr  Sr2  1  0.50000000  0.25203600  0.00000000  1
  Sr  Sr3  1  0.00000000  0.00000000  0.75203600  1
  Sr  Sr4  1  0.50000000  0.00000000  0.74796400  1
  Sr  Sr5  1  0.24796400  0.00000000  0.00000000  1
  Sr  Sr6  1  0.75203600  0.50000000  0.50000000  1
  Sr  Sr7  1  0.50000000  0.24796400  0.50000000  1
  Sr  Sr8  1  0.50000000  0.75203600  0.50000000  1
  Sr  Sr9  1  0.00000000  0.50000000  0.25203600  1
  Sr  Sr10  1  0.50000000  0.50000000  0.24796400  1
  Sr  Sr11  1  0.24796400  0.50000000  0.50000000  1
  Sr  Sr12  1  0.25203600  0.00000000  0.50000000  1
  Sr  Sr13  1  0.00000000  0.74796400  0.50000000  1
  Sr  Sr14  1  0.00000000  0.25203600  0.50000000  1
  Sr  Sr15  1  0.50000000  0.00000000  0.25203600  1
  Sr  Sr16  1  0.00000000  0.00000000  0.24796400  1
  Sr  Sr17  1  0.74796400  0.00000000  0.50000000  1
  Sr  Sr18  1  0.25203600  0.50000000  0.00000000  1
  Sr  Sr19  1  0.00000000  0.24796400  0.00000000  1
  Sr  Sr20  1  0.00000000  0.75203600  0.00000000  1
  Sr  Sr21  1  0.50000000  0.50000000  0.75203600  1
  Sr  Sr22  1  0.00000000  0.50000000  0.74796400  1
  Sr  Sr23  1  0.74796400  0.50000000  0.00000000  1
  Sn  Sn24  1  0.25000000  0.75000000  0.75000000  1
  Sn  Sn25  1  0.25000000  0.25000000  0.75000000  1
  Sn  Sn26  1  0.25000000  0.25000000  0.25000000  1
  Sn  Sn27  1  0.25000000  0.75000000  0.25000000  1
  Sn  Sn28  1  0.75000000  0.75000000  0.25000000  1
  Sn  Sn29  1  0.75000000  0.25000000  0.25000000  1
  Sn  Sn30  1  0.75000000  0.25000000  0.75000000  1
  Sn  Sn31  1  0.75000000  0.75000000  0.75000000  1
  N  N32  1  0.00000000  0.00000000  0.00000000  1
  N  N33  1  0.00000000  0.50000000  0.50000000  1
  N  N34  1  0.50000000  0.00000000  0.50000000  1
  N  N35  1  0.50000000  0.50000000  0.00000000  1
  O  O36  1  0.50000000  0.00000000  0.00000000  1
  O  O37  1  0.50000000  0.50000000  0.50000000  1
  O  O38  1  0.00000000  0.00000000  0.50000000  1
  O  O39  1  0.00000000  0.50000000  0.00000000  1
