# generated using pymatgen
data_Sm3Er
_symmetry_space_group_name_H-M   'P 1'
_cell_length_a   7.32908191
_cell_length_b   7.32908191
_cell_length_c   5.80266200
_cell_angle_alpha   90.00000000
_cell_angle_beta   90.00000000
_cell_angle_gamma   120.00000000
_symmetry_Int_Tables_number   1
_chemical_formula_structural   Sm3Er
_chemical_formula_sum   'Sm6 Er2'
_cell_volume   269.93366854
_cell_formula_units_Z   2
loop_
 _symmetry_equiv_pos_site_id
 _symmetry_equiv_pos_as_xyz
  1  'x, y, z'
loop_
 _atom_site_type_symbol
 _atom_site_label
 _atom_site_symmetry_multiplicity
 _atom_site_fract_x
 _atom_site_fract_y
 _atom_site_fract_z
 _atom_site_occupancy
  Sm  Sm0  1  0.33332500  0.16666250  0.75000000  1
  Sm  Sm1  1  0.83333750  0.16666250  0.75000000  1
  Sm  Sm2  1  0.83333750  0.66667500  0.75000000  1
  Sm  Sm3  1  0.66667500  0.83333750  0.25000000  1
  Sm  Sm4  1  0.16666250  0.83333750  0.25000000  1
  Sm  Sm5  1  0.16666250  0.33332500  0.25000000  1
  Er  Er6  1  0.66666667  0.33333333  0.25000000  1
  Er  Er7  1  0.33333333  0.66666667  0.75000000  1
