# generated using pymatgen
data_LiEr2Ga
_symmetry_space_group_name_H-M   'P 1'
_cell_length_a   7.14190000
_cell_length_b   7.14190000
_cell_length_c   7.14190000
_cell_angle_alpha   90.00000000
_cell_angle_beta   90.00000000
_cell_angle_gamma   90.00000000
_symmetry_Int_Tables_number   1
_chemical_formula_structural   LiEr2Ga
_chemical_formula_sum   'Li4 Er8 Ga4'
_cell_volume   364.28500505
_cell_formula_units_Z   4
loop_
 _symmetry_equiv_pos_site_id
 _symmetry_equiv_pos_as_xyz
  1  'x, y, z'
loop_
 _atom_site_type_symbol
 _atom_site_label
 _atom_site_symmetry_multiplicity
 _atom_site_fract_x
 _atom_site_fract_y
 _atom_site_fract_z
 _atom_site_occupancy
  Li  Li0  1  0.50000000  0.00000000  0.00000000  1
  Li  Li1  1  0.50000000  0.50000000  0.50000000  1
  Li  Li2  1  0.00000000  0.00000000  0.50000000  1
  Li  Li3  1  0.00000000  0.50000000  0.00000000  1
  Er  Er4  1  0.25000000  0.25000000  0.75000000  1
  Er  Er5  1  0.25000000  0.75000000  0.75000000  1
  Er  Er6  1  0.25000000  0.75000000  0.25000000  1
  Er  Er7  1  0.25000000  0.25000000  0.25000000  1
  Er  Er8  1  0.75000000  0.25000000  0.25000000  1
  Er  Er9  1  0.75000000  0.75000000  0.25000000  1
  Er  Er10  1  0.75000000  0.75000000  0.75000000  1
  Er  Er11  1  0.75000000  0.25000000  0.75000000  1
  Ga  Ga12  1  0.00000000  0.00000000  0.00000000  1
  Ga  Ga13  1  0.00000000  0.50000000  0.50000000  1
  Ga  Ga14  1  0.50000000  0.00000000  0.50000000  1
  Ga  Ga15  1  0.50000000  0.50000000  0.00000000  1
