# generated using pymatgen
data_YbAl2Cu
_symmetry_space_group_name_H-M   'P 1'
_cell_length_a   5.45694441
_cell_length_b   5.45694441
_cell_length_c   25.69722046
_cell_angle_alpha   90.00000000
_cell_angle_beta   90.00000000
_cell_angle_gamma   120.00000000
_symmetry_Int_Tables_number   1
_chemical_formula_structural   YbAl2Cu
_chemical_formula_sum   'Yb9 Al18 Cu9'
_cell_volume   662.69827744
_cell_formula_units_Z   9
loop_
 _symmetry_equiv_pos_site_id
 _symmetry_equiv_pos_as_xyz
  1  'x, y, z'
loop_
 _atom_site_type_symbol
 _atom_site_label
 _atom_site_symmetry_multiplicity
 _atom_site_fract_x
 _atom_site_fract_y
 _atom_site_fract_z
 _atom_site_occupancy
  Yb  Yb0  1  0.00000000  0.00000000  0.00000000  1
  Yb  Yb1  1  0.66666667  0.33333333  0.18849133  1
  Yb  Yb2  1  0.00000000  0.00000000  0.14484200  1
  Yb  Yb3  1  0.66666667  0.33333333  0.33333333  1
  Yb  Yb4  1  0.33333333  0.66666667  0.52182467  1
  Yb  Yb5  1  0.66666667  0.33333333  0.47817533  1
  Yb  Yb6  1  0.33333333  0.66666667  0.66666667  1
  Yb  Yb7  1  0.00000000  0.00000000  0.85515800  1
  Yb  Yb8  1  0.33333333  0.66666667  0.81150867  1
  Al  Al9  1  0.16630100  0.33260200  0.25394300  1
  Al  Al10  1  0.16630100  0.83369900  0.25394300  1
  Al  Al11  1  0.66739800  0.83369900  0.25394300  1
  Al  Al12  1  0.99926867  0.49963433  0.07939033  1
  Al  Al13  1  0.50036567  0.49963433  0.07939033  1
  Al  Al14  1  0.50036567  0.00073133  0.07939033  1
  Al  Al15  1  0.83296767  0.66593533  0.58727633  1
  Al  Al16  1  0.83296767  0.16703233  0.58727633  1
  Al  Al17  1  0.33406467  0.16703233  0.58727633  1
  Al  Al18  1  0.66593533  0.83296767  0.41272367  1
  Al  Al19  1  0.16703233  0.83296767  0.41272367  1
  Al  Al20  1  0.16703233  0.33406467  0.41272367  1
  Al  Al21  1  0.49963433  0.99926867  0.92060967  1
  Al  Al22  1  0.49963433  0.50036567  0.92060967  1
  Al  Al23  1  0.00073133  0.50036567  0.92060967  1
  Al  Al24  1  0.33260200  0.16630100  0.74605700  1
  Al  Al25  1  0.83369900  0.16630100  0.74605700  1
  Al  Al26  1  0.83369900  0.66739800  0.74605700  1
  Cu  Cu27  1  0.33333333  0.66666667  0.33207467  1
  Cu  Cu28  1  0.33333333  0.66666667  0.16666667  1
  Cu  Cu29  1  0.33333333  0.66666667  0.00125867  1
  Cu  Cu30  1  0.00000000  0.00000000  0.66540800  1
  Cu  Cu31  1  1.00000000  1.00000000  0.50000000  1
  Cu  Cu32  1  0.00000000  0.00000000  0.33459200  1
  Cu  Cu33  1  0.66666667  0.33333333  0.99874133  1
  Cu  Cu34  1  0.66666667  0.33333333  0.83333333  1
  Cu  Cu35  1  0.66666667  0.33333333  0.66792533  1
