# generated using pymatgen
data_NdPd
_symmetry_space_group_name_H-M   'P 1'
_cell_length_a   3.86897000
_cell_length_b   10.93288800
_cell_length_c   4.67676300
_cell_angle_alpha   90.00000000
_cell_angle_beta   90.00000000
_cell_angle_gamma   90.00000000
_symmetry_Int_Tables_number   1
_chemical_formula_structural   NdPd
_chemical_formula_sum   'Nd4 Pd4'
_cell_volume   197.82247149
_cell_formula_units_Z   4
loop_
 _symmetry_equiv_pos_site_id
 _symmetry_equiv_pos_as_xyz
  1  'x, y, z'
loop_
 _atom_site_type_symbol
 _atom_site_label
 _atom_site_symmetry_multiplicity
 _atom_site_fract_x
 _atom_site_fract_y
 _atom_site_fract_z
 _atom_site_occupancy
  Nd  Nd0  1  0.50000000  0.63623200  0.75000000  1
  Nd  Nd1  1  0.00000000  0.86376800  0.25000000  1
  Nd  Nd2  1  0.00000000  0.13623200  0.75000000  1
  Nd  Nd3  1  0.50000000  0.36376800  0.25000000  1
  Pd  Pd4  1  0.50000000  0.91369100  0.75000000  1
  Pd  Pd5  1  0.00000000  0.58630900  0.25000000  1
  Pd  Pd6  1  0.00000000  0.41369100  0.75000000  1
  Pd  Pd7  1  0.50000000  0.08630900  0.25000000  1
