# generated using pymatgen
data_Si3F
_symmetry_space_group_name_H-M   'P 1'
_cell_length_a   5.98036400
_cell_length_b   5.98036400
_cell_length_c   5.98036400
_cell_angle_alpha   90.00000000
_cell_angle_beta   90.00000000
_cell_angle_gamma   90.00000000
_symmetry_Int_Tables_number   1
_chemical_formula_structural   Si3F
_chemical_formula_sum   'Si12 F4'
_cell_volume   213.88624473
_cell_formula_units_Z   4
loop_
 _symmetry_equiv_pos_site_id
 _symmetry_equiv_pos_as_xyz
  1  'x, y, z'
loop_
 _atom_site_type_symbol
 _atom_site_label
 _atom_site_symmetry_multiplicity
 _atom_site_fract_x
 _atom_site_fract_y
 _atom_site_fract_z
 _atom_site_occupancy
  Si  Si0  1  0.25000000  0.25000000  0.75000000  1
  Si  Si1  1  0.25000000  0.75000000  0.75000000  1
  Si  Si2  1  0.50000000  0.00000000  0.00000000  1
  Si  Si3  1  0.25000000  0.75000000  0.25000000  1
  Si  Si4  1  0.25000000  0.25000000  0.25000000  1
  Si  Si5  1  0.50000000  0.50000000  0.50000000  1
  Si  Si6  1  0.75000000  0.25000000  0.25000000  1
  Si  Si7  1  0.75000000  0.75000000  0.25000000  1
  Si  Si8  1  0.00000000  0.00000000  0.50000000  1
  Si  Si9  1  0.75000000  0.75000000  0.75000000  1
  Si  Si10  1  0.75000000  0.25000000  0.75000000  1
  Si  Si11  1  0.00000000  0.50000000  0.00000000  1
  F  F12  1  0.00000000  0.00000000  0.00000000  1
  F  F13  1  0.00000000  0.50000000  0.50000000  1
  F  F14  1  0.50000000  0.00000000  0.50000000  1
  F  F15  1  0.50000000  0.50000000  0.00000000  1
