# generated using pymatgen
data_Ce2CdHg
_symmetry_space_group_name_H-M   'P 1'
_cell_length_a   7.70115400
_cell_length_b   7.70115400
_cell_length_c   7.70115400
_cell_angle_alpha   90.00000000
_cell_angle_beta   90.00000000
_cell_angle_gamma   90.00000000
_symmetry_Int_Tables_number   1
_chemical_formula_structural   Ce2CdHg
_chemical_formula_sum   'Ce8 Cd4 Hg4'
_cell_volume   456.73829274
_cell_formula_units_Z   4
loop_
 _symmetry_equiv_pos_site_id
 _symmetry_equiv_pos_as_xyz
  1  'x, y, z'
loop_
 _atom_site_type_symbol
 _atom_site_label
 _atom_site_symmetry_multiplicity
 _atom_site_fract_x
 _atom_site_fract_y
 _atom_site_fract_z
 _atom_site_occupancy
  Ce  Ce0  1  0.25000000  0.25000000  0.75000000  1
  Ce  Ce1  1  0.25000000  0.75000000  0.75000000  1
  Ce  Ce2  1  0.25000000  0.75000000  0.25000000  1
  Ce  Ce3  1  0.25000000  0.25000000  0.25000000  1
  Ce  Ce4  1  0.75000000  0.25000000  0.25000000  1
  Ce  Ce5  1  0.75000000  0.75000000  0.25000000  1
  Ce  Ce6  1  0.75000000  0.75000000  0.75000000  1
  Ce  Ce7  1  0.75000000  0.25000000  0.75000000  1
  Cd  Cd8  1  0.50000000  0.00000000  0.00000000  1
  Cd  Cd9  1  0.50000000  0.50000000  0.50000000  1
  Cd  Cd10  1  0.00000000  0.00000000  0.50000000  1
  Cd  Cd11  1  0.00000000  0.50000000  0.00000000  1
  Hg  Hg12  1  0.00000000  0.00000000  0.00000000  1
  Hg  Hg13  1  0.00000000  0.50000000  0.50000000  1
  Hg  Hg14  1  0.50000000  0.00000000  0.50000000  1
  Hg  Hg15  1  0.50000000  0.50000000  0.00000000  1
