# generated using pymatgen
data_Li2TlPb
_symmetry_space_group_name_H-M   'P 1'
_cell_length_a   7.06773600
_cell_length_b   7.06773600
_cell_length_c   7.06773600
_cell_angle_alpha   90.00000000
_cell_angle_beta   90.00000000
_cell_angle_gamma   90.00000000
_symmetry_Int_Tables_number   1
_chemical_formula_structural   Li2TlPb
_chemical_formula_sum   'Li8 Tl4 Pb4'
_cell_volume   353.05385426
_cell_formula_units_Z   4
loop_
 _symmetry_equiv_pos_site_id
 _symmetry_equiv_pos_as_xyz
  1  'x, y, z'
loop_
 _atom_site_type_symbol
 _atom_site_label
 _atom_site_symmetry_multiplicity
 _atom_site_fract_x
 _atom_site_fract_y
 _atom_site_fract_z
 _atom_site_occupancy
  Li  Li0  1  0.25000000  0.75000000  0.75000000  1
  Li  Li1  1  0.25000000  0.25000000  0.75000000  1
  Li  Li2  1  0.25000000  0.25000000  0.25000000  1
  Li  Li3  1  0.25000000  0.75000000  0.25000000  1
  Li  Li4  1  0.75000000  0.75000000  0.25000000  1
  Li  Li5  1  0.75000000  0.25000000  0.25000000  1
  Li  Li6  1  0.75000000  0.25000000  0.75000000  1
  Li  Li7  1  0.75000000  0.75000000  0.75000000  1
  Tl  Tl8  1  0.00000000  0.00000000  0.00000000  1
  Tl  Tl9  1  0.00000000  0.50000000  0.50000000  1
  Tl  Tl10  1  0.50000000  0.00000000  0.50000000  1
  Tl  Tl11  1  0.50000000  0.50000000  0.00000000  1
  Pb  Pb12  1  0.50000000  0.00000000  0.00000000  1
  Pb  Pb13  1  0.50000000  0.50000000  0.50000000  1
  Pb  Pb14  1  0.00000000  0.00000000  0.50000000  1
  Pb  Pb15  1  0.00000000  0.50000000  0.00000000  1
