# generated using pymatgen
data_Sm5Mg
_symmetry_space_group_name_H-M   'P 1'
_cell_length_a   6.25481012
_cell_length_b   6.25481012
_cell_length_c   17.07094276
_cell_angle_alpha   90.00000000
_cell_angle_beta   90.00000000
_cell_angle_gamma   120.00000000
_symmetry_Int_Tables_number   1
_chemical_formula_structural   Sm5Mg
_chemical_formula_sum   'Sm15 Mg3'
_cell_volume   578.38417111
_cell_formula_units_Z   3
loop_
 _symmetry_equiv_pos_site_id
 _symmetry_equiv_pos_as_xyz
  1  'x, y, z'
loop_
 _atom_site_type_symbol
 _atom_site_label
 _atom_site_symmetry_multiplicity
 _atom_site_fract_x
 _atom_site_fract_y
 _atom_site_fract_z
 _atom_site_occupancy
  Sm  Sm0  1  0.98754233  0.66666667  0.16666667  1
  Sm  Sm1  1  0.33333333  0.32087567  0.16666667  1
  Sm  Sm2  1  0.67912433  0.01245767  0.16666667  1
  Sm  Sm3  1  0.33333333  0.66666667  0.33317967  1
  Sm  Sm4  1  0.33333333  0.66666667  0.00015367  1
  Sm  Sm5  1  0.65420900  0.00000000  0.50000000  1
  Sm  Sm6  1  0.00000000  0.65420900  0.50000000  1
  Sm  Sm7  1  0.34579100  0.34579100  0.50000000  1
  Sm  Sm8  1  0.00000000  0.00000000  0.66651300  1
  Sm  Sm9  1  1.00000000  0.00000000  0.33348700  1
  Sm  Sm10  1  0.32087567  0.33333333  0.83333333  1
  Sm  Sm11  1  0.66666667  0.98754233  0.83333333  1
  Sm  Sm12  1  0.01245767  0.67912433  0.83333333  1
  Sm  Sm13  1  0.66666667  0.33333333  0.99984633  1
  Sm  Sm14  1  0.66666667  0.33333333  0.66682033  1
  Mg  Mg15  1  0.00000000  0.00000000  0.00000000  1
  Mg  Mg16  1  0.66666667  0.33333333  0.33333333  1
  Mg  Mg17  1  0.33333333  0.66666667  0.66666667  1
