# generated using pymatgen
data_Sr(GeIr)2
_symmetry_space_group_name_H-M   'P 1'
_cell_length_a   4.23469800
_cell_length_b   4.23469800
_cell_length_c   10.83560600
_cell_angle_alpha   90.00000000
_cell_angle_beta   90.00000000
_cell_angle_gamma   90.00000000
_symmetry_Int_Tables_number   1
_chemical_formula_structural   Sr(GeIr)2
_chemical_formula_sum   'Sr2 Ge4 Ir4'
_cell_volume   194.31131578
_cell_formula_units_Z   2
loop_
 _symmetry_equiv_pos_site_id
 _symmetry_equiv_pos_as_xyz
  1  'x, y, z'
loop_
 _atom_site_type_symbol
 _atom_site_label
 _atom_site_symmetry_multiplicity
 _atom_site_fract_x
 _atom_site_fract_y
 _atom_site_fract_z
 _atom_site_occupancy
  Sr  Sr0  1  0.00000000  0.00000000  0.00000000  1
  Sr  Sr1  1  0.50000000  0.50000000  0.50000000  1
  Ge  Ge2  1  0.00000000  0.00000000  0.37015000  1
  Ge  Ge3  1  0.50000000  0.50000000  0.12985000  1
  Ge  Ge4  1  0.50000000  0.50000000  0.87015000  1
  Ge  Ge5  1  0.00000000  0.00000000  0.62985000  1
  Ir  Ir6  1  0.50000000  0.00000000  0.25000000  1
  Ir  Ir7  1  0.00000000  0.50000000  0.25000000  1
  Ir  Ir8  1  0.00000000  0.50000000  0.75000000  1
  Ir  Ir9  1  0.50000000  0.00000000  0.75000000  1
