# generated using pymatgen
data_V6Si5
_symmetry_space_group_name_H-M   'P 1'
_cell_length_a   4.83934200
_cell_length_b   7.47923400
_cell_length_c   15.92675600
_cell_angle_alpha   90.00000000
_cell_angle_beta   90.00000000
_cell_angle_gamma   90.00000000
_symmetry_Int_Tables_number   1
_chemical_formula_structural   V6Si5
_chemical_formula_sum   'V24 Si20'
_cell_volume   576.46210441
_cell_formula_units_Z   4
loop_
 _symmetry_equiv_pos_site_id
 _symmetry_equiv_pos_as_xyz
  1  'x, y, z'
loop_
 _atom_site_type_symbol
 _atom_site_label
 _atom_site_symmetry_multiplicity
 _atom_site_fract_x
 _atom_site_fract_y
 _atom_site_fract_z
 _atom_site_occupancy
  V  V0  1  0.75000000  0.50000000  0.18979000  1
  V  V1  1  0.25000000  0.00000000  0.31021000  1
  V  V2  1  0.75000000  0.00000000  0.31021000  1
  V  V3  1  0.25000000  0.50000000  0.18979000  1
  V  V4  1  0.50000000  0.61362700  0.35653700  1
  V  V5  1  0.00000000  0.88637300  0.14346300  1
  V  V6  1  0.50000000  0.11362700  0.14346300  1
  V  V7  1  0.00000000  0.38637300  0.35653700  1
  V  V8  1  0.50000000  0.74689000  0.06518000  1
  V  V9  1  0.00000000  0.75311000  0.43482000  1
  V  V10  1  0.50000000  0.24689000  0.43482000  1
  V  V11  1  0.00000000  0.25311000  0.06518000  1
  V  V12  1  0.25000000  0.00000000  0.68979000  1
  V  V13  1  0.75000000  0.50000000  0.81021000  1
  V  V14  1  0.25000000  0.50000000  0.81021000  1
  V  V15  1  0.75000000  0.00000000  0.68979000  1
  V  V16  1  0.00000000  0.11362700  0.85653700  1
  V  V17  1  0.50000000  0.38637300  0.64346300  1
  V  V18  1  0.00000000  0.61362700  0.64346300  1
  V  V19  1  0.50000000  0.88637300  0.85653700  1
  V  V20  1  0.00000000  0.24689000  0.56518000  1
  V  V21  1  0.50000000  0.25311000  0.93482000  1
  V  V22  1  0.00000000  0.74689000  0.93482000  1
  V  V23  1  0.50000000  0.75311000  0.56518000  1
  Si  Si24  1  0.25000000  0.00000000  0.00000000  1
  Si  Si25  1  0.75000000  0.00000000  0.00000000  1
  Si  Si26  1  0.50000000  0.79778500  0.21390000  1
  Si  Si27  1  0.00000000  0.70221500  0.28610000  1
  Si  Si28  1  0.50000000  0.29778500  0.28610000  1
  Si  Si29  1  0.00000000  0.20221500  0.21390000  1
  Si  Si30  1  0.50000000  0.90979400  0.43615500  1
  Si  Si31  1  0.00000000  0.59020600  0.06384500  1
  Si  Si32  1  0.50000000  0.40979400  0.06384500  1
  Si  Si33  1  0.00000000  0.09020600  0.43615500  1
  Si  Si34  1  0.75000000  0.50000000  0.50000000  1
  Si  Si35  1  0.25000000  0.50000000  0.50000000  1
  Si  Si36  1  0.00000000  0.29778500  0.71390000  1
  Si  Si37  1  0.50000000  0.20221500  0.78610000  1
  Si  Si38  1  0.00000000  0.79778500  0.78610000  1
  Si  Si39  1  0.50000000  0.70221500  0.71390000  1
  Si  Si40  1  0.00000000  0.40979400  0.93615500  1
  Si  Si41  1  0.50000000  0.09020600  0.56384500  1
  Si  Si42  1  0.00000000  0.90979400  0.56384500  1
  Si  Si43  1  0.50000000  0.59020600  0.93615500  1
