# generated using pymatgen
data_Si3Se
_symmetry_space_group_name_H-M   'P 1'
_cell_length_a   6.41175600
_cell_length_b   6.41175600
_cell_length_c   6.41175600
_cell_angle_alpha   90.00000000
_cell_angle_beta   90.00000000
_cell_angle_gamma   90.00000000
_symmetry_Int_Tables_number   1
_chemical_formula_structural   Si3Se
_chemical_formula_sum   'Si12 Se4'
_cell_volume   263.59123241
_cell_formula_units_Z   4
loop_
 _symmetry_equiv_pos_site_id
 _symmetry_equiv_pos_as_xyz
  1  'x, y, z'
loop_
 _atom_site_type_symbol
 _atom_site_label
 _atom_site_symmetry_multiplicity
 _atom_site_fract_x
 _atom_site_fract_y
 _atom_site_fract_z
 _atom_site_occupancy
  Si  Si0  1  0.25000000  0.75000000  0.75000000  1
  Si  Si1  1  0.25000000  0.25000000  0.75000000  1
  Si  Si2  1  0.50000000  0.00000000  0.00000000  1
  Si  Si3  1  0.25000000  0.25000000  0.25000000  1
  Si  Si4  1  0.25000000  0.75000000  0.25000000  1
  Si  Si5  1  0.50000000  0.50000000  0.50000000  1
  Si  Si6  1  0.75000000  0.75000000  0.25000000  1
  Si  Si7  1  0.75000000  0.25000000  0.25000000  1
  Si  Si8  1  0.00000000  0.00000000  0.50000000  1
  Si  Si9  1  0.75000000  0.25000000  0.75000000  1
  Si  Si10  1  0.75000000  0.75000000  0.75000000  1
  Si  Si11  1  0.00000000  0.50000000  0.00000000  1
  Se  Se12  1  0.00000000  0.00000000  0.00000000  1
  Se  Se13  1  0.00000000  0.50000000  0.50000000  1
  Se  Se14  1  0.50000000  0.00000000  0.50000000  1
  Se  Se15  1  0.50000000  0.50000000  0.00000000  1
