# generated using pymatgen
data_Ni3Au
_symmetry_space_group_name_H-M   'P 1'
_cell_length_a   3.67373600
_cell_length_b   3.67373600
_cell_length_c   7.48169800
_cell_angle_alpha   90.00000000
_cell_angle_beta   90.00000000
_cell_angle_gamma   90.00000000
_symmetry_Int_Tables_number   1
_chemical_formula_structural   Ni3Au
_chemical_formula_sum   'Ni6 Au2'
_cell_volume   100.97551154
_cell_formula_units_Z   2
loop_
 _symmetry_equiv_pos_site_id
 _symmetry_equiv_pos_as_xyz
  1  'x, y, z'
loop_
 _atom_site_type_symbol
 _atom_site_label
 _atom_site_symmetry_multiplicity
 _atom_site_fract_x
 _atom_site_fract_y
 _atom_site_fract_z
 _atom_site_occupancy
  Ni  Ni0  1  0.00000000  0.50000000  0.25000000  1
  Ni  Ni1  1  0.50000000  0.00000000  0.25000000  1
  Ni  Ni2  1  0.50000000  0.50000000  0.00000000  1
  Ni  Ni3  1  0.50000000  0.00000000  0.75000000  1
  Ni  Ni4  1  0.00000000  0.50000000  0.75000000  1
  Ni  Ni5  1  0.00000000  0.00000000  0.50000000  1
  Au  Au6  1  0.00000000  0.00000000  0.00000000  1
  Au  Au7  1  0.50000000  0.50000000  0.50000000  1
