# generated using pymatgen
data_YbSi2Ni
_symmetry_space_group_name_H-M   'P 1'
_cell_length_a   4.07495200
_cell_length_b   16.88442400
_cell_length_c   3.84254500
_cell_angle_alpha   90.00000000
_cell_angle_beta   90.00000000
_cell_angle_gamma   90.00000000
_symmetry_Int_Tables_number   1
_chemical_formula_structural   YbSi2Ni
_chemical_formula_sum   'Yb4 Si8 Ni4'
_cell_volume   264.37945880
_cell_formula_units_Z   4
loop_
 _symmetry_equiv_pos_site_id
 _symmetry_equiv_pos_as_xyz
  1  'x, y, z'
loop_
 _atom_site_type_symbol
 _atom_site_label
 _atom_site_symmetry_multiplicity
 _atom_site_fract_x
 _atom_site_fract_y
 _atom_site_fract_z
 _atom_site_occupancy
  Yb  Yb0  1  0.00000000  0.10994700  0.75000000  1
  Yb  Yb1  1  0.50000000  0.39005300  0.25000000  1
  Yb  Yb2  1  0.50000000  0.60994700  0.75000000  1
  Yb  Yb3  1  0.00000000  0.89005300  0.25000000  1
  Si  Si4  1  0.00000000  0.45959900  0.75000000  1
  Si  Si5  1  0.50000000  0.04040100  0.25000000  1
  Si  Si6  1  0.50000000  0.25164700  0.75000000  1
  Si  Si7  1  0.00000000  0.24835300  0.25000000  1
  Si  Si8  1  0.50000000  0.95959900  0.75000000  1
  Si  Si9  1  0.00000000  0.54040100  0.25000000  1
  Si  Si10  1  0.00000000  0.75164700  0.75000000  1
  Si  Si11  1  0.50000000  0.74835300  0.25000000  1
  Ni  Ni12  1  0.00000000  0.32443000  0.75000000  1
  Ni  Ni13  1  0.50000000  0.17557000  0.25000000  1
  Ni  Ni14  1  0.50000000  0.82443000  0.75000000  1
  Ni  Ni15  1  0.00000000  0.67557000  0.25000000  1
