# generated using pymatgen
data_TlFeSe2
_symmetry_space_group_name_H-M   'P 1'
_cell_length_a   12.82394400
_cell_length_b   5.49649200
_cell_length_c   6.94504721
_cell_angle_alpha   90.00000000
_cell_angle_beta   118.57669433
_cell_angle_gamma   90.00000000
_symmetry_Int_Tables_number   1
_chemical_formula_structural   TlFeSe2
_chemical_formula_sum   'Tl4 Fe4 Se8'
_cell_volume   429.89736018
_cell_formula_units_Z   4
loop_
 _symmetry_equiv_pos_site_id
 _symmetry_equiv_pos_as_xyz
  1  'x, y, z'
loop_
 _atom_site_type_symbol
 _atom_site_label
 _atom_site_symmetry_multiplicity
 _atom_site_fract_x
 _atom_site_fract_y
 _atom_site_fract_z
 _atom_site_occupancy
  Tl  Tl0  1  0.18661500  0.00000000  0.63852300  1
  Tl  Tl1  1  0.31338500  0.50000000  0.36147700  1
  Tl  Tl2  1  0.68661500  0.50000000  0.63852300  1
  Tl  Tl3  1  0.81338500  0.00000000  0.36147700  1
  Fe  Fe4  1  0.00000000  0.75149300  0.00000000  1
  Fe  Fe5  1  0.00000000  0.24850700  0.00000000  1
  Fe  Fe6  1  0.50000000  0.25149300  0.00000000  1
  Fe  Fe7  1  0.50000000  0.74850700  0.00000000  1
  Se  Se8  1  0.46434100  0.00000000  0.70732600  1
  Se  Se9  1  0.03565900  0.50000000  0.29267400  1
  Se  Se10  1  0.33540700  0.50000000  0.91186800  1
  Se  Se11  1  0.16459300  0.00000000  0.08813200  1
  Se  Se12  1  0.96434100  0.50000000  0.70732600  1
  Se  Se13  1  0.53565900  0.00000000  0.29267400  1
  Se  Se14  1  0.83540700  0.00000000  0.91186800  1
  Se  Se15  1  0.66459300  0.50000000  0.08813200  1
