# generated using pymatgen
data_Re
_symmetry_space_group_name_H-M   'P 1'
_cell_length_a   2.78495217
_cell_length_b   2.78495217
_cell_length_c   20.20488232
_cell_angle_alpha   90.00000000
_cell_angle_beta   90.00000000
_cell_angle_gamma   120.00000000
_symmetry_Int_Tables_number   1
_chemical_formula_structural   Re
_chemical_formula_sum   Re9
_cell_volume   135.71330869
_cell_formula_units_Z   9
loop_
 _symmetry_equiv_pos_site_id
 _symmetry_equiv_pos_as_xyz
  1  'x, y, z'
loop_
 _atom_site_type_symbol
 _atom_site_label
 _atom_site_symmetry_multiplicity
 _atom_site_fract_x
 _atom_site_fract_y
 _atom_site_fract_z
 _atom_site_occupancy
  Re  Re0  1  0.00000000  0.00000000  0.00000000  1
  Re  Re1  1  0.66666667  0.33333333  0.11099633  1
  Re  Re2  1  0.00000000  0.00000000  0.22233700  1
  Re  Re3  1  0.66666667  0.33333333  0.33333333  1
  Re  Re4  1  0.33333333  0.66666667  0.44432967  1
  Re  Re5  1  0.66666667  0.33333333  0.55567033  1
  Re  Re6  1  0.33333333  0.66666667  0.66666667  1
  Re  Re7  1  0.00000000  0.00000000  0.77766300  1
  Re  Re8  1  0.33333333  0.66666667  0.88900367  1
