# generated using pymatgen
data_KSr3
_symmetry_space_group_name_H-M   'P 1'
_cell_length_a   6.06018600
_cell_length_b   6.06018600
_cell_length_c   12.69134000
_cell_angle_alpha   90.00000000
_cell_angle_beta   90.00000000
_cell_angle_gamma   90.00000000
_symmetry_Int_Tables_number   1
_chemical_formula_structural   KSr3
_chemical_formula_sum   'K2 Sr6'
_cell_volume   466.10030440
_cell_formula_units_Z   2
loop_
 _symmetry_equiv_pos_site_id
 _symmetry_equiv_pos_as_xyz
  1  'x, y, z'
loop_
 _atom_site_type_symbol
 _atom_site_label
 _atom_site_symmetry_multiplicity
 _atom_site_fract_x
 _atom_site_fract_y
 _atom_site_fract_z
 _atom_site_occupancy
  K  K0  1  0.00000000  0.00000000  0.00000000  1
  K  K1  1  0.50000000  0.50000000  0.50000000  1
  Sr  Sr2  1  0.00000000  0.50000000  0.25000000  1
  Sr  Sr3  1  0.50000000  0.00000000  0.25000000  1
  Sr  Sr4  1  0.50000000  0.50000000  0.00000000  1
  Sr  Sr5  1  0.50000000  0.00000000  0.75000000  1
  Sr  Sr6  1  0.00000000  0.50000000  0.75000000  1
  Sr  Sr7  1  0.00000000  0.00000000  0.50000000  1
