# generated using pymatgen
data_SmTe3
_symmetry_space_group_name_H-M   'P 1'
_cell_length_a   4.37178200
_cell_length_b   27.27357800
_cell_length_c   4.37260200
_cell_angle_alpha   90.00000000
_cell_angle_beta   90.00000000
_cell_angle_gamma   90.00000000
_symmetry_Int_Tables_number   1
_chemical_formula_structural   SmTe3
_chemical_formula_sum   'Sm4 Te12'
_cell_volume   521.36342756
_cell_formula_units_Z   4
loop_
 _symmetry_equiv_pos_site_id
 _symmetry_equiv_pos_as_xyz
  1  'x, y, z'
loop_
 _atom_site_type_symbol
 _atom_site_label
 _atom_site_symmetry_multiplicity
 _atom_site_fract_x
 _atom_site_fract_y
 _atom_site_fract_z
 _atom_site_occupancy
  Sm  Sm0  1  0.00000000  0.82760900  0.75000000  1
  Sm  Sm1  1  0.50000000  0.67239100  0.25000000  1
  Sm  Sm2  1  0.50000000  0.32760900  0.75000000  1
  Sm  Sm3  1  0.00000000  0.17239100  0.25000000  1
  Te  Te4  1  0.00000000  0.70747800  0.75000000  1
  Te  Te5  1  0.50000000  0.79252200  0.25000000  1
  Te  Te6  1  0.50000000  0.57904500  0.75000000  1
  Te  Te7  1  0.00000000  0.92095500  0.25000000  1
  Te  Te8  1  0.00000000  0.57901900  0.25000000  1
  Te  Te9  1  0.50000000  0.92098100  0.75000000  1
  Te  Te10  1  0.50000000  0.20747800  0.75000000  1
  Te  Te11  1  0.00000000  0.29252200  0.25000000  1
  Te  Te12  1  0.00000000  0.07904500  0.75000000  1
  Te  Te13  1  0.50000000  0.42095500  0.25000000  1
  Te  Te14  1  0.50000000  0.07901900  0.25000000  1
  Te  Te15  1  0.00000000  0.42098100  0.75000000  1
