# generated using pymatgen
data_Sc2CoSi2
_symmetry_space_group_name_H-M   'P 1'
_cell_length_a   9.87051000
_cell_length_b   3.95399200
_cell_length_c   9.43231611
_cell_angle_alpha   90.00000000
_cell_angle_beta   118.75973422
_cell_angle_gamma   90.00000000
_symmetry_Int_Tables_number   1
_chemical_formula_structural   Sc2CoSi2
_chemical_formula_sum   'Sc8 Co4 Si8'
_cell_volume   322.71377166
_cell_formula_units_Z   4
loop_
 _symmetry_equiv_pos_site_id
 _symmetry_equiv_pos_as_xyz
  1  'x, y, z'
loop_
 _atom_site_type_symbol
 _atom_site_label
 _atom_site_symmetry_multiplicity
 _atom_site_fract_x
 _atom_site_fract_y
 _atom_site_fract_z
 _atom_site_occupancy
  Sc  Sc0  1  0.18404100  0.50000000  0.10541300  1
  Sc  Sc1  1  0.49970600  0.00000000  0.67175800  1
  Sc  Sc2  1  0.81595900  0.50000000  0.89458700  1
  Sc  Sc3  1  0.50029400  0.00000000  0.32824200  1
  Sc  Sc4  1  0.68404100  0.00000000  0.10541300  1
  Sc  Sc5  1  0.99970600  0.50000000  0.67175800  1
  Sc  Sc6  1  0.31595900  0.00000000  0.89458700  1
  Sc  Sc7  1  0.00029400  0.50000000  0.32824200  1
  Co  Co8  1  0.22549500  0.00000000  0.37439700  1
  Co  Co9  1  0.77450500  0.00000000  0.62560300  1
  Co  Co10  1  0.72549500  0.50000000  0.37439700  1
  Co  Co11  1  0.27450500  0.50000000  0.62560300  1
  Si  Si12  1  0.51227400  0.50000000  0.87502700  1
  Si  Si13  1  0.35503400  0.50000000  0.43076200  1
  Si  Si14  1  0.48772600  0.50000000  0.12497300  1
  Si  Si15  1  0.64496600  0.50000000  0.56923800  1
  Si  Si16  1  0.01227400  0.00000000  0.87502700  1
  Si  Si17  1  0.85503400  0.00000000  0.43076200  1
  Si  Si18  1  0.98772600  0.00000000  0.12497300  1
  Si  Si19  1  0.14496600  0.00000000  0.56923800  1
