# generated using pymatgen
data_RbYb3
_symmetry_space_group_name_H-M   'P 1'
_cell_length_a   9.29716200
_cell_length_b   9.29716200
_cell_length_c   9.29716200
_cell_angle_alpha   90.00000000
_cell_angle_beta   90.00000000
_cell_angle_gamma   90.00000000
_symmetry_Int_Tables_number   1
_chemical_formula_structural   RbYb3
_chemical_formula_sum   'Rb4 Yb12'
_cell_volume   803.62084883
_cell_formula_units_Z   4
loop_
 _symmetry_equiv_pos_site_id
 _symmetry_equiv_pos_as_xyz
  1  'x, y, z'
loop_
 _atom_site_type_symbol
 _atom_site_label
 _atom_site_symmetry_multiplicity
 _atom_site_fract_x
 _atom_site_fract_y
 _atom_site_fract_z
 _atom_site_occupancy
  Rb  Rb0  1  0.00000000  0.00000000  0.00000000  1
  Rb  Rb1  1  0.00000000  0.50000000  0.50000000  1
  Rb  Rb2  1  0.50000000  0.00000000  0.50000000  1
  Rb  Rb3  1  0.50000000  0.50000000  0.00000000  1
  Yb  Yb4  1  0.25000000  0.75000000  0.75000000  1
  Yb  Yb5  1  0.25000000  0.25000000  0.75000000  1
  Yb  Yb6  1  0.50000000  0.00000000  0.00000000  1
  Yb  Yb7  1  0.25000000  0.25000000  0.25000000  1
  Yb  Yb8  1  0.25000000  0.75000000  0.25000000  1
  Yb  Yb9  1  0.50000000  0.50000000  0.50000000  1
  Yb  Yb10  1  0.75000000  0.75000000  0.25000000  1
  Yb  Yb11  1  0.75000000  0.25000000  0.25000000  1
  Yb  Yb12  1  0.00000000  0.00000000  0.50000000  1
  Yb  Yb13  1  0.75000000  0.25000000  0.75000000  1
  Yb  Yb14  1  0.75000000  0.75000000  0.75000000  1
  Yb  Yb15  1  0.00000000  0.50000000  0.00000000  1
