# generated using pymatgen
data_Y2Al3Si2
_symmetry_space_group_name_H-M   'P 1'
_cell_length_a   10.22158000
_cell_length_b   4.03934600
_cell_length_c   6.64007393
_cell_angle_alpha   90.00000000
_cell_angle_beta   101.08173612
_cell_angle_gamma   90.00000000
_symmetry_Int_Tables_number   1
_chemical_formula_structural   Y2Al3Si2
_chemical_formula_sum   'Y4 Al6 Si4'
_cell_volume   269.04671371
_cell_formula_units_Z   2
loop_
 _symmetry_equiv_pos_site_id
 _symmetry_equiv_pos_as_xyz
  1  'x, y, z'
loop_
 _atom_site_type_symbol
 _atom_site_label
 _atom_site_symmetry_multiplicity
 _atom_site_fract_x
 _atom_site_fract_y
 _atom_site_fract_z
 _atom_site_occupancy
  Y  Y0  1  0.62009000  0.00000000  0.32243600  1
  Y  Y1  1  0.87991000  0.50000000  0.67756400  1
  Y  Y2  1  0.12009000  0.50000000  0.32243600  1
  Y  Y3  1  0.37991000  0.00000000  0.67756400  1
  Al  Al4  1  0.80558400  0.50000000  0.13339300  1
  Al  Al5  1  0.00000000  0.00000000  0.00000000  1
  Al  Al6  1  0.69441600  0.00000000  0.86660700  1
  Al  Al7  1  0.30558400  0.00000000  0.13339300  1
  Al  Al8  1  0.50000000  0.50000000  0.00000000  1
  Al  Al9  1  0.19441600  0.50000000  0.86660700  1
  Si  Si10  1  0.59269000  0.50000000  0.64055400  1
  Si  Si11  1  0.90731000  0.00000000  0.35944600  1
  Si  Si12  1  0.09269000  0.00000000  0.64055400  1
  Si  Si13  1  0.40731000  0.50000000  0.35944600  1
