# generated using pymatgen
data_KFeSe2
_symmetry_space_group_name_H-M   'P 1'
_cell_length_a   7.32153800
_cell_length_b   11.71778400
_cell_length_c   5.61902924
_cell_angle_alpha   90.00000000
_cell_angle_beta   112.49192792
_cell_angle_gamma   90.00000000
_symmetry_Int_Tables_number   1
_chemical_formula_structural   KFeSe2
_chemical_formula_sum   'K4 Fe4 Se8'
_cell_volume   445.39956197
_cell_formula_units_Z   4
loop_
 _symmetry_equiv_pos_site_id
 _symmetry_equiv_pos_as_xyz
  1  'x, y, z'
loop_
 _atom_site_type_symbol
 _atom_site_label
 _atom_site_symmetry_multiplicity
 _atom_site_fract_x
 _atom_site_fract_y
 _atom_site_fract_z
 _atom_site_occupancy
  K  K0  1  0.50000000  0.13807400  0.25000000  1
  K  K1  1  0.50000000  0.86192600  0.75000000  1
  K  K2  1  0.00000000  0.63807400  0.25000000  1
  K  K3  1  0.00000000  0.36192600  0.75000000  1
  Fe  Fe4  1  0.50000000  0.50190300  0.25000000  1
  Fe  Fe5  1  0.50000000  0.49809700  0.75000000  1
  Fe  Fe6  1  0.00000000  0.00190300  0.25000000  1
  Fe  Fe7  1  0.00000000  0.99809700  0.75000000  1
  Se  Se8  1  0.80379350  0.11279750  0.90054400  1
  Se  Se9  1  0.19620650  0.11279750  0.59945600  1
  Se  Se10  1  0.19620650  0.88720250  0.09945600  1
  Se  Se11  1  0.80379350  0.88720250  0.40054400  1
  Se  Se12  1  0.30379350  0.61279750  0.90054400  1
  Se  Se13  1  0.69620650  0.61279750  0.59945600  1
  Se  Se14  1  0.69620650  0.38720250  0.09945600  1
  Se  Se15  1  0.30379350  0.38720250  0.40054400  1
