# generated using pymatgen
data_SiTc2W
_symmetry_space_group_name_H-M   'P 1'
_cell_length_a   6.11993800
_cell_length_b   6.11993800
_cell_length_c   6.11993800
_cell_angle_alpha   90.00000000
_cell_angle_beta   90.00000000
_cell_angle_gamma   90.00000000
_symmetry_Int_Tables_number   1
_chemical_formula_structural   SiTc2W
_chemical_formula_sum   'Si4 Tc8 W4'
_cell_volume   229.21396155
_cell_formula_units_Z   4
loop_
 _symmetry_equiv_pos_site_id
 _symmetry_equiv_pos_as_xyz
  1  'x, y, z'
loop_
 _atom_site_type_symbol
 _atom_site_label
 _atom_site_symmetry_multiplicity
 _atom_site_fract_x
 _atom_site_fract_y
 _atom_site_fract_z
 _atom_site_occupancy
  Si  Si0  1  0.50000000  0.00000000  0.00000000  1
  Si  Si1  1  0.50000000  0.50000000  0.50000000  1
  Si  Si2  1  0.00000000  0.00000000  0.50000000  1
  Si  Si3  1  0.00000000  0.50000000  0.00000000  1
  Tc  Tc4  1  0.25000000  0.75000000  0.75000000  1
  Tc  Tc5  1  0.25000000  0.25000000  0.75000000  1
  Tc  Tc6  1  0.25000000  0.25000000  0.25000000  1
  Tc  Tc7  1  0.25000000  0.75000000  0.25000000  1
  Tc  Tc8  1  0.75000000  0.75000000  0.25000000  1
  Tc  Tc9  1  0.75000000  0.25000000  0.25000000  1
  Tc  Tc10  1  0.75000000  0.25000000  0.75000000  1
  Tc  Tc11  1  0.75000000  0.75000000  0.75000000  1
  W  W12  1  0.00000000  0.00000000  0.00000000  1
  W  W13  1  0.00000000  0.50000000  0.50000000  1
  W  W14  1  0.50000000  0.00000000  0.50000000  1
  W  W15  1  0.50000000  0.50000000  0.00000000  1
