# generated using pymatgen
data_Sr6In2NF
_symmetry_space_group_name_H-M   'P 1'
_cell_length_a   10.64999600
_cell_length_b   10.64999600
_cell_length_c   10.64999600
_cell_angle_alpha   90.00000000
_cell_angle_beta   90.00000000
_cell_angle_gamma   90.00000000
_symmetry_Int_Tables_number   1
_chemical_formula_structural   Sr6In2NF
_chemical_formula_sum   'Sr24 In8 N4 F4'
_cell_volume   1207.94826393
_cell_formula_units_Z   4
loop_
 _symmetry_equiv_pos_site_id
 _symmetry_equiv_pos_as_xyz
  1  'x, y, z'
loop_
 _atom_site_type_symbol
 _atom_site_label
 _atom_site_symmetry_multiplicity
 _atom_site_fract_x
 _atom_site_fract_y
 _atom_site_fract_z
 _atom_site_occupancy
  Sr  Sr0  1  0.75953500  0.00000000  0.00000000  1
  Sr  Sr1  1  0.50000000  0.74046500  0.00000000  1
  Sr  Sr2  1  0.50000000  0.25953500  0.00000000  1
  Sr  Sr3  1  0.00000000  0.00000000  0.75953500  1
  Sr  Sr4  1  0.50000000  0.00000000  0.74046500  1
  Sr  Sr5  1  0.24046500  0.00000000  0.00000000  1
  Sr  Sr6  1  0.75953500  0.50000000  0.50000000  1
  Sr  Sr7  1  0.50000000  0.24046500  0.50000000  1
  Sr  Sr8  1  0.50000000  0.75953500  0.50000000  1
  Sr  Sr9  1  0.00000000  0.50000000  0.25953500  1
  Sr  Sr10  1  0.50000000  0.50000000  0.24046500  1
  Sr  Sr11  1  0.24046500  0.50000000  0.50000000  1
  Sr  Sr12  1  0.25953500  0.00000000  0.50000000  1
  Sr  Sr13  1  0.00000000  0.74046500  0.50000000  1
  Sr  Sr14  1  0.00000000  0.25953500  0.50000000  1
  Sr  Sr15  1  0.50000000  0.00000000  0.25953500  1
  Sr  Sr16  1  0.00000000  0.00000000  0.24046500  1
  Sr  Sr17  1  0.74046500  0.00000000  0.50000000  1
  Sr  Sr18  1  0.25953500  0.50000000  0.00000000  1
  Sr  Sr19  1  0.00000000  0.24046500  0.00000000  1
  Sr  Sr20  1  0.00000000  0.75953500  0.00000000  1
  Sr  Sr21  1  0.50000000  0.50000000  0.75953500  1
  Sr  Sr22  1  0.00000000  0.50000000  0.74046500  1
  Sr  Sr23  1  0.74046500  0.50000000  0.00000000  1
  In  In24  1  0.25000000  0.75000000  0.75000000  1
  In  In25  1  0.25000000  0.25000000  0.75000000  1
  In  In26  1  0.25000000  0.25000000  0.25000000  1
  In  In27  1  0.25000000  0.75000000  0.25000000  1
  In  In28  1  0.75000000  0.75000000  0.25000000  1
  In  In29  1  0.75000000  0.25000000  0.25000000  1
  In  In30  1  0.75000000  0.25000000  0.75000000  1
  In  In31  1  0.75000000  0.75000000  0.75000000  1
  N  N32  1  0.00000000  0.00000000  0.00000000  1
  N  N33  1  0.00000000  0.50000000  0.50000000  1
  N  N34  1  0.50000000  0.00000000  0.50000000  1
  N  N35  1  0.50000000  0.50000000  0.00000000  1
  F  F36  1  0.50000000  0.00000000  0.00000000  1
  F  F37  1  0.50000000  0.50000000  0.50000000  1
  F  F38  1  0.00000000  0.00000000  0.50000000  1
  F  F39  1  0.00000000  0.50000000  0.00000000  1
