# generated using pymatgen
data_TbCdAg2
_symmetry_space_group_name_H-M   'P 1'
_cell_length_a   7.03051800
_cell_length_b   7.03051800
_cell_length_c   7.03051800
_cell_angle_alpha   90.00000000
_cell_angle_beta   90.00000000
_cell_angle_gamma   90.00000000
_symmetry_Int_Tables_number   1
_chemical_formula_structural   TbCdAg2
_chemical_formula_sum   'Tb4 Cd4 Ag8'
_cell_volume   347.50573274
_cell_formula_units_Z   4
loop_
 _symmetry_equiv_pos_site_id
 _symmetry_equiv_pos_as_xyz
  1  'x, y, z'
loop_
 _atom_site_type_symbol
 _atom_site_label
 _atom_site_symmetry_multiplicity
 _atom_site_fract_x
 _atom_site_fract_y
 _atom_site_fract_z
 _atom_site_occupancy
  Tb  Tb0  1  0.00000000  0.00000000  0.00000000  1
  Tb  Tb1  1  0.00000000  0.50000000  0.50000000  1
  Tb  Tb2  1  0.50000000  0.00000000  0.50000000  1
  Tb  Tb3  1  0.50000000  0.50000000  0.00000000  1
  Cd  Cd4  1  0.50000000  0.00000000  0.00000000  1
  Cd  Cd5  1  0.50000000  0.50000000  0.50000000  1
  Cd  Cd6  1  0.00000000  0.00000000  0.50000000  1
  Cd  Cd7  1  0.00000000  0.50000000  0.00000000  1
  Ag  Ag8  1  0.25000000  0.25000000  0.75000000  1
  Ag  Ag9  1  0.25000000  0.75000000  0.75000000  1
  Ag  Ag10  1  0.25000000  0.75000000  0.25000000  1
  Ag  Ag11  1  0.25000000  0.25000000  0.25000000  1
  Ag  Ag12  1  0.75000000  0.25000000  0.25000000  1
  Ag  Ag13  1  0.75000000  0.75000000  0.25000000  1
  Ag  Ag14  1  0.75000000  0.75000000  0.75000000  1
  Ag  Ag15  1  0.75000000  0.25000000  0.75000000  1
