# generated using pymatgen
data_SmGe3
_symmetry_space_group_name_H-M   'P 1'
_cell_length_a   6.12356824
_cell_length_b   6.12356824
_cell_length_c   5.21606400
_cell_angle_alpha   90.00000000
_cell_angle_beta   90.00000000
_cell_angle_gamma   120.00000000
_symmetry_Int_Tables_number   1
_chemical_formula_structural   SmGe3
_chemical_formula_sum   'Sm2 Ge6'
_cell_volume   169.38801033
_cell_formula_units_Z   2
loop_
 _symmetry_equiv_pos_site_id
 _symmetry_equiv_pos_as_xyz
  1  'x, y, z'
loop_
 _atom_site_type_symbol
 _atom_site_label
 _atom_site_symmetry_multiplicity
 _atom_site_fract_x
 _atom_site_fract_y
 _atom_site_fract_z
 _atom_site_occupancy
  Sm  Sm0  1  0.66666667  0.33333333  0.25000000  1
  Sm  Sm1  1  0.33333333  0.66666667  0.75000000  1
  Ge  Ge2  1  0.29657600  0.14828800  0.75000000  1
  Ge  Ge3  1  0.85171200  0.14828800  0.75000000  1
  Ge  Ge4  1  0.85171200  0.70342400  0.75000000  1
  Ge  Ge5  1  0.70342400  0.85171200  0.25000000  1
  Ge  Ge6  1  0.14828800  0.85171200  0.25000000  1
  Ge  Ge7  1  0.14828800  0.29657600  0.25000000  1
