# generated using pymatgen
data_Zn6Mo
_symmetry_space_group_name_H-M   'P 1'
_cell_length_a   7.74669800
_cell_length_b   7.74669800
_cell_length_c   7.74669800
_cell_angle_alpha   90.00000000
_cell_angle_beta   90.00000000
_cell_angle_gamma   90.00000000
_symmetry_Int_Tables_number   1
_chemical_formula_structural   Zn6Mo
_chemical_formula_sum   'Zn24 Mo4'
_cell_volume   464.88964934
_cell_formula_units_Z   4
loop_
 _symmetry_equiv_pos_site_id
 _symmetry_equiv_pos_as_xyz
  1  'x, y, z'
loop_
 _atom_site_type_symbol
 _atom_site_label
 _atom_site_symmetry_multiplicity
 _atom_site_fract_x
 _atom_site_fract_y
 _atom_site_fract_z
 _atom_site_occupancy
  Zn  Zn0  1  0.25000000  0.75000000  0.00000000  1
  Zn  Zn1  1  0.25000000  0.00000000  0.75000000  1
  Zn  Zn2  1  0.25000000  0.25000000  0.00000000  1
  Zn  Zn3  1  0.75000000  0.00000000  0.75000000  1
  Zn  Zn4  1  0.00000000  0.25000000  0.75000000  1
  Zn  Zn5  1  0.00000000  0.75000000  0.75000000  1
  Zn  Zn6  1  0.25000000  0.25000000  0.50000000  1
  Zn  Zn7  1  0.25000000  0.50000000  0.25000000  1
  Zn  Zn8  1  0.25000000  0.75000000  0.50000000  1
  Zn  Zn9  1  0.75000000  0.50000000  0.25000000  1
  Zn  Zn10  1  0.00000000  0.75000000  0.25000000  1
  Zn  Zn11  1  0.00000000  0.25000000  0.25000000  1
  Zn  Zn12  1  0.75000000  0.75000000  0.50000000  1
  Zn  Zn13  1  0.75000000  0.00000000  0.25000000  1
  Zn  Zn14  1  0.75000000  0.25000000  0.50000000  1
  Zn  Zn15  1  0.25000000  0.00000000  0.25000000  1
  Zn  Zn16  1  0.50000000  0.25000000  0.25000000  1
  Zn  Zn17  1  0.50000000  0.75000000  0.25000000  1
  Zn  Zn18  1  0.75000000  0.25000000  0.00000000  1
  Zn  Zn19  1  0.75000000  0.50000000  0.75000000  1
  Zn  Zn20  1  0.75000000  0.75000000  0.00000000  1
  Zn  Zn21  1  0.25000000  0.50000000  0.75000000  1
  Zn  Zn22  1  0.50000000  0.75000000  0.75000000  1
  Zn  Zn23  1  0.50000000  0.25000000  0.75000000  1
  Mo  Mo24  1  0.00000000  0.00000000  0.00000000  1
  Mo  Mo25  1  0.00000000  0.50000000  0.50000000  1
  Mo  Mo26  1  0.50000000  0.00000000  0.50000000  1
  Mo  Mo27  1  0.50000000  0.50000000  0.00000000  1
