# generated using pymatgen
data_SrTcN3
_symmetry_space_group_name_H-M   'P 1'
_cell_length_a   4.21746200
_cell_length_b   12.70961400
_cell_length_c   5.71963600
_cell_angle_alpha   90.00000000
_cell_angle_beta   90.00000000
_cell_angle_gamma   90.00000000
_symmetry_Int_Tables_number   1
_chemical_formula_structural   SrTcN3
_chemical_formula_sum   'Sr4 Tc4 N12'
_cell_volume   306.58572529
_cell_formula_units_Z   4
loop_
 _symmetry_equiv_pos_site_id
 _symmetry_equiv_pos_as_xyz
  1  'x, y, z'
loop_
 _atom_site_type_symbol
 _atom_site_label
 _atom_site_symmetry_multiplicity
 _atom_site_fract_x
 _atom_site_fract_y
 _atom_site_fract_z
 _atom_site_occupancy
  Sr  Sr0  1  0.50000000  0.86877100  0.75000000  1
  Sr  Sr1  1  0.00000000  0.63122900  0.25000000  1
  Sr  Sr2  1  0.00000000  0.36877100  0.75000000  1
  Sr  Sr3  1  0.50000000  0.13122900  0.25000000  1
  Tc  Tc4  1  0.00000000  0.90525100  0.25000000  1
  Tc  Tc5  1  0.50000000  0.59474900  0.75000000  1
  Tc  Tc6  1  0.50000000  0.40525100  0.25000000  1
  Tc  Tc7  1  0.00000000  0.09474900  0.75000000  1
  N  N8  1  0.84944850  0.69589150  0.75434600  1
  N  N9  1  0.04415300  0.00000000  0.00000000  1
  N  N10  1  0.34944850  0.80410850  0.24565400  1
  N  N11  1  0.15055150  0.69589150  0.74565400  1
  N  N12  1  0.95584700  0.00000000  0.50000000  1
  N  N13  1  0.65055150  0.80410850  0.25434600  1
  N  N14  1  0.34944850  0.19589150  0.75434600  1
  N  N15  1  0.54415300  0.50000000  0.00000000  1
  N  N16  1  0.84944850  0.30410850  0.24565400  1
  N  N17  1  0.65055150  0.19589150  0.74565400  1
  N  N18  1  0.45584700  0.50000000  0.50000000  1
  N  N19  1  0.15055150  0.30410850  0.25434600  1
