# generated using pymatgen
data_KTi2F7
_symmetry_space_group_name_H-M   'P 1'
_cell_length_a   6.47348000
_cell_length_b   10.46987600
_cell_length_c   4.00061600
_cell_angle_alpha   90.00000000
_cell_angle_beta   90.00000000
_cell_angle_gamma   90.00000000
_symmetry_Int_Tables_number   1
_chemical_formula_structural   KTi2F7
_chemical_formula_sum   'K2 Ti4 F14'
_cell_volume   271.14788190
_cell_formula_units_Z   2
loop_
 _symmetry_equiv_pos_site_id
 _symmetry_equiv_pos_as_xyz
  1  'x, y, z'
loop_
 _atom_site_type_symbol
 _atom_site_label
 _atom_site_symmetry_multiplicity
 _atom_site_fract_x
 _atom_site_fract_y
 _atom_site_fract_z
 _atom_site_occupancy
  K  K0  1  0.00000000  0.00000000  0.00000000  1
  K  K1  1  0.50000000  0.50000000  0.00000000  1
  Ti  Ti2  1  0.50000000  0.80677200  0.50000000  1
  Ti  Ti3  1  0.50000000  0.19322800  0.50000000  1
  Ti  Ti4  1  0.00000000  0.30677200  0.50000000  1
  Ti  Ti5  1  0.00000000  0.69322800  0.50000000  1
  F  F6  1  0.81107600  0.85518300  0.50000000  1
  F  F7  1  0.50000000  0.80208900  0.00000000  1
  F  F8  1  0.81107600  0.14481700  0.50000000  1
  F  F9  1  0.50000000  0.00000000  0.50000000  1
  F  F10  1  0.18892400  0.85518300  0.50000000  1
  F  F11  1  0.50000000  0.19791100  0.00000000  1
  F  F12  1  0.18892400  0.14481700  0.50000000  1
  F  F13  1  0.31107600  0.35518300  0.50000000  1
  F  F14  1  0.00000000  0.30208900  0.00000000  1
  F  F15  1  0.31107600  0.64481700  0.50000000  1
  F  F16  1  0.00000000  0.50000000  0.50000000  1
  F  F17  1  0.68892400  0.35518300  0.50000000  1
  F  F18  1  0.00000000  0.69791100  0.00000000  1
  F  F19  1  0.68892400  0.64481700  0.50000000  1
