# generated using pymatgen
data_Ca6In2NF
_symmetry_space_group_name_H-M   'P 1'
_cell_length_a   9.96096200
_cell_length_b   9.96096200
_cell_length_c   9.96096200
_cell_angle_alpha   90.00000000
_cell_angle_beta   90.00000000
_cell_angle_gamma   90.00000000
_symmetry_Int_Tables_number   1
_chemical_formula_structural   Ca6In2NF
_chemical_formula_sum   'Ca24 In8 N4 F4'
_cell_volume   988.33425947
_cell_formula_units_Z   4
loop_
 _symmetry_equiv_pos_site_id
 _symmetry_equiv_pos_as_xyz
  1  'x, y, z'
loop_
 _atom_site_type_symbol
 _atom_site_label
 _atom_site_symmetry_multiplicity
 _atom_site_fract_x
 _atom_site_fract_y
 _atom_site_fract_z
 _atom_site_occupancy
  Ca  Ca0  1  0.76001200  0.00000000  0.00000000  1
  Ca  Ca1  1  0.00000000  0.73998800  0.50000000  1
  Ca  Ca2  1  0.50000000  0.26001200  0.00000000  1
  Ca  Ca3  1  0.00000000  0.00000000  0.76001200  1
  Ca  Ca4  1  0.50000000  0.00000000  0.73998800  1
  Ca  Ca5  1  0.73998800  0.00000000  0.50000000  1
  Ca  Ca6  1  0.76001200  0.50000000  0.50000000  1
  Ca  Ca7  1  0.00000000  0.23998800  0.00000000  1
  Ca  Ca8  1  0.50000000  0.76001200  0.50000000  1
  Ca  Ca9  1  0.00000000  0.50000000  0.26001200  1
  Ca  Ca10  1  0.50000000  0.50000000  0.23998800  1
  Ca  Ca11  1  0.73998800  0.50000000  0.00000000  1
  Ca  Ca12  1  0.26001200  0.00000000  0.50000000  1
  Ca  Ca13  1  0.50000000  0.73998800  0.00000000  1
  Ca  Ca14  1  0.00000000  0.26001200  0.50000000  1
  Ca  Ca15  1  0.50000000  0.00000000  0.26001200  1
  Ca  Ca16  1  0.00000000  0.00000000  0.23998800  1
  Ca  Ca17  1  0.23998800  0.00000000  0.00000000  1
  Ca  Ca18  1  0.26001200  0.50000000  0.00000000  1
  Ca  Ca19  1  0.50000000  0.23998800  0.50000000  1
  Ca  Ca20  1  0.00000000  0.76001200  0.00000000  1
  Ca  Ca21  1  0.50000000  0.50000000  0.76001200  1
  Ca  Ca22  1  0.00000000  0.50000000  0.73998800  1
  Ca  Ca23  1  0.23998800  0.50000000  0.50000000  1
  In  In24  1  0.25000000  0.75000000  0.75000000  1
  In  In25  1  0.25000000  0.25000000  0.75000000  1
  In  In26  1  0.25000000  0.25000000  0.25000000  1
  In  In27  1  0.25000000  0.75000000  0.25000000  1
  In  In28  1  0.75000000  0.75000000  0.25000000  1
  In  In29  1  0.75000000  0.25000000  0.25000000  1
  In  In30  1  0.75000000  0.25000000  0.75000000  1
  In  In31  1  0.75000000  0.75000000  0.75000000  1
  N  N32  1  0.00000000  0.00000000  0.00000000  1
  N  N33  1  0.00000000  0.50000000  0.50000000  1
  N  N34  1  0.50000000  0.00000000  0.50000000  1
  N  N35  1  0.50000000  0.50000000  0.00000000  1
  F  F36  1  0.50000000  0.00000000  0.00000000  1
  F  F37  1  0.50000000  0.50000000  0.50000000  1
  F  F38  1  0.00000000  0.00000000  0.50000000  1
  F  F39  1  0.00000000  0.50000000  0.00000000  1
