# generated using pymatgen
data_Zn2PtRh
_symmetry_space_group_name_H-M   'P 1'
_cell_length_a   6.10385000
_cell_length_b   6.10385000
_cell_length_c   6.10385000
_cell_angle_alpha   90.00000000
_cell_angle_beta   90.00000000
_cell_angle_gamma   90.00000000
_symmetry_Int_Tables_number   1
_chemical_formula_structural   Zn2PtRh
_chemical_formula_sum   'Zn8 Pt4 Rh4'
_cell_volume   227.41104681
_cell_formula_units_Z   4
loop_
 _symmetry_equiv_pos_site_id
 _symmetry_equiv_pos_as_xyz
  1  'x, y, z'
loop_
 _atom_site_type_symbol
 _atom_site_label
 _atom_site_symmetry_multiplicity
 _atom_site_fract_x
 _atom_site_fract_y
 _atom_site_fract_z
 _atom_site_occupancy
  Zn  Zn0  1  0.25000000  0.75000000  0.75000000  1
  Zn  Zn1  1  0.25000000  0.25000000  0.75000000  1
  Zn  Zn2  1  0.25000000  0.25000000  0.25000000  1
  Zn  Zn3  1  0.25000000  0.75000000  0.25000000  1
  Zn  Zn4  1  0.75000000  0.75000000  0.25000000  1
  Zn  Zn5  1  0.75000000  0.25000000  0.25000000  1
  Zn  Zn6  1  0.75000000  0.25000000  0.75000000  1
  Zn  Zn7  1  0.75000000  0.75000000  0.75000000  1
  Pt  Pt8  1  0.50000000  0.00000000  0.00000000  1
  Pt  Pt9  1  0.50000000  0.50000000  0.50000000  1
  Pt  Pt10  1  0.00000000  0.00000000  0.50000000  1
  Pt  Pt11  1  0.00000000  0.50000000  0.00000000  1
  Rh  Rh12  1  0.00000000  0.00000000  0.00000000  1
  Rh  Rh13  1  0.00000000  0.50000000  0.50000000  1
  Rh  Rh14  1  0.50000000  0.00000000  0.50000000  1
  Rh  Rh15  1  0.50000000  0.50000000  0.00000000  1
