# generated using pymatgen
data_SrGe3Pd
_symmetry_space_group_name_H-M   'P 1'
_cell_length_a   4.51045200
_cell_length_b   4.51045200
_cell_length_c   10.42714600
_cell_angle_alpha   90.00000000
_cell_angle_beta   90.00000000
_cell_angle_gamma   90.00000000
_symmetry_Int_Tables_number   1
_chemical_formula_structural   SrGe3Pd
_chemical_formula_sum   'Sr2 Ge6 Pd2'
_cell_volume   212.13170638
_cell_formula_units_Z   2
loop_
 _symmetry_equiv_pos_site_id
 _symmetry_equiv_pos_as_xyz
  1  'x, y, z'
loop_
 _atom_site_type_symbol
 _atom_site_label
 _atom_site_symmetry_multiplicity
 _atom_site_fract_x
 _atom_site_fract_y
 _atom_site_fract_z
 _atom_site_occupancy
  Sr  Sr0  1  0.50000000  0.50000000  0.49994200  1
  Sr  Sr1  1  0.00000000  0.00000000  0.99994200  1
  Ge  Ge2  1  0.00000000  0.00000000  0.39982500  1
  Ge  Ge3  1  0.00000000  0.50000000  0.25351600  1
  Ge  Ge4  1  0.50000000  0.00000000  0.25351600  1
  Ge  Ge5  1  0.50000000  0.50000000  0.89982500  1
  Ge  Ge6  1  0.50000000  0.00000000  0.75351600  1
  Ge  Ge7  1  0.00000000  0.50000000  0.75351600  1
  Pd  Pd8  1  0.50000000  0.50000000  0.14089800  1
  Pd  Pd9  1  0.00000000  0.00000000  0.64089800  1
