# generated using pymatgen
data_Lu3Ga
_symmetry_space_group_name_H-M   'P 1'
_cell_length_a   6.60652205
_cell_length_b   6.60652205
_cell_length_c   5.23462500
_cell_angle_alpha   90.00000000
_cell_angle_beta   90.00000000
_cell_angle_gamma   120.00000000
_symmetry_Int_Tables_number   1
_chemical_formula_structural   Lu3Ga
_chemical_formula_sum   'Lu6 Ga2'
_cell_volume   197.86181312
_cell_formula_units_Z   2
loop_
 _symmetry_equiv_pos_site_id
 _symmetry_equiv_pos_as_xyz
  1  'x, y, z'
loop_
 _atom_site_type_symbol
 _atom_site_label
 _atom_site_symmetry_multiplicity
 _atom_site_fract_x
 _atom_site_fract_y
 _atom_site_fract_z
 _atom_site_occupancy
  Lu  Lu0  1  0.34366400  0.17183200  0.75000000  1
  Lu  Lu1  1  0.82816800  0.17183200  0.75000000  1
  Lu  Lu2  1  0.82816800  0.65633600  0.75000000  1
  Lu  Lu3  1  0.65633600  0.82816800  0.25000000  1
  Lu  Lu4  1  0.17183200  0.82816800  0.25000000  1
  Lu  Lu5  1  0.17183200  0.34366400  0.25000000  1
  Ga  Ga6  1  0.66666667  0.33333333  0.25000000  1
  Ga  Ga7  1  0.33333333  0.66666667  0.75000000  1
