# generated using pymatgen
data_SiB4
_symmetry_space_group_name_H-M   'P 1'
_cell_length_a   6.21892006
_cell_length_b   6.21892006
_cell_length_c   12.46705797
_cell_angle_alpha   90.00000000
_cell_angle_beta   90.00000000
_cell_angle_gamma   120.00000000
_symmetry_Int_Tables_number   1
_chemical_formula_structural   SiB4
_chemical_formula_sum   'Si9 B36'
_cell_volume   417.56545148
_cell_formula_units_Z   9
loop_
 _symmetry_equiv_pos_site_id
 _symmetry_equiv_pos_as_xyz
  1  'x, y, z'
loop_
 _atom_site_type_symbol
 _atom_site_label
 _atom_site_symmetry_multiplicity
 _atom_site_fract_x
 _atom_site_fract_y
 _atom_site_fract_z
 _atom_site_occupancy
  Si  Si0  1  0.33333333  0.66666667  0.99234467  1
  Si  Si1  1  0.33333333  0.66666667  0.34098867  1
  Si  Si2  1  0.33333333  0.66666667  0.16666667  1
  Si  Si3  1  0.00000000  0.00000000  0.32567800  1
  Si  Si4  1  0.00000000  0.00000000  0.67432200  1
  Si  Si5  1  1.00000000  1.00000000  0.50000000  1
  Si  Si6  1  0.66666667  0.33333333  0.65901133  1
  Si  Si7  1  0.66666667  0.33333333  0.00765533  1
  Si  Si8  1  0.66666667  0.33333333  0.83333333  1
  B  B9  1  0.96801600  0.48400800  0.30672700  1
  B  B10  1  0.51599200  0.03198400  0.30672700  1
  B  B11  1  0.51599200  0.48400800  0.30672700  1
  B  B12  1  0.15067467  0.84932533  0.02660633  1
  B  B13  1  0.15067467  0.30134933  0.02660633  1
  B  B14  1  0.69865067  0.84932533  0.02660633  1
  B  B15  1  0.12744033  0.56372017  0.54956367  1
  B  B16  1  0.43627983  0.87255967  0.54956367  1
  B  B17  1  0.43627983  0.56372017  0.54956367  1
  B  B18  1  0.23038683  0.76961317  0.78376967  1
  B  B19  1  0.23038683  0.46077367  0.78376967  1
  B  B20  1  0.53922633  0.76961317  0.78376967  1
  B  B21  1  0.63468267  0.81734133  0.64006033  1
  B  B22  1  0.18265867  0.36531733  0.64006033  1
  B  B23  1  0.18265867  0.81734133  0.64006033  1
  B  B24  1  0.81734133  0.18265867  0.35993967  1
  B  B25  1  0.81734133  0.63468267  0.35993967  1
  B  B26  1  0.36531733  0.18265867  0.35993967  1
  B  B27  1  0.79410700  0.89705350  0.88289700  1
  B  B28  1  0.10294650  0.20589300  0.88289700  1
  B  B29  1  0.10294650  0.89705350  0.88289700  1
  B  B30  1  0.89705350  0.10294650  0.11710300  1
  B  B31  1  0.89705350  0.79410700  0.11710300  1
  B  B32  1  0.20589300  0.10294650  0.11710300  1
  B  B33  1  0.30134933  0.15067467  0.97339367  1
  B  B34  1  0.84932533  0.69865067  0.97339367  1
  B  B35  1  0.84932533  0.15067467  0.97339367  1
  B  B36  1  0.48400800  0.51599200  0.69327300  1
  B  B37  1  0.48400800  0.96801600  0.69327300  1
  B  B38  1  0.03198400  0.51599200  0.69327300  1
  B  B39  1  0.46077367  0.23038683  0.21623033  1
  B  B40  1  0.76961317  0.53922633  0.21623033  1
  B  B41  1  0.76961317  0.23038683  0.21623033  1
  B  B42  1  0.56372017  0.43627983  0.45043633  1
  B  B43  1  0.56372017  0.12744033  0.45043633  1
  B  B44  1  0.87255967  0.43627983  0.45043633  1
