# generated using pymatgen
data_FeSb3
_symmetry_space_group_name_H-M   'P 1'
_cell_length_a   9.17831200
_cell_length_b   9.17831200
_cell_length_c   9.17831200
_cell_angle_alpha   90.00000000
_cell_angle_beta   90.00000000
_cell_angle_gamma   90.00000000
_symmetry_Int_Tables_number   1
_chemical_formula_structural   FeSb3
_chemical_formula_sum   'Fe8 Sb24'
_cell_volume   773.19395503
_cell_formula_units_Z   8
loop_
 _symmetry_equiv_pos_site_id
 _symmetry_equiv_pos_as_xyz
  1  'x, y, z'
loop_
 _atom_site_type_symbol
 _atom_site_label
 _atom_site_symmetry_multiplicity
 _atom_site_fract_x
 _atom_site_fract_y
 _atom_site_fract_z
 _atom_site_occupancy
  Fe  Fe0  1  0.25000000  0.25000000  0.25000000  1
  Fe  Fe1  1  0.75000000  0.25000000  0.25000000  1
  Fe  Fe2  1  0.25000000  0.25000000  0.75000000  1
  Fe  Fe3  1  0.25000000  0.75000000  0.25000000  1
  Fe  Fe4  1  0.75000000  0.75000000  0.75000000  1
  Fe  Fe5  1  0.25000000  0.75000000  0.75000000  1
  Fe  Fe6  1  0.75000000  0.75000000  0.25000000  1
  Fe  Fe7  1  0.75000000  0.25000000  0.75000000  1
  Sb  Sb8  1  0.34029300  0.16908700  0.50000000  1
  Sb  Sb9  1  0.16908700  0.50000000  0.34029300  1
  Sb  Sb10  1  0.50000000  0.34029300  0.16908700  1
  Sb  Sb11  1  0.15970700  0.66908700  0.00000000  1
  Sb  Sb12  1  0.83091300  0.50000000  0.34029300  1
  Sb  Sb13  1  0.66908700  0.00000000  0.15970700  1
  Sb  Sb14  1  0.50000000  0.34029300  0.83091300  1
  Sb  Sb15  1  0.33091300  0.00000000  0.15970700  1
  Sb  Sb16  1  0.15970700  0.33091300  0.00000000  1
  Sb  Sb17  1  0.00000000  0.15970700  0.33091300  1
  Sb  Sb18  1  0.34029300  0.83091300  0.50000000  1
  Sb  Sb19  1  0.00000000  0.15970700  0.66908700  1
  Sb  Sb20  1  0.84029300  0.66908700  0.00000000  1
  Sb  Sb21  1  0.66908700  0.00000000  0.84029300  1
  Sb  Sb22  1  0.00000000  0.84029300  0.66908700  1
  Sb  Sb23  1  0.65970700  0.16908700  0.50000000  1
  Sb  Sb24  1  0.33091300  0.00000000  0.84029300  1
  Sb  Sb25  1  0.16908700  0.50000000  0.65970700  1
  Sb  Sb26  1  0.00000000  0.84029300  0.33091300  1
  Sb  Sb27  1  0.83091300  0.50000000  0.65970700  1
  Sb  Sb28  1  0.65970700  0.83091300  0.50000000  1
  Sb  Sb29  1  0.50000000  0.65970700  0.83091300  1
  Sb  Sb30  1  0.84029300  0.33091300  0.00000000  1
  Sb  Sb31  1  0.50000000  0.65970700  0.16908700  1
