# generated using pymatgen
data_ScGeAu
_symmetry_space_group_name_H-M   'P 1'
_cell_length_a   4.37490780
_cell_length_b   4.37490780
_cell_length_c   6.91736700
_cell_angle_alpha   90.00000000
_cell_angle_beta   90.00000000
_cell_angle_gamma   120.00000000
_symmetry_Int_Tables_number   1
_chemical_formula_structural   ScGeAu
_chemical_formula_sum   'Sc2 Ge2 Au2'
_cell_volume   114.65929275
_cell_formula_units_Z   2
loop_
 _symmetry_equiv_pos_site_id
 _symmetry_equiv_pos_as_xyz
  1  'x, y, z'
loop_
 _atom_site_type_symbol
 _atom_site_label
 _atom_site_symmetry_multiplicity
 _atom_site_fract_x
 _atom_site_fract_y
 _atom_site_fract_z
 _atom_site_occupancy
  Sc  Sc0  1  0.00000000  0.00000000  0.50165500  1
  Sc  Sc1  1  0.00000000  0.00000000  0.00165500  1
  Ge  Ge2  1  0.66666667  0.33333333  0.79869400  1
  Ge  Ge3  1  0.33333333  0.66666667  0.29869400  1
  Au  Au4  1  0.66666667  0.33333333  0.19885100  1
  Au  Au5  1  0.33333333  0.66666667  0.69885100  1
