# generated using pymatgen
data_LiMgAu2
_symmetry_space_group_name_H-M   'P 1'
_cell_length_a   6.46534800
_cell_length_b   6.46534800
_cell_length_c   6.46534800
_cell_angle_alpha   90.00000000
_cell_angle_beta   90.00000000
_cell_angle_gamma   90.00000000
_symmetry_Int_Tables_number   1
_chemical_formula_structural   LiMgAu2
_chemical_formula_sum   'Li4 Mg4 Au8'
_cell_volume   270.25623223
_cell_formula_units_Z   4
loop_
 _symmetry_equiv_pos_site_id
 _symmetry_equiv_pos_as_xyz
  1  'x, y, z'
loop_
 _atom_site_type_symbol
 _atom_site_label
 _atom_site_symmetry_multiplicity
 _atom_site_fract_x
 _atom_site_fract_y
 _atom_site_fract_z
 _atom_site_occupancy
  Li  Li0  1  0.50000000  0.00000000  0.00000000  1
  Li  Li1  1  0.50000000  0.50000000  0.50000000  1
  Li  Li2  1  0.00000000  0.00000000  0.50000000  1
  Li  Li3  1  0.00000000  0.50000000  0.00000000  1
  Mg  Mg4  1  0.00000000  0.00000000  0.00000000  1
  Mg  Mg5  1  0.00000000  0.50000000  0.50000000  1
  Mg  Mg6  1  0.50000000  0.00000000  0.50000000  1
  Mg  Mg7  1  0.50000000  0.50000000  0.00000000  1
  Au  Au8  1  0.25000000  0.25000000  0.75000000  1
  Au  Au9  1  0.25000000  0.75000000  0.75000000  1
  Au  Au10  1  0.25000000  0.75000000  0.25000000  1
  Au  Au11  1  0.25000000  0.25000000  0.25000000  1
  Au  Au12  1  0.75000000  0.25000000  0.25000000  1
  Au  Au13  1  0.75000000  0.75000000  0.25000000  1
  Au  Au14  1  0.75000000  0.75000000  0.75000000  1
  Au  Au15  1  0.75000000  0.25000000  0.75000000  1
