# generated using pymatgen
data_UTi2O6
_symmetry_space_group_name_H-M   'P 1'
_cell_length_a   9.99883200
_cell_length_b   3.76698800
_cell_length_c   6.91199622
_cell_angle_alpha   90.00000000
_cell_angle_beta   119.15923085
_cell_angle_gamma   90.00000000
_symmetry_Int_Tables_number   1
_chemical_formula_structural   UTi2O6
_chemical_formula_sum   'U2 Ti4 O12'
_cell_volume   227.35004353
_cell_formula_units_Z   2
loop_
 _symmetry_equiv_pos_site_id
 _symmetry_equiv_pos_as_xyz
  1  'x, y, z'
loop_
 _atom_site_type_symbol
 _atom_site_label
 _atom_site_symmetry_multiplicity
 _atom_site_fract_x
 _atom_site_fract_y
 _atom_site_fract_z
 _atom_site_occupancy
  U  U0  1  0.00000000  0.00000000  0.00000000  1
  U  U1  1  0.50000000  0.50000000  0.00000000  1
  Ti  Ti2  1  0.82365200  0.00000000  0.39016400  1
  Ti  Ti3  1  0.17634800  0.00000000  0.60983600  1
  Ti  Ti4  1  0.32365200  0.50000000  0.39016400  1
  Ti  Ti5  1  0.67634800  0.50000000  0.60983600  1
  O  O6  1  0.77979000  0.50000000  0.40363300  1
  O  O7  1  0.22021000  0.50000000  0.59636700  1
  O  O8  1  0.64705700  0.00000000  0.10075300  1
  O  O9  1  0.02465900  0.00000000  0.69903800  1
  O  O10  1  0.97534100  0.00000000  0.30096200  1
  O  O11  1  0.35294300  0.00000000  0.89924700  1
  O  O12  1  0.27979000  0.00000000  0.40363300  1
  O  O13  1  0.72021000  0.00000000  0.59636700  1
  O  O14  1  0.14705700  0.50000000  0.10075300  1
  O  O15  1  0.52465900  0.50000000  0.69903800  1
  O  O16  1  0.47534100  0.50000000  0.30096200  1
  O  O17  1  0.85294300  0.50000000  0.89924700  1
