# generated using pymatgen
data_U3Si
_symmetry_space_group_name_H-M   'P 1'
_cell_length_a   6.01281400
_cell_length_b   6.01281400
_cell_length_c   8.46935400
_cell_angle_alpha   90.00000000
_cell_angle_beta   90.00000000
_cell_angle_gamma   90.00000000
_symmetry_Int_Tables_number   1
_chemical_formula_structural   U3Si
_chemical_formula_sum   'U12 Si4'
_cell_volume   306.20045028
_cell_formula_units_Z   4
loop_
 _symmetry_equiv_pos_site_id
 _symmetry_equiv_pos_as_xyz
  1  'x, y, z'
loop_
 _atom_site_type_symbol
 _atom_site_label
 _atom_site_symmetry_multiplicity
 _atom_site_fract_x
 _atom_site_fract_y
 _atom_site_fract_z
 _atom_site_occupancy
  U  U0  1  0.00000000  0.50000000  0.25000000  1
  U  U1  1  0.50000000  0.00000000  0.25000000  1
  U  U2  1  0.72596950  0.22596950  0.00000000  1
  U  U3  1  0.77403050  0.27403050  0.50000000  1
  U  U4  1  0.27403050  0.22596950  0.50000000  1
  U  U5  1  0.22596950  0.27403050  0.00000000  1
  U  U6  1  0.50000000  0.00000000  0.75000000  1
  U  U7  1  0.00000000  0.50000000  0.75000000  1
  U  U8  1  0.22596950  0.72596950  0.50000000  1
  U  U9  1  0.27403050  0.77403050  0.00000000  1
  U  U10  1  0.77403050  0.72596950  0.00000000  1
  U  U11  1  0.72596950  0.77403050  0.50000000  1
  Si  Si12  1  0.00000000  0.00000000  0.75000000  1
  Si  Si13  1  0.00000000  0.00000000  0.25000000  1
  Si  Si14  1  0.50000000  0.50000000  0.25000000  1
  Si  Si15  1  0.50000000  0.50000000  0.75000000  1
