# generated using pymatgen
data_LiGe
_symmetry_space_group_name_H-M   'P 1'
_cell_length_a   9.85779000
_cell_length_b   9.85779000
_cell_length_c   5.78246000
_cell_angle_alpha   90.00000000
_cell_angle_beta   90.00000000
_cell_angle_gamma   90.00000000
_symmetry_Int_Tables_number   1
_chemical_formula_structural   LiGe
_chemical_formula_sum   'Li16 Ge16'
_cell_volume   561.91646991
_cell_formula_units_Z   16
loop_
 _symmetry_equiv_pos_site_id
 _symmetry_equiv_pos_as_xyz
  1  'x, y, z'
loop_
 _atom_site_type_symbol
 _atom_site_label
 _atom_site_symmetry_multiplicity
 _atom_site_fract_x
 _atom_site_fract_y
 _atom_site_fract_z
 _atom_site_occupancy
  Li  Li0  1  0.86358200  0.92005800  0.70043500  1
  Li  Li1  1  0.57994200  0.86358200  0.95043500  1
  Li  Li2  1  0.42005800  0.13641800  0.95043500  1
  Li  Li3  1  0.13641800  0.07994200  0.70043500  1
  Li  Li4  1  0.63641800  0.07994200  0.54956500  1
  Li  Li5  1  0.42005800  0.63641800  0.79956500  1
  Li  Li6  1  0.57994200  0.36358200  0.79956500  1
  Li  Li7  1  0.36358200  0.92005800  0.54956500  1
  Li  Li8  1  0.36358200  0.42005800  0.20043500  1
  Li  Li9  1  0.07994200  0.36358200  0.45043500  1
  Li  Li10  1  0.92005800  0.63641800  0.45043500  1
  Li  Li11  1  0.63641800  0.57994200  0.20043500  1
  Li  Li12  1  0.13641800  0.57994200  0.04956500  1
  Li  Li13  1  0.92005800  0.13641800  0.29956500  1
  Li  Li14  1  0.07994200  0.86358200  0.29956500  1
  Li  Li15  1  0.86358200  0.42005800  0.04956500  1
  Ge  Ge16  1  0.80242900  0.89333300  0.23538300  1
  Ge  Ge17  1  0.60666700  0.80242900  0.48538300  1
  Ge  Ge18  1  0.39333300  0.19757100  0.48538300  1
  Ge  Ge19  1  0.19757100  0.10666700  0.23538300  1
  Ge  Ge20  1  0.69757100  0.10666700  0.01461700  1
  Ge  Ge21  1  0.39333300  0.69757100  0.26461700  1
  Ge  Ge22  1  0.60666700  0.30242900  0.26461700  1
  Ge  Ge23  1  0.30242900  0.89333300  0.01461700  1
  Ge  Ge24  1  0.30242900  0.39333300  0.73538300  1
  Ge  Ge25  1  0.10666700  0.30242900  0.98538300  1
  Ge  Ge26  1  0.89333300  0.69757100  0.98538300  1
  Ge  Ge27  1  0.69757100  0.60666700  0.73538300  1
  Ge  Ge28  1  0.19757100  0.60666700  0.51461700  1
  Ge  Ge29  1  0.89333300  0.19757100  0.76461700  1
  Ge  Ge30  1  0.10666700  0.80242900  0.76461700  1
  Ge  Ge31  1  0.80242900  0.39333300  0.51461700  1
