# generated using pymatgen
data_SmCoSi3
_symmetry_space_group_name_H-M   'P 1'
_cell_length_a   4.09292000
_cell_length_b   4.09292000
_cell_length_c   9.56744800
_cell_angle_alpha   90.00000000
_cell_angle_beta   90.00000000
_cell_angle_gamma   90.00000000
_symmetry_Int_Tables_number   1
_chemical_formula_structural   SmCoSi3
_chemical_formula_sum   'Sm2 Co2 Si6'
_cell_volume   160.27383270
_cell_formula_units_Z   2
loop_
 _symmetry_equiv_pos_site_id
 _symmetry_equiv_pos_as_xyz
  1  'x, y, z'
loop_
 _atom_site_type_symbol
 _atom_site_label
 _atom_site_symmetry_multiplicity
 _atom_site_fract_x
 _atom_site_fract_y
 _atom_site_fract_z
 _atom_site_occupancy
  Sm  Sm0  1  0.00000000  0.00000000  0.00465300  1
  Sm  Sm1  1  0.50000000  0.50000000  0.50465300  1
  Co  Co2  1  0.50000000  0.50000000  0.16127300  1
  Co  Co3  1  0.00000000  0.00000000  0.66127300  1
  Si  Si4  1  0.00000000  0.50000000  0.26089800  1
  Si  Si5  1  0.50000000  0.00000000  0.26089800  1
  Si  Si6  1  0.00000000  0.00000000  0.42727800  1
  Si  Si7  1  0.50000000  0.00000000  0.76089800  1
  Si  Si8  1  0.00000000  0.50000000  0.76089800  1
  Si  Si9  1  0.50000000  0.50000000  0.92727800  1
