# generated using pymatgen
data_BaSb2Pd
_symmetry_space_group_name_H-M   'P 1'
_cell_length_a   4.95781000
_cell_length_b   18.79660600
_cell_length_c   4.98560900
_cell_angle_alpha   90.00000000
_cell_angle_beta   90.00000000
_cell_angle_gamma   90.00000000
_symmetry_Int_Tables_number   1
_chemical_formula_structural   BaSb2Pd
_chemical_formula_sum   'Ba4 Sb8 Pd4'
_cell_volume   464.60890866
_cell_formula_units_Z   4
loop_
 _symmetry_equiv_pos_site_id
 _symmetry_equiv_pos_as_xyz
  1  'x, y, z'
loop_
 _atom_site_type_symbol
 _atom_site_label
 _atom_site_symmetry_multiplicity
 _atom_site_fract_x
 _atom_site_fract_y
 _atom_site_fract_z
 _atom_site_occupancy
  Ba  Ba0  1  0.00000000  0.60660000  0.75000000  1
  Ba  Ba1  1  0.50000000  0.89340000  0.25000000  1
  Ba  Ba2  1  0.50000000  0.10660000  0.75000000  1
  Ba  Ba3  1  0.00000000  0.39340000  0.25000000  1
  Sb  Sb4  1  0.00000000  0.95752800  0.75000000  1
  Sb  Sb5  1  0.50000000  0.54247200  0.25000000  1
  Sb  Sb6  1  0.00000000  0.75030100  0.25000000  1
  Sb  Sb7  1  0.50000000  0.74969900  0.75000000  1
  Sb  Sb8  1  0.50000000  0.45752800  0.75000000  1
  Sb  Sb9  1  0.00000000  0.04247200  0.25000000  1
  Sb  Sb10  1  0.50000000  0.25030100  0.25000000  1
  Sb  Sb11  1  0.00000000  0.24969900  0.75000000  1
  Pd  Pd12  1  0.50000000  0.68613600  0.25000000  1
  Pd  Pd13  1  0.00000000  0.81386400  0.75000000  1
  Pd  Pd14  1  0.00000000  0.18613600  0.25000000  1
  Pd  Pd15  1  0.50000000  0.31386400  0.75000000  1
