# generated using pymatgen
data_V2B3
_symmetry_space_group_name_H-M   'P 1'
_cell_length_a   3.03759000
_cell_length_b   18.39806000
_cell_length_c   2.97819200
_cell_angle_alpha   90.00000000
_cell_angle_beta   90.00000000
_cell_angle_gamma   90.00000000
_symmetry_Int_Tables_number   1
_chemical_formula_structural   V2B3
_chemical_formula_sum   'V8 B12'
_cell_volume   166.43853251
_cell_formula_units_Z   4
loop_
 _symmetry_equiv_pos_site_id
 _symmetry_equiv_pos_as_xyz
  1  'x, y, z'
loop_
 _atom_site_type_symbol
 _atom_site_label
 _atom_site_symmetry_multiplicity
 _atom_site_fract_x
 _atom_site_fract_y
 _atom_site_fract_z
 _atom_site_occupancy
  V  V0  1  0.00000000  0.42935300  0.25000000  1
  V  V1  1  0.50000000  0.07064700  0.75000000  1
  V  V2  1  0.50000000  0.20502300  0.25000000  1
  V  V3  1  0.00000000  0.29497700  0.75000000  1
  V  V4  1  0.50000000  0.92935300  0.25000000  1
  V  V5  1  0.00000000  0.57064700  0.75000000  1
  V  V6  1  0.00000000  0.70502300  0.25000000  1
  V  V7  1  0.50000000  0.79497700  0.75000000  1
  B  B8  1  0.00000000  0.02363600  0.25000000  1
  B  B9  1  0.50000000  0.47636400  0.75000000  1
  B  B10  1  0.00000000  0.11788800  0.25000000  1
  B  B11  1  0.50000000  0.38211200  0.75000000  1
  B  B12  1  0.50000000  0.33101700  0.25000000  1
  B  B13  1  0.00000000  0.16898300  0.75000000  1
  B  B14  1  0.50000000  0.52363600  0.25000000  1
  B  B15  1  0.00000000  0.97636400  0.75000000  1
  B  B16  1  0.50000000  0.61788800  0.25000000  1
  B  B17  1  0.00000000  0.88211200  0.75000000  1
  B  B18  1  0.00000000  0.83101700  0.25000000  1
  B  B19  1  0.50000000  0.66898300  0.75000000  1
