# generated using pymatgen
data_BaCuO2
_symmetry_space_group_name_H-M   'P 1'
_cell_length_a   4.02080600
_cell_length_b   16.64610400
_cell_length_c   4.09571100
_cell_angle_alpha   90.00000000
_cell_angle_beta   90.00000000
_cell_angle_gamma   90.00000000
_symmetry_Int_Tables_number   1
_chemical_formula_structural   BaCuO2
_chemical_formula_sum   'Ba4 Cu4 O8'
_cell_volume   274.12902884
_cell_formula_units_Z   4
loop_
 _symmetry_equiv_pos_site_id
 _symmetry_equiv_pos_as_xyz
  1  'x, y, z'
loop_
 _atom_site_type_symbol
 _atom_site_label
 _atom_site_symmetry_multiplicity
 _atom_site_fract_x
 _atom_site_fract_y
 _atom_site_fract_z
 _atom_site_occupancy
  Ba  Ba0  1  0.50000000  0.83637700  0.25000000  1
  Ba  Ba1  1  0.00000000  0.66362300  0.75000000  1
  Ba  Ba2  1  0.00000000  0.33637700  0.25000000  1
  Ba  Ba3  1  0.50000000  0.16362300  0.75000000  1
  Cu  Cu4  1  0.50000000  0.56157400  0.25000000  1
  Cu  Cu5  1  0.00000000  0.93842600  0.75000000  1
  Cu  Cu6  1  0.00000000  0.06157400  0.25000000  1
  Cu  Cu7  1  0.50000000  0.43842600  0.75000000  1
  O  O8  1  0.00000000  0.82430600  0.75000000  1
  O  O9  1  0.00000000  0.94818600  0.25000000  1
  O  O10  1  0.50000000  0.67569400  0.25000000  1
  O  O11  1  0.50000000  0.55181400  0.75000000  1
  O  O12  1  0.50000000  0.32430600  0.75000000  1
  O  O13  1  0.50000000  0.44818600  0.25000000  1
  O  O14  1  0.00000000  0.17569400  0.25000000  1
  O  O15  1  0.00000000  0.05181400  0.75000000  1
