# generated using pymatgen
data_TbPd
_symmetry_space_group_name_H-M   'P 1'
_cell_length_a   3.72200000
_cell_length_b   10.59289400
_cell_length_c   4.63028800
_cell_angle_alpha   90.00000000
_cell_angle_beta   90.00000000
_cell_angle_gamma   90.00000000
_symmetry_Int_Tables_number   1
_chemical_formula_structural   TbPd
_chemical_formula_sum   'Tb4 Pd4'
_cell_volume   182.55721420
_cell_formula_units_Z   4
loop_
 _symmetry_equiv_pos_site_id
 _symmetry_equiv_pos_as_xyz
  1  'x, y, z'
loop_
 _atom_site_type_symbol
 _atom_site_label
 _atom_site_symmetry_multiplicity
 _atom_site_fract_x
 _atom_site_fract_y
 _atom_site_fract_z
 _atom_site_occupancy
  Tb  Tb0  1  0.50000000  0.63702200  0.75000000  1
  Tb  Tb1  1  0.00000000  0.86297800  0.25000000  1
  Tb  Tb2  1  0.00000000  0.13702200  0.75000000  1
  Tb  Tb3  1  0.50000000  0.36297800  0.25000000  1
  Pd  Pd4  1  0.50000000  0.91442800  0.75000000  1
  Pd  Pd5  1  0.00000000  0.58557200  0.25000000  1
  Pd  Pd6  1  0.00000000  0.41442800  0.75000000  1
  Pd  Pd7  1  0.50000000  0.08557200  0.25000000  1
