# generated using pymatgen
data_YSi
_symmetry_space_group_name_H-M   'P 1'
_cell_length_a   4.28920200
_cell_length_b   10.56186400
_cell_length_c   3.84254600
_cell_angle_alpha   90.00000000
_cell_angle_beta   90.00000000
_cell_angle_gamma   90.00000000
_symmetry_Int_Tables_number   1
_chemical_formula_structural   YSi
_chemical_formula_sum   'Y4 Si4'
_cell_volume   174.07489667
_cell_formula_units_Z   4
loop_
 _symmetry_equiv_pos_site_id
 _symmetry_equiv_pos_as_xyz
  1  'x, y, z'
loop_
 _atom_site_type_symbol
 _atom_site_label
 _atom_site_symmetry_multiplicity
 _atom_site_fract_x
 _atom_site_fract_y
 _atom_site_fract_z
 _atom_site_occupancy
  Y  Y0  1  0.50000000  0.35978500  0.75000000  1
  Y  Y1  1  0.00000000  0.14021500  0.25000000  1
  Y  Y2  1  0.00000000  0.85978500  0.75000000  1
  Y  Y3  1  0.50000000  0.64021500  0.25000000  1
  Si  Si4  1  0.50000000  0.07603600  0.75000000  1
  Si  Si5  1  0.00000000  0.42396400  0.25000000  1
  Si  Si6  1  0.00000000  0.57603600  0.75000000  1
  Si  Si7  1  0.50000000  0.92396400  0.25000000  1
