# generated using pymatgen
data_LiMg2
_symmetry_space_group_name_H-M   'P 1'
_cell_length_a   10.94041800
_cell_length_b   3.41987800
_cell_length_c   7.13494934
_cell_angle_alpha   90.00000000
_cell_angle_beta   109.12321741
_cell_angle_gamma   90.00000000
_symmetry_Int_Tables_number   1
_chemical_formula_structural   LiMg2
_chemical_formula_sum   'Li4 Mg8'
_cell_volume   252.22188766
_cell_formula_units_Z   4
loop_
 _symmetry_equiv_pos_site_id
 _symmetry_equiv_pos_as_xyz
  1  'x, y, z'
loop_
 _atom_site_type_symbol
 _atom_site_label
 _atom_site_symmetry_multiplicity
 _atom_site_fract_x
 _atom_site_fract_y
 _atom_site_fract_z
 _atom_site_occupancy
  Li  Li0  1  0.33077200  0.50000000  0.43552400  1
  Li  Li1  1  0.16922800  0.00000000  0.56447600  1
  Li  Li2  1  0.83077200  0.00000000  0.43552400  1
  Li  Li3  1  0.66922800  0.50000000  0.56447600  1
  Mg  Mg4  1  0.01253500  0.50000000  0.73724100  1
  Mg  Mg5  1  0.32968100  0.50000000  0.89463200  1
  Mg  Mg6  1  0.17031900  0.00000000  0.10536800  1
  Mg  Mg7  1  0.48746500  0.00000000  0.26275900  1
  Mg  Mg8  1  0.51253500  0.00000000  0.73724100  1
  Mg  Mg9  1  0.82968100  0.00000000  0.89463200  1
  Mg  Mg10  1  0.67031900  0.50000000  0.10536800  1
  Mg  Mg11  1  0.98746500  0.50000000  0.26275900  1
