# generated using pymatgen
data_PbSe2
_symmetry_space_group_name_H-M   'P 1'
_cell_length_a   6.50530400
_cell_length_b   6.50530400
_cell_length_c   7.89826000
_cell_angle_alpha   90.00000000
_cell_angle_beta   90.00000000
_cell_angle_gamma   90.00000000
_symmetry_Int_Tables_number   1
_chemical_formula_structural   PbSe2
_chemical_formula_sum   'Pb4 Se8'
_cell_volume   334.24630802
_cell_formula_units_Z   4
loop_
 _symmetry_equiv_pos_site_id
 _symmetry_equiv_pos_as_xyz
  1  'x, y, z'
loop_
 _atom_site_type_symbol
 _atom_site_label
 _atom_site_symmetry_multiplicity
 _atom_site_fract_x
 _atom_site_fract_y
 _atom_site_fract_z
 _atom_site_occupancy
  Pb  Pb0  1  0.00000000  0.00000000  0.25000000  1
  Pb  Pb1  1  0.00000000  0.00000000  0.75000000  1
  Pb  Pb2  1  0.50000000  0.50000000  0.75000000  1
  Pb  Pb3  1  0.50000000  0.50000000  0.25000000  1
  Se  Se4  1  0.13091700  0.63091700  0.00000000  1
  Se  Se5  1  0.36908300  0.86908300  0.50000000  1
  Se  Se6  1  0.13091700  0.36908300  0.50000000  1
  Se  Se7  1  0.36908300  0.13091700  0.00000000  1
  Se  Se8  1  0.63091700  0.13091700  0.50000000  1
  Se  Se9  1  0.86908300  0.36908300  0.00000000  1
  Se  Se10  1  0.63091700  0.86908300  0.00000000  1
  Se  Se11  1  0.86908300  0.63091700  0.50000000  1
