# generated using pymatgen
data_Nd2Mg
_symmetry_space_group_name_H-M   'P 1'
_cell_length_a   3.82985800
_cell_length_b   17.56136200
_cell_length_c   5.64520700
_cell_angle_alpha   90.00000000
_cell_angle_beta   90.00000000
_cell_angle_gamma   90.00000000
_symmetry_Int_Tables_number   1
_chemical_formula_structural   Nd2Mg
_chemical_formula_sum   'Nd8 Mg4'
_cell_volume   379.68263821
_cell_formula_units_Z   4
loop_
 _symmetry_equiv_pos_site_id
 _symmetry_equiv_pos_as_xyz
  1  'x, y, z'
loop_
 _atom_site_type_symbol
 _atom_site_label
 _atom_site_symmetry_multiplicity
 _atom_site_fract_x
 _atom_site_fract_y
 _atom_site_fract_z
 _atom_site_occupancy
  Nd  Nd0  1  0.00000000  0.91224200  0.25000000  1
  Nd  Nd1  1  0.50000000  0.72767200  0.25000000  1
  Nd  Nd2  1  0.50000000  0.58775800  0.75000000  1
  Nd  Nd3  1  0.00000000  0.77232800  0.75000000  1
  Nd  Nd4  1  0.50000000  0.41224200  0.25000000  1
  Nd  Nd5  1  0.00000000  0.22767200  0.25000000  1
  Nd  Nd6  1  0.00000000  0.08775800  0.75000000  1
  Nd  Nd7  1  0.50000000  0.27232800  0.75000000  1
  Mg  Mg8  1  0.00000000  0.56826000  0.25000000  1
  Mg  Mg9  1  0.50000000  0.93174000  0.75000000  1
  Mg  Mg10  1  0.50000000  0.06826000  0.25000000  1
  Mg  Mg11  1  0.00000000  0.43174000  0.75000000  1
