# generated using pymatgen
data_CdAuO2
_symmetry_space_group_name_H-M   'P 1'
_cell_length_a   6.32150800
_cell_length_b   11.83206800
_cell_length_c   3.21739900
_cell_angle_alpha   90.00000000
_cell_angle_beta   90.00000000
_cell_angle_gamma   90.00000000
_symmetry_Int_Tables_number   1
_chemical_formula_structural   CdAuO2
_chemical_formula_sum   'Cd4 Au4 O8'
_cell_volume   240.65022458
_cell_formula_units_Z   4
loop_
 _symmetry_equiv_pos_site_id
 _symmetry_equiv_pos_as_xyz
  1  'x, y, z'
loop_
 _atom_site_type_symbol
 _atom_site_label
 _atom_site_symmetry_multiplicity
 _atom_site_fract_x
 _atom_site_fract_y
 _atom_site_fract_z
 _atom_site_occupancy
  Cd  Cd0  1  0.25000000  0.25000000  0.50000000  1
  Cd  Cd1  1  0.75000000  0.25000000  0.50000000  1
  Cd  Cd2  1  0.75000000  0.75000000  0.50000000  1
  Cd  Cd3  1  0.25000000  0.75000000  0.50000000  1
  Au  Au4  1  0.00000000  0.00000000  0.00000000  1
  Au  Au5  1  0.50000000  0.00000000  0.00000000  1
  Au  Au6  1  0.50000000  0.50000000  0.00000000  1
  Au  Au7  1  0.00000000  0.50000000  0.00000000  1
  O  O8  1  0.00000000  0.17707500  0.00000000  1
  O  O9  1  0.50000000  0.32292500  0.00000000  1
  O  O10  1  0.00000000  0.39104100  0.50000000  1
  O  O11  1  0.50000000  0.10895900  0.50000000  1
  O  O12  1  0.50000000  0.67707500  0.00000000  1
  O  O13  1  0.00000000  0.82292500  0.00000000  1
  O  O14  1  0.50000000  0.89104100  0.50000000  1
  O  O15  1  0.00000000  0.60895900  0.50000000  1
