# generated using pymatgen
data_Rb(FeAs)2
_symmetry_space_group_name_H-M   'P 1'
_cell_length_a   3.75679400
_cell_length_b   3.75679400
_cell_length_c   14.48779000
_cell_angle_alpha   90.00000000
_cell_angle_beta   90.00000000
_cell_angle_gamma   90.00000000
_symmetry_Int_Tables_number   1
_chemical_formula_structural   Rb(FeAs)2
_chemical_formula_sum   'Rb2 Fe4 As4'
_cell_volume   204.47344095
_cell_formula_units_Z   2
loop_
 _symmetry_equiv_pos_site_id
 _symmetry_equiv_pos_as_xyz
  1  'x, y, z'
loop_
 _atom_site_type_symbol
 _atom_site_label
 _atom_site_symmetry_multiplicity
 _atom_site_fract_x
 _atom_site_fract_y
 _atom_site_fract_z
 _atom_site_occupancy
  Rb  Rb0  1  0.00000000  0.00000000  0.00000000  1
  Rb  Rb1  1  0.50000000  0.50000000  0.50000000  1
  Fe  Fe2  1  0.00000000  0.50000000  0.25000000  1
  Fe  Fe3  1  0.50000000  0.00000000  0.25000000  1
  Fe  Fe4  1  0.50000000  0.00000000  0.75000000  1
  Fe  Fe5  1  0.00000000  0.50000000  0.75000000  1
  As  As6  1  0.00000000  0.00000000  0.34660300  1
  As  As7  1  0.50000000  0.50000000  0.15339700  1
  As  As8  1  0.50000000  0.50000000  0.84660300  1
  As  As9  1  0.00000000  0.00000000  0.65339700  1
