# generated using pymatgen
data_Mg3Cu
_symmetry_space_group_name_H-M   'P 1'
_cell_length_a   3.24659800
_cell_length_b   4.82167800
_cell_length_c   9.75795800
_cell_angle_alpha   90.00000000
_cell_angle_beta   90.00000000
_cell_angle_gamma   90.00000000
_symmetry_Int_Tables_number   1
_chemical_formula_structural   Mg3Cu
_chemical_formula_sum   'Mg6 Cu2'
_cell_volume   152.75156391
_cell_formula_units_Z   2
loop_
 _symmetry_equiv_pos_site_id
 _symmetry_equiv_pos_as_xyz
  1  'x, y, z'
loop_
 _atom_site_type_symbol
 _atom_site_label
 _atom_site_symmetry_multiplicity
 _atom_site_fract_x
 _atom_site_fract_y
 _atom_site_fract_z
 _atom_site_occupancy
  Mg  Mg0  1  0.00000000  0.93411150  0.28264550  1
  Mg  Mg1  1  0.50000000  0.90882800  0.00000000  1
  Mg  Mg2  1  0.50000000  0.43411150  0.21735450  1
  Mg  Mg3  1  0.50000000  0.43411150  0.78264550  1
  Mg  Mg4  1  0.00000000  0.40882800  0.50000000  1
  Mg  Mg5  1  0.00000000  0.93411150  0.71735450  1
  Cu  Cu6  1  0.00000000  0.38962200  0.00000000  1
  Cu  Cu7  1  0.50000000  0.88962200  0.50000000  1
