# generated using pymatgen
data_SmHoTl2
_symmetry_space_group_name_H-M   'P 1'
_cell_length_a   7.65006400
_cell_length_b   7.65006400
_cell_length_c   7.65006400
_cell_angle_alpha   90.00000000
_cell_angle_beta   90.00000000
_cell_angle_gamma   90.00000000
_symmetry_Int_Tables_number   1
_chemical_formula_structural   SmHoTl2
_chemical_formula_sum   'Sm4 Ho4 Tl8'
_cell_volume   447.70836141
_cell_formula_units_Z   4
loop_
 _symmetry_equiv_pos_site_id
 _symmetry_equiv_pos_as_xyz
  1  'x, y, z'
loop_
 _atom_site_type_symbol
 _atom_site_label
 _atom_site_symmetry_multiplicity
 _atom_site_fract_x
 _atom_site_fract_y
 _atom_site_fract_z
 _atom_site_occupancy
  Sm  Sm0  1  0.00000000  0.00000000  0.00000000  1
  Sm  Sm1  1  0.00000000  0.50000000  0.50000000  1
  Sm  Sm2  1  0.50000000  0.00000000  0.50000000  1
  Sm  Sm3  1  0.50000000  0.50000000  0.00000000  1
  Ho  Ho4  1  0.50000000  0.00000000  0.00000000  1
  Ho  Ho5  1  0.50000000  0.50000000  0.50000000  1
  Ho  Ho6  1  0.00000000  0.00000000  0.50000000  1
  Ho  Ho7  1  0.00000000  0.50000000  0.00000000  1
  Tl  Tl8  1  0.25000000  0.75000000  0.75000000  1
  Tl  Tl9  1  0.25000000  0.25000000  0.75000000  1
  Tl  Tl10  1  0.25000000  0.25000000  0.25000000  1
  Tl  Tl11  1  0.25000000  0.75000000  0.25000000  1
  Tl  Tl12  1  0.75000000  0.75000000  0.25000000  1
  Tl  Tl13  1  0.75000000  0.25000000  0.25000000  1
  Tl  Tl14  1  0.75000000  0.25000000  0.75000000  1
  Tl  Tl15  1  0.75000000  0.75000000  0.75000000  1
