# generated using pymatgen
data_SrAs3
_symmetry_space_group_name_H-M   'P 1'
_cell_length_a   9.74487000
_cell_length_b   7.74860600
_cell_length_c   5.95348871
_cell_angle_alpha   90.00000000
_cell_angle_beta   112.90526510
_cell_angle_gamma   90.00000000
_symmetry_Int_Tables_number   1
_chemical_formula_structural   SrAs3
_chemical_formula_sum   'Sr4 As12'
_cell_volume   414.09630080
_cell_formula_units_Z   4
loop_
 _symmetry_equiv_pos_site_id
 _symmetry_equiv_pos_as_xyz
  1  'x, y, z'
loop_
 _atom_site_type_symbol
 _atom_site_label
 _atom_site_symmetry_multiplicity
 _atom_site_fract_x
 _atom_site_fract_y
 _atom_site_fract_z
 _atom_site_occupancy
  Sr  Sr0  1  0.16461200  0.50000000  0.33221800  1
  Sr  Sr1  1  0.83538800  0.50000000  0.66778200  1
  Sr  Sr2  1  0.66461200  0.00000000  0.33221800  1
  Sr  Sr3  1  0.33538800  0.00000000  0.66778200  1
  As  As4  1  0.13818700  0.26868100  0.80473200  1
  As  As5  1  0.86181300  0.26868100  0.19526800  1
  As  As6  1  0.49487500  0.50000000  0.78513300  1
  As  As7  1  0.50512500  0.50000000  0.21486700  1
  As  As8  1  0.13818700  0.73131900  0.80473200  1
  As  As9  1  0.86181300  0.73131900  0.19526800  1
  As  As10  1  0.63818700  0.76868100  0.80473200  1
  As  As11  1  0.36181300  0.76868100  0.19526800  1
  As  As12  1  0.99487500  0.00000000  0.78513300  1
  As  As13  1  0.00512500  0.00000000  0.21486700  1
  As  As14  1  0.63818700  0.23131900  0.80473200  1
  As  As15  1  0.36181300  0.23131900  0.19526800  1
