# generated using pymatgen
data_CaAgO2
_symmetry_space_group_name_H-M   'P 1'
_cell_length_a   6.79760200
_cell_length_b   9.64498800
_cell_length_c   3.34701900
_cell_angle_alpha   90.00000000
_cell_angle_beta   90.00000000
_cell_angle_gamma   90.00000000
_symmetry_Int_Tables_number   1
_chemical_formula_structural   CaAgO2
_chemical_formula_sum   'Ca4 Ag4 O8'
_cell_volume   219.43990288
_cell_formula_units_Z   4
loop_
 _symmetry_equiv_pos_site_id
 _symmetry_equiv_pos_as_xyz
  1  'x, y, z'
loop_
 _atom_site_type_symbol
 _atom_site_label
 _atom_site_symmetry_multiplicity
 _atom_site_fract_x
 _atom_site_fract_y
 _atom_site_fract_z
 _atom_site_occupancy
  Ca  Ca0  1  0.25000000  0.25000000  0.00000000  1
  Ca  Ca1  1  0.25000000  0.75000000  0.00000000  1
  Ca  Ca2  1  0.75000000  0.75000000  0.00000000  1
  Ca  Ca3  1  0.75000000  0.25000000  0.00000000  1
  Ag  Ag4  1  0.50000000  0.00000000  0.50000000  1
  Ag  Ag5  1  0.00000000  0.00000000  0.50000000  1
  Ag  Ag6  1  0.00000000  0.50000000  0.50000000  1
  Ag  Ag7  1  0.50000000  0.50000000  0.50000000  1
  O  O8  1  0.50000000  0.72281000  0.50000000  1
  O  O9  1  0.70881900  0.00000000  0.00000000  1
  O  O10  1  0.29118100  0.00000000  0.00000000  1
  O  O11  1  0.50000000  0.27719000  0.50000000  1
  O  O12  1  0.00000000  0.22281000  0.50000000  1
  O  O13  1  0.20881900  0.50000000  0.00000000  1
  O  O14  1  0.79118100  0.50000000  0.00000000  1
  O  O15  1  0.00000000  0.77719000  0.50000000  1
