# generated using pymatgen
data_Ti2H4Pd
_symmetry_space_group_name_H-M   'P 1'
_cell_length_a   2.93888600
_cell_length_b   2.93888600
_cell_length_c   13.21802800
_cell_angle_alpha   90.00000000
_cell_angle_beta   90.00000000
_cell_angle_gamma   90.00000000
_symmetry_Int_Tables_number   1
_chemical_formula_structural   Ti2H4Pd
_chemical_formula_sum   'Ti4 H8 Pd2'
_cell_volume   114.16478091
_cell_formula_units_Z   2
loop_
 _symmetry_equiv_pos_site_id
 _symmetry_equiv_pos_as_xyz
  1  'x, y, z'
loop_
 _atom_site_type_symbol
 _atom_site_label
 _atom_site_symmetry_multiplicity
 _atom_site_fract_x
 _atom_site_fract_y
 _atom_site_fract_z
 _atom_site_occupancy
  Ti  Ti0  1  0.00000000  0.00000000  0.34559800  1
  Ti  Ti1  1  0.50000000  0.50000000  0.15440200  1
  Ti  Ti2  1  0.50000000  0.50000000  0.84559800  1
  Ti  Ti3  1  0.00000000  0.00000000  0.65440200  1
  H  H4  1  0.50000000  0.50000000  0.36772100  1
  H  H5  1  0.00000000  0.00000000  0.13227900  1
  H  H6  1  0.00000000  0.50000000  0.25000000  1
  H  H7  1  0.50000000  0.00000000  0.25000000  1
  H  H8  1  0.00000000  0.00000000  0.86772100  1
  H  H9  1  0.50000000  0.50000000  0.63227900  1
  H  H10  1  0.50000000  0.00000000  0.75000000  1
  H  H11  1  0.00000000  0.50000000  0.75000000  1
  Pd  Pd12  1  0.00000000  0.00000000  0.00000000  1
  Pd  Pd13  1  0.50000000  0.50000000  0.50000000  1
