# generated using pymatgen
data_TbNi
_symmetry_space_group_name_H-M   'P 1'
_cell_length_a   3.70135000
_cell_length_b   10.22578400
_cell_length_c   4.26890500
_cell_angle_alpha   90.00000000
_cell_angle_beta   90.00000000
_cell_angle_gamma   90.00000000
_symmetry_Int_Tables_number   1
_chemical_formula_structural   TbNi
_chemical_formula_sum   'Tb4 Ni4'
_cell_volume   161.57466307
_cell_formula_units_Z   4
loop_
 _symmetry_equiv_pos_site_id
 _symmetry_equiv_pos_as_xyz
  1  'x, y, z'
loop_
 _atom_site_type_symbol
 _atom_site_label
 _atom_site_symmetry_multiplicity
 _atom_site_fract_x
 _atom_site_fract_y
 _atom_site_fract_z
 _atom_site_occupancy
  Tb  Tb0  1  0.50000000  0.63881400  0.75000000  1
  Tb  Tb1  1  0.00000000  0.86118600  0.25000000  1
  Tb  Tb2  1  0.00000000  0.13881400  0.75000000  1
  Tb  Tb3  1  0.50000000  0.36118600  0.25000000  1
  Ni  Ni4  1  0.50000000  0.92727100  0.75000000  1
  Ni  Ni5  1  0.00000000  0.57272900  0.25000000  1
  Ni  Ni6  1  0.00000000  0.42727100  0.75000000  1
  Ni  Ni7  1  0.50000000  0.07272900  0.25000000  1
