# generated using pymatgen
data_ScSi
_symmetry_space_group_name_H-M   'P 1'
_cell_length_a   4.00254600
_cell_length_b   9.90557400
_cell_length_c   3.66793100
_cell_angle_alpha   90.00000000
_cell_angle_beta   90.00000000
_cell_angle_gamma   90.00000000
_symmetry_Int_Tables_number   1
_chemical_formula_structural   ScSi
_chemical_formula_sum   'Sc4 Si4'
_cell_volume   145.42435151
_cell_formula_units_Z   4
loop_
 _symmetry_equiv_pos_site_id
 _symmetry_equiv_pos_as_xyz
  1  'x, y, z'
loop_
 _atom_site_type_symbol
 _atom_site_label
 _atom_site_symmetry_multiplicity
 _atom_site_fract_x
 _atom_site_fract_y
 _atom_site_fract_z
 _atom_site_occupancy
  Sc  Sc0  1  0.50000000  0.36111900  0.75000000  1
  Sc  Sc1  1  0.00000000  0.13888100  0.25000000  1
  Sc  Sc2  1  0.00000000  0.86111900  0.75000000  1
  Sc  Sc3  1  0.50000000  0.63888100  0.25000000  1
  Si  Si4  1  0.50000000  0.08129200  0.75000000  1
  Si  Si5  1  0.00000000  0.41870800  0.25000000  1
  Si  Si6  1  0.00000000  0.58129200  0.75000000  1
  Si  Si7  1  0.50000000  0.91870800  0.25000000  1
