# generated using pymatgen
data_LaMnN3
_symmetry_space_group_name_H-M   'P 1'
_cell_length_a   4.03986200
_cell_length_b   12.20931600
_cell_length_c   5.32719700
_cell_angle_alpha   90.00000000
_cell_angle_beta   90.00000000
_cell_angle_gamma   90.00000000
_symmetry_Int_Tables_number   1
_chemical_formula_structural   LaMnN3
_chemical_formula_sum   'La4 Mn4 N12'
_cell_volume   262.75840781
_cell_formula_units_Z   4
loop_
 _symmetry_equiv_pos_site_id
 _symmetry_equiv_pos_as_xyz
  1  'x, y, z'
loop_
 _atom_site_type_symbol
 _atom_site_label
 _atom_site_symmetry_multiplicity
 _atom_site_fract_x
 _atom_site_fract_y
 _atom_site_fract_z
 _atom_site_occupancy
  La  La0  1  0.00000000  0.63050100  0.25000000  1
  La  La1  1  0.50000000  0.86949900  0.75000000  1
  La  La2  1  0.50000000  0.13050100  0.25000000  1
  La  La3  1  0.00000000  0.36949900  0.75000000  1
  Mn  Mn4  1  0.50000000  0.59340800  0.75000000  1
  Mn  Mn5  1  0.00000000  0.90659200  0.25000000  1
  Mn  Mn6  1  0.00000000  0.09340800  0.75000000  1
  Mn  Mn7  1  0.50000000  0.40659200  0.25000000  1
  N  N8  1  0.15896900  0.69304800  0.75000000  1
  N  N9  1  0.84103100  0.69304800  0.75000000  1
  N  N10  1  0.00000000  0.00000000  0.00000000  1
  N  N11  1  0.34103100  0.80695200  0.25000000  1
  N  N12  1  0.65896900  0.80695200  0.25000000  1
  N  N13  1  0.00000000  0.00000000  0.50000000  1
  N  N14  1  0.65896900  0.19304800  0.75000000  1
  N  N15  1  0.34103100  0.19304800  0.75000000  1
  N  N16  1  0.50000000  0.50000000  0.00000000  1
  N  N17  1  0.84103100  0.30695200  0.25000000  1
  N  N18  1  0.15896900  0.30695200  0.25000000  1
  N  N19  1  0.50000000  0.50000000  0.50000000  1
