# generated using pymatgen
data_Sr3MnN3
_symmetry_space_group_name_H-M   'P 1'
_cell_length_a   7.73377242
_cell_length_b   7.73377242
_cell_length_c   5.26876200
_cell_angle_alpha   90.00000000
_cell_angle_beta   90.00000000
_cell_angle_gamma   120.00000000
_symmetry_Int_Tables_number   1
_chemical_formula_structural   Sr3MnN3
_chemical_formula_sum   'Sr6 Mn2 N6'
_cell_volume   272.91159613
_cell_formula_units_Z   2
loop_
 _symmetry_equiv_pos_site_id
 _symmetry_equiv_pos_as_xyz
  1  'x, y, z'
loop_
 _atom_site_type_symbol
 _atom_site_label
 _atom_site_symmetry_multiplicity
 _atom_site_fract_x
 _atom_site_fract_y
 _atom_site_fract_z
 _atom_site_occupancy
  Sr  Sr0  1  0.72454100  0.08537500  0.25000000  1
  Sr  Sr1  1  0.63916600  0.72454100  0.75000000  1
  Sr  Sr2  1  0.08537500  0.36083400  0.75000000  1
  Sr  Sr3  1  0.91462500  0.63916600  0.25000000  1
  Sr  Sr4  1  0.36083400  0.27545900  0.25000000  1
  Sr  Sr5  1  0.27545900  0.91462500  0.75000000  1
  Mn  Mn6  1  0.66666667  0.33333333  0.75000000  1
  Mn  Mn7  1  0.33333333  0.66666667  0.25000000  1
  N  N8  1  0.56869200  0.68949000  0.25000000  1
  N  N9  1  0.87920200  0.56869200  0.75000000  1
  N  N10  1  0.68949000  0.12079800  0.75000000  1
  N  N11  1  0.31051000  0.87920200  0.25000000  1
  N  N12  1  0.12079800  0.43130800  0.25000000  1
  N  N13  1  0.43130800  0.31051000  0.75000000  1
