# generated using pymatgen
data_Ge3C
_symmetry_space_group_name_H-M   'P 1'
_cell_length_a   5.75429029
_cell_length_b   5.75429029
_cell_length_c   4.45729300
_cell_angle_alpha   90.00000000
_cell_angle_beta   90.00000000
_cell_angle_gamma   120.00000000
_symmetry_Int_Tables_number   1
_chemical_formula_structural   Ge3C
_chemical_formula_sum   'Ge6 C2'
_cell_volume   127.81603765
_cell_formula_units_Z   2
loop_
 _symmetry_equiv_pos_site_id
 _symmetry_equiv_pos_as_xyz
  1  'x, y, z'
loop_
 _atom_site_type_symbol
 _atom_site_label
 _atom_site_symmetry_multiplicity
 _atom_site_fract_x
 _atom_site_fract_y
 _atom_site_fract_z
 _atom_site_occupancy
  Ge  Ge0  1  0.35162500  0.17581250  0.75000000  1
  Ge  Ge1  1  0.82418750  0.17581250  0.75000000  1
  Ge  Ge2  1  0.82418750  0.64837500  0.75000000  1
  Ge  Ge3  1  0.64837500  0.82418750  0.25000000  1
  Ge  Ge4  1  0.17581250  0.82418750  0.25000000  1
  Ge  Ge5  1  0.17581250  0.35162500  0.25000000  1
  C  C6  1  0.66666667  0.33333333  0.25000000  1
  C  C7  1  0.33333333  0.66666667  0.75000000  1
