# generated using pymatgen
data_LiMg
_symmetry_space_group_name_H-M   'P 1'
_cell_length_a   10.87318800
_cell_length_b   3.32980600
_cell_length_c   7.18993535
_cell_angle_alpha   90.00000000
_cell_angle_beta   108.95980315
_cell_angle_gamma   90.00000000
_symmetry_Int_Tables_number   1
_chemical_formula_structural   LiMg
_chemical_formula_sum   'Li6 Mg6'
_cell_volume   246.19298397
_cell_formula_units_Z   6
loop_
 _symmetry_equiv_pos_site_id
 _symmetry_equiv_pos_as_xyz
  1  'x, y, z'
loop_
 _atom_site_type_symbol
 _atom_site_label
 _atom_site_symmetry_multiplicity
 _atom_site_fract_x
 _atom_site_fract_y
 _atom_site_fract_z
 _atom_site_occupancy
  Li  Li0  1  0.65720200  0.50000000  0.84936400  1
  Li  Li1  1  0.00000000  0.50000000  0.00000000  1
  Li  Li2  1  0.84279800  0.00000000  0.15063600  1
  Li  Li3  1  0.15720200  0.00000000  0.84936400  1
  Li  Li4  1  0.50000000  0.00000000  0.00000000  1
  Li  Li5  1  0.34279800  0.50000000  0.15063600  1
  Mg  Mg6  1  0.67774200  0.50000000  0.31710600  1
  Mg  Mg7  1  0.00000000  0.50000000  0.50000000  1
  Mg  Mg8  1  0.82225800  0.00000000  0.68289400  1
  Mg  Mg9  1  0.17774200  0.00000000  0.31710600  1
  Mg  Mg10  1  0.50000000  0.00000000  0.50000000  1
  Mg  Mg11  1  0.32225800  0.50000000  0.68289400  1
