# generated using pymatgen
data_TbAlCu2
_symmetry_space_group_name_H-M   'P 1'
_cell_length_a   6.46550800
_cell_length_b   6.46550800
_cell_length_c   6.46550800
_cell_angle_alpha   90.00000000
_cell_angle_beta   90.00000000
_cell_angle_gamma   90.00000000
_symmetry_Int_Tables_number   1
_chemical_formula_structural   TbAlCu2
_chemical_formula_sum   'Tb4 Al4 Cu8'
_cell_volume   270.27629708
_cell_formula_units_Z   4
loop_
 _symmetry_equiv_pos_site_id
 _symmetry_equiv_pos_as_xyz
  1  'x, y, z'
loop_
 _atom_site_type_symbol
 _atom_site_label
 _atom_site_symmetry_multiplicity
 _atom_site_fract_x
 _atom_site_fract_y
 _atom_site_fract_z
 _atom_site_occupancy
  Tb  Tb0  1  0.00000000  0.00000000  0.00000000  1
  Tb  Tb1  1  0.00000000  0.50000000  0.50000000  1
  Tb  Tb2  1  0.50000000  0.00000000  0.50000000  1
  Tb  Tb3  1  0.50000000  0.50000000  0.00000000  1
  Al  Al4  1  0.50000000  0.00000000  0.00000000  1
  Al  Al5  1  0.50000000  0.50000000  0.50000000  1
  Al  Al6  1  0.00000000  0.00000000  0.50000000  1
  Al  Al7  1  0.00000000  0.50000000  0.00000000  1
  Cu  Cu8  1  0.25000000  0.25000000  0.75000000  1
  Cu  Cu9  1  0.25000000  0.75000000  0.75000000  1
  Cu  Cu10  1  0.25000000  0.75000000  0.25000000  1
  Cu  Cu11  1  0.25000000  0.25000000  0.25000000  1
  Cu  Cu12  1  0.75000000  0.25000000  0.25000000  1
  Cu  Cu13  1  0.75000000  0.75000000  0.25000000  1
  Cu  Cu14  1  0.75000000  0.75000000  0.75000000  1
  Cu  Cu15  1  0.75000000  0.25000000  0.75000000  1
