# generated using pymatgen
data_NdMnSi2
_symmetry_space_group_name_H-M   'P 1'
_cell_length_a   4.07435800
_cell_length_b   17.59558400
_cell_length_c   3.98609400
_cell_angle_alpha   90.00000000
_cell_angle_beta   90.00000000
_cell_angle_gamma   90.00000000
_symmetry_Int_Tables_number   1
_chemical_formula_structural   NdMnSi2
_chemical_formula_sum   'Nd4 Mn4 Si8'
_cell_volume   285.76590275
_cell_formula_units_Z   4
loop_
 _symmetry_equiv_pos_site_id
 _symmetry_equiv_pos_as_xyz
  1  'x, y, z'
loop_
 _atom_site_type_symbol
 _atom_site_label
 _atom_site_symmetry_multiplicity
 _atom_site_fract_x
 _atom_site_fract_y
 _atom_site_fract_z
 _atom_site_occupancy
  Nd  Nd0  1  0.50000000  0.39872900  0.75000000  1
  Nd  Nd1  1  0.00000000  0.10127100  0.25000000  1
  Nd  Nd2  1  0.00000000  0.89872900  0.75000000  1
  Nd  Nd3  1  0.50000000  0.60127100  0.25000000  1
  Mn  Mn4  1  0.50000000  0.25023000  0.25000000  1
  Mn  Mn5  1  0.00000000  0.24977000  0.75000000  1
  Mn  Mn6  1  0.00000000  0.75023000  0.25000000  1
  Mn  Mn7  1  0.50000000  0.74977000  0.75000000  1
  Si  Si8  1  0.50000000  0.17782800  0.75000000  1
  Si  Si9  1  0.00000000  0.32217200  0.25000000  1
  Si  Si10  1  0.00000000  0.46346500  0.25000000  1
  Si  Si11  1  0.50000000  0.03653500  0.75000000  1
  Si  Si12  1  0.00000000  0.67782800  0.75000000  1
  Si  Si13  1  0.50000000  0.82217200  0.25000000  1
  Si  Si14  1  0.50000000  0.96346500  0.25000000  1
  Si  Si15  1  0.00000000  0.53653500  0.75000000  1
