# generated using pymatgen
data_Yb3Zr
_symmetry_space_group_name_H-M   'P 1'
_cell_length_a   8.01633200
_cell_length_b   8.01633200
_cell_length_c   8.01633200
_cell_angle_alpha   90.00000000
_cell_angle_beta   90.00000000
_cell_angle_gamma   90.00000000
_symmetry_Int_Tables_number   1
_chemical_formula_structural   Yb3Zr
_chemical_formula_sum   'Yb12 Zr4'
_cell_volume   515.14214998
_cell_formula_units_Z   4
loop_
 _symmetry_equiv_pos_site_id
 _symmetry_equiv_pos_as_xyz
  1  'x, y, z'
loop_
 _atom_site_type_symbol
 _atom_site_label
 _atom_site_symmetry_multiplicity
 _atom_site_fract_x
 _atom_site_fract_y
 _atom_site_fract_z
 _atom_site_occupancy
  Yb  Yb0  1  0.25000000  0.75000000  0.75000000  1
  Yb  Yb1  1  0.25000000  0.25000000  0.75000000  1
  Yb  Yb2  1  0.50000000  0.00000000  0.00000000  1
  Yb  Yb3  1  0.25000000  0.25000000  0.25000000  1
  Yb  Yb4  1  0.25000000  0.75000000  0.25000000  1
  Yb  Yb5  1  0.50000000  0.50000000  0.50000000  1
  Yb  Yb6  1  0.75000000  0.75000000  0.25000000  1
  Yb  Yb7  1  0.75000000  0.25000000  0.25000000  1
  Yb  Yb8  1  0.00000000  0.00000000  0.50000000  1
  Yb  Yb9  1  0.75000000  0.25000000  0.75000000  1
  Yb  Yb10  1  0.75000000  0.75000000  0.75000000  1
  Yb  Yb11  1  0.00000000  0.50000000  0.00000000  1
  Zr  Zr12  1  0.00000000  0.00000000  0.00000000  1
  Zr  Zr13  1  0.00000000  0.50000000  0.50000000  1
  Zr  Zr14  1  0.50000000  0.00000000  0.50000000  1
  Zr  Zr15  1  0.50000000  0.50000000  0.00000000  1
