# generated using pymatgen
data_LuSi2Ni
_symmetry_space_group_name_H-M   'P 1'
_cell_length_a   3.90201000
_cell_length_b   16.50883000
_cell_length_c   3.89232100
_cell_angle_alpha   90.00000000
_cell_angle_beta   90.00000000
_cell_angle_gamma   90.00000000
_symmetry_Int_Tables_number   1
_chemical_formula_structural   LuSi2Ni
_chemical_formula_sum   'Lu4 Si8 Ni4'
_cell_volume   250.73405412
_cell_formula_units_Z   4
loop_
 _symmetry_equiv_pos_site_id
 _symmetry_equiv_pos_as_xyz
  1  'x, y, z'
loop_
 _atom_site_type_symbol
 _atom_site_label
 _atom_site_symmetry_multiplicity
 _atom_site_fract_x
 _atom_site_fract_y
 _atom_site_fract_z
 _atom_site_occupancy
  Lu  Lu0  1  0.00000000  0.10482700  0.25000000  1
  Lu  Lu1  1  0.50000000  0.39517300  0.75000000  1
  Lu  Lu2  1  0.50000000  0.60482700  0.25000000  1
  Lu  Lu3  1  0.00000000  0.89517300  0.75000000  1
  Si  Si4  1  0.00000000  0.46043600  0.25000000  1
  Si  Si5  1  0.50000000  0.03956400  0.75000000  1
  Si  Si6  1  0.50000000  0.24975700  0.25000000  1
  Si  Si7  1  0.00000000  0.25024300  0.75000000  1
  Si  Si8  1  0.50000000  0.96043600  0.25000000  1
  Si  Si9  1  0.00000000  0.53956400  0.75000000  1
  Si  Si10  1  0.00000000  0.74975700  0.25000000  1
  Si  Si11  1  0.50000000  0.75024300  0.75000000  1
  Ni  Ni12  1  0.00000000  0.32539300  0.25000000  1
  Ni  Ni13  1  0.50000000  0.17460700  0.75000000  1
  Ni  Ni14  1  0.50000000  0.82539300  0.25000000  1
  Ni  Ni15  1  0.00000000  0.67460700  0.75000000  1
