# generated using pymatgen
data_Ba6Tl2NCl
_symmetry_space_group_name_H-M   'P 1'
_cell_length_a   11.72843200
_cell_length_b   11.72843200
_cell_length_c   11.72843200
_cell_angle_alpha   90.00000000
_cell_angle_beta   90.00000000
_cell_angle_gamma   90.00000000
_symmetry_Int_Tables_number   1
_chemical_formula_structural   Ba6Tl2NCl
_chemical_formula_sum   'Ba24 Tl8 N4 Cl4'
_cell_volume   1613.31756651
_cell_formula_units_Z   4
loop_
 _symmetry_equiv_pos_site_id
 _symmetry_equiv_pos_as_xyz
  1  'x, y, z'
loop_
 _atom_site_type_symbol
 _atom_site_label
 _atom_site_symmetry_multiplicity
 _atom_site_fract_x
 _atom_site_fract_y
 _atom_site_fract_z
 _atom_site_occupancy
  Ba  Ba0  1  0.73243000  0.00000000  0.00000000  1
  Ba  Ba1  1  0.50000000  0.76757000  0.00000000  1
  Ba  Ba2  1  0.50000000  0.23243000  0.00000000  1
  Ba  Ba3  1  0.00000000  0.00000000  0.73243000  1
  Ba  Ba4  1  0.50000000  0.00000000  0.76757000  1
  Ba  Ba5  1  0.26757000  0.00000000  0.00000000  1
  Ba  Ba6  1  0.73243000  0.50000000  0.50000000  1
  Ba  Ba7  1  0.50000000  0.26757000  0.50000000  1
  Ba  Ba8  1  0.50000000  0.73243000  0.50000000  1
  Ba  Ba9  1  0.00000000  0.50000000  0.23243000  1
  Ba  Ba10  1  0.50000000  0.50000000  0.26757000  1
  Ba  Ba11  1  0.26757000  0.50000000  0.50000000  1
  Ba  Ba12  1  0.23243000  0.00000000  0.50000000  1
  Ba  Ba13  1  0.00000000  0.76757000  0.50000000  1
  Ba  Ba14  1  0.00000000  0.23243000  0.50000000  1
  Ba  Ba15  1  0.50000000  0.00000000  0.23243000  1
  Ba  Ba16  1  0.00000000  0.00000000  0.26757000  1
  Ba  Ba17  1  0.76757000  0.00000000  0.50000000  1
  Ba  Ba18  1  0.23243000  0.50000000  0.00000000  1
  Ba  Ba19  1  0.00000000  0.26757000  0.00000000  1
  Ba  Ba20  1  0.00000000  0.73243000  0.00000000  1
  Ba  Ba21  1  0.50000000  0.50000000  0.73243000  1
  Ba  Ba22  1  0.00000000  0.50000000  0.76757000  1
  Ba  Ba23  1  0.76757000  0.50000000  0.00000000  1
  Tl  Tl24  1  0.25000000  0.75000000  0.75000000  1
  Tl  Tl25  1  0.25000000  0.25000000  0.75000000  1
  Tl  Tl26  1  0.25000000  0.25000000  0.25000000  1
  Tl  Tl27  1  0.25000000  0.75000000  0.25000000  1
  Tl  Tl28  1  0.75000000  0.75000000  0.25000000  1
  Tl  Tl29  1  0.75000000  0.25000000  0.25000000  1
  Tl  Tl30  1  0.75000000  0.25000000  0.75000000  1
  Tl  Tl31  1  0.75000000  0.75000000  0.75000000  1
  N  N32  1  0.50000000  0.00000000  0.00000000  1
  N  N33  1  0.50000000  0.50000000  0.50000000  1
  N  N34  1  0.00000000  0.00000000  0.50000000  1
  N  N35  1  0.00000000  0.50000000  0.00000000  1
  Cl  Cl36  1  0.00000000  0.00000000  0.00000000  1
  Cl  Cl37  1  0.00000000  0.50000000  0.50000000  1
  Cl  Cl38  1  0.50000000  0.00000000  0.50000000  1
  Cl  Cl39  1  0.50000000  0.50000000  0.00000000  1
