# generated using pymatgen
data_InSb3
_symmetry_space_group_name_H-M   'P 1'
_cell_length_a   7.58911000
_cell_length_b   7.58911000
_cell_length_c   7.58911000
_cell_angle_alpha   90.00000000
_cell_angle_beta   90.00000000
_cell_angle_gamma   90.00000000
_symmetry_Int_Tables_number   1
_chemical_formula_structural   InSb3
_chemical_formula_sum   'In4 Sb12'
_cell_volume   437.09168341
_cell_formula_units_Z   4
loop_
 _symmetry_equiv_pos_site_id
 _symmetry_equiv_pos_as_xyz
  1  'x, y, z'
loop_
 _atom_site_type_symbol
 _atom_site_label
 _atom_site_symmetry_multiplicity
 _atom_site_fract_x
 _atom_site_fract_y
 _atom_site_fract_z
 _atom_site_occupancy
  In  In0  1  0.00000000  0.00000000  0.00000000  1
  In  In1  1  0.00000000  0.50000000  0.50000000  1
  In  In2  1  0.50000000  0.00000000  0.50000000  1
  In  In3  1  0.50000000  0.50000000  0.00000000  1
  Sb  Sb4  1  0.25000000  0.75000000  0.75000000  1
  Sb  Sb5  1  0.25000000  0.25000000  0.75000000  1
  Sb  Sb6  1  0.50000000  0.00000000  0.00000000  1
  Sb  Sb7  1  0.25000000  0.25000000  0.25000000  1
  Sb  Sb8  1  0.25000000  0.75000000  0.25000000  1
  Sb  Sb9  1  0.50000000  0.50000000  0.50000000  1
  Sb  Sb10  1  0.75000000  0.75000000  0.25000000  1
  Sb  Sb11  1  0.75000000  0.25000000  0.25000000  1
  Sb  Sb12  1  0.00000000  0.00000000  0.50000000  1
  Sb  Sb13  1  0.75000000  0.25000000  0.75000000  1
  Sb  Sb14  1  0.75000000  0.75000000  0.75000000  1
  Sb  Sb15  1  0.00000000  0.50000000  0.00000000  1
