# generated using pymatgen
data_Li2Mg
_symmetry_space_group_name_H-M   'P 1'
_cell_length_a   3.18984600
_cell_length_b   15.22829600
_cell_length_c   5.00927400
_cell_angle_alpha   90.00000000
_cell_angle_beta   90.00000000
_cell_angle_gamma   90.00000000
_symmetry_Int_Tables_number   1
_chemical_formula_structural   Li2Mg
_chemical_formula_sum   'Li8 Mg4'
_cell_volume   243.33008849
_cell_formula_units_Z   4
loop_
 _symmetry_equiv_pos_site_id
 _symmetry_equiv_pos_as_xyz
  1  'x, y, z'
loop_
 _atom_site_type_symbol
 _atom_site_label
 _atom_site_symmetry_multiplicity
 _atom_site_fract_x
 _atom_site_fract_y
 _atom_site_fract_z
 _atom_site_occupancy
  Li  Li0  1  0.50000000  0.89924300  0.75000000  1
  Li  Li1  1  0.00000000  0.73684400  0.75000000  1
  Li  Li2  1  0.00000000  0.60075700  0.25000000  1
  Li  Li3  1  0.50000000  0.76315600  0.25000000  1
  Li  Li4  1  0.00000000  0.39924300  0.75000000  1
  Li  Li5  1  0.50000000  0.23684400  0.75000000  1
  Li  Li6  1  0.50000000  0.10075700  0.25000000  1
  Li  Li7  1  0.00000000  0.26315600  0.25000000  1
  Mg  Mg8  1  0.50000000  0.56791800  0.75000000  1
  Mg  Mg9  1  0.00000000  0.93208200  0.25000000  1
  Mg  Mg10  1  0.00000000  0.06791800  0.75000000  1
  Mg  Mg11  1  0.50000000  0.43208200  0.25000000  1
