# generated using pymatgen
data_VP2
_symmetry_space_group_name_H-M   'P 1'
_cell_length_a   8.45574600
_cell_length_b   3.10677600
_cell_length_c   7.17335127
_cell_angle_alpha   90.00000000
_cell_angle_beta   119.17408377
_cell_angle_gamma   90.00000000
_symmetry_Int_Tables_number   1
_chemical_formula_structural   VP2
_chemical_formula_sum   'V4 P8'
_cell_volume   164.53912198
_cell_formula_units_Z   4
loop_
 _symmetry_equiv_pos_site_id
 _symmetry_equiv_pos_as_xyz
  1  'x, y, z'
loop_
 _atom_site_type_symbol
 _atom_site_label
 _atom_site_symmetry_multiplicity
 _atom_site_fract_x
 _atom_site_fract_y
 _atom_site_fract_z
 _atom_site_occupancy
  V  V0  1  0.84364700  0.00000000  0.30197100  1
  V  V1  1  0.15635300  0.00000000  0.69802900  1
  V  V2  1  0.34364700  0.50000000  0.30197100  1
  V  V3  1  0.65635300  0.50000000  0.69802900  1
  P  P4  1  0.64239300  0.50000000  0.02985500  1
  P  P5  1  0.35760700  0.50000000  0.97014500  1
  P  P6  1  0.89966300  0.50000000  0.59888700  1
  P  P7  1  0.10033700  0.50000000  0.40111300  1
  P  P8  1  0.14239300  0.00000000  0.02985500  1
  P  P9  1  0.85760700  0.00000000  0.97014500  1
  P  P10  1  0.39966300  0.00000000  0.59888700  1
  P  P11  1  0.60033700  0.00000000  0.40111300  1
