# generated using pymatgen
data_Pr3(CuSn)4
_symmetry_space_group_name_H-M   'P 1'
_cell_length_a   4.61598000
_cell_length_b   7.05891800
_cell_length_c   15.13848200
_cell_angle_alpha   90.00000000
_cell_angle_beta   90.00000000
_cell_angle_gamma   90.00000000
_symmetry_Int_Tables_number   1
_chemical_formula_structural   Pr3(CuSn)4
_chemical_formula_sum   'Pr6 Cu8 Sn8'
_cell_volume   493.26963780
_cell_formula_units_Z   2
loop_
 _symmetry_equiv_pos_site_id
 _symmetry_equiv_pos_as_xyz
  1  'x, y, z'
loop_
 _atom_site_type_symbol
 _atom_site_label
 _atom_site_symmetry_multiplicity
 _atom_site_fract_x
 _atom_site_fract_y
 _atom_site_fract_z
 _atom_site_occupancy
  Pr  Pr0  1  0.00000000  0.50000000  0.00000000  1
  Pr  Pr1  1  0.50000000  0.50000000  0.63292700  1
  Pr  Pr2  1  0.00000000  0.00000000  0.86707300  1
  Pr  Pr3  1  0.50000000  0.00000000  0.50000000  1
  Pr  Pr4  1  0.00000000  0.00000000  0.13292700  1
  Pr  Pr5  1  0.50000000  0.50000000  0.36707300  1
  Cu  Cu6  1  0.00000000  0.81711400  0.66797400  1
  Cu  Cu7  1  0.00000000  0.18288600  0.66797400  1
  Cu  Cu8  1  0.50000000  0.31711400  0.83202600  1
  Cu  Cu9  1  0.50000000  0.68288600  0.83202600  1
  Cu  Cu10  1  0.50000000  0.31711400  0.16797400  1
  Cu  Cu11  1  0.50000000  0.68288600  0.16797400  1
  Cu  Cu12  1  0.00000000  0.81711400  0.33202600  1
  Cu  Cu13  1  0.00000000  0.18288600  0.33202600  1
  Sn  Sn14  1  0.50000000  0.20029000  0.00000000  1
  Sn  Sn15  1  0.50000000  0.79971000  0.00000000  1
  Sn  Sn16  1  0.50000000  0.00000000  0.71669000  1
  Sn  Sn17  1  0.00000000  0.50000000  0.78331000  1
  Sn  Sn18  1  0.00000000  0.70029000  0.50000000  1
  Sn  Sn19  1  0.00000000  0.29971000  0.50000000  1
  Sn  Sn20  1  0.00000000  0.50000000  0.21669000  1
  Sn  Sn21  1  0.50000000  0.00000000  0.28331000  1
