# generated using pymatgen
data_BaSr2Mn2(Si2O7)2
_symmetry_space_group_name_H-M   'P 1'
_cell_length_a   14.83888800
_cell_length_b   7.87491600
_cell_length_c   5.23606388
_cell_angle_alpha   90.00000000
_cell_angle_beta   93.20990791
_cell_angle_gamma   90.00000000
_symmetry_Int_Tables_number   1
_chemical_formula_structural   BaSr2Mn2(Si2O7)2
_chemical_formula_sum   'Ba2 Sr4 Mn4 Si8 O28'
_cell_volume   610.90027677
_cell_formula_units_Z   2
loop_
 _symmetry_equiv_pos_site_id
 _symmetry_equiv_pos_as_xyz
  1  'x, y, z'
loop_
 _atom_site_type_symbol
 _atom_site_label
 _atom_site_symmetry_multiplicity
 _atom_site_fract_x
 _atom_site_fract_y
 _atom_site_fract_z
 _atom_site_occupancy
  Ba  Ba0  1  0.00000000  0.22448300  0.00000000  1
  Ba  Ba1  1  0.50000000  0.72448300  0.00000000  1
  Sr  Sr2  1  0.70379350  0.40240550  0.98106500  1
  Sr  Sr3  1  0.79620650  0.90240550  0.01893500  1
  Sr  Sr4  1  0.20379350  0.90240550  0.98106500  1
  Sr  Sr5  1  0.29620650  0.40240550  0.01893500  1
  Mn  Mn6  1  0.00000000  0.69614600  0.00000000  1
  Mn  Mn7  1  0.00000000  0.89037100  0.50000000  1
  Mn  Mn8  1  0.50000000  0.19614600  0.00000000  1
  Mn  Mn9  1  0.50000000  0.39037100  0.50000000  1
  Si  Si10  1  0.82581750  0.19689850  0.48688400  1
  Si  Si11  1  0.67418250  0.69689850  0.51311600  1
  Si  Si12  1  0.63121950  0.07392250  0.46093700  1
  Si  Si13  1  0.86878050  0.57392250  0.53906300  1
  Si  Si14  1  0.32581750  0.69689850  0.48688400  1
  Si  Si15  1  0.17418250  0.19689850  0.51311600  1
  Si  Si16  1  0.13121950  0.57392250  0.46093700  1
  Si  Si17  1  0.36878050  0.07392250  0.53906300  1
  O  O18  1  0.72756450  0.13868450  0.33002800  1
  O  O19  1  0.77243550  0.63868450  0.66997200  1
  O  O20  1  0.56308450  0.02092950  0.22036200  1
  O  O21  1  0.93691550  0.52092950  0.77963800  1
  O  O22  1  0.68425950  0.69151450  0.20894300  1
  O  O23  1  0.81574050  0.19151450  0.79105700  1
  O  O24  1  0.56043850  0.37442250  0.19160100  1
  O  O25  1  0.93956150  0.87442250  0.80839900  1
  O  O26  1  0.90332050  0.08210750  0.36464800  1
  O  O27  1  0.59894100  0.21230000  0.66794400  1
  O  O28  1  0.90105900  0.71230000  0.33205600  1
  O  O29  1  0.66273650  0.89671450  0.62186600  1
  O  O30  1  0.83726350  0.39671450  0.37813400  1
  O  O31  1  0.59667950  0.58210750  0.63535200  1
  O  O32  1  0.22756450  0.63868450  0.33002800  1
  O  O33  1  0.27243550  0.13868450  0.66997200  1
  O  O34  1  0.06308450  0.52092950  0.22036200  1
  O  O35  1  0.43691550  0.02092950  0.77963800  1
  O  O36  1  0.18425950  0.19151450  0.20894300  1
  O  O37  1  0.31574050  0.69151450  0.79105700  1
  O  O38  1  0.06043850  0.87442250  0.19160100  1
  O  O39  1  0.43956150  0.37442250  0.80839900  1
  O  O40  1  0.40332050  0.58210750  0.36464800  1
  O  O41  1  0.09894100  0.71230000  0.66794400  1
  O  O42  1  0.40105900  0.21230000  0.33205600  1
  O  O43  1  0.16273650  0.39671450  0.62186600  1
  O  O44  1  0.33726350  0.89671450  0.37813400  1
  O  O45  1  0.09667950  0.08210750  0.63535200  1
