# generated using pymatgen
data_Sr2Co(SeO3)3
_symmetry_space_group_name_H-M   'P 1'
_cell_length_a   7.46007443
_cell_length_b   7.76397962
_cell_length_c   8.87212180
_cell_angle_alpha   103.24765696
_cell_angle_beta   105.47959750
_cell_angle_gamma   95.57394402
_symmetry_Int_Tables_number   1
_chemical_formula_structural   Sr2Co(SeO3)3
_chemical_formula_sum   'Sr4 Co2 Se6 O18'
_cell_volume   475.14047933
_cell_formula_units_Z   2
loop_
 _symmetry_equiv_pos_site_id
 _symmetry_equiv_pos_as_xyz
  1  'x, y, z'
loop_
 _atom_site_type_symbol
 _atom_site_label
 _atom_site_symmetry_multiplicity
 _atom_site_fract_x
 _atom_site_fract_y
 _atom_site_fract_z
 _atom_site_occupancy
  Sr  Sr0  1  0.62783319  0.48431976  0.80703429  1
  Sr  Sr1  1  0.37216681  0.51568024  0.19296571  1
  Sr  Sr2  1  0.75325981  0.90948989  0.61076989  1
  Sr  Sr3  1  0.24674019  0.09051011  0.38923011  1
  Co  Co4  1  0.09636245  0.33863119  0.75453533  1
  Co  Co5  1  0.90363755  0.66136881  0.24546467  1
  Se  Se6  1  0.23434257  0.63392587  0.58490519  1
  Se  Se7  1  0.90402817  0.21000332  0.04062514  1
  Se  Se8  1  0.36252638  0.08363851  0.79342287  1
  Se  Se9  1  0.63747362  0.91636149  0.20657713  1
  Se  Se10  1  0.09597183  0.78999668  0.95937486  1
  Se  Se11  1  0.76565743  0.36607413  0.41509481  1
  O  O12  1  0.17441428  0.63059108  0.38202094  1
  O  O13  1  0.82558572  0.36940892  0.61797906  1
  O  O14  1  0.22588225  0.40727456  0.58834384  1
  O  O15  1  0.77411775  0.59272544  0.41165616  1
  O  O16  1  0.47479717  0.69954853  0.64611091  1
  O  O17  1  0.52520283  0.30045147  0.35388909  1
  O  O18  1  0.06151314  0.81823584  0.14776753  1
  O  O19  1  0.93848686  0.18176416  0.85223247  1
  O  O20  1  0.16565166  0.58052811  0.93153280  1
  O  O21  1  0.83434834  0.41947189  0.06846720  1
  O  O22  1  0.87214067  0.75216282  0.83010508  1
  O  O23  1  0.12785933  0.24783718  0.16989492  1
  O  O24  1  0.48799787  0.87569702  0.31811418  1
  O  O25  1  0.51200213  0.12430298  0.68188582  1
  O  O26  1  0.85384801  0.94902042  0.35305751  1
  O  O27  1  0.36387677  0.30263332  0.90051685  1
  O  O28  1  0.63612323  0.69736668  0.09948315  1
  O  O29  1  0.14615199  0.05097958  0.64694249  1
