# generated using pymatgen
data_Lu7(TePd)2
_symmetry_space_group_name_H-M   'P 1'
_cell_length_a   3.89496400
_cell_length_b   9.50629200
_cell_length_c   15.35309400
_cell_angle_alpha   90.00000000
_cell_angle_beta   90.00000000
_cell_angle_gamma   90.00000000
_symmetry_Int_Tables_number   1
_chemical_formula_structural   Lu7(TePd)2
_chemical_formula_sum   'Lu14 Te4 Pd4'
_cell_volume   568.47386999
_cell_formula_units_Z   2
loop_
 _symmetry_equiv_pos_site_id
 _symmetry_equiv_pos_as_xyz
  1  'x, y, z'
loop_
 _atom_site_type_symbol
 _atom_site_label
 _atom_site_symmetry_multiplicity
 _atom_site_fract_x
 _atom_site_fract_y
 _atom_site_fract_z
 _atom_site_occupancy
  Lu  Lu0  1  0.00000000  0.37321900  0.81697600  1
  Lu  Lu1  1  0.00000000  0.37321900  0.18302400  1
  Lu  Lu2  1  0.50000000  0.49967800  0.00000000  1
  Lu  Lu3  1  0.00000000  0.58295800  0.36878600  1
  Lu  Lu4  1  0.00000000  0.58295800  0.63121400  1
  Lu  Lu5  1  0.00000000  0.73235850  0.14389450  1
  Lu  Lu6  1  0.00000000  0.73235850  0.85610550  1
  Lu  Lu7  1  0.50000000  0.87321900  0.31697600  1
  Lu  Lu8  1  0.50000000  0.87321900  0.68302400  1
  Lu  Lu9  1  0.00000000  0.99967800  0.50000000  1
  Lu  Lu10  1  0.50000000  0.08295800  0.86878600  1
  Lu  Lu11  1  0.50000000  0.08295800  0.13121400  1
  Lu  Lu12  1  0.50000000  0.23235850  0.64389450  1
  Lu  Lu13  1  0.50000000  0.23235850  0.35610550  1
  Te  Te14  1  0.50000000  0.83928300  0.00000000  1
  Te  Te15  1  0.00000000  0.23318400  0.00000000  1
  Te  Te16  1  0.00000000  0.33928300  0.50000000  1
  Te  Te17  1  0.50000000  0.73318400  0.50000000  1
  Pd  Pd18  1  0.50000000  0.56869150  0.76359650  1
  Pd  Pd19  1  0.50000000  0.56869150  0.23640350  1
  Pd  Pd20  1  0.00000000  0.06869150  0.26359650  1
  Pd  Pd21  1  0.00000000  0.06869150  0.73640350  1
