# generated using pymatgen
data_Lu2MnS4
_symmetry_space_group_name_H-M   'P 1'
_cell_length_a   10.91580400
_cell_length_b   10.91580400
_cell_length_c   10.91580400
_cell_angle_alpha   90.00000000
_cell_angle_beta   90.00000000
_cell_angle_gamma   90.00000000
_symmetry_Int_Tables_number   1
_chemical_formula_structural   Lu2MnS4
_chemical_formula_sum   'Lu16 Mn8 S32'
_cell_volume   1300.67019103
_cell_formula_units_Z   8
loop_
 _symmetry_equiv_pos_site_id
 _symmetry_equiv_pos_as_xyz
  1  'x, y, z'
loop_
 _atom_site_type_symbol
 _atom_site_label
 _atom_site_symmetry_multiplicity
 _atom_site_fract_x
 _atom_site_fract_y
 _atom_site_fract_z
 _atom_site_occupancy
  Lu  Lu0  1  0.37500000  0.87500000  0.12500000  1
  Lu  Lu1  1  0.37500000  0.62500000  0.37500000  1
  Lu  Lu2  1  0.12500000  0.87500000  0.37500000  1
  Lu  Lu3  1  0.12500000  0.62500000  0.12500000  1
  Lu  Lu4  1  0.37500000  0.37500000  0.62500000  1
  Lu  Lu5  1  0.37500000  0.12500000  0.87500000  1
  Lu  Lu6  1  0.12500000  0.37500000  0.87500000  1
  Lu  Lu7  1  0.12500000  0.12500000  0.62500000  1
  Lu  Lu8  1  0.87500000  0.87500000  0.62500000  1
  Lu  Lu9  1  0.87500000  0.62500000  0.87500000  1
  Lu  Lu10  1  0.62500000  0.87500000  0.87500000  1
  Lu  Lu11  1  0.62500000  0.62500000  0.62500000  1
  Lu  Lu12  1  0.87500000  0.37500000  0.12500000  1
  Lu  Lu13  1  0.87500000  0.12500000  0.37500000  1
  Lu  Lu14  1  0.62500000  0.37500000  0.37500000  1
  Lu  Lu15  1  0.62500000  0.12500000  0.12500000  1
  Mn  Mn16  1  0.25000000  0.25000000  0.25000000  1
  Mn  Mn17  1  0.50000000  0.00000000  0.50000000  1
  Mn  Mn18  1  0.25000000  0.75000000  0.75000000  1
  Mn  Mn19  1  0.50000000  0.50000000  0.00000000  1
  Mn  Mn20  1  0.75000000  0.25000000  0.75000000  1
  Mn  Mn21  1  0.00000000  0.00000000  0.00000000  1
  Mn  Mn22  1  0.75000000  0.75000000  0.25000000  1
  Mn  Mn23  1  0.00000000  0.50000000  0.50000000  1
  S  S24  1  0.12072533  0.37927467  0.12072533  1
  S  S25  1  0.62927467  0.12927467  0.37072533  1
  S  S26  1  0.37072533  0.87072533  0.37072533  1
  S  S27  1  0.87072533  0.12927467  0.12927467  1
  S  S28  1  0.37927467  0.37927467  0.37927467  1
  S  S29  1  0.37927467  0.12072533  0.12072533  1
  S  S30  1  0.12927467  0.87072533  0.12927467  1
  S  S31  1  0.12072533  0.12072533  0.37927467  1
  S  S32  1  0.12072533  0.87927467  0.62072533  1
  S  S33  1  0.62927467  0.62927467  0.87072533  1
  S  S34  1  0.37072533  0.37072533  0.87072533  1
  S  S35  1  0.87072533  0.62927467  0.62927467  1
  S  S36  1  0.37927467  0.87927467  0.87927467  1
  S  S37  1  0.37927467  0.62072533  0.62072533  1
  S  S38  1  0.12927467  0.37072533  0.62927467  1
  S  S39  1  0.12072533  0.62072533  0.87927467  1
  S  S40  1  0.62072533  0.37927467  0.62072533  1
  S  S41  1  0.12927467  0.12927467  0.87072533  1
  S  S42  1  0.87072533  0.87072533  0.87072533  1
  S  S43  1  0.37072533  0.12927467  0.62927467  1
  S  S44  1  0.87927467  0.37927467  0.87927467  1
  S  S45  1  0.87927467  0.12072533  0.62072533  1
  S  S46  1  0.62927467  0.87072533  0.62927467  1
  S  S47  1  0.62072533  0.12072533  0.87927467  1
  S  S48  1  0.62072533  0.87927467  0.12072533  1
  S  S49  1  0.12927467  0.62927467  0.37072533  1
  S  S50  1  0.87072533  0.37072533  0.37072533  1
  S  S51  1  0.37072533  0.62927467  0.12927467  1
  S  S52  1  0.87927467  0.87927467  0.37927467  1
  S  S53  1  0.87927467  0.62072533  0.12072533  1
  S  S54  1  0.62927467  0.37072533  0.12927467  1
  S  S55  1  0.62072533  0.62072533  0.37927467  1
