# generated using pymatgen
data_Tl2Fe3S4
_symmetry_space_group_name_H-M   'P 1'
_cell_length_a   5.18708200
_cell_length_b   10.59787400
_cell_length_c   12.90289800
_cell_angle_alpha   90.00000000
_cell_angle_beta   90.00000000
_cell_angle_gamma   90.00000000
_symmetry_Int_Tables_number   1
_chemical_formula_structural   Tl2Fe3S4
_chemical_formula_sum   'Tl8 Fe12 S16'
_cell_volume   709.29864386
_cell_formula_units_Z   4
loop_
 _symmetry_equiv_pos_site_id
 _symmetry_equiv_pos_as_xyz
  1  'x, y, z'
loop_
 _atom_site_type_symbol
 _atom_site_label
 _atom_site_symmetry_multiplicity
 _atom_site_fract_x
 _atom_site_fract_y
 _atom_site_fract_z
 _atom_site_occupancy
  Tl  Tl0  1  0.25172700  0.13007300  0.00000000  1
  Tl  Tl1  1  0.75172700  0.36992700  0.00000000  1
  Tl  Tl2  1  0.24827300  0.63007300  0.00000000  1
  Tl  Tl3  1  0.74827300  0.86992700  0.00000000  1
  Tl  Tl4  1  0.75172700  0.63007300  0.50000000  1
  Tl  Tl5  1  0.25172700  0.86992700  0.50000000  1
  Tl  Tl6  1  0.74827300  0.13007300  0.50000000  1
  Tl  Tl7  1  0.24827300  0.36992700  0.50000000  1
  Fe  Fe8  1  0.00000000  0.50000000  0.75000000  1
  Fe  Fe9  1  0.00000000  0.50000000  0.25000000  1
  Fe  Fe10  1  0.00000000  0.25539200  0.25000000  1
  Fe  Fe11  1  0.00000000  0.74460800  0.25000000  1
  Fe  Fe12  1  0.00000000  0.25539200  0.75000000  1
  Fe  Fe13  1  0.00000000  0.74460800  0.75000000  1
  Fe  Fe14  1  0.50000000  0.00000000  0.25000000  1
  Fe  Fe15  1  0.50000000  0.00000000  0.75000000  1
  Fe  Fe16  1  0.50000000  0.75539200  0.75000000  1
  Fe  Fe17  1  0.50000000  0.24460800  0.75000000  1
  Fe  Fe18  1  0.50000000  0.75539200  0.25000000  1
  Fe  Fe19  1  0.50000000  0.24460800  0.25000000  1
  S  S20  1  0.25525300  0.37549300  0.16447800  1
  S  S21  1  0.25525300  0.62450700  0.33552200  1
  S  S22  1  0.74474700  0.37549300  0.33552200  1
  S  S23  1  0.74474700  0.62450700  0.16447800  1
  S  S24  1  0.25525300  0.62450700  0.66447800  1
  S  S25  1  0.25525300  0.37549300  0.83552200  1
  S  S26  1  0.74474700  0.37549300  0.66447800  1
  S  S27  1  0.74474700  0.62450700  0.83552200  1
  S  S28  1  0.75525300  0.87549300  0.66447800  1
  S  S29  1  0.75525300  0.12450700  0.83552200  1
  S  S30  1  0.24474700  0.87549300  0.83552200  1
  S  S31  1  0.24474700  0.12450700  0.66447800  1
  S  S32  1  0.75525300  0.12450700  0.16447800  1
  S  S33  1  0.75525300  0.87549300  0.33552200  1
  S  S34  1  0.24474700  0.87549300  0.16447800  1
  S  S35  1  0.24474700  0.12450700  0.33552200  1
