# generated using pymatgen
data_BaDy2NiO5
_symmetry_space_group_name_H-M   'P 1'
_cell_length_a   3.79841606
_cell_length_b   5.81121627
_cell_length_c   11.43583346
_cell_angle_alpha   90.00000000
_cell_angle_beta   90.00000000
_cell_angle_gamma   90.00000000
_symmetry_Int_Tables_number   1
_chemical_formula_structural   BaDy2NiO5
_chemical_formula_sum   'Ba2 Dy4 Ni2 O10'
_cell_volume   252.42792304
_cell_formula_units_Z   2
loop_
 _symmetry_equiv_pos_site_id
 _symmetry_equiv_pos_as_xyz
  1  'x, y, z'
loop_
 _atom_site_type_symbol
 _atom_site_label
 _atom_site_symmetry_multiplicity
 _atom_site_fract_x
 _atom_site_fract_y
 _atom_site_fract_z
 _atom_site_occupancy
  Ba  Ba0  1  0.00000000  0.00000000  0.00000000  1
  Ba  Ba1  1  0.50000000  0.50000000  0.50000000  1
  Dy  Dy2  1  0.00000000  0.50000000  0.20327185  1
  Dy  Dy3  1  0.50000000  0.00000000  0.29672815  1
  Dy  Dy4  1  0.50000000  0.00000000  0.70327185  1
  Dy  Dy5  1  0.00000000  0.50000000  0.79672815  1
  Ni  Ni6  1  0.50000000  0.50000000  0.00000000  1
  Ni  Ni7  1  0.00000000  0.00000000  0.50000000  1
  O  O8  1  0.50000000  0.00000000  0.50000000  1
  O  O9  1  0.00000000  0.24007184  0.35007385  1
  O  O10  1  0.50000000  0.25992816  0.14992615  1
  O  O11  1  0.50000000  0.74007183  0.14992615  1
  O  O12  1  0.00000000  0.75992817  0.35007385  1
  O  O13  1  0.00000000  0.50000000  0.00000000  1
  O  O14  1  0.50000000  0.74007183  0.85007385  1
  O  O15  1  0.00000000  0.75992817  0.64992615  1
  O  O16  1  0.00000000  0.24007183  0.64992615  1
  O  O17  1  0.50000000  0.25992817  0.85007385  1
