# generated using pymatgen
data_YAu2
_symmetry_space_group_name_H-M   'P 1'
_cell_length_a   3.75364200
_cell_length_b   3.75364200
_cell_length_c   9.13033000
_cell_angle_alpha   90.00000000
_cell_angle_beta   90.00000000
_cell_angle_gamma   90.00000000
_symmetry_Int_Tables_number   1
_chemical_formula_structural   YAu2
_chemical_formula_sum   'Y2 Au4'
_cell_volume   128.64478170
_cell_formula_units_Z   2
loop_
 _symmetry_equiv_pos_site_id
 _symmetry_equiv_pos_as_xyz
  1  'x, y, z'
loop_
 _atom_site_type_symbol
 _atom_site_label
 _atom_site_symmetry_multiplicity
 _atom_site_fract_x
 _atom_site_fract_y
 _atom_site_fract_z
 _atom_site_occupancy
  Y  Y0  1  0.00000000  0.00000000  0.00000000  1
  Y  Y1  1  0.50000000  0.50000000  0.50000000  1
  Au  Au2  1  0.50000000  0.50000000  0.16519600  1
  Au  Au3  1  0.00000000  0.00000000  0.33480400  1
  Au  Au4  1  0.00000000  0.00000000  0.66519600  1
  Au  Au5  1  0.50000000  0.50000000  0.83480400  1
