# generated using pymatgen
data_BaEr2NiO5
_symmetry_space_group_name_H-M   'P 1'
_cell_length_a   3.78097469
_cell_length_b   5.76704051
_cell_length_c   11.34073283
_cell_angle_alpha   90.00000000
_cell_angle_beta   90.00000000
_cell_angle_gamma   90.00000000
_symmetry_Int_Tables_number   1
_chemical_formula_structural   BaEr2NiO5
_chemical_formula_sum   'Ba2 Er4 Ni2 O10'
_cell_volume   247.28506731
_cell_formula_units_Z   2
loop_
 _symmetry_equiv_pos_site_id
 _symmetry_equiv_pos_as_xyz
  1  'x, y, z'
loop_
 _atom_site_type_symbol
 _atom_site_label
 _atom_site_symmetry_multiplicity
 _atom_site_fract_x
 _atom_site_fract_y
 _atom_site_fract_z
 _atom_site_occupancy
  Ba  Ba0  1  0.00000000  0.00000000  0.50000000  1
  Ba  Ba1  1  0.50000000  0.50000000  0.00000000  1
  Er  Er2  1  0.00000000  0.50000000  0.29661792  1
  Er  Er3  1  0.50000000  0.00000000  0.20338208  1
  Er  Er4  1  0.50000000  0.00000000  0.79661792  1
  Er  Er5  1  0.00000000  0.50000000  0.70338208  1
  Ni  Ni6  1  0.00000000  0.00000000  0.00000000  1
  Ni  Ni7  1  0.50000000  0.50000000  0.50000000  1
  O  O8  1  0.00000000  0.50000000  0.50000000  1
  O  O9  1  0.00000000  0.76047982  0.15100200  1
  O  O10  1  0.50000000  0.73952018  0.34899800  1
  O  O11  1  0.50000000  0.26047982  0.34899800  1
  O  O12  1  0.00000000  0.23952018  0.15100200  1
  O  O13  1  0.50000000  0.00000000  0.00000000  1
  O  O14  1  0.50000000  0.26047982  0.65100200  1
  O  O15  1  0.00000000  0.23952018  0.84899800  1
  O  O16  1  0.00000000  0.76047982  0.84899800  1
  O  O17  1  0.50000000  0.73952018  0.65100200  1
