# generated using pymatgen
data_Cu4Ag(AsO4)3
_symmetry_space_group_name_H-M   'P 1'
_cell_length_a   12.26590400
_cell_length_b   12.56104000
_cell_length_c   7.58887965
_cell_angle_alpha   90.00000000
_cell_angle_beta   118.78266109
_cell_angle_gamma   90.00000000
_symmetry_Int_Tables_number   1
_chemical_formula_structural   Cu4Ag(AsO4)3
_chemical_formula_sum   'Cu16 Ag4 As12 O48'
_cell_volume   1024.78125837
_cell_formula_units_Z   4
loop_
 _symmetry_equiv_pos_site_id
 _symmetry_equiv_pos_as_xyz
  1  'x, y, z'
loop_
 _atom_site_type_symbol
 _atom_site_label
 _atom_site_symmetry_multiplicity
 _atom_site_fract_x
 _atom_site_fract_y
 _atom_site_fract_z
 _atom_site_occupancy
  Cu  Cu0  1  0.77797900  0.15731900  0.85848800  1
  Cu  Cu1  1  0.50000000  0.23530300  0.25000000  1
  Cu  Cu2  1  0.50000000  0.76469700  0.75000000  1
  Cu  Cu3  1  0.77797900  0.84268100  0.35848800  1
  Cu  Cu4  1  0.22202100  0.84268100  0.14151200  1
  Cu  Cu5  1  0.22202100  0.15731900  0.64151200  1
  Cu  Cu6  1  0.50000000  0.99314400  0.25000000  1
  Cu  Cu7  1  0.50000000  0.00685600  0.75000000  1
  Cu  Cu8  1  0.27797900  0.65731900  0.85848800  1
  Cu  Cu9  1  0.00000000  0.73530300  0.25000000  1
  Cu  Cu10  1  0.00000000  0.26469700  0.75000000  1
  Cu  Cu11  1  0.27797900  0.34268100  0.35848800  1
  Cu  Cu12  1  0.72202100  0.34268100  0.14151200  1
  Cu  Cu13  1  0.72202100  0.65731900  0.64151200  1
  Cu  Cu14  1  0.00000000  0.49314400  0.25000000  1
  Cu  Cu15  1  0.00000000  0.50685600  0.75000000  1
  Ag  Ag16  1  0.50000000  0.48867700  0.75000000  1
  Ag  Ag17  1  0.50000000  0.51132300  0.25000000  1
  Ag  Ag18  1  0.00000000  0.98867700  0.75000000  1
  Ag  Ag19  1  0.00000000  0.01132300  0.25000000  1
  As  As20  1  0.77271400  0.11941600  0.38386400  1
  As  As21  1  0.50000000  0.77324700  0.25000000  1
  As  As22  1  0.50000000  0.22675300  0.75000000  1
  As  As23  1  0.22728600  0.11941600  0.11613600  1
  As  As24  1  0.77271400  0.88058400  0.88386400  1
  As  As25  1  0.22728600  0.88058400  0.61613600  1
  As  As26  1  0.27271400  0.61941600  0.38386400  1
  As  As27  1  0.00000000  0.27324700  0.25000000  1
  As  As28  1  0.00000000  0.72675300  0.75000000  1
  As  As29  1  0.72728600  0.61941600  0.11613600  1
  As  As30  1  0.27271400  0.38058400  0.88386400  1
  As  As31  1  0.72728600  0.38058400  0.61613600  1
  O  O32  1  0.54543350  0.29994450  0.96435900  1
  O  O33  1  0.45456650  0.29994450  0.53564100  1
  O  O34  1  0.45456650  0.70005550  0.03564100  1
  O  O35  1  0.54543350  0.70005550  0.46435900  1
  O  O36  1  0.22028100  0.80624200  0.80195500  1
  O  O37  1  0.77971900  0.80624200  0.69804500  1
  O  O38  1  0.77971900  0.19375800  0.19804500  1
  O  O39  1  0.22028100  0.19375800  0.30195500  1
  O  O40  1  0.35477800  0.66856600  0.62662600  1
  O  O41  1  0.64522200  0.66856600  0.87337400  1
  O  O42  1  0.64522200  0.33143400  0.37337400  1
  O  O43  1  0.35477800  0.33143400  0.12662600  1
  O  O44  1  0.60379250  0.12319350  0.76192300  1
  O  O45  1  0.39620750  0.12319350  0.73807700  1
  O  O46  1  0.39620750  0.87680650  0.23807700  1
  O  O47  1  0.60379250  0.87680650  0.26192300  1
  O  O48  1  0.83406450  0.99438050  0.39195900  1
  O  O49  1  0.16593550  0.99438050  0.10804100  1
  O  O50  1  0.16593550  0.00561950  0.60804100  1
  O  O51  1  0.83406450  0.00561950  0.89195900  1
  O  O52  1  0.38449100  0.11101800  0.17415800  1
  O  O53  1  0.61550900  0.11101800  0.32584200  1
  O  O54  1  0.61550900  0.88898200  0.82584200  1
  O  O55  1  0.38449100  0.88898200  0.67415800  1
  O  O56  1  0.04543350  0.79994450  0.96435900  1
  O  O57  1  0.95456650  0.79994450  0.53564100  1
  O  O58  1  0.95456650  0.20005550  0.03564100  1
  O  O59  1  0.04543350  0.20005550  0.46435900  1
  O  O60  1  0.72028100  0.30624200  0.80195500  1
  O  O61  1  0.27971900  0.30624200  0.69804500  1
  O  O62  1  0.27971900  0.69375800  0.19804500  1
  O  O63  1  0.72028100  0.69375800  0.30195500  1
  O  O64  1  0.85477800  0.16856600  0.62662600  1
  O  O65  1  0.14522200  0.16856600  0.87337400  1
  O  O66  1  0.14522200  0.83143400  0.37337400  1
  O  O67  1  0.85477800  0.83143400  0.12662600  1
  O  O68  1  0.10379250  0.62319350  0.76192300  1
  O  O69  1  0.89620750  0.62319350  0.73807700  1
  O  O70  1  0.89620750  0.37680650  0.23807700  1
  O  O71  1  0.10379250  0.37680650  0.26192300  1
  O  O72  1  0.33406450  0.49438050  0.39195900  1
  O  O73  1  0.66593550  0.49438050  0.10804100  1
  O  O74  1  0.66593550  0.50561950  0.60804100  1
  O  O75  1  0.33406450  0.50561950  0.89195900  1
  O  O76  1  0.88449100  0.61101800  0.17415800  1
  O  O77  1  0.11550900  0.61101800  0.32584200  1
  O  O78  1  0.11550900  0.38898200  0.82584200  1
  O  O79  1  0.88449100  0.38898200  0.67415800  1
