# generated using pymatgen
data_PrAl5Ni2
_symmetry_space_group_name_H-M   'P 1'
_cell_length_a   3.99723800
_cell_length_b   7.05194800
_cell_length_c   9.64115200
_cell_angle_alpha   90.00000000
_cell_angle_beta   90.00000000
_cell_angle_gamma   90.00000000
_symmetry_Int_Tables_number   1
_chemical_formula_structural   PrAl5Ni2
_chemical_formula_sum   'Pr2 Al10 Ni4'
_cell_volume   271.76782491
_cell_formula_units_Z   2
loop_
 _symmetry_equiv_pos_site_id
 _symmetry_equiv_pos_as_xyz
  1  'x, y, z'
loop_
 _atom_site_type_symbol
 _atom_site_label
 _atom_site_symmetry_multiplicity
 _atom_site_fract_x
 _atom_site_fract_y
 _atom_site_fract_z
 _atom_site_occupancy
  Pr  Pr0  1  0.00000000  0.00000000  0.00000000  1
  Pr  Pr1  1  0.50000000  0.50000000  0.50000000  1
  Al  Al2  1  0.00000000  0.50000000  0.00000000  1
  Al  Al3  1  0.50000000  0.31011850  0.84136950  1
  Al  Al4  1  0.50000000  0.68988150  0.15863050  1
  Al  Al5  1  0.50000000  0.31011850  0.15863050  1
  Al  Al6  1  0.50000000  0.68988150  0.84136950  1
  Al  Al7  1  0.50000000  0.00000000  0.50000000  1
  Al  Al8  1  0.00000000  0.81011850  0.34136950  1
  Al  Al9  1  0.00000000  0.18988150  0.65863050  1
  Al  Al10  1  0.00000000  0.81011850  0.65863050  1
  Al  Al11  1  0.00000000  0.18988150  0.34136950  1
  Ni  Ni12  1  0.00000000  0.50000000  0.23761400  1
  Ni  Ni13  1  0.00000000  0.50000000  0.76238600  1
  Ni  Ni14  1  0.50000000  0.00000000  0.73761400  1
  Ni  Ni15  1  0.50000000  0.00000000  0.26238600  1
