# generated using pymatgen
data_Ba2MnZn2(AsO)2
_symmetry_space_group_name_H-M   'P 1'
_cell_length_a   4.28931999
_cell_length_b   4.28931999
_cell_length_c   19.76117574
_cell_angle_alpha   90.00000000
_cell_angle_beta   90.00000000
_cell_angle_gamma   90.00000000
_symmetry_Int_Tables_number   1
_chemical_formula_structural   Ba2MnZn2(AsO)2
_chemical_formula_sum   'Ba4 Mn2 Zn4 As4 O4'
_cell_volume   363.57136696
_cell_formula_units_Z   2
loop_
 _symmetry_equiv_pos_site_id
 _symmetry_equiv_pos_as_xyz
  1  'x, y, z'
loop_
 _atom_site_type_symbol
 _atom_site_label
 _atom_site_symmetry_multiplicity
 _atom_site_fract_x
 _atom_site_fract_y
 _atom_site_fract_z
 _atom_site_occupancy
  Ba  Ba0  1  0.50000000  0.50000000  0.09066000  1
  Ba  Ba1  1  0.00000000  0.00000000  0.40934000  1
  Ba  Ba2  1  0.00000000  0.00000000  0.59066000  1
  Ba  Ba3  1  0.50000000  0.50000000  0.90934000  1
  Mn  Mn4  1  0.00000000  0.00000000  0.00000000  1
  Mn  Mn5  1  0.50000000  0.50000000  0.50000000  1
  Zn  Zn6  1  0.50000000  0.00000000  0.25000000  1
  Zn  Zn7  1  0.00000000  0.50000000  0.25000000  1
  Zn  Zn8  1  0.00000000  0.50000000  0.75000000  1
  Zn  Zn9  1  0.50000000  0.00000000  0.75000000  1
  As  As10  1  0.00000000  0.00000000  0.17465600  1
  As  As11  1  0.50000000  0.50000000  0.32534400  1
  As  As12  1  0.50000000  0.50000000  0.67465600  1
  As  As13  1  0.00000000  0.00000000  0.82534400  1
  O  O14  1  0.00000000  0.50000000  0.00000000  1
  O  O15  1  0.50000000  0.00000000  0.00000000  1
  O  O16  1  0.50000000  0.00000000  0.50000000  1
  O  O17  1  0.00000000  0.50000000  0.50000000  1
