# generated using pymatgen
data_Zr2P2WO12
_symmetry_space_group_name_H-M   'P 1'
_cell_length_a   9.35235778
_cell_length_b   9.52099649
_cell_length_c   12.57991468
_cell_angle_alpha   90.00000000
_cell_angle_beta   90.00000000
_cell_angle_gamma   90.00000000
_symmetry_Int_Tables_number   1
_chemical_formula_structural   Zr2P2WO12
_chemical_formula_sum   'Zr8 P8 W4 O48'
_cell_volume   1120.16297399
_cell_formula_units_Z   4
loop_
 _symmetry_equiv_pos_site_id
 _symmetry_equiv_pos_as_xyz
  1  'x, y, z'
loop_
 _atom_site_type_symbol
 _atom_site_label
 _atom_site_symmetry_multiplicity
 _atom_site_fract_x
 _atom_site_fract_y
 _atom_site_fract_z
 _atom_site_occupancy
  Zr  Zr0  1  0.72490731  0.45299306  0.13020649  1
  Zr  Zr1  1  0.77509269  0.54700694  0.63020649  1
  Zr  Zr2  1  0.27509269  0.95299306  0.13020649  1
  Zr  Zr3  1  0.77509269  0.95299306  0.36979351  1
  Zr  Zr4  1  0.22490731  0.04700694  0.63020649  1
  Zr  Zr5  1  0.22490731  0.45299306  0.36979351  1
  Zr  Zr6  1  0.27509269  0.54700694  0.86979351  1
  Zr  Zr7  1  0.72490731  0.04700694  0.86979351  1
  P  P8  1  0.38139887  0.60373555  0.14285510  1
  P  P9  1  0.38139887  0.89626445  0.85714490  1
  P  P10  1  0.11860113  0.10373555  0.35714490  1
  P  P11  1  0.11860113  0.39626445  0.64285510  1
  P  P12  1  0.61860113  0.39626445  0.85714490  1
  P  P13  1  0.61860113  0.10373555  0.14285510  1
  P  P14  1  0.88139887  0.89626445  0.64285510  1
  P  P15  1  0.88139887  0.60373555  0.35714490  1
  W  W16  1  0.53845969  0.25000000  0.50000000  1
  W  W17  1  0.46154031  0.75000000  0.50000000  1
  W  W18  1  0.03845969  0.25000000  0.00000000  1
  W  W19  1  0.96154031  0.75000000  0.00000000  1
  O  O20  1  0.14192389  0.23994366  0.67271760  1
  O  O21  1  0.14192389  0.26005634  0.32728240  1
  O  O22  1  0.35807611  0.73994366  0.82728240  1
  O  O23  1  0.35807611  0.76005634  0.17271760  1
  O  O24  1  0.85807611  0.76005634  0.32728240  1
  O  O25  1  0.85807611  0.73994366  0.67271760  1
  O  O26  1  0.64192389  0.26005634  0.17271760  1
  O  O27  1  0.64192389  0.23994366  0.82728240  1
  O  O28  1  0.42556592  0.15760427  0.59348651  1
  O  O29  1  0.42556592  0.34239573  0.40651349  1
  O  O30  1  0.07443408  0.65760427  0.90651349  1
  O  O31  1  0.07443408  0.84239573  0.09348651  1
  O  O32  1  0.57443408  0.84239573  0.40651349  1
  O  O33  1  0.57443408  0.65760427  0.59348651  1
  O  O34  1  0.92556592  0.34239573  0.09348651  1
  O  O35  1  0.92556592  0.15760427  0.90651349  1
  O  O36  1  0.70206983  0.00817353  0.22029522  1
  O  O37  1  0.29793017  0.50817353  0.22029522  1
  O  O38  1  0.20206983  0.49182647  0.72029522  1
  O  O39  1  0.20206983  0.00817353  0.27970478  1
  O  O40  1  0.84874316  0.87166097  0.92797855  1
  O  O41  1  0.84874316  0.62833903  0.07202145  1
  O  O42  1  0.65125684  0.37166097  0.57202145  1
  O  O43  1  0.65125684  0.12833903  0.42797855  1
  O  O44  1  0.15125684  0.12833903  0.07202145  1
  O  O45  1  0.15125684  0.37166097  0.92797855  1
  O  O46  1  0.34874316  0.62833903  0.42797855  1
  O  O47  1  0.34874316  0.87166097  0.57202145  1
  O  O48  1  0.54236974  0.93073549  0.84837185  1
  O  O49  1  0.54236974  0.56926451  0.15162815  1
  O  O50  1  0.95763026  0.43073549  0.65162815  1
  O  O51  1  0.95763026  0.06926451  0.34837185  1
  O  O52  1  0.45763026  0.06926451  0.15162815  1
  O  O53  1  0.45763026  0.43073549  0.84837185  1
  O  O54  1  0.04236974  0.56926451  0.34837185  1
  O  O55  1  0.04236974  0.93073549  0.65162815  1
  O  O56  1  0.67145799  0.07808160  0.02891550  1
  O  O57  1  0.67145799  0.42191840  0.97108450  1
  O  O58  1  0.82854201  0.57808160  0.47108450  1
  O  O59  1  0.82854201  0.92191840  0.52891550  1
  O  O60  1  0.32854201  0.92191840  0.97108450  1
  O  O61  1  0.32854201  0.57808160  0.02891550  1
  O  O62  1  0.17145799  0.42191840  0.52891550  1
  O  O63  1  0.17145799  0.07808160  0.47108450  1
  O  O64  1  0.79793017  0.99182647  0.72029522  1
  O  O65  1  0.79793017  0.50817353  0.27970478  1
  O  O66  1  0.70206983  0.49182647  0.77970478  1
  O  O67  1  0.29793017  0.99182647  0.77970478  1
