# generated using pymatgen
data_La3Ni2Sn7
_symmetry_space_group_name_H-M   'P 1'
_cell_length_a   4.65598200
_cell_length_b   27.79780600
_cell_length_c   4.65422600
_cell_angle_alpha   90.00000000
_cell_angle_beta   90.00000000
_cell_angle_gamma   90.00000000
_symmetry_Int_Tables_number   1
_chemical_formula_structural   La3Ni2Sn7
_chemical_formula_sum   'La6 Ni4 Sn14'
_cell_volume   602.37824698
_cell_formula_units_Z   2
loop_
 _symmetry_equiv_pos_site_id
 _symmetry_equiv_pos_as_xyz
  1  'x, y, z'
loop_
 _atom_site_type_symbol
 _atom_site_label
 _atom_site_symmetry_multiplicity
 _atom_site_fract_x
 _atom_site_fract_y
 _atom_site_fract_z
 _atom_site_occupancy
  La  La0  1  0.50000000  0.31565100  0.00000000  1
  La  La1  1  0.00000000  0.18434900  0.00000000  1
  La  La2  1  0.50000000  0.00000000  0.50000000  1
  La  La3  1  0.00000000  0.81565100  0.00000000  1
  La  La4  1  0.50000000  0.68434900  0.00000000  1
  La  La5  1  0.00000000  0.50000000  0.50000000  1
  Ni  Ni6  1  0.50000000  0.12799100  0.50000000  1
  Ni  Ni7  1  0.00000000  0.37200900  0.50000000  1
  Ni  Ni8  1  0.00000000  0.62799100  0.50000000  1
  Ni  Ni9  1  0.50000000  0.87200900  0.50000000  1
  Sn  Sn10  1  0.50000000  0.41065000  0.50000000  1
  Sn  Sn11  1  0.00000000  0.08935000  0.50000000  1
  Sn  Sn12  1  0.50000000  0.21849000  0.50000000  1
  Sn  Sn13  1  0.00000000  0.28151000  0.50000000  1
  Sn  Sn14  1  0.00000000  0.00000000  0.00000000  1
  Sn  Sn15  1  0.00000000  0.41079200  0.00000000  1
  Sn  Sn16  1  0.50000000  0.08920800  0.00000000  1
  Sn  Sn17  1  0.00000000  0.91065000  0.50000000  1
  Sn  Sn18  1  0.50000000  0.58935000  0.50000000  1
  Sn  Sn19  1  0.00000000  0.71849000  0.50000000  1
  Sn  Sn20  1  0.50000000  0.78151000  0.50000000  1
  Sn  Sn21  1  0.50000000  0.50000000  0.00000000  1
  Sn  Sn22  1  0.50000000  0.91079200  0.00000000  1
  Sn  Sn23  1  0.00000000  0.58920800  0.00000000  1
