# generated using pymatgen
data_Re2SbO6
_symmetry_space_group_name_H-M   'P 1'
_cell_length_a   16.26004400
_cell_length_b   4.98489400
_cell_length_c   5.56559842
_cell_angle_alpha   90.00000000
_cell_angle_beta   91.28350805
_cell_angle_gamma   90.00000000
_symmetry_Int_Tables_number   1
_chemical_formula_structural   Re2SbO6
_chemical_formula_sum   'Re8 Sb4 O24'
_cell_volume   451.00414392
_cell_formula_units_Z   4
loop_
 _symmetry_equiv_pos_site_id
 _symmetry_equiv_pos_as_xyz
  1  'x, y, z'
loop_
 _atom_site_type_symbol
 _atom_site_label
 _atom_site_symmetry_multiplicity
 _atom_site_fract_x
 _atom_site_fract_y
 _atom_site_fract_z
 _atom_site_occupancy
  Re  Re0  1  0.81868200  0.76738400  0.60926500  1
  Re  Re1  1  0.68131800  0.26738400  0.89073500  1
  Re  Re2  1  0.68131800  0.73261600  0.39073500  1
  Re  Re3  1  0.81868200  0.23261600  0.10926500  1
  Re  Re4  1  0.31868200  0.26738400  0.60926500  1
  Re  Re5  1  0.18131800  0.76738400  0.89073500  1
  Re  Re6  1  0.18131800  0.23261600  0.39073500  1
  Re  Re7  1  0.31868200  0.73261600  0.10926500  1
  Sb  Sb8  1  0.00000000  0.69551200  0.25000000  1
  Sb  Sb9  1  0.00000000  0.30448800  0.75000000  1
  Sb  Sb10  1  0.50000000  0.19551200  0.25000000  1
  Sb  Sb11  1  0.50000000  0.80448800  0.75000000  1
  O  O12  1  0.93072200  0.58889600  0.57400000  1
  O  O13  1  0.56927800  0.08889600  0.92600000  1
  O  O14  1  0.56927800  0.91110400  0.42600000  1
  O  O15  1  0.93072200  0.41110400  0.07400000  1
  O  O16  1  0.86014200  0.02428500  0.38099400  1
  O  O17  1  0.63985800  0.52428500  0.11900600  1
  O  O18  1  0.78401450  0.48070150  0.83120500  1
  O  O19  1  0.71598550  0.98070150  0.66879500  1
  O  O20  1  0.71598550  0.01929850  0.16879500  1
  O  O21  1  0.78401450  0.51929850  0.33120500  1
  O  O22  1  0.86014200  0.97571500  0.88099400  1
  O  O23  1  0.63985800  0.47571500  0.61900600  1
  O  O24  1  0.43072200  0.08889600  0.57400000  1
  O  O25  1  0.06927800  0.58889600  0.92600000  1
  O  O26  1  0.06927800  0.41110400  0.42600000  1
  O  O27  1  0.43072200  0.91110400  0.07400000  1
  O  O28  1  0.36014200  0.52428500  0.38099400  1
  O  O29  1  0.13985800  0.02428500  0.11900600  1
  O  O30  1  0.28401450  0.98070150  0.83120500  1
  O  O31  1  0.21598550  0.48070150  0.66879500  1
  O  O32  1  0.21598550  0.51929850  0.16879500  1
  O  O33  1  0.28401450  0.01929850  0.33120500  1
  O  O34  1  0.36014200  0.47571500  0.88099400  1
  O  O35  1  0.13985800  0.97571500  0.61900600  1
