# generated using pymatgen
data_Yb2Fe3O7
_symmetry_space_group_name_H-M   'P 1'
_cell_length_a   3.50068188
_cell_length_b   3.50068188
_cell_length_c   28.46108638
_cell_angle_alpha   90.00000000
_cell_angle_beta   90.00000000
_cell_angle_gamma   120.00000000
_symmetry_Int_Tables_number   1
_chemical_formula_structural   Yb2Fe3O7
_chemical_formula_sum   'Yb4 Fe6 O14'
_cell_volume   302.05595237
_cell_formula_units_Z   2
loop_
 _symmetry_equiv_pos_site_id
 _symmetry_equiv_pos_as_xyz
  1  'x, y, z'
loop_
 _atom_site_type_symbol
 _atom_site_label
 _atom_site_symmetry_multiplicity
 _atom_site_fract_x
 _atom_site_fract_y
 _atom_site_fract_z
 _atom_site_occupancy
  Yb  Yb0  1  0.33333333  0.66666667  0.35075408  1
  Yb  Yb1  1  0.66666667  0.33333333  0.85075408  1
  Yb  Yb2  1  0.66666667  0.33333333  0.64924592  1
  Yb  Yb3  1  0.33333333  0.66666667  0.14924592  1
  Fe  Fe4  1  0.66666667  0.33333333  0.45558717  1
  Fe  Fe5  1  0.33333333  0.66666667  0.95558717  1
  Fe  Fe6  1  0.33333333  0.66666667  0.54441283  1
  Fe  Fe7  1  0.66666667  0.33333333  0.04441283  1
  Fe  Fe8  1  0.00000000  0.00000000  0.75000000  1
  Fe  Fe9  1  0.00000000  0.00000000  0.25000000  1
  O  O10  1  0.66666667  0.33333333  0.75000000  1
  O  O11  1  0.33333333  0.66666667  0.25000000  1
  O  O12  1  0.00000000  0.00000000  0.31312744  1
  O  O13  1  0.00000000  0.00000000  0.81312744  1
  O  O14  1  0.00000000  0.00000000  0.68687256  1
  O  O15  1  0.00000000  0.00000000  0.18687256  1
  O  O16  1  0.66666667  0.33333333  0.39186614  1
  O  O17  1  0.33333333  0.66666667  0.89186614  1
  O  O18  1  0.33333333  0.66666667  0.60813386  1
  O  O19  1  0.66666667  0.33333333  0.10813386  1
  O  O20  1  0.33333333  0.66666667  0.03174587  1
  O  O21  1  0.66666667  0.33333333  0.53174587  1
  O  O22  1  0.33333333  0.66666667  0.46825413  1
  O  O23  1  0.66666667  0.33333333  0.96825413  1
