# generated using pymatgen
data_SmAlSi
_symmetry_space_group_name_H-M   'P 1'
_cell_length_a   4.17956400
_cell_length_b   4.17956400
_cell_length_c   14.53875000
_cell_angle_alpha   90.00000000
_cell_angle_beta   90.00000000
_cell_angle_gamma   90.00000000
_symmetry_Int_Tables_number   1
_chemical_formula_structural   SmAlSi
_chemical_formula_sum   'Sm4 Al4 Si4'
_cell_volume   253.97386510
_cell_formula_units_Z   4
loop_
 _symmetry_equiv_pos_site_id
 _symmetry_equiv_pos_as_xyz
  1  'x, y, z'
loop_
 _atom_site_type_symbol
 _atom_site_label
 _atom_site_symmetry_multiplicity
 _atom_site_fract_x
 _atom_site_fract_y
 _atom_site_fract_z
 _atom_site_occupancy
  Sm  Sm0  1  0.00000000  0.00000000  0.92056500  1
  Sm  Sm1  1  0.00000000  0.50000000  0.17056500  1
  Sm  Sm2  1  0.50000000  0.50000000  0.42056500  1
  Sm  Sm3  1  0.50000000  0.00000000  0.67056500  1
  Al  Al4  1  0.50000000  0.50000000  0.83671600  1
  Al  Al5  1  0.50000000  0.00000000  0.08671600  1
  Al  Al6  1  0.00000000  0.00000000  0.33671600  1
  Al  Al7  1  0.00000000  0.50000000  0.58671600  1
  Si  Si8  1  0.00000000  0.50000000  0.75232000  1
  Si  Si9  1  0.50000000  0.50000000  0.00232000  1
  Si  Si10  1  0.50000000  0.00000000  0.25232000  1
  Si  Si11  1  0.00000000  0.00000000  0.50232000  1
