# generated using pymatgen
data_PrPIr
_symmetry_space_group_name_H-M   'P 1'
_cell_length_a   4.14219600
_cell_length_b   4.14219600
_cell_length_c   14.28449000
_cell_angle_alpha   90.00000000
_cell_angle_beta   90.00000000
_cell_angle_gamma   90.00000000
_symmetry_Int_Tables_number   1
_chemical_formula_structural   PrPIr
_chemical_formula_sum   'Pr4 P4 Ir4'
_cell_volume   245.09024686
_cell_formula_units_Z   4
loop_
 _symmetry_equiv_pos_site_id
 _symmetry_equiv_pos_as_xyz
  1  'x, y, z'
loop_
 _atom_site_type_symbol
 _atom_site_label
 _atom_site_symmetry_multiplicity
 _atom_site_fract_x
 _atom_site_fract_y
 _atom_site_fract_z
 _atom_site_occupancy
  Pr  Pr0  1  0.50000000  0.50000000  0.00106400  1
  Pr  Pr1  1  0.00000000  0.50000000  0.75106400  1
  Pr  Pr2  1  0.00000000  0.00000000  0.50106400  1
  Pr  Pr3  1  0.50000000  0.00000000  0.25106400  1
  P  P4  1  0.00000000  0.00000000  0.07966800  1
  P  P5  1  0.50000000  0.00000000  0.82966800  1
  P  P6  1  0.50000000  0.50000000  0.57966800  1
  P  P7  1  0.00000000  0.50000000  0.32966800  1
  Ir  Ir8  1  0.00000000  0.50000000  0.16228800  1
  Ir  Ir9  1  0.00000000  0.00000000  0.91228800  1
  Ir  Ir10  1  0.50000000  0.00000000  0.66228800  1
  Ir  Ir11  1  0.50000000  0.50000000  0.41228800  1
