# generated using pymatgen
data_Ce2Al3Ge4
_symmetry_space_group_name_H-M   'P 1'
_cell_length_a   6.02668400
_cell_length_b   15.04491000
_cell_length_c   7.93684600
_cell_angle_alpha   90.00000000
_cell_angle_beta   90.00000000
_cell_angle_gamma   90.00000000
_symmetry_Int_Tables_number   1
_chemical_formula_structural   Ce2Al3Ge4
_chemical_formula_sum   'Ce8 Al12 Ge16'
_cell_volume   719.64111585
_cell_formula_units_Z   4
loop_
 _symmetry_equiv_pos_site_id
 _symmetry_equiv_pos_as_xyz
  1  'x, y, z'
loop_
 _atom_site_type_symbol
 _atom_site_label
 _atom_site_symmetry_multiplicity
 _atom_site_fract_x
 _atom_site_fract_y
 _atom_site_fract_z
 _atom_site_occupancy
  Ce  Ce0  1  0.00000000  0.61375600  0.91834000  1
  Ce  Ce1  1  0.50000000  0.88624400  0.08166000  1
  Ce  Ce2  1  0.50000000  0.61375600  0.58166000  1
  Ce  Ce3  1  0.00000000  0.88624400  0.41834000  1
  Ce  Ce4  1  0.50000000  0.11375600  0.91834000  1
  Ce  Ce5  1  0.00000000  0.38624400  0.08166000  1
  Ce  Ce6  1  0.00000000  0.11375600  0.58166000  1
  Ce  Ce7  1  0.50000000  0.38624400  0.41834000  1
  Al  Al8  1  0.50000000  0.00000000  0.50000000  1
  Al  Al9  1  0.00000000  0.00000000  0.00000000  1
  Al  Al10  1  0.75000000  0.71513700  0.25000000  1
  Al  Al11  1  0.25000000  0.78486300  0.75000000  1
  Al  Al12  1  0.25000000  0.71513700  0.25000000  1
  Al  Al13  1  0.75000000  0.78486300  0.75000000  1
  Al  Al14  1  0.00000000  0.50000000  0.50000000  1
  Al  Al15  1  0.50000000  0.50000000  0.00000000  1
  Al  Al16  1  0.25000000  0.21513700  0.25000000  1
  Al  Al17  1  0.75000000  0.28486300  0.75000000  1
  Al  Al18  1  0.75000000  0.21513700  0.25000000  1
  Al  Al19  1  0.25000000  0.28486300  0.75000000  1
  Ge  Ge20  1  0.00000000  0.68419900  0.55071800  1
  Ge  Ge21  1  0.50000000  0.81580100  0.44928200  1
  Ge  Ge22  1  0.50000000  0.68419900  0.94928200  1
  Ge  Ge23  1  0.25000000  0.54645500  0.25000000  1
  Ge  Ge24  1  0.75000000  0.54645500  0.25000000  1
  Ge  Ge25  1  0.25000000  0.95354500  0.75000000  1
  Ge  Ge26  1  0.75000000  0.95354500  0.75000000  1
  Ge  Ge27  1  0.00000000  0.81580100  0.05071800  1
  Ge  Ge28  1  0.50000000  0.18419900  0.55071800  1
  Ge  Ge29  1  0.00000000  0.31580100  0.44928200  1
  Ge  Ge30  1  0.00000000  0.18419900  0.94928200  1
  Ge  Ge31  1  0.75000000  0.04645500  0.25000000  1
  Ge  Ge32  1  0.25000000  0.04645500  0.25000000  1
  Ge  Ge33  1  0.75000000  0.45354500  0.75000000  1
  Ge  Ge34  1  0.25000000  0.45354500  0.75000000  1
  Ge  Ge35  1  0.50000000  0.31580100  0.05071800  1
