# generated using pymatgen
data_La3Ni2O7
_symmetry_space_group_name_H-M   'P 1'
_cell_length_a   5.60627200
_cell_length_b   20.31298000
_cell_length_c   5.45708800
_cell_angle_alpha   90.00000000
_cell_angle_beta   90.00000000
_cell_angle_gamma   90.00000000
_symmetry_Int_Tables_number   1
_chemical_formula_structural   La3Ni2O7
_chemical_formula_sum   'La12 Ni8 O28'
_cell_volume   621.45367809
_cell_formula_units_Z   4
loop_
 _symmetry_equiv_pos_site_id
 _symmetry_equiv_pos_as_xyz
  1  'x, y, z'
loop_
 _atom_site_type_symbol
 _atom_site_label
 _atom_site_symmetry_multiplicity
 _atom_site_fract_x
 _atom_site_fract_y
 _atom_site_fract_z
 _atom_site_occupancy
  La  La0  1  0.23627900  0.18029200  0.25000000  1
  La  La1  1  0.26372100  0.31970800  0.75000000  1
  La  La2  1  0.73627900  0.31970800  0.25000000  1
  La  La3  1  0.76372100  0.18029200  0.75000000  1
  La  La4  1  0.24937400  0.00000000  0.25000000  1
  La  La5  1  0.75062600  0.00000000  0.75000000  1
  La  La6  1  0.73627900  0.68029200  0.25000000  1
  La  La7  1  0.76372100  0.81970800  0.75000000  1
  La  La8  1  0.23627900  0.81970800  0.25000000  1
  La  La9  1  0.26372100  0.68029200  0.75000000  1
  La  La10  1  0.74937400  0.50000000  0.25000000  1
  La  La11  1  0.25062600  0.50000000  0.75000000  1
  Ni  Ni12  1  0.24704200  0.40255000  0.25000000  1
  Ni  Ni13  1  0.25295800  0.09745000  0.75000000  1
  Ni  Ni14  1  0.74704200  0.09745000  0.25000000  1
  Ni  Ni15  1  0.75295800  0.40255000  0.75000000  1
  Ni  Ni16  1  0.74704200  0.90255000  0.25000000  1
  Ni  Ni17  1  0.75295800  0.59745000  0.75000000  1
  Ni  Ni18  1  0.24704200  0.59745000  0.25000000  1
  Ni  Ni19  1  0.25295800  0.90255000  0.75000000  1
  O  O20  1  0.50000000  0.41461800  0.00000000  1
  O  O21  1  0.00000000  0.08538200  0.50000000  1
  O  O22  1  0.00000000  0.08538200  0.00000000  1
  O  O23  1  0.50000000  0.41461800  0.50000000  1
  O  O24  1  0.00000000  0.38827000  0.50000000  1
  O  O25  1  0.50000000  0.11173000  0.00000000  1
  O  O26  1  0.50000000  0.11173000  0.50000000  1
  O  O27  1  0.00000000  0.38827000  0.00000000  1
  O  O28  1  0.30781550  0.29516150  0.25000000  1
  O  O29  1  0.19218450  0.20483850  0.75000000  1
  O  O30  1  0.32638500  0.00000000  0.75000000  1
  O  O31  1  0.67361500  0.00000000  0.25000000  1
  O  O32  1  0.69218450  0.29516150  0.75000000  1
  O  O33  1  0.80781550  0.20483850  0.25000000  1
  O  O34  1  0.00000000  0.91461800  0.00000000  1
  O  O35  1  0.50000000  0.58538200  0.50000000  1
  O  O36  1  0.50000000  0.58538200  0.00000000  1
  O  O37  1  0.00000000  0.91461800  0.50000000  1
  O  O38  1  0.50000000  0.88827000  0.50000000  1
  O  O39  1  0.00000000  0.61173000  0.00000000  1
  O  O40  1  0.00000000  0.61173000  0.50000000  1
  O  O41  1  0.50000000  0.88827000  0.00000000  1
  O  O42  1  0.80781550  0.79516150  0.25000000  1
  O  O43  1  0.69218450  0.70483850  0.75000000  1
  O  O44  1  0.82638500  0.50000000  0.75000000  1
  O  O45  1  0.17361500  0.50000000  0.25000000  1
  O  O46  1  0.19218450  0.79516150  0.75000000  1
  O  O47  1  0.30781550  0.70483850  0.25000000  1
