# generated using pymatgen
data_TiFe2O5
_symmetry_space_group_name_H-M   'P 1'
_cell_length_a   10.25903200
_cell_length_b   5.08650000
_cell_length_c   7.16924568
_cell_angle_alpha   90.00000000
_cell_angle_beta   111.45551855
_cell_angle_gamma   90.00000000
_symmetry_Int_Tables_number   1
_chemical_formula_structural   TiFe2O5
_chemical_formula_sum   'Ti4 Fe8 O20'
_cell_volume   348.18452064
_cell_formula_units_Z   4
loop_
 _symmetry_equiv_pos_site_id
 _symmetry_equiv_pos_as_xyz
  1  'x, y, z'
loop_
 _atom_site_type_symbol
 _atom_site_label
 _atom_site_symmetry_multiplicity
 _atom_site_fract_x
 _atom_site_fract_y
 _atom_site_fract_z
 _atom_site_occupancy
  Ti  Ti0  1  0.00000000  0.00000000  0.50000000  1
  Ti  Ti1  1  0.00000000  0.00000000  0.00000000  1
  Ti  Ti2  1  0.50000000  0.50000000  0.50000000  1
  Ti  Ti3  1  0.50000000  0.50000000  0.00000000  1
  Fe  Fe4  1  0.13282050  0.50377250  0.22586000  1
  Fe  Fe5  1  0.36717950  0.00377250  0.27414000  1
  Fe  Fe6  1  0.36717950  0.99622750  0.77414000  1
  Fe  Fe7  1  0.13282050  0.49622750  0.72586000  1
  Fe  Fe8  1  0.63282050  0.00377250  0.22586000  1
  Fe  Fe9  1  0.86717950  0.50377250  0.27414000  1
  Fe  Fe10  1  0.86717950  0.49622750  0.77414000  1
  Fe  Fe11  1  0.63282050  0.99622750  0.72586000  1
  O  O12  1  0.00000000  0.80933000  0.75000000  1
  O  O13  1  0.00000000  0.19067000  0.25000000  1
  O  O14  1  0.08054250  0.33113450  0.94834800  1
  O  O15  1  0.41945750  0.83113450  0.55165200  1
  O  O16  1  0.41945750  0.16886550  0.05165200  1
  O  O17  1  0.08054250  0.66886550  0.44834800  1
  O  O18  1  0.31623250  0.64832150  0.84994000  1
  O  O19  1  0.18376750  0.14832150  0.65006000  1
  O  O20  1  0.18376750  0.85167850  0.15006000  1
  O  O21  1  0.31623250  0.35167850  0.34994000  1
  O  O22  1  0.50000000  0.30933000  0.75000000  1
  O  O23  1  0.50000000  0.69067000  0.25000000  1
  O  O24  1  0.58054250  0.83113450  0.94834800  1
  O  O25  1  0.91945750  0.33113450  0.55165200  1
  O  O26  1  0.91945750  0.66886550  0.05165200  1
  O  O27  1  0.58054250  0.16886550  0.44834800  1
  O  O28  1  0.81623250  0.14832150  0.84994000  1
  O  O29  1  0.68376750  0.64832150  0.65006000  1
  O  O30  1  0.68376750  0.35167850  0.15006000  1
  O  O31  1  0.81623250  0.85167850  0.34994000  1
