# generated using pymatgen
data_Dy2Co3Si5
_symmetry_space_group_name_H-M   'P 1'
_cell_length_a   10.74703800
_cell_length_b   11.39932400
_cell_length_c   5.48079649
_cell_angle_alpha   90.00000000
_cell_angle_beta   118.59613451
_cell_angle_gamma   90.00000000
_symmetry_Int_Tables_number   1
_chemical_formula_structural   Dy2Co3Si5
_chemical_formula_sum   'Dy8 Co12 Si20'
_cell_volume   589.54047449
_cell_formula_units_Z   4
loop_
 _symmetry_equiv_pos_site_id
 _symmetry_equiv_pos_as_xyz
  1  'x, y, z'
loop_
 _atom_site_type_symbol
 _atom_site_label
 _atom_site_symmetry_multiplicity
 _atom_site_fract_x
 _atom_site_fract_y
 _atom_site_fract_z
 _atom_site_occupancy
  Dy  Dy0  1  0.26645300  0.86430000  0.76374600  1
  Dy  Dy1  1  0.73354700  0.86430000  0.73625400  1
  Dy  Dy2  1  0.73354700  0.13570000  0.23625400  1
  Dy  Dy3  1  0.26645300  0.13570000  0.26374600  1
  Dy  Dy4  1  0.76645300  0.36430000  0.76374600  1
  Dy  Dy5  1  0.23354700  0.36430000  0.73625400  1
  Dy  Dy6  1  0.23354700  0.63570000  0.23625400  1
  Dy  Dy7  1  0.76645300  0.63570000  0.26374600  1
  Co  Co8  1  0.59964000  0.86184900  0.12601200  1
  Co  Co9  1  0.50000000  0.50350100  0.25000000  1
  Co  Co10  1  0.59964000  0.13815100  0.62601200  1
  Co  Co11  1  0.40036000  0.13815100  0.87398800  1
  Co  Co12  1  0.40036000  0.86184900  0.37398800  1
  Co  Co13  1  0.50000000  0.49649900  0.75000000  1
  Co  Co14  1  0.09964000  0.36184900  0.12601200  1
  Co  Co15  1  0.00000000  0.00350100  0.25000000  1
  Co  Co16  1  0.09964000  0.63815100  0.62601200  1
  Co  Co17  1  0.90036000  0.63815100  0.87398800  1
  Co  Co18  1  0.90036000  0.36184900  0.37398800  1
  Co  Co19  1  0.00000000  0.99649900  0.75000000  1
  Si  Si20  1  0.50000000  0.72968700  0.75000000  1
  Si  Si21  1  0.50000000  0.27031300  0.25000000  1
  Si  Si22  1  0.50000000  0.98890000  0.75000000  1
  Si  Si23  1  0.50000000  0.01110000  0.25000000  1
  Si  Si24  1  0.50000000  0.28522500  0.75000000  1
  Si  Si25  1  0.50000000  0.71477500  0.25000000  1
  Si  Si26  1  0.83735100  0.09961500  0.83535600  1
  Si  Si27  1  0.83735100  0.90038500  0.33535600  1
  Si  Si28  1  0.16264900  0.90038500  0.16464400  1
  Si  Si29  1  0.16264900  0.09961500  0.66464400  1
  Si  Si30  1  0.00000000  0.22968700  0.75000000  1
  Si  Si31  1  0.00000000  0.77031300  0.25000000  1
  Si  Si32  1  0.00000000  0.48890000  0.75000000  1
  Si  Si33  1  0.00000000  0.51110000  0.25000000  1
  Si  Si34  1  0.00000000  0.78522500  0.75000000  1
  Si  Si35  1  0.00000000  0.21477500  0.25000000  1
  Si  Si36  1  0.33735100  0.59961500  0.83535600  1
  Si  Si37  1  0.33735100  0.40038500  0.33535600  1
  Si  Si38  1  0.66264900  0.40038500  0.16464400  1
  Si  Si39  1  0.66264900  0.59961500  0.66464400  1
