# generated using pymatgen
data_Sr3Fe2O7
_symmetry_space_group_name_H-M   'P 1'
_cell_length_a   3.90813785
_cell_length_b   3.90813785
_cell_length_c   20.34877590
_cell_angle_alpha   90.00000000
_cell_angle_beta   90.00000000
_cell_angle_gamma   90.00000000
_symmetry_Int_Tables_number   1
_chemical_formula_structural   Sr3Fe2O7
_chemical_formula_sum   'Sr6 Fe4 O14'
_cell_volume   310.79787152
_cell_formula_units_Z   2
loop_
 _symmetry_equiv_pos_site_id
 _symmetry_equiv_pos_as_xyz
  1  'x, y, z'
loop_
 _atom_site_type_symbol
 _atom_site_label
 _atom_site_symmetry_multiplicity
 _atom_site_fract_x
 _atom_site_fract_y
 _atom_site_fract_z
 _atom_site_occupancy
  Sr  Sr0  1  0.00000000  0.00000000  0.68300043  1
  Sr  Sr1  1  0.50000000  0.50000000  0.81699957  1
  Sr  Sr2  1  0.00000000  0.00000000  0.50000000  1
  Sr  Sr3  1  0.50000000  0.50000000  0.18300043  1
  Sr  Sr4  1  0.00000000  0.00000000  0.31699957  1
  Sr  Sr5  1  0.50000000  0.50000000  0.00000000  1
  Fe  Fe6  1  0.00000000  0.00000000  0.90272029  1
  Fe  Fe7  1  0.50000000  0.50000000  0.59727971  1
  Fe  Fe8  1  0.50000000  0.50000000  0.40272029  1
  Fe  Fe9  1  0.00000000  0.00000000  0.09727971  1
  O  O10  1  0.00000000  0.00000000  0.00000000  1
  O  O11  1  0.00000000  0.00000000  0.80618319  1
  O  O12  1  0.50000000  0.50000000  0.69381681  1
  O  O13  1  0.00000000  0.50000000  0.90442413  1
  O  O14  1  0.50000000  0.00000000  0.90442413  1
  O  O15  1  0.00000000  0.50000000  0.59557587  1
  O  O16  1  0.50000000  0.00000000  0.59557587  1
  O  O17  1  0.50000000  0.50000000  0.50000000  1
  O  O18  1  0.50000000  0.50000000  0.30618319  1
  O  O19  1  0.00000000  0.00000000  0.19381681  1
  O  O20  1  0.50000000  0.00000000  0.40442413  1
  O  O21  1  0.00000000  0.50000000  0.40442413  1
  O  O22  1  0.50000000  0.00000000  0.09557587  1
  O  O23  1  0.00000000  0.50000000  0.09557587  1
