# generated using pymatgen
data_Zn11Rh2
_symmetry_space_group_name_H-M   'P 1'
_cell_length_a   9.13661200
_cell_length_b   9.13661200
_cell_length_c   9.13661200
_cell_angle_alpha   90.00000000
_cell_angle_beta   90.00000000
_cell_angle_gamma   90.00000000
_symmetry_Int_Tables_number   1
_chemical_formula_structural   Zn11Rh2
_chemical_formula_sum   'Zn44 Rh8'
_cell_volume   762.70316221
_cell_formula_units_Z   4
loop_
 _symmetry_equiv_pos_site_id
 _symmetry_equiv_pos_as_xyz
  1  'x, y, z'
loop_
 _atom_site_type_symbol
 _atom_site_label
 _atom_site_symmetry_multiplicity
 _atom_site_fract_x
 _atom_site_fract_y
 _atom_site_fract_z
 _atom_site_occupancy
  Zn  Zn0  1  0.39333350  0.60666650  0.39333350  1
  Zn  Zn1  1  0.60666650  0.39333350  0.39333350  1
  Zn  Zn2  1  0.39333350  0.39333350  0.60666650  1
  Zn  Zn3  1  0.10666650  0.10666650  0.10666650  1
  Zn  Zn4  1  0.30857950  0.04261250  0.30857950  1
  Zn  Zn5  1  0.19142050  0.45738750  0.80857950  1
  Zn  Zn6  1  0.80857950  0.45738750  0.19142050  1
  Zn  Zn7  1  0.19142050  0.80857950  0.45738750  1
  Zn  Zn8  1  0.19142050  0.19142050  0.54261250  1
  Zn  Zn9  1  0.54261250  0.19142050  0.19142050  1
  Zn  Zn10  1  0.45738750  0.80857950  0.19142050  1
  Zn  Zn11  1  0.45738750  0.19142050  0.80857950  1
  Zn  Zn12  1  0.80857950  0.19142050  0.45738750  1
  Zn  Zn13  1  0.30857950  0.30857950  0.04261250  1
  Zn  Zn14  1  0.04261250  0.30857950  0.30857950  1
  Zn  Zn15  1  0.19142050  0.54261250  0.19142050  1
  Zn  Zn16  1  0.00000000  0.00000000  0.35599400  1
  Zn  Zn17  1  0.64400600  0.00000000  0.00000000  1
  Zn  Zn18  1  0.35599400  0.00000000  0.00000000  1
  Zn  Zn19  1  0.00000000  0.35599400  0.00000000  1
  Zn  Zn20  1  0.00000000  0.64400600  0.00000000  1
  Zn  Zn21  1  0.00000000  0.00000000  0.64400600  1
  Zn  Zn22  1  0.89333350  0.10666650  0.89333350  1
  Zn  Zn23  1  0.10666650  0.89333350  0.89333350  1
  Zn  Zn24  1  0.89333350  0.89333350  0.10666650  1
  Zn  Zn25  1  0.60666650  0.60666650  0.60666650  1
  Zn  Zn26  1  0.80857950  0.54261250  0.80857950  1
  Zn  Zn27  1  0.69142050  0.95738750  0.30857950  1
  Zn  Zn28  1  0.30857950  0.95738750  0.69142050  1
  Zn  Zn29  1  0.69142050  0.30857950  0.95738750  1
  Zn  Zn30  1  0.69142050  0.69142050  0.04261250  1
  Zn  Zn31  1  0.04261250  0.69142050  0.69142050  1
  Zn  Zn32  1  0.95738750  0.30857950  0.69142050  1
  Zn  Zn33  1  0.95738750  0.69142050  0.30857950  1
  Zn  Zn34  1  0.30857950  0.69142050  0.95738750  1
  Zn  Zn35  1  0.80857950  0.80857950  0.54261250  1
  Zn  Zn36  1  0.54261250  0.80857950  0.80857950  1
  Zn  Zn37  1  0.69142050  0.04261250  0.69142050  1
  Zn  Zn38  1  0.50000000  0.50000000  0.85599400  1
  Zn  Zn39  1  0.14400600  0.50000000  0.50000000  1
  Zn  Zn40  1  0.85599400  0.50000000  0.50000000  1
  Zn  Zn41  1  0.50000000  0.85599400  0.50000000  1
  Zn  Zn42  1  0.50000000  0.14400600  0.50000000  1
  Zn  Zn43  1  0.50000000  0.50000000  0.14400600  1
  Rh  Rh44  1  0.17167550  0.82832450  0.17167550  1
  Rh  Rh45  1  0.82832450  0.17167550  0.17167550  1
  Rh  Rh46  1  0.17167550  0.17167550  0.82832450  1
  Rh  Rh47  1  0.32832450  0.32832450  0.32832450  1
  Rh  Rh48  1  0.67167550  0.32832450  0.67167550  1
  Rh  Rh49  1  0.32832450  0.67167550  0.67167550  1
  Rh  Rh50  1  0.67167550  0.67167550  0.32832450  1
  Rh  Rh51  1  0.82832450  0.82832450  0.82832450  1
