# generated using pymatgen
data_Nb5GaSn2
_symmetry_space_group_name_H-M   'P 1'
_cell_length_a   10.72289000
_cell_length_b   10.72289000
_cell_length_c   5.20320800
_cell_angle_alpha   90.00000000
_cell_angle_beta   90.00000000
_cell_angle_gamma   90.00000000
_symmetry_Int_Tables_number   1
_chemical_formula_structural   Nb5GaSn2
_chemical_formula_sum   'Nb20 Ga4 Sn8'
_cell_volume   598.26678078
_cell_formula_units_Z   4
loop_
 _symmetry_equiv_pos_site_id
 _symmetry_equiv_pos_as_xyz
  1  'x, y, z'
loop_
 _atom_site_type_symbol
 _atom_site_label
 _atom_site_symmetry_multiplicity
 _atom_site_fract_x
 _atom_site_fract_y
 _atom_site_fract_z
 _atom_site_occupancy
  Nb  Nb0  1  0.50000000  0.00000000  0.25000000  1
  Nb  Nb1  1  0.50000000  0.00000000  0.75000000  1
  Nb  Nb2  1  0.78242350  0.92917950  0.50000000  1
  Nb  Nb3  1  0.42917950  0.71757650  0.00000000  1
  Nb  Nb4  1  0.57082050  0.28242350  0.00000000  1
  Nb  Nb5  1  0.21757650  0.07082050  0.50000000  1
  Nb  Nb6  1  0.57082050  0.71757650  0.50000000  1
  Nb  Nb7  1  0.42917950  0.28242350  0.50000000  1
  Nb  Nb8  1  0.78242350  0.07082050  0.00000000  1
  Nb  Nb9  1  0.21757650  0.92917950  0.00000000  1
  Nb  Nb10  1  0.00000000  0.50000000  0.75000000  1
  Nb  Nb11  1  0.00000000  0.50000000  0.25000000  1
  Nb  Nb12  1  0.28242350  0.42917950  0.00000000  1
  Nb  Nb13  1  0.92917950  0.21757650  0.50000000  1
  Nb  Nb14  1  0.07082050  0.78242350  0.50000000  1
  Nb  Nb15  1  0.71757650  0.57082050  0.00000000  1
  Nb  Nb16  1  0.07082050  0.21757650  0.00000000  1
  Nb  Nb17  1  0.92917950  0.78242350  0.00000000  1
  Nb  Nb18  1  0.28242350  0.57082050  0.50000000  1
  Nb  Nb19  1  0.71757650  0.42917950  0.50000000  1
  Ga  Ga20  1  0.00000000  0.00000000  0.25000000  1
  Ga  Ga21  1  0.00000000  0.00000000  0.75000000  1
  Ga  Ga22  1  0.50000000  0.50000000  0.75000000  1
  Ga  Ga23  1  0.50000000  0.50000000  0.25000000  1
  Sn  Sn24  1  0.33125050  0.83125050  0.50000000  1
  Sn  Sn25  1  0.33125050  0.16874950  0.00000000  1
  Sn  Sn26  1  0.66874950  0.83125050  0.00000000  1
  Sn  Sn27  1  0.66874950  0.16874950  0.50000000  1
  Sn  Sn28  1  0.83125050  0.33125050  0.00000000  1
  Sn  Sn29  1  0.83125050  0.66874950  0.50000000  1
  Sn  Sn30  1  0.16874950  0.33125050  0.50000000  1
  Sn  Sn31  1  0.16874950  0.66874950  0.00000000  1
