# generated using pymatgen
data_Tb2Ge2Ru
_symmetry_space_group_name_H-M   'P 1'
_cell_length_a   10.86069600
_cell_length_b   4.30480200
_cell_length_c   10.26403180
_cell_angle_alpha   90.00000000
_cell_angle_beta   118.51174099
_cell_angle_gamma   90.00000000
_symmetry_Int_Tables_number   1
_chemical_formula_structural   Tb2Ge2Ru
_chemical_formula_sum   'Tb8 Ge8 Ru4'
_cell_volume   421.67611342
_cell_formula_units_Z   4
loop_
 _symmetry_equiv_pos_site_id
 _symmetry_equiv_pos_as_xyz
  1  'x, y, z'
loop_
 _atom_site_type_symbol
 _atom_site_label
 _atom_site_symmetry_multiplicity
 _atom_site_fract_x
 _atom_site_fract_y
 _atom_site_fract_z
 _atom_site_occupancy
  Tb  Tb0  1  0.68421800  0.00000000  0.61204800  1
  Tb  Tb1  1  0.31578200  0.00000000  0.38795200  1
  Tb  Tb2  1  0.49804500  0.00000000  0.82632400  1
  Tb  Tb3  1  0.50195500  0.00000000  0.17367600  1
  Tb  Tb4  1  0.18421800  0.50000000  0.61204800  1
  Tb  Tb5  1  0.81578200  0.50000000  0.38795200  1
  Tb  Tb6  1  0.99804500  0.50000000  0.82632400  1
  Tb  Tb7  1  0.00195500  0.50000000  0.17367600  1
  Ge  Ge8  1  0.85415600  0.00000000  0.93556100  1
  Ge  Ge9  1  0.14584400  0.00000000  0.06443900  1
  Ge  Ge10  1  0.48947400  0.50000000  0.62495300  1
  Ge  Ge11  1  0.51052600  0.50000000  0.37504700  1
  Ge  Ge12  1  0.35415600  0.50000000  0.93556100  1
  Ge  Ge13  1  0.64584400  0.50000000  0.06443900  1
  Ge  Ge14  1  0.98947400  0.00000000  0.62495300  1
  Ge  Ge15  1  0.01052600  0.00000000  0.37504700  1
  Ru  Ru16  1  0.27144900  0.50000000  0.12793400  1
  Ru  Ru17  1  0.72855100  0.50000000  0.87206600  1
  Ru  Ru18  1  0.77144900  0.00000000  0.12793400  1
  Ru  Ru19  1  0.22855100  0.00000000  0.87206600  1
