# generated using pymatgen
data_Lu2Co3Si5
_symmetry_space_group_name_H-M   'P 1'
_cell_length_a   10.63397600
_cell_length_b   11.34373800
_cell_length_c   5.42930824
_cell_angle_alpha   90.00000000
_cell_angle_beta   118.32721055
_cell_angle_gamma   90.00000000
_symmetry_Int_Tables_number   1
_chemical_formula_structural   Lu2Co3Si5
_chemical_formula_sum   'Lu8 Co12 Si20'
_cell_volume   576.50547154
_cell_formula_units_Z   4
loop_
 _symmetry_equiv_pos_site_id
 _symmetry_equiv_pos_as_xyz
  1  'x, y, z'
loop_
 _atom_site_type_symbol
 _atom_site_label
 _atom_site_symmetry_multiplicity
 _atom_site_fract_x
 _atom_site_fract_y
 _atom_site_fract_z
 _atom_site_occupancy
  Lu  Lu0  1  0.73230600  0.13790400  0.73547200  1
  Lu  Lu1  1  0.26769400  0.13790400  0.76452800  1
  Lu  Lu2  1  0.26769400  0.86209600  0.26452800  1
  Lu  Lu3  1  0.73230600  0.86209600  0.23547200  1
  Lu  Lu4  1  0.23230600  0.63790400  0.73547200  1
  Lu  Lu5  1  0.76769400  0.63790400  0.76452800  1
  Lu  Lu6  1  0.76769400  0.36209600  0.26452800  1
  Lu  Lu7  1  0.23230600  0.36209600  0.23547200  1
  Co  Co8  1  0.50000000  0.50303600  0.75000000  1
  Co  Co9  1  0.59833700  0.86055600  0.62602800  1
  Co  Co10  1  0.59833700  0.13944400  0.12602800  1
  Co  Co11  1  0.40166300  0.13944400  0.37397200  1
  Co  Co12  1  0.50000000  0.49696400  0.25000000  1
  Co  Co13  1  0.40166300  0.86055600  0.87397200  1
  Co  Co14  1  0.00000000  0.00303600  0.75000000  1
  Co  Co15  1  0.09833700  0.36055600  0.62602800  1
  Co  Co16  1  0.09833700  0.63944400  0.12602800  1
  Co  Co17  1  0.90166300  0.63944400  0.37397200  1
  Co  Co18  1  0.00000000  0.99696400  0.25000000  1
  Co  Co19  1  0.90166300  0.36055600  0.87397200  1
  Si  Si20  1  0.50000000  0.72709500  0.25000000  1
  Si  Si21  1  0.50000000  0.27290500  0.75000000  1
  Si  Si22  1  0.50000000  0.98818900  0.25000000  1
  Si  Si23  1  0.50000000  0.01181100  0.75000000  1
  Si  Si24  1  0.50000000  0.28796300  0.25000000  1
  Si  Si25  1  0.50000000  0.71203700  0.75000000  1
  Si  Si26  1  0.16594050  0.09783050  0.16690800  1
  Si  Si27  1  0.16594050  0.90216950  0.66690800  1
  Si  Si28  1  0.83405950  0.90216950  0.83309200  1
  Si  Si29  1  0.83405950  0.09783050  0.33309200  1
  Si  Si30  1  0.00000000  0.22709500  0.25000000  1
  Si  Si31  1  0.00000000  0.77290500  0.75000000  1
  Si  Si32  1  0.00000000  0.48818900  0.25000000  1
  Si  Si33  1  0.00000000  0.51181100  0.75000000  1
  Si  Si34  1  0.00000000  0.78796300  0.25000000  1
  Si  Si35  1  0.00000000  0.21203700  0.75000000  1
  Si  Si36  1  0.66594050  0.59783050  0.16690800  1
  Si  Si37  1  0.66594050  0.40216950  0.66690800  1
  Si  Si38  1  0.33405950  0.40216950  0.83309200  1
  Si  Si39  1  0.33405950  0.59783050  0.33309200  1
