# generated using pymatgen
data_Pu2C3
_symmetry_space_group_name_H-M   'P 1'
_cell_length_a   8.15286000
_cell_length_b   8.15286000
_cell_length_c   8.15286000
_cell_angle_alpha   90.00000000
_cell_angle_beta   90.00000000
_cell_angle_gamma   90.00000000
_symmetry_Int_Tables_number   1
_chemical_formula_structural   Pu2C3
_chemical_formula_sum   'Pu16 C24'
_cell_volume   541.91348006
_cell_formula_units_Z   8
loop_
 _symmetry_equiv_pos_site_id
 _symmetry_equiv_pos_as_xyz
  1  'x, y, z'
loop_
 _atom_site_type_symbol
 _atom_site_label
 _atom_site_symmetry_multiplicity
 _atom_site_fract_x
 _atom_site_fract_y
 _atom_site_fract_z
 _atom_site_occupancy
  Pu  Pu0  1  0.04931650  0.54931650  0.95068350  1
  Pu  Pu1  1  0.20068350  0.79931650  0.29931650  1
  Pu  Pu2  1  0.20068350  0.20068350  0.20068350  1
  Pu  Pu3  1  0.29931650  0.20068350  0.79931650  1
  Pu  Pu4  1  0.45068350  0.45068350  0.45068350  1
  Pu  Pu5  1  0.54931650  0.95068350  0.04931650  1
  Pu  Pu6  1  0.95068350  0.04931650  0.54931650  1
  Pu  Pu7  1  0.79931650  0.29931650  0.20068350  1
  Pu  Pu8  1  0.54931650  0.04931650  0.45068350  1
  Pu  Pu9  1  0.70068350  0.29931650  0.79931650  1
  Pu  Pu10  1  0.70068350  0.70068350  0.70068350  1
  Pu  Pu11  1  0.79931650  0.70068350  0.29931650  1
  Pu  Pu12  1  0.95068350  0.95068350  0.95068350  1
  Pu  Pu13  1  0.04931650  0.45068350  0.54931650  1
  Pu  Pu14  1  0.45068350  0.54931650  0.04931650  1
  Pu  Pu15  1  0.29931650  0.79931650  0.70068350  1
  C  C16  1  0.75000000  0.28996200  0.50000000  1
  C  C17  1  0.75000000  0.46003800  0.50000000  1
  C  C18  1  0.03996200  0.50000000  0.25000000  1
  C  C19  1  0.50000000  0.75000000  0.46003800  1
  C  C20  1  0.46003800  0.50000000  0.75000000  1
  C  C21  1  0.50000000  0.25000000  0.03996200  1
  C  C22  1  0.25000000  0.21003800  0.50000000  1
  C  C23  1  0.50000000  0.75000000  0.28996200  1
  C  C24  1  0.25000000  0.03996200  0.50000000  1
  C  C25  1  0.21003800  0.50000000  0.25000000  1
  C  C26  1  0.28996200  0.50000000  0.75000000  1
  C  C27  1  0.50000000  0.25000000  0.21003800  1
  C  C28  1  0.25000000  0.78996200  0.00000000  1
  C  C29  1  0.25000000  0.96003800  0.00000000  1
  C  C30  1  0.53996200  0.00000000  0.75000000  1
  C  C31  1  0.00000000  0.25000000  0.96003800  1
  C  C32  1  0.96003800  0.00000000  0.25000000  1
  C  C33  1  0.00000000  0.75000000  0.53996200  1
  C  C34  1  0.75000000  0.71003800  0.00000000  1
  C  C35  1  0.00000000  0.25000000  0.78996200  1
  C  C36  1  0.75000000  0.53996200  0.00000000  1
  C  C37  1  0.71003800  0.00000000  0.75000000  1
  C  C38  1  0.78996200  0.00000000  0.25000000  1
  C  C39  1  0.00000000  0.75000000  0.71003800  1
