# generated using pymatgen
data_Rb2Li14Pr3O14
_symmetry_space_group_name_H-M   'P 1'
_cell_length_a   7.49512400
_cell_length_b   8.37932000
_cell_length_c   13.69830000
_cell_angle_alpha   90.00000000
_cell_angle_beta   90.00000000
_cell_angle_gamma   90.00000000
_symmetry_Int_Tables_number   1
_chemical_formula_structural   Rb2Li14Pr3O14
_chemical_formula_sum   'Rb4 Li28 Pr6 O28'
_cell_volume   860.30861450
_cell_formula_units_Z   2
loop_
 _symmetry_equiv_pos_site_id
 _symmetry_equiv_pos_as_xyz
  1  'x, y, z'
loop_
 _atom_site_type_symbol
 _atom_site_label
 _atom_site_symmetry_multiplicity
 _atom_site_fract_x
 _atom_site_fract_y
 _atom_site_fract_z
 _atom_site_occupancy
  Rb  Rb0  1  0.76224400  0.50000000  0.00000000  1
  Rb  Rb1  1  0.23775600  0.50000000  0.00000000  1
  Rb  Rb2  1  0.26224400  0.00000000  0.50000000  1
  Rb  Rb3  1  0.73775600  0.00000000  0.50000000  1
  Li  Li4  1  0.27799700  0.84578400  0.86725200  1
  Li  Li5  1  0.22200300  0.34578400  0.63274800  1
  Li  Li6  1  0.72200300  0.15421600  0.86725200  1
  Li  Li7  1  0.77799700  0.65421600  0.63274800  1
  Li  Li8  1  0.27799700  0.15421600  0.86725200  1
  Li  Li9  1  0.50000000  0.15867600  0.00000000  1
  Li  Li10  1  0.50000000  0.84132400  0.00000000  1
  Li  Li11  1  0.00000000  0.64567550  0.76858150  1
  Li  Li12  1  0.50000000  0.85432450  0.73141850  1
  Li  Li13  1  0.50000000  0.14567550  0.73141850  1
  Li  Li14  1  0.00000000  0.35432450  0.76858150  1
  Li  Li15  1  0.72200300  0.84578400  0.86725200  1
  Li  Li16  1  0.22200300  0.65421600  0.63274800  1
  Li  Li17  1  0.77799700  0.34578400  0.63274800  1
  Li  Li18  1  0.77799700  0.34578400  0.36725200  1
  Li  Li19  1  0.72200300  0.84578400  0.13274800  1
  Li  Li20  1  0.22200300  0.65421600  0.36725200  1
  Li  Li21  1  0.27799700  0.15421600  0.13274800  1
  Li  Li22  1  0.77799700  0.65421600  0.36725200  1
  Li  Li23  1  0.00000000  0.65867600  0.50000000  1
  Li  Li24  1  0.00000000  0.34132400  0.50000000  1
  Li  Li25  1  0.50000000  0.14567550  0.26858150  1
  Li  Li26  1  0.00000000  0.35432450  0.23141850  1
  Li  Li27  1  0.00000000  0.64567550  0.23141850  1
  Li  Li28  1  0.50000000  0.85432450  0.26858150  1
  Li  Li29  1  0.22200300  0.34578400  0.36725200  1
  Li  Li30  1  0.72200300  0.15421600  0.13274800  1
  Li  Li31  1  0.27799700  0.84578400  0.13274800  1
  Pr  Pr32  1  0.00000000  0.00000000  0.00000000  1
  Pr  Pr33  1  0.50000000  0.50000000  0.77209100  1
  Pr  Pr34  1  0.00000000  0.00000000  0.72790900  1
  Pr  Pr35  1  0.50000000  0.50000000  0.50000000  1
  Pr  Pr36  1  0.00000000  0.00000000  0.27209100  1
  Pr  Pr37  1  0.50000000  0.50000000  0.22790900  1
  O  O38  1  0.00000000  0.19026750  0.86777550  1
  O  O39  1  0.00000000  0.77752100  0.62414300  1
  O  O40  1  0.00000000  0.22247900  0.62414300  1
  O  O41  1  0.50000000  0.72247900  0.87585700  1
  O  O42  1  0.50000000  0.27752100  0.87585700  1
  O  O43  1  0.30505800  0.00000000  0.75893900  1
  O  O44  1  0.80505800  0.50000000  0.74106100  1
  O  O45  1  0.19494200  0.50000000  0.74106100  1
  O  O46  1  0.69494200  0.00000000  0.75893900  1
  O  O47  1  0.69382300  0.00000000  0.00000000  1
  O  O48  1  0.30617700  0.00000000  0.00000000  1
  O  O49  1  0.00000000  0.80973250  0.86777550  1
  O  O50  1  0.50000000  0.69026750  0.63222450  1
  O  O51  1  0.50000000  0.30973250  0.63222450  1
  O  O52  1  0.50000000  0.69026750  0.36777550  1
  O  O53  1  0.50000000  0.27752100  0.12414300  1
  O  O54  1  0.50000000  0.72247900  0.12414300  1
  O  O55  1  0.00000000  0.22247900  0.37585700  1
  O  O56  1  0.00000000  0.77752100  0.37585700  1
  O  O57  1  0.80505800  0.50000000  0.25893900  1
  O  O58  1  0.30505800  0.00000000  0.24106100  1
  O  O59  1  0.69494200  0.00000000  0.24106100  1
  O  O60  1  0.19494200  0.50000000  0.25893900  1
  O  O61  1  0.19382300  0.50000000  0.50000000  1
  O  O62  1  0.80617700  0.50000000  0.50000000  1
  O  O63  1  0.50000000  0.30973250  0.36777550  1
  O  O64  1  0.00000000  0.19026750  0.13222450  1
  O  O65  1  0.00000000  0.80973250  0.13222450  1
