# generated using pymatgen
data_Yb4Si2S3O7
_symmetry_space_group_name_H-M   'P 1'
_cell_length_a   11.65660400
_cell_length_b   11.65660400
_cell_length_c   14.69745600
_cell_angle_alpha   90.00000000
_cell_angle_beta   90.00000000
_cell_angle_gamma   90.00000000
_symmetry_Int_Tables_number   1
_chemical_formula_structural   Yb4Si2S3O7
_chemical_formula_sum   'Yb32 Si16 S24 O56'
_cell_volume   1997.03765754
_cell_formula_units_Z   8
loop_
 _symmetry_equiv_pos_site_id
 _symmetry_equiv_pos_as_xyz
  1  'x, y, z'
loop_
 _atom_site_type_symbol
 _atom_site_label
 _atom_site_symmetry_multiplicity
 _atom_site_fract_x
 _atom_site_fract_y
 _atom_site_fract_z
 _atom_site_occupancy
  Yb  Yb0  1  0.25361850  0.00000000  0.56024550  1
  Yb  Yb1  1  0.24638150  0.50000000  0.06024550  1
  Yb  Yb2  1  0.50000000  0.24638150  0.93975450  1
  Yb  Yb3  1  0.50000000  0.74638150  0.31024550  1
  Yb  Yb4  1  0.50000000  0.25361850  0.31024550  1
  Yb  Yb5  1  0.75361850  0.00000000  0.18975450  1
  Yb  Yb6  1  0.24638150  0.00000000  0.18975450  1
  Yb  Yb7  1  0.00000000  0.25361850  0.43975450  1
  Yb  Yb8  1  0.33320200  0.33320200  0.50000000  1
  Yb  Yb9  1  0.16679800  0.33320200  0.25000000  1
  Yb  Yb10  1  0.83320200  0.66679800  0.25000000  1
  Yb  Yb11  1  0.16679800  0.16679800  0.00000000  1
  Yb  Yb12  1  0.16679800  0.66679800  0.25000000  1
  Yb  Yb13  1  0.33320200  0.66679800  0.50000000  1
  Yb  Yb14  1  0.66679800  0.33320200  0.50000000  1
  Yb  Yb15  1  0.83320200  0.33320200  0.25000000  1
  Yb  Yb16  1  0.75361850  0.50000000  0.06024550  1
  Yb  Yb17  1  0.74638150  0.00000000  0.56024550  1
  Yb  Yb18  1  0.00000000  0.74638150  0.43975450  1
  Yb  Yb19  1  0.00000000  0.24638150  0.81024550  1
  Yb  Yb20  1  0.00000000  0.75361850  0.81024550  1
  Yb  Yb21  1  0.25361850  0.50000000  0.68975450  1
  Yb  Yb22  1  0.74638150  0.50000000  0.68975450  1
  Yb  Yb23  1  0.50000000  0.75361850  0.93975450  1
  Yb  Yb24  1  0.83320200  0.83320200  0.00000000  1
  Yb  Yb25  1  0.66679800  0.83320200  0.75000000  1
  Yb  Yb26  1  0.33320200  0.16679800  0.75000000  1
  Yb  Yb27  1  0.66679800  0.66679800  0.50000000  1
  Yb  Yb28  1  0.66679800  0.16679800  0.75000000  1
  Yb  Yb29  1  0.83320200  0.16679800  0.00000000  1
  Yb  Yb30  1  0.16679800  0.83320200  0.00000000  1
  Yb  Yb31  1  0.33320200  0.83320200  0.75000000  1
  Si  Si32  1  0.12879600  0.00000000  0.78642200  1
  Si  Si33  1  0.37120400  0.50000000  0.28642200  1
  Si  Si34  1  0.50000000  0.37120400  0.71357800  1
  Si  Si35  1  0.00000000  0.37120400  0.03642200  1
  Si  Si36  1  0.00000000  0.62879600  0.03642200  1
  Si  Si37  1  0.12879600  0.50000000  0.46357800  1
  Si  Si38  1  0.87120400  0.50000000  0.46357800  1
  Si  Si39  1  0.00000000  0.12879600  0.21357800  1
  Si  Si40  1  0.62879600  0.50000000  0.28642200  1
  Si  Si41  1  0.87120400  0.00000000  0.78642200  1
  Si  Si42  1  0.00000000  0.87120400  0.21357800  1
  Si  Si43  1  0.50000000  0.87120400  0.53642200  1
  Si  Si44  1  0.50000000  0.12879600  0.53642200  1
  Si  Si45  1  0.62879600  0.00000000  0.96357800  1
  Si  Si46  1  0.37120400  0.00000000  0.96357800  1
  Si  Si47  1  0.50000000  0.62879600  0.71357800  1
  S  S48  1  0.00000000  0.00000000  0.00000000  1
  S  S49  1  0.00000000  0.50000000  0.25000000  1
  S  S50  1  0.50000000  0.00000000  0.25000000  1
  S  S51  1  0.00000000  0.00000000  0.50000000  1
  S  S52  1  0.08651550  0.25000000  0.62500000  1
  S  S53  1  0.25000000  0.08651550  0.37500000  1
  S  S54  1  0.25000000  0.41348450  0.87500000  1
  S  S55  1  0.41348450  0.25000000  0.12500000  1
  S  S56  1  0.91348450  0.25000000  0.62500000  1
  S  S57  1  0.25000000  0.91348450  0.37500000  1
  S  S58  1  0.25000000  0.58651550  0.87500000  1
  S  S59  1  0.58651550  0.25000000  0.12500000  1
  S  S60  1  0.50000000  0.50000000  0.50000000  1
  S  S61  1  0.50000000  0.00000000  0.75000000  1
  S  S62  1  0.00000000  0.50000000  0.75000000  1
  S  S63  1  0.50000000  0.50000000  0.00000000  1
  S  S64  1  0.58651550  0.75000000  0.12500000  1
  S  S65  1  0.75000000  0.58651550  0.87500000  1
  S  S66  1  0.75000000  0.91348450  0.37500000  1
  S  S67  1  0.91348450  0.75000000  0.62500000  1
  S  S68  1  0.41348450  0.75000000  0.12500000  1
  S  S69  1  0.75000000  0.41348450  0.87500000  1
  S  S70  1  0.75000000  0.08651550  0.37500000  1
  S  S71  1  0.08651550  0.75000000  0.62500000  1
  O  O72  1  0.00000000  0.00000000  0.73713650  1
  O  O73  1  0.50000000  0.00000000  0.48713650  1
  O  O74  1  0.50000000  0.00000000  0.01286350  1
  O  O75  1  0.00000000  0.00000000  0.26286350  1
  O  O76  1  0.85837050  0.37696850  0.40970350  1
  O  O77  1  0.64162950  0.12303150  0.90970350  1
  O  O78  1  0.12303150  0.64162950  0.09029650  1
  O  O79  1  0.87696850  0.14162950  0.15970350  1
  O  O80  1  0.62303150  0.35837050  0.65970350  1
  O  O81  1  0.35837050  0.62303150  0.34029650  1
  O  O82  1  0.14162950  0.87696850  0.84029650  1
  O  O83  1  0.37696850  0.85837050  0.59029650  1
  O  O84  1  0.14162950  0.12303150  0.84029650  1
  O  O85  1  0.35837050  0.37696850  0.34029650  1
  O  O86  1  0.37696850  0.35837050  0.65970350  1
  O  O87  1  0.12303150  0.35837050  0.09029650  1
  O  O88  1  0.37696850  0.14162950  0.59029650  1
  O  O89  1  0.14162950  0.37696850  0.40970350  1
  O  O90  1  0.35837050  0.12303150  0.90970350  1
  O  O91  1  0.12303150  0.14162950  0.15970350  1
  O  O92  1  0.22868650  0.00000000  0.70798950  1
  O  O93  1  0.27131350  0.50000000  0.20798950  1
  O  O94  1  0.50000000  0.27131350  0.79201050  1
  O  O95  1  0.50000000  0.77131350  0.45798950  1
  O  O96  1  0.50000000  0.22868650  0.45798950  1
  O  O97  1  0.72868650  0.00000000  0.04201050  1
  O  O98  1  0.27131350  0.00000000  0.04201050  1
  O  O99  1  0.00000000  0.22868650  0.29201050  1
  O  O100  1  0.50000000  0.50000000  0.23713650  1
  O  O101  1  0.00000000  0.50000000  0.98713650  1
  O  O102  1  0.00000000  0.50000000  0.51286350  1
  O  O103  1  0.50000000  0.50000000  0.76286350  1
  O  O104  1  0.35837050  0.87696850  0.90970350  1
  O  O105  1  0.14162950  0.62303150  0.40970350  1
  O  O106  1  0.62303150  0.14162950  0.59029650  1
  O  O107  1  0.37696850  0.64162950  0.65970350  1
  O  O108  1  0.12303150  0.85837050  0.15970350  1
  O  O109  1  0.85837050  0.12303150  0.84029650  1
  O  O110  1  0.64162950  0.37696850  0.34029650  1
  O  O111  1  0.87696850  0.35837050  0.09029650  1
  O  O112  1  0.64162950  0.62303150  0.34029650  1
  O  O113  1  0.85837050  0.87696850  0.84029650  1
  O  O114  1  0.87696850  0.85837050  0.15970350  1
  O  O115  1  0.62303150  0.85837050  0.59029650  1
  O  O116  1  0.87696850  0.64162950  0.09029650  1
  O  O117  1  0.64162950  0.87696850  0.90970350  1
  O  O118  1  0.85837050  0.62303150  0.40970350  1
  O  O119  1  0.62303150  0.64162950  0.65970350  1
  O  O120  1  0.72868650  0.50000000  0.20798950  1
  O  O121  1  0.77131350  0.00000000  0.70798950  1
  O  O122  1  0.00000000  0.77131350  0.29201050  1
  O  O123  1  0.00000000  0.27131350  0.95798950  1
  O  O124  1  0.00000000  0.72868650  0.95798950  1
  O  O125  1  0.22868650  0.50000000  0.54201050  1
  O  O126  1  0.77131350  0.50000000  0.54201050  1
  O  O127  1  0.50000000  0.72868650  0.79201050  1
