# generated using pymatgen
data_Tm4In(NiGe2)2
_symmetry_space_group_name_H-M   'P 1'
_cell_length_a   15.34544600
_cell_length_b   4.19197000
_cell_length_c   6.98959541
_cell_angle_alpha   90.00000000
_cell_angle_beta   108.61358366
_cell_angle_gamma   90.00000000
_symmetry_Int_Tables_number   1
_chemical_formula_structural   Tm4In(NiGe2)2
_chemical_formula_sum   'Tm8 In2 Ni4 Ge8'
_cell_volume   426.10564115
_cell_formula_units_Z   2
loop_
 _symmetry_equiv_pos_site_id
 _symmetry_equiv_pos_as_xyz
  1  'x, y, z'
loop_
 _atom_site_type_symbol
 _atom_site_label
 _atom_site_symmetry_multiplicity
 _atom_site_fract_x
 _atom_site_fract_y
 _atom_site_fract_z
 _atom_site_occupancy
  Tm  Tm0  1  0.34397100  0.00000000  0.06282900  1
  Tm  Tm1  1  0.15602900  0.50000000  0.93717100  1
  Tm  Tm2  1  0.40869300  0.00000000  0.60902700  1
  Tm  Tm3  1  0.09130700  0.50000000  0.39097300  1
  Tm  Tm4  1  0.84397100  0.50000000  0.06282900  1
  Tm  Tm5  1  0.65602900  0.00000000  0.93717100  1
  Tm  Tm6  1  0.90869300  0.50000000  0.60902700  1
  Tm  Tm7  1  0.59130700  0.00000000  0.39097300  1
  In  In8  1  0.00000000  0.00000000  0.00000000  1
  In  In9  1  0.50000000  0.50000000  0.00000000  1
  Ni  Ni10  1  0.21810400  0.00000000  0.63796100  1
  Ni  Ni11  1  0.28189600  0.50000000  0.36203900  1
  Ni  Ni12  1  0.71810400  0.50000000  0.63796100  1
  Ni  Ni13  1  0.78189600  0.00000000  0.36203900  1
  Ge  Ge14  1  0.06617100  0.00000000  0.66266800  1
  Ge  Ge15  1  0.43382900  0.50000000  0.33733200  1
  Ge  Ge16  1  0.20155000  0.00000000  0.26445100  1
  Ge  Ge17  1  0.29845000  0.50000000  0.73554900  1
  Ge  Ge18  1  0.56617100  0.50000000  0.66266800  1
  Ge  Ge19  1  0.93382900  0.00000000  0.33733200  1
  Ge  Ge20  1  0.70155000  0.50000000  0.26445100  1
  Ge  Ge21  1  0.79845000  0.00000000  0.73554900  1
