# generated using pymatgen
data_Er3(AlNi3)2
_symmetry_space_group_name_H-M   'P 1'
_cell_length_a   8.85737000
_cell_length_b   8.85737000
_cell_length_c   8.85737000
_cell_angle_alpha   90.00000000
_cell_angle_beta   90.00000000
_cell_angle_gamma   90.00000000
_symmetry_Int_Tables_number   1
_chemical_formula_structural   Er3(AlNi3)2
_chemical_formula_sum   'Er12 Al8 Ni24'
_cell_volume   694.88727799
_cell_formula_units_Z   4
loop_
 _symmetry_equiv_pos_site_id
 _symmetry_equiv_pos_as_xyz
  1  'x, y, z'
loop_
 _atom_site_type_symbol
 _atom_site_label
 _atom_site_symmetry_multiplicity
 _atom_site_fract_x
 _atom_site_fract_y
 _atom_site_fract_z
 _atom_site_occupancy
  Er  Er0  1  0.00000000  0.00000000  0.29250600  1
  Er  Er1  1  0.00000000  0.00000000  0.70749400  1
  Er  Er2  1  0.00000000  0.29250600  0.00000000  1
  Er  Er3  1  0.00000000  0.70749400  0.00000000  1
  Er  Er4  1  0.70749400  0.00000000  0.00000000  1
  Er  Er5  1  0.29250600  0.00000000  0.00000000  1
  Er  Er6  1  0.50000000  0.50000000  0.79250600  1
  Er  Er7  1  0.50000000  0.50000000  0.20749400  1
  Er  Er8  1  0.50000000  0.79250600  0.50000000  1
  Er  Er9  1  0.50000000  0.20749400  0.50000000  1
  Er  Er10  1  0.20749400  0.50000000  0.50000000  1
  Er  Er11  1  0.79250600  0.50000000  0.50000000  1
  Al  Al12  1  0.25000000  0.25000000  0.25000000  1
  Al  Al13  1  0.25000000  0.25000000  0.75000000  1
  Al  Al14  1  0.75000000  0.25000000  0.25000000  1
  Al  Al15  1  0.25000000  0.75000000  0.25000000  1
  Al  Al16  1  0.75000000  0.75000000  0.75000000  1
  Al  Al17  1  0.75000000  0.75000000  0.25000000  1
  Al  Al18  1  0.25000000  0.75000000  0.75000000  1
  Al  Al19  1  0.75000000  0.25000000  0.75000000  1
  Ni  Ni20  1  0.83528100  0.50000000  0.16471900  1
  Ni  Ni21  1  0.33528100  0.33528100  0.00000000  1
  Ni  Ni22  1  0.00000000  0.33528100  0.33528100  1
  Ni  Ni23  1  0.50000000  0.16471900  0.83528100  1
  Ni  Ni24  1  0.50000000  0.83528100  0.16471900  1
  Ni  Ni25  1  0.33528100  0.00000000  0.33528100  1
  Ni  Ni26  1  0.16471900  0.16471900  0.50000000  1
  Ni  Ni27  1  0.16471900  0.50000000  0.16471900  1
  Ni  Ni28  1  0.50000000  0.16471900  0.16471900  1
  Ni  Ni29  1  0.83528100  0.16471900  0.50000000  1
  Ni  Ni30  1  0.16471900  0.50000000  0.83528100  1
  Ni  Ni31  1  0.16471900  0.83528100  0.50000000  1
  Ni  Ni32  1  0.33528100  0.00000000  0.66471900  1
  Ni  Ni33  1  0.83528100  0.83528100  0.50000000  1
  Ni  Ni34  1  0.50000000  0.83528100  0.83528100  1
  Ni  Ni35  1  0.00000000  0.66471900  0.33528100  1
  Ni  Ni36  1  0.00000000  0.33528100  0.66471900  1
  Ni  Ni37  1  0.83528100  0.50000000  0.83528100  1
  Ni  Ni38  1  0.66471900  0.66471900  0.00000000  1
  Ni  Ni39  1  0.66471900  0.00000000  0.66471900  1
  Ni  Ni40  1  0.00000000  0.66471900  0.66471900  1
  Ni  Ni41  1  0.33528100  0.66471900  0.00000000  1
  Ni  Ni42  1  0.66471900  0.00000000  0.33528100  1
  Ni  Ni43  1  0.66471900  0.33528100  0.00000000  1
