# generated using pymatgen
data_CrAgTe2
_symmetry_space_group_name_H-M   'P 1'
_cell_length_a   4.10900758
_cell_length_b   4.10900758
_cell_length_c   21.80949347
_cell_angle_alpha   90.00000000
_cell_angle_beta   90.00000000
_cell_angle_gamma   120.00000000
_symmetry_Int_Tables_number   1
_chemical_formula_structural   CrAgTe2
_chemical_formula_sum   'Cr3 Ag3 Te6'
_cell_volume   318.89675207
_cell_formula_units_Z   3
loop_
 _symmetry_equiv_pos_site_id
 _symmetry_equiv_pos_as_xyz
  1  'x, y, z'
loop_
 _atom_site_type_symbol
 _atom_site_label
 _atom_site_symmetry_multiplicity
 _atom_site_fract_x
 _atom_site_fract_y
 _atom_site_fract_z
 _atom_site_occupancy
  Cr  Cr0  1  0.00000000  0.00000000  0.00124800  1
  Cr  Cr1  1  0.66666667  0.33333333  0.33458133  1
  Cr  Cr2  1  0.33333333  0.66666667  0.66791467  1
  Ag  Ag3  1  0.66666667  0.33333333  0.18965833  1
  Ag  Ag4  1  0.33333333  0.66666667  0.52299167  1
  Ag  Ag5  1  0.00000000  0.00000000  0.85632500  1
  Te  Te6  1  0.66666667  0.33333333  0.06500433  1
  Te  Te7  1  0.00000000  0.00000000  0.26675500  1
  Te  Te8  1  0.33333333  0.66666667  0.39833767  1
  Te  Te9  1  0.66666667  0.33333333  0.60008833  1
  Te  Te10  1  0.00000000  0.00000000  0.73167100  1
  Te  Te11  1  0.33333333  0.66666667  0.93342167  1
