# generated using pymatgen
data_NdAl7Au3
_symmetry_space_group_name_H-M   'P 1'
_cell_length_a   8.16008186
_cell_length_b   8.16008186
_cell_length_c   21.26716942
_cell_angle_alpha   90.00000000
_cell_angle_beta   90.00000000
_cell_angle_gamma   120.00000000
_symmetry_Int_Tables_number   1
_chemical_formula_structural   NdAl7Au3
_chemical_formula_sum   'Nd6 Al42 Au18'
_cell_volume   1226.39212576
_cell_formula_units_Z   6
loop_
 _symmetry_equiv_pos_site_id
 _symmetry_equiv_pos_as_xyz
  1  'x, y, z'
loop_
 _atom_site_type_symbol
 _atom_site_label
 _atom_site_symmetry_multiplicity
 _atom_site_fract_x
 _atom_site_fract_y
 _atom_site_fract_z
 _atom_site_occupancy
  Nd  Nd0  1  0.33333333  0.66666667  0.16666667  1
  Nd  Nd1  1  0.00000000  0.00000000  0.00000000  1
  Nd  Nd2  1  1.00000000  0.00000000  0.50000000  1
  Nd  Nd3  1  0.66666667  0.33333333  0.33333333  1
  Nd  Nd4  1  0.66666667  0.33333333  0.83333333  1
  Nd  Nd5  1  0.33333333  0.66666667  0.66666667  1
  Al  Al6  1  0.12755900  0.47153600  0.30332800  1
  Al  Al7  1  0.52846400  0.65602300  0.30332800  1
  Al  Al8  1  0.34397700  0.87244100  0.30332800  1
  Al  Al9  1  0.87244100  0.34397700  0.19667200  1
  Al  Al10  1  0.65602300  0.52846400  0.19667200  1
  Al  Al11  1  0.47153600  0.12755900  0.19667200  1
  Al  Al12  1  0.53910767  0.86179733  0.03000533  1
  Al  Al13  1  0.13820267  0.67731033  0.03000533  1
  Al  Al14  1  0.00000000  0.00000000  0.25000000  1
  Al  Al15  1  0.66666667  0.33333333  0.08333333  1
  Al  Al16  1  0.19513067  0.20577433  0.13666133  1
  Al  Al17  1  0.01064367  0.80486933  0.13666133  1
  Al  Al18  1  0.79422567  0.98935633  0.13666133  1
  Al  Al19  1  0.32268967  0.46089233  0.03000533  1
  Al  Al20  1  0.79422567  0.80486933  0.63666133  1
  Al  Al21  1  0.19513067  0.98935633  0.63666133  1
  Al  Al22  1  0.01064367  0.20577433  0.63666133  1
  Al  Al23  1  0.53910767  0.67731033  0.53000533  1
  Al  Al24  1  0.32268967  0.86179733  0.53000533  1
  Al  Al25  1  0.13820267  0.46089233  0.53000533  1
  Al  Al26  1  0.20577433  0.19513067  0.36333867  1
  Al  Al27  1  0.80486933  0.01064367  0.36333867  1
  Al  Al28  1  0.66666667  0.33333333  0.58333333  1
  Al  Al29  1  0.33333333  0.66666667  0.41666667  1
  Al  Al30  1  0.86179733  0.53910767  0.46999467  1
  Al  Al31  1  0.67731033  0.13820267  0.46999467  1
  Al  Al32  1  0.46089233  0.32268967  0.46999467  1
  Al  Al33  1  0.98935633  0.79422567  0.36333867  1
  Al  Al34  1  0.46089233  0.13820267  0.96999467  1
  Al  Al35  1  0.86179733  0.32268967  0.96999467  1
  Al  Al36  1  0.67731033  0.53910767  0.96999467  1
  Al  Al37  1  0.20577433  0.01064367  0.86333867  1
  Al  Al38  1  0.98935633  0.19513067  0.86333867  1
  Al  Al39  1  0.80486933  0.79422567  0.86333867  1
  Al  Al40  1  0.87244100  0.52846400  0.69667200  1
  Al  Al41  1  0.47153600  0.34397700  0.69667200  1
  Al  Al42  1  0.33333333  0.66666667  0.91666667  1
  Al  Al43  1  0.00000000  0.00000000  0.75000000  1
  Al  Al44  1  0.52846400  0.87244100  0.80332800  1
  Al  Al45  1  0.34397700  0.47153600  0.80332800  1
  Al  Al46  1  0.12755900  0.65602300  0.80332800  1
  Al  Al47  1  0.65602300  0.12755900  0.69667200  1
  Au  Au48  1  0.66666667  0.65429933  0.08333333  1
  Au  Au49  1  0.34570067  0.01236733  0.08333333  1
  Au  Au50  1  0.98763267  0.33333333  0.08333333  1
  Au  Au51  1  0.00000000  0.67903400  0.25000000  1
  Au  Au52  1  0.32096600  0.32096600  0.25000000  1
  Au  Au53  1  0.67903400  0.00000000  0.25000000  1
  Au  Au54  1  0.33333333  0.98763267  0.41666667  1
  Au  Au55  1  0.01236733  0.34570067  0.41666667  1
  Au  Au56  1  0.65429933  0.66666667  0.41666667  1
  Au  Au57  1  0.66666667  0.01236733  0.58333333  1
  Au  Au58  1  0.98763267  0.65429933  0.58333333  1
  Au  Au59  1  0.34570067  0.33333333  0.58333333  1
  Au  Au60  1  0.00000000  0.32096600  0.75000000  1
  Au  Au61  1  0.67903400  0.67903400  0.75000000  1
  Au  Au62  1  0.32096600  0.00000000  0.75000000  1
  Au  Au63  1  0.33333333  0.34570067  0.91666667  1
  Au  Au64  1  0.65429933  0.98763267  0.91666667  1
  Au  Au65  1  0.01236733  0.66666667  0.91666667  1
