# generated using pymatgen
data_Dy3MnB7
_symmetry_space_group_name_H-M   'P 1'
_cell_length_a   3.44107000
_cell_length_b   15.75863400
_cell_length_c   9.29765900
_cell_angle_alpha   90.00000000
_cell_angle_beta   90.00000000
_cell_angle_gamma   90.00000000
_symmetry_Int_Tables_number   1
_chemical_formula_structural   Dy3MnB7
_chemical_formula_sum   'Dy12 Mn4 B28'
_cell_volume   504.18008871
_cell_formula_units_Z   4
loop_
 _symmetry_equiv_pos_site_id
 _symmetry_equiv_pos_as_xyz
  1  'x, y, z'
loop_
 _atom_site_type_symbol
 _atom_site_label
 _atom_site_symmetry_multiplicity
 _atom_site_fract_x
 _atom_site_fract_y
 _atom_site_fract_z
 _atom_site_occupancy
  Dy  Dy0  1  0.00000000  0.23992100  0.75000000  1
  Dy  Dy1  1  0.50000000  0.26007900  0.25000000  1
  Dy  Dy2  1  0.00000000  0.10395400  0.06046000  1
  Dy  Dy3  1  0.50000000  0.39604600  0.93954000  1
  Dy  Dy4  1  0.50000000  0.39604600  0.56046000  1
  Dy  Dy5  1  0.00000000  0.10395400  0.43954000  1
  Dy  Dy6  1  0.50000000  0.73992100  0.75000000  1
  Dy  Dy7  1  0.00000000  0.76007900  0.25000000  1
  Dy  Dy8  1  0.50000000  0.60395400  0.06046000  1
  Dy  Dy9  1  0.00000000  0.89604600  0.93954000  1
  Dy  Dy10  1  0.00000000  0.89604600  0.56046000  1
  Dy  Dy11  1  0.50000000  0.60395400  0.43954000  1
  Mn  Mn12  1  0.00000000  0.05365900  0.75000000  1
  Mn  Mn13  1  0.50000000  0.44634100  0.25000000  1
  Mn  Mn14  1  0.50000000  0.55365900  0.75000000  1
  Mn  Mn15  1  0.00000000  0.94634100  0.25000000  1
  B  B16  1  0.00000000  0.46062500  0.75000000  1
  B  B17  1  0.50000000  0.03937500  0.25000000  1
  B  B18  1  0.00000000  0.47822700  0.40172000  1
  B  B19  1  0.50000000  0.02177300  0.59828000  1
  B  B20  1  0.50000000  0.02177300  0.90172000  1
  B  B21  1  0.00000000  0.47822700  0.09828000  1
  B  B22  1  0.00000000  0.37019300  0.34699800  1
  B  B23  1  0.50000000  0.12980700  0.65300200  1
  B  B24  1  0.00000000  0.27265600  0.46761400  1
  B  B25  1  0.50000000  0.22734400  0.53238600  1
  B  B26  1  0.50000000  0.22734400  0.96761400  1
  B  B27  1  0.00000000  0.27265600  0.03238600  1
  B  B28  1  0.00000000  0.37019300  0.15300200  1
  B  B29  1  0.50000000  0.12980700  0.84699800  1
  B  B30  1  0.50000000  0.96062500  0.75000000  1
  B  B31  1  0.00000000  0.53937500  0.25000000  1
  B  B32  1  0.50000000  0.97822700  0.40172000  1
  B  B33  1  0.00000000  0.52177300  0.59828000  1
  B  B34  1  0.00000000  0.52177300  0.90172000  1
  B  B35  1  0.50000000  0.97822700  0.09828000  1
  B  B36  1  0.50000000  0.87019300  0.34699800  1
  B  B37  1  0.00000000  0.62980700  0.65300200  1
  B  B38  1  0.50000000  0.77265600  0.46761400  1
  B  B39  1  0.00000000  0.72734400  0.53238600  1
  B  B40  1  0.00000000  0.72734400  0.96761400  1
  B  B41  1  0.50000000  0.77265600  0.03238600  1
  B  B42  1  0.50000000  0.87019300  0.15300200  1
  B  B43  1  0.00000000  0.62980700  0.84699800  1
