# generated using pymatgen
data_CsVP2S7
_symmetry_space_group_name_H-M   'P 1'
_cell_length_a   8.70192000
_cell_length_b   9.76919600
_cell_length_c   7.17018885
_cell_angle_alpha   90.00000000
_cell_angle_beta   97.40263697
_cell_angle_gamma   90.00000000
_symmetry_Int_Tables_number   1
_chemical_formula_structural   CsVP2S7
_chemical_formula_sum   'Cs2 V2 P4 S14'
_cell_volume   604.46281782
_cell_formula_units_Z   2
loop_
 _symmetry_equiv_pos_site_id
 _symmetry_equiv_pos_as_xyz
  1  'x, y, z'
loop_
 _atom_site_type_symbol
 _atom_site_label
 _atom_site_symmetry_multiplicity
 _atom_site_fract_x
 _atom_site_fract_y
 _atom_site_fract_z
 _atom_site_occupancy
  Cs  Cs0  1  0.50000000  0.39411300  0.00000000  1
  Cs  Cs1  1  0.00000000  0.89411300  0.00000000  1
  V  V2  1  0.50000000  0.99847000  0.50000000  1
  V  V3  1  0.00000000  0.49847000  0.50000000  1
  P  P4  1  0.19812050  0.14324650  0.57505100  1
  P  P5  1  0.80187950  0.14324650  0.42494900  1
  P  P6  1  0.69812050  0.64324650  0.57505100  1
  P  P7  1  0.30187950  0.64324650  0.42494900  1
  S  S8  1  0.33853250  0.02481250  0.75712000  1
  S  S9  1  0.66146750  0.02481250  0.24288000  1
  S  S10  1  0.31374200  0.15717500  0.34447300  1
  S  S11  1  0.68625800  0.15717500  0.65552700  1
  S  S12  1  0.63439800  0.81635300  0.70053700  1
  S  S13  1  0.36560200  0.81635300  0.29946300  1
  S  S14  1  0.50000000  0.51206200  0.50000000  1
  S  S15  1  0.83853250  0.52481250  0.75712000  1
  S  S16  1  0.16146750  0.52481250  0.24288000  1
  S  S17  1  0.81374200  0.65717500  0.34447300  1
  S  S18  1  0.18625800  0.65717500  0.65552700  1
  S  S19  1  0.13439800  0.31635300  0.70053700  1
  S  S20  1  0.86560200  0.31635300  0.29946300  1
  S  S21  1  0.00000000  0.01206200  0.50000000  1
