# generated using pymatgen
data_Nb4GaSe8
_symmetry_space_group_name_H-M   'P 1'
_cell_length_a   10.55535800
_cell_length_b   10.55535800
_cell_length_c   10.55535800
_cell_angle_alpha   90.00000000
_cell_angle_beta   90.00000000
_cell_angle_gamma   90.00000000
_symmetry_Int_Tables_number   1
_chemical_formula_structural   Nb4GaSe8
_chemical_formula_sum   'Nb16 Ga4 Se32'
_cell_volume   1176.03136015
_cell_formula_units_Z   4
loop_
 _symmetry_equiv_pos_site_id
 _symmetry_equiv_pos_as_xyz
  1  'x, y, z'
loop_
 _atom_site_type_symbol
 _atom_site_label
 _atom_site_symmetry_multiplicity
 _atom_site_fract_x
 _atom_site_fract_y
 _atom_site_fract_z
 _atom_site_occupancy
  Nb  Nb0  1  0.60276100  0.10276100  0.10276100  1
  Nb  Nb1  1  0.10276100  0.39723900  0.89723900  1
  Nb  Nb2  1  0.89723900  0.39723900  0.10276100  1
  Nb  Nb3  1  0.39723900  0.10276100  0.89723900  1
  Nb  Nb4  1  0.60276100  0.60276100  0.60276100  1
  Nb  Nb5  1  0.10276100  0.89723900  0.39723900  1
  Nb  Nb6  1  0.89723900  0.89723900  0.60276100  1
  Nb  Nb7  1  0.39723900  0.60276100  0.39723900  1
  Nb  Nb8  1  0.10276100  0.10276100  0.60276100  1
  Nb  Nb9  1  0.60276100  0.39723900  0.39723900  1
  Nb  Nb10  1  0.39723900  0.39723900  0.60276100  1
  Nb  Nb11  1  0.89723900  0.10276100  0.39723900  1
  Nb  Nb12  1  0.10276100  0.60276100  0.10276100  1
  Nb  Nb13  1  0.60276100  0.89723900  0.89723900  1
  Nb  Nb14  1  0.39723900  0.89723900  0.10276100  1
  Nb  Nb15  1  0.89723900  0.60276100  0.89723900  1
  Ga  Ga16  1  0.00000000  0.00000000  0.00000000  1
  Ga  Ga17  1  0.00000000  0.50000000  0.50000000  1
  Ga  Ga18  1  0.50000000  0.00000000  0.50000000  1
  Ga  Ga19  1  0.50000000  0.50000000  0.00000000  1
  Se  Se20  1  0.36479467  0.36479467  0.86479467  1
  Se  Se21  1  0.36479467  0.13520533  0.63520533  1
  Se  Se22  1  0.13520533  0.13520533  0.86479467  1
  Se  Se23  1  0.13473300  0.36526700  0.13473300  1
  Se  Se24  1  0.63473300  0.13473300  0.86526700  1
  Se  Se25  1  0.36526700  0.13473300  0.13473300  1
  Se  Se26  1  0.86526700  0.36526700  0.86526700  1
  Se  Se27  1  0.13520533  0.36479467  0.63520533  1
  Se  Se28  1  0.36479467  0.86479467  0.36479467  1
  Se  Se29  1  0.36479467  0.63520533  0.13520533  1
  Se  Se30  1  0.13520533  0.63520533  0.36479467  1
  Se  Se31  1  0.13473300  0.86526700  0.63473300  1
  Se  Se32  1  0.63473300  0.63473300  0.36526700  1
  Se  Se33  1  0.36526700  0.63473300  0.63473300  1
  Se  Se34  1  0.86526700  0.86526700  0.36526700  1
  Se  Se35  1  0.13520533  0.86479467  0.13520533  1
  Se  Se36  1  0.86479467  0.36479467  0.36479467  1
  Se  Se37  1  0.86479467  0.13520533  0.13520533  1
  Se  Se38  1  0.63520533  0.13520533  0.36479467  1
  Se  Se39  1  0.63473300  0.36526700  0.63473300  1
  Se  Se40  1  0.13473300  0.13473300  0.36526700  1
  Se  Se41  1  0.86526700  0.13473300  0.63473300  1
  Se  Se42  1  0.36526700  0.36526700  0.36526700  1
  Se  Se43  1  0.63520533  0.36479467  0.13520533  1
  Se  Se44  1  0.86479467  0.86479467  0.86479467  1
  Se  Se45  1  0.86479467  0.63520533  0.63520533  1
  Se  Se46  1  0.63520533  0.63520533  0.86479467  1
  Se  Se47  1  0.63473300  0.86526700  0.13473300  1
  Se  Se48  1  0.13473300  0.63473300  0.86526700  1
  Se  Se49  1  0.86526700  0.63473300  0.13473300  1
  Se  Se50  1  0.36526700  0.86526700  0.86526700  1
  Se  Se51  1  0.63520533  0.86479467  0.63520533  1
