# generated using pymatgen
data_Mn2NbP12
_symmetry_space_group_name_H-M   'P 1'
_cell_length_a   16.11318600
_cell_length_b   5.79157200
_cell_length_c   10.68651185
_cell_angle_alpha   90.00000000
_cell_angle_beta   115.63991345
_cell_angle_gamma   90.00000000
_symmetry_Int_Tables_number   1
_chemical_formula_structural   Mn2NbP12
_chemical_formula_sum   'Mn8 Nb4 P48'
_cell_volume   899.07239810
_cell_formula_units_Z   4
loop_
 _symmetry_equiv_pos_site_id
 _symmetry_equiv_pos_as_xyz
  1  'x, y, z'
loop_
 _atom_site_type_symbol
 _atom_site_label
 _atom_site_symmetry_multiplicity
 _atom_site_fract_x
 _atom_site_fract_y
 _atom_site_fract_z
 _atom_site_occupancy
  Mn  Mn0  1  0.81777950  0.81019250  0.45433600  1
  Mn  Mn1  1  0.68222050  0.31019250  0.04566400  1
  Mn  Mn2  1  0.18222050  0.18980750  0.54566400  1
  Mn  Mn3  1  0.31777950  0.68980750  0.95433600  1
  Mn  Mn4  1  0.31777950  0.31019250  0.45433600  1
  Mn  Mn5  1  0.18222050  0.81019250  0.04566400  1
  Mn  Mn6  1  0.68222050  0.68980750  0.54566400  1
  Mn  Mn7  1  0.81777950  0.18980750  0.95433600  1
  Nb  Nb8  1  0.00000000  0.69586600  0.25000000  1
  Nb  Nb9  1  0.00000000  0.30413400  0.75000000  1
  Nb  Nb10  1  0.50000000  0.19586600  0.25000000  1
  Nb  Nb11  1  0.50000000  0.80413400  0.75000000  1
  P  P12  1  0.72624150  0.67778350  0.07418000  1
  P  P13  1  0.77375850  0.17778350  0.42582000  1
  P  P14  1  0.27375850  0.32221650  0.92582000  1
  P  P15  1  0.22624150  0.82221650  0.57418000  1
  P  P16  1  0.06249250  0.35438950  0.16530200  1
  P  P17  1  0.93750750  0.35438950  0.33469800  1
  P  P18  1  0.34381800  0.67601200  0.75812800  1
  P  P19  1  0.15618200  0.17601200  0.74187200  1
  P  P20  1  0.65618200  0.32398800  0.24187200  1
  P  P21  1  0.84381800  0.82398800  0.25812800  1
  P  P22  1  0.03312600  0.95097200  0.92773500  1
  P  P23  1  0.96687400  0.95097200  0.57226500  1
  P  P24  1  0.96687400  0.04902800  0.07226500  1
  P  P25  1  0.03312600  0.04902800  0.42773500  1
  P  P26  1  0.11703150  0.54980750  0.50415700  1
  P  P27  1  0.38296850  0.04980750  0.99584300  1
  P  P28  1  0.88296850  0.45019250  0.49584300  1
  P  P29  1  0.61703150  0.95019250  0.00415700  1
  P  P30  1  0.17805600  0.82717100  0.83558600  1
  P  P31  1  0.32194400  0.32717100  0.66441400  1
  P  P32  1  0.82194400  0.17282900  0.16441400  1
  P  P33  1  0.67805600  0.67282900  0.33558600  1
  P  P34  1  0.06249250  0.64561050  0.66530200  1
  P  P35  1  0.93750750  0.64561050  0.83469800  1
  P  P36  1  0.22624150  0.17778350  0.07418000  1
  P  P37  1  0.27375850  0.67778350  0.42582000  1
  P  P38  1  0.77375850  0.82221650  0.92582000  1
  P  P39  1  0.72624150  0.32221650  0.57418000  1
  P  P40  1  0.56249250  0.85438950  0.16530200  1
  P  P41  1  0.43750750  0.85438950  0.33469800  1
  P  P42  1  0.84381800  0.17601200  0.75812800  1
  P  P43  1  0.65618200  0.67601200  0.74187200  1
  P  P44  1  0.15618200  0.82398800  0.24187200  1
  P  P45  1  0.34381800  0.32398800  0.25812800  1
  P  P46  1  0.53312600  0.45097200  0.92773500  1
  P  P47  1  0.46687400  0.45097200  0.57226500  1
  P  P48  1  0.46687400  0.54902800  0.07226500  1
  P  P49  1  0.53312600  0.54902800  0.42773500  1
  P  P50  1  0.61703150  0.04980750  0.50415700  1
  P  P51  1  0.88296850  0.54980750  0.99584300  1
  P  P52  1  0.38296850  0.95019250  0.49584300  1
  P  P53  1  0.11703150  0.45019250  0.00415700  1
  P  P54  1  0.67805600  0.32717100  0.83558600  1
  P  P55  1  0.82194400  0.82717100  0.66441400  1
  P  P56  1  0.32194400  0.67282900  0.16441400  1
  P  P57  1  0.17805600  0.17282900  0.33558600  1
  P  P58  1  0.56249250  0.14561050  0.66530200  1
  P  P59  1  0.43750750  0.14561050  0.83469800  1
