# generated using pymatgen
data_Hf2CuGe4
_symmetry_space_group_name_H-M   'P 1'
_cell_length_a   3.81999600
_cell_length_b   33.14079600
_cell_length_c   3.79489300
_cell_angle_alpha   90.00000000
_cell_angle_beta   90.00000000
_cell_angle_gamma   90.00000000
_symmetry_Int_Tables_number   1
_chemical_formula_structural   Hf2CuGe4
_chemical_formula_sum   'Hf8 Cu4 Ge16'
_cell_volume   480.42475650
_cell_formula_units_Z   4
loop_
 _symmetry_equiv_pos_site_id
 _symmetry_equiv_pos_as_xyz
  1  'x, y, z'
loop_
 _atom_site_type_symbol
 _atom_site_label
 _atom_site_symmetry_multiplicity
 _atom_site_fract_x
 _atom_site_fract_y
 _atom_site_fract_z
 _atom_site_occupancy
  Hf  Hf0  1  0.50000000  0.17774600  0.75000000  1
  Hf  Hf1  1  0.00000000  0.32225400  0.25000000  1
  Hf  Hf2  1  0.50000000  0.45265600  0.75000000  1
  Hf  Hf3  1  0.00000000  0.04734400  0.25000000  1
  Hf  Hf4  1  0.00000000  0.67774600  0.75000000  1
  Hf  Hf5  1  0.50000000  0.82225400  0.25000000  1
  Hf  Hf6  1  0.00000000  0.95265600  0.75000000  1
  Hf  Hf7  1  0.50000000  0.54734400  0.25000000  1
  Cu  Cu8  1  0.50000000  0.24989300  0.25000000  1
  Cu  Cu9  1  0.00000000  0.25010700  0.75000000  1
  Cu  Cu10  1  0.00000000  0.74989300  0.25000000  1
  Cu  Cu11  1  0.50000000  0.75010700  0.75000000  1
  Ge  Ge12  1  0.00000000  0.11326500  0.75000000  1
  Ge  Ge13  1  0.50000000  0.38673500  0.25000000  1
  Ge  Ge14  1  0.50000000  0.29860000  0.75000000  1
  Ge  Ge15  1  0.00000000  0.20140000  0.25000000  1
  Ge  Ge16  1  0.00000000  0.47210800  0.25000000  1
  Ge  Ge17  1  0.50000000  0.02789200  0.75000000  1
  Ge  Ge18  1  0.50000000  0.11294200  0.25000000  1
  Ge  Ge19  1  0.00000000  0.38705800  0.75000000  1
  Ge  Ge20  1  0.50000000  0.61326500  0.75000000  1
  Ge  Ge21  1  0.00000000  0.88673500  0.25000000  1
  Ge  Ge22  1  0.00000000  0.79860000  0.75000000  1
  Ge  Ge23  1  0.50000000  0.70140000  0.25000000  1
  Ge  Ge24  1  0.50000000  0.97210800  0.25000000  1
  Ge  Ge25  1  0.00000000  0.52789200  0.75000000  1
  Ge  Ge26  1  0.00000000  0.61294200  0.25000000  1
  Ge  Ge27  1  0.50000000  0.88705800  0.75000000  1
