# generated using pymatgen
data_Zr3ZnN
_symmetry_space_group_name_H-M   'P 1'
_cell_length_a   3.36112800
_cell_length_b   11.55913200
_cell_length_c   8.96402600
_cell_angle_alpha   90.00000000
_cell_angle_beta   90.00000000
_cell_angle_gamma   90.00000000
_symmetry_Int_Tables_number   1
_chemical_formula_structural   Zr3ZnN
_chemical_formula_sum   'Zr12 Zn4 N4'
_cell_volume   348.26784813
_cell_formula_units_Z   4
loop_
 _symmetry_equiv_pos_site_id
 _symmetry_equiv_pos_as_xyz
  1  'x, y, z'
loop_
 _atom_site_type_symbol
 _atom_site_label
 _atom_site_symmetry_multiplicity
 _atom_site_fract_x
 _atom_site_fract_y
 _atom_site_fract_z
 _atom_site_occupancy
  Zr  Zr0  1  0.00000000  0.37391800  0.45238800  1
  Zr  Zr1  1  0.50000000  0.12608200  0.95238800  1
  Zr  Zr2  1  0.50000000  0.12608200  0.54761200  1
  Zr  Zr3  1  0.00000000  0.37391800  0.04761200  1
  Zr  Zr4  1  0.00000000  0.04704900  0.25000000  1
  Zr  Zr5  1  0.50000000  0.45295100  0.75000000  1
  Zr  Zr6  1  0.50000000  0.87391800  0.45238800  1
  Zr  Zr7  1  0.00000000  0.62608200  0.95238800  1
  Zr  Zr8  1  0.00000000  0.62608200  0.54761200  1
  Zr  Zr9  1  0.50000000  0.87391800  0.04761200  1
  Zr  Zr10  1  0.50000000  0.54704900  0.25000000  1
  Zr  Zr11  1  0.00000000  0.95295100  0.75000000  1
  Zn  Zn12  1  0.50000000  0.24427700  0.25000000  1
  Zn  Zn13  1  0.00000000  0.25572300  0.75000000  1
  Zn  Zn14  1  0.00000000  0.74427700  0.25000000  1
  Zn  Zn15  1  0.50000000  0.75572300  0.75000000  1
  N  N16  1  0.00000000  0.00000000  0.50000000  1
  N  N17  1  0.00000000  0.00000000  0.00000000  1
  N  N18  1  0.50000000  0.50000000  0.50000000  1
  N  N19  1  0.50000000  0.50000000  0.00000000  1
