# generated using pymatgen
data_Mg5Ga2
_symmetry_space_group_name_H-M   'P 1'
_cell_length_a   6.02488200
_cell_length_b   7.02909600
_cell_length_c   13.72629600
_cell_angle_alpha   90.00000000
_cell_angle_beta   90.00000000
_cell_angle_gamma   90.00000000
_symmetry_Int_Tables_number   1
_chemical_formula_structural   Mg5Ga2
_chemical_formula_sum   'Mg20 Ga8'
_cell_volume   581.30141511
_cell_formula_units_Z   4
loop_
 _symmetry_equiv_pos_site_id
 _symmetry_equiv_pos_as_xyz
  1  'x, y, z'
loop_
 _atom_site_type_symbol
 _atom_site_label
 _atom_site_symmetry_multiplicity
 _atom_site_fract_x
 _atom_site_fract_y
 _atom_site_fract_z
 _atom_site_occupancy
  Mg  Mg0  1  0.00000000  0.15425600  0.58358300  1
  Mg  Mg1  1  0.50000000  0.34574400  0.91641700  1
  Mg  Mg2  1  0.00000000  0.65425600  0.91641700  1
  Mg  Mg3  1  0.50000000  0.84574400  0.58358300  1
  Mg  Mg4  1  0.75000000  0.50000000  0.50000000  1
  Mg  Mg5  1  0.25000000  0.50000000  0.50000000  1
  Mg  Mg6  1  0.75000000  0.50000000  0.73249350  1
  Mg  Mg7  1  0.25000000  0.00000000  0.76750650  1
  Mg  Mg8  1  0.75000000  0.00000000  0.76750650  1
  Mg  Mg9  1  0.25000000  0.50000000  0.73249350  1
  Mg  Mg10  1  0.50000000  0.65425600  0.08358300  1
  Mg  Mg11  1  0.00000000  0.84574400  0.41641700  1
  Mg  Mg12  1  0.50000000  0.15425600  0.41641700  1
  Mg  Mg13  1  0.00000000  0.34574400  0.08358300  1
  Mg  Mg14  1  0.25000000  0.00000000  0.00000000  1
  Mg  Mg15  1  0.75000000  0.00000000  0.00000000  1
  Mg  Mg16  1  0.25000000  0.00000000  0.23249350  1
  Mg  Mg17  1  0.75000000  0.50000000  0.26750650  1
  Mg  Mg18  1  0.25000000  0.50000000  0.26750650  1
  Mg  Mg19  1  0.75000000  0.00000000  0.23249350  1
  Ga  Ga20  1  0.00000000  0.76402000  0.62253400  1
  Ga  Ga21  1  0.50000000  0.73598000  0.87746600  1
  Ga  Ga22  1  0.00000000  0.26402000  0.87746600  1
  Ga  Ga23  1  0.50000000  0.23598000  0.62253400  1
  Ga  Ga24  1  0.50000000  0.26402000  0.12253400  1
  Ga  Ga25  1  0.00000000  0.23598000  0.37746600  1
  Ga  Ga26  1  0.50000000  0.76402000  0.37746600  1
  Ga  Ga27  1  0.00000000  0.73598000  0.12253400  1
