# generated using pymatgen
data_Dy2Al6Si4Pt
_symmetry_space_group_name_H-M   'P 1'
_cell_length_a   4.17029769
_cell_length_b   4.17029769
_cell_length_c   50.63371545
_cell_angle_alpha   90.00000000
_cell_angle_beta   90.00000000
_cell_angle_gamma   120.00000000
_symmetry_Int_Tables_number   1
_chemical_formula_structural   Dy2Al6Si4Pt
_chemical_formula_sum   'Dy6 Al18 Si12 Pt3'
_cell_volume   762.61359688
_cell_formula_units_Z   3
loop_
 _symmetry_equiv_pos_site_id
 _symmetry_equiv_pos_as_xyz
  1  'x, y, z'
loop_
 _atom_site_type_symbol
 _atom_site_label
 _atom_site_symmetry_multiplicity
 _atom_site_fract_x
 _atom_site_fract_y
 _atom_site_fract_z
 _atom_site_occupancy
  Dy  Dy0  1  0.33333333  0.66666667  0.23250967  1
  Dy  Dy1  1  0.33333333  0.66666667  0.10082367  1
  Dy  Dy2  1  0.00000000  0.00000000  0.56584300  1
  Dy  Dy3  1  0.00000000  0.00000000  0.43415700  1
  Dy  Dy4  1  0.66666667  0.33333333  0.89917633  1
  Dy  Dy5  1  0.66666667  0.33333333  0.76749033  1
  Al  Al6  1  0.66666667  0.33333333  0.28289233  1
  Al  Al7  1  0.00000000  0.00000000  0.05044100  1
  Al  Al8  1  0.00000000  0.00000000  0.31747300  1
  Al  Al9  1  0.66666667  0.33333333  0.14812933  1
  Al  Al10  1  0.00000000  0.00000000  0.18520400  1
  Al  Al11  1  0.66666667  0.33333333  0.01586033  1
  Al  Al12  1  0.33333333  0.66666667  0.61622567  1
  Al  Al13  1  0.66666667  0.33333333  0.38377433  1
  Al  Al14  1  0.66666667  0.33333333  0.65080633  1
  Al  Al15  1  0.33333333  0.66666667  0.48146267  1
  Al  Al16  1  0.66666667  0.33333333  0.51853733  1
  Al  Al17  1  0.33333333  0.66666667  0.34919367  1
  Al  Al18  1  0.00000000  0.00000000  0.94955900  1
  Al  Al19  1  0.33333333  0.66666667  0.71710767  1
  Al  Al20  1  0.33333333  0.66666667  0.98413967  1
  Al  Al21  1  0.00000000  0.00000000  0.81479600  1
  Al  Al22  1  0.33333333  0.66666667  0.85187067  1
  Al  Al23  1  0.00000000  0.00000000  0.68252700  1
  Si  Si24  1  0.00000000  0.00000000  0.26567500  1
  Si  Si25  1  0.00000000  0.00000000  0.13504500  1
  Si  Si26  1  0.66666667  0.33333333  0.19828833  1
  Si  Si27  1  0.66666667  0.33333333  0.06765833  1
  Si  Si28  1  0.66666667  0.33333333  0.59900833  1
  Si  Si29  1  0.66666667  0.33333333  0.46837833  1
  Si  Si30  1  0.33333333  0.66666667  0.53162167  1
  Si  Si31  1  0.33333333  0.66666667  0.40099167  1
  Si  Si32  1  0.33333333  0.66666667  0.93234167  1
  Si  Si33  1  0.33333333  0.66666667  0.80171167  1
  Si  Si34  1  0.00000000  0.00000000  0.86495500  1
  Si  Si35  1  0.00000000  0.00000000  0.73432500  1
  Pt  Pt36  1  0.00000000  0.00000000  0.00000000  1
  Pt  Pt37  1  0.66666667  0.33333333  0.33333333  1
  Pt  Pt38  1  0.33333333  0.66666667  0.66666667  1
