# generated using pymatgen
data_PrGa
_symmetry_space_group_name_H-M   'P 1'
_cell_length_a   4.50633600
_cell_length_b   11.44963200
_cell_length_c   4.20531000
_cell_angle_alpha   90.00000000
_cell_angle_beta   90.00000000
_cell_angle_gamma   90.00000000
_symmetry_Int_Tables_number   1
_chemical_formula_structural   PrGa
_chemical_formula_sum   'Pr4 Ga4'
_cell_volume   216.97670742
_cell_formula_units_Z   4
loop_
 _symmetry_equiv_pos_site_id
 _symmetry_equiv_pos_as_xyz
  1  'x, y, z'
loop_
 _atom_site_type_symbol
 _atom_site_label
 _atom_site_symmetry_multiplicity
 _atom_site_fract_x
 _atom_site_fract_y
 _atom_site_fract_z
 _atom_site_occupancy
  Pr  Pr0  1  0.00000000  0.14098500  0.25000000  1
  Pr  Pr1  1  0.50000000  0.35901500  0.75000000  1
  Pr  Pr2  1  0.50000000  0.64098500  0.25000000  1
  Pr  Pr3  1  0.00000000  0.85901500  0.75000000  1
  Ga  Ga4  1  0.00000000  0.43036900  0.25000000  1
  Ga  Ga5  1  0.50000000  0.06963100  0.75000000  1
  Ga  Ga6  1  0.50000000  0.93036900  0.25000000  1
  Ga  Ga7  1  0.00000000  0.56963100  0.75000000  1
