# generated using pymatgen
data_Ba2CrO4
_symmetry_space_group_name_H-M   'P 1'
_cell_length_a   6.00512888
_cell_length_b   7.73476756
_cell_length_c   10.71257563
_cell_angle_alpha   90.00000000
_cell_angle_beta   90.00000000
_cell_angle_gamma   90.00000000
_symmetry_Int_Tables_number   1
_chemical_formula_structural   Ba2CrO4
_chemical_formula_sum   'Ba8 Cr4 O16'
_cell_volume   497.58067012
_cell_formula_units_Z   4
loop_
 _symmetry_equiv_pos_site_id
 _symmetry_equiv_pos_as_xyz
  1  'x, y, z'
loop_
 _atom_site_type_symbol
 _atom_site_label
 _atom_site_symmetry_multiplicity
 _atom_site_fract_x
 _atom_site_fract_y
 _atom_site_fract_z
 _atom_site_occupancy
  Ba  Ba0  1  0.25000000  0.99530164  0.69615317  1
  Ba  Ba1  1  0.75000000  0.50469836  0.19615317  1
  Ba  Ba2  1  0.25000000  0.49530165  0.80384683  1
  Ba  Ba3  1  0.75000000  0.00469836  0.30384683  1
  Ba  Ba4  1  0.25000000  0.65081610  0.42931251  1
  Ba  Ba5  1  0.75000000  0.34918390  0.57068749  1
  Ba  Ba6  1  0.25000000  0.15081611  0.07068749  1
  Ba  Ba7  1  0.75000000  0.84918390  0.92931251  1
  Cr  Cr8  1  0.25000000  0.71843126  0.07851524  1
  Cr  Cr9  1  0.75000000  0.28156874  0.92148476  1
  Cr  Cr10  1  0.25000000  0.21843126  0.42148476  1
  Cr  Cr11  1  0.75000000  0.78156874  0.57851524  1
  O  O12  1  0.50354216  0.19119063  0.85222615  1
  O  O13  1  0.00354216  0.80880937  0.14777385  1
  O  O14  1  0.99645784  0.69119063  0.64777385  1
  O  O15  1  0.49645784  0.30880937  0.35222615  1
  O  O16  1  0.49645784  0.80880937  0.14777385  1
  O  O17  1  0.99645784  0.19119063  0.85222615  1
  O  O18  1  0.00354216  0.30880937  0.35222615  1
  O  O19  1  0.50354216  0.69119063  0.64777385  1
  O  O20  1  0.25000000  0.81162978  0.92159118  1
  O  O21  1  0.75000000  0.18837022  0.07840882  1
  O  O22  1  0.25000000  0.31162979  0.57840882  1
  O  O23  1  0.75000000  0.68837022  0.42159118  1
  O  O24  1  0.75000000  0.01148913  0.57869971  1
  O  O25  1  0.25000000  0.98851086  0.42130029  1
  O  O26  1  0.25000000  0.48851087  0.07869971  1
  O  O27  1  0.75000000  0.51148914  0.92130029  1
