# generated using pymatgen
data_Sr2MnO4
_symmetry_space_group_name_H-M   'P 1'
_cell_length_a   3.86531262
_cell_length_b   3.86531262
_cell_length_c   12.58158693
_cell_angle_alpha   90.00000000
_cell_angle_beta   90.00000000
_cell_angle_gamma   90.00000000
_symmetry_Int_Tables_number   1
_chemical_formula_structural   Sr2MnO4
_chemical_formula_sum   'Sr4 Mn2 O8'
_cell_volume   187.97698219
_cell_formula_units_Z   2
loop_
 _symmetry_equiv_pos_site_id
 _symmetry_equiv_pos_as_xyz
  1  'x, y, z'
loop_
 _atom_site_type_symbol
 _atom_site_label
 _atom_site_symmetry_multiplicity
 _atom_site_fract_x
 _atom_site_fract_y
 _atom_site_fract_z
 _atom_site_occupancy
  Sr  Sr0  1  0.00000000  0.00000000  0.64381394  1
  Sr  Sr1  1  0.50000000  0.50000000  0.85618606  1
  Sr  Sr2  1  0.50000000  0.50000000  0.14381394  1
  Sr  Sr3  1  0.00000000  0.00000000  0.35618606  1
  Mn  Mn4  1  0.00000000  0.00000000  0.00000000  1
  Mn  Mn5  1  0.50000000  0.50000000  0.50000000  1
  O  O6  1  0.00000000  0.00000000  0.84358373  1
  O  O7  1  0.50000000  0.50000000  0.65641627  1
  O  O8  1  0.50000000  0.00000000  0.50000000  1
  O  O9  1  0.00000000  0.50000000  0.50000000  1
  O  O10  1  0.50000000  0.50000000  0.34358373  1
  O  O11  1  0.00000000  0.00000000  0.15641627  1
  O  O12  1  0.00000000  0.50000000  0.00000000  1
  O  O13  1  0.50000000  0.00000000  0.00000000  1
