# generated using pymatgen
data_Tb2Co3Si5
_symmetry_space_group_name_H-M   'P 1'
_cell_length_a   10.81809800
_cell_length_b   11.48042400
_cell_length_c   5.52670442
_cell_angle_alpha   90.00000000
_cell_angle_beta   118.69008041
_cell_angle_gamma   90.00000000
_symmetry_Int_Tables_number   1
_chemical_formula_structural   Tb2Co3Si5
_chemical_formula_sum   'Tb8 Co12 Si20'
_cell_volume   602.12713879
_cell_formula_units_Z   4
loop_
 _symmetry_equiv_pos_site_id
 _symmetry_equiv_pos_as_xyz
  1  'x, y, z'
loop_
 _atom_site_type_symbol
 _atom_site_label
 _atom_site_symmetry_multiplicity
 _atom_site_fract_x
 _atom_site_fract_y
 _atom_site_fract_z
 _atom_site_occupancy
  Tb  Tb0  1  0.26606450  0.86446550  0.76307900  1
  Tb  Tb1  1  0.73393550  0.86446550  0.73692100  1
  Tb  Tb2  1  0.73393550  0.13553450  0.23692100  1
  Tb  Tb3  1  0.26606450  0.13553450  0.26307900  1
  Tb  Tb4  1  0.76606450  0.36446550  0.76307900  1
  Tb  Tb5  1  0.23393550  0.36446550  0.73692100  1
  Tb  Tb6  1  0.23393550  0.63553450  0.23692100  1
  Tb  Tb7  1  0.76606450  0.63553450  0.26307900  1
  Co  Co8  1  0.59889450  0.86210550  0.12632100  1
  Co  Co9  1  0.50000000  0.50389000  0.25000000  1
  Co  Co10  1  0.59889450  0.13789450  0.62632100  1
  Co  Co11  1  0.40110550  0.13789450  0.87367900  1
  Co  Co12  1  0.40110550  0.86210550  0.37367900  1
  Co  Co13  1  0.50000000  0.49611000  0.75000000  1
  Co  Co14  1  0.09889450  0.36210550  0.12632100  1
  Co  Co15  1  0.00000000  0.00389000  0.25000000  1
  Co  Co16  1  0.09889450  0.63789450  0.62632100  1
  Co  Co17  1  0.90110550  0.63789450  0.87367900  1
  Co  Co18  1  0.90110550  0.36210550  0.37367900  1
  Co  Co19  1  0.00000000  0.99611000  0.75000000  1
  Si  Si20  1  0.50000000  0.72999800  0.75000000  1
  Si  Si21  1  0.50000000  0.27000200  0.25000000  1
  Si  Si22  1  0.50000000  0.98855100  0.75000000  1
  Si  Si23  1  0.50000000  0.01144900  0.25000000  1
  Si  Si24  1  0.50000000  0.28530200  0.75000000  1
  Si  Si25  1  0.50000000  0.71469800  0.25000000  1
  Si  Si26  1  0.83786900  0.09956200  0.83581300  1
  Si  Si27  1  0.83786900  0.90043800  0.33581300  1
  Si  Si28  1  0.16213100  0.90043800  0.16418700  1
  Si  Si29  1  0.16213100  0.09956200  0.66418700  1
  Si  Si30  1  0.00000000  0.22999800  0.75000000  1
  Si  Si31  1  0.00000000  0.77000200  0.25000000  1
  Si  Si32  1  0.00000000  0.48855100  0.75000000  1
  Si  Si33  1  0.00000000  0.51144900  0.25000000  1
  Si  Si34  1  0.00000000  0.78530200  0.75000000  1
  Si  Si35  1  0.00000000  0.21469800  0.25000000  1
  Si  Si36  1  0.33786900  0.59956200  0.83581300  1
  Si  Si37  1  0.33786900  0.40043800  0.33581300  1
  Si  Si38  1  0.66213100  0.40043800  0.16418700  1
  Si  Si39  1  0.66213100  0.59956200  0.66418700  1
