# generated using pymatgen
data_Sr3Sn5
_symmetry_space_group_name_H-M   'P 1'
_cell_length_a   8.66863400
_cell_length_b   10.77286400
_cell_length_c   11.00725400
_cell_angle_alpha   90.00000000
_cell_angle_beta   90.00000000
_cell_angle_gamma   90.00000000
_symmetry_Int_Tables_number   1
_chemical_formula_structural   Sr3Sn5
_chemical_formula_sum   'Sr12 Sn20'
_cell_volume   1027.92358878
_cell_formula_units_Z   4
loop_
 _symmetry_equiv_pos_site_id
 _symmetry_equiv_pos_as_xyz
  1  'x, y, z'
loop_
 _atom_site_type_symbol
 _atom_site_label
 _atom_site_symmetry_multiplicity
 _atom_site_fract_x
 _atom_site_fract_y
 _atom_site_fract_z
 _atom_site_occupancy
  Sr  Sr0  1  0.14591500  0.00000000  0.25000000  1
  Sr  Sr1  1  0.85408500  0.00000000  0.75000000  1
  Sr  Sr2  1  0.50000000  0.79722300  0.00000000  1
  Sr  Sr3  1  0.50000000  0.20277700  0.50000000  1
  Sr  Sr4  1  0.50000000  0.20277700  0.00000000  1
  Sr  Sr5  1  0.50000000  0.79722300  0.50000000  1
  Sr  Sr6  1  0.64591500  0.50000000  0.25000000  1
  Sr  Sr7  1  0.35408500  0.50000000  0.75000000  1
  Sr  Sr8  1  0.00000000  0.29722300  0.00000000  1
  Sr  Sr9  1  0.00000000  0.70277700  0.50000000  1
  Sr  Sr10  1  0.00000000  0.70277700  0.00000000  1
  Sr  Sr11  1  0.00000000  0.29722300  0.50000000  1
  Sn  Sn12  1  0.54253000  0.00000000  0.25000000  1
  Sn  Sn13  1  0.45747000  0.00000000  0.75000000  1
  Sn  Sn14  1  0.79189800  0.20040600  0.25000000  1
  Sn  Sn15  1  0.20810200  0.79959400  0.75000000  1
  Sn  Sn16  1  0.79189800  0.79959400  0.25000000  1
  Sn  Sn17  1  0.20810200  0.20040600  0.75000000  1
  Sn  Sn18  1  0.18780700  0.00000000  0.55323500  1
  Sn  Sn19  1  0.81219300  0.00000000  0.05323500  1
  Sn  Sn20  1  0.18780700  0.00000000  0.94676500  1
  Sn  Sn21  1  0.81219300  0.00000000  0.44676500  1
  Sn  Sn22  1  0.04253000  0.50000000  0.25000000  1
  Sn  Sn23  1  0.95747000  0.50000000  0.75000000  1
  Sn  Sn24  1  0.29189800  0.70040600  0.25000000  1
  Sn  Sn25  1  0.70810200  0.29959400  0.75000000  1
  Sn  Sn26  1  0.29189800  0.29959400  0.25000000  1
  Sn  Sn27  1  0.70810200  0.70040600  0.75000000  1
  Sn  Sn28  1  0.68780700  0.50000000  0.55323500  1
  Sn  Sn29  1  0.31219300  0.50000000  0.05323500  1
  Sn  Sn30  1  0.68780700  0.50000000  0.94676500  1
  Sn  Sn31  1  0.31219300  0.50000000  0.44676500  1
