# generated using pymatgen
data_Tb2Si5Ru3
_symmetry_space_group_name_H-M   'P 1'
_cell_length_a   5.63055400
_cell_length_b   9.66373400
_cell_length_c   12.16079400
_cell_angle_alpha   90.00000000
_cell_angle_beta   90.00000000
_cell_angle_gamma   90.00000000
_symmetry_Int_Tables_number   1
_chemical_formula_structural   Tb2Si5Ru3
_chemical_formula_sum   'Tb8 Si20 Ru12'
_cell_volume   661.69526499
_cell_formula_units_Z   4
loop_
 _symmetry_equiv_pos_site_id
 _symmetry_equiv_pos_as_xyz
  1  'x, y, z'
loop_
 _atom_site_type_symbol
 _atom_site_label
 _atom_site_symmetry_multiplicity
 _atom_site_fract_x
 _atom_site_fract_y
 _atom_site_fract_z
 _atom_site_occupancy
  Tb  Tb0  1  0.00000000  0.26749500  0.63497700  1
  Tb  Tb1  1  0.00000000  0.73250500  0.36502300  1
  Tb  Tb2  1  0.50000000  0.26749500  0.36502300  1
  Tb  Tb3  1  0.50000000  0.73250500  0.63497700  1
  Tb  Tb4  1  0.50000000  0.76749500  0.13497700  1
  Tb  Tb5  1  0.50000000  0.23250500  0.86502300  1
  Tb  Tb6  1  0.00000000  0.76749500  0.86502300  1
  Tb  Tb7  1  0.00000000  0.23250500  0.13497700  1
  Si  Si8  1  0.75000000  0.50000000  0.50000000  1
  Si  Si9  1  0.25000000  0.50000000  0.50000000  1
  Si  Si10  1  0.25000000  0.00000000  0.70806750  1
  Si  Si11  1  0.25000000  0.00000000  0.29193250  1
  Si  Si12  1  0.75000000  0.00000000  0.29193250  1
  Si  Si13  1  0.75000000  0.00000000  0.70806750  1
  Si  Si14  1  0.50000000  0.83146500  0.40417100  1
  Si  Si15  1  0.00000000  0.16853500  0.40417100  1
  Si  Si16  1  0.00000000  0.83146500  0.59582900  1
  Si  Si17  1  0.50000000  0.16853500  0.59582900  1
  Si  Si18  1  0.25000000  0.00000000  0.00000000  1
  Si  Si19  1  0.75000000  0.00000000  0.00000000  1
  Si  Si20  1  0.75000000  0.50000000  0.20806750  1
  Si  Si21  1  0.75000000  0.50000000  0.79193250  1
  Si  Si22  1  0.25000000  0.50000000  0.79193250  1
  Si  Si23  1  0.25000000  0.50000000  0.20806750  1
  Si  Si24  1  0.00000000  0.33146500  0.90417100  1
  Si  Si25  1  0.50000000  0.66853500  0.90417100  1
  Si  Si26  1  0.50000000  0.33146500  0.09582900  1
  Si  Si27  1  0.00000000  0.66853500  0.09582900  1
  Ru  Ru28  1  0.50000000  0.90714650  0.85399750  1
  Ru  Ru29  1  0.25000000  0.00000000  0.50000000  1
  Ru  Ru30  1  0.00000000  0.09285350  0.85399750  1
  Ru  Ru31  1  0.00000000  0.90714650  0.14600250  1
  Ru  Ru32  1  0.50000000  0.09285350  0.14600250  1
  Ru  Ru33  1  0.75000000  0.00000000  0.50000000  1
  Ru  Ru34  1  0.00000000  0.40714650  0.35399750  1
  Ru  Ru35  1  0.75000000  0.50000000  0.00000000  1
  Ru  Ru36  1  0.50000000  0.59285350  0.35399750  1
  Ru  Ru37  1  0.50000000  0.40714650  0.64600250  1
  Ru  Ru38  1  0.00000000  0.59285350  0.64600250  1
  Ru  Ru39  1  0.25000000  0.50000000  0.00000000  1
