# generated using pymatgen
data_LaSn
_symmetry_space_group_name_H-M   'P 1'
_cell_length_a   4.83758600
_cell_length_b   12.00445000
_cell_length_c   4.44934200
_cell_angle_alpha   90.00000000
_cell_angle_beta   90.00000000
_cell_angle_gamma   90.00000000
_symmetry_Int_Tables_number   1
_chemical_formula_structural   LaSn
_chemical_formula_sum   'La4 Sn4'
_cell_volume   258.38467695
_cell_formula_units_Z   4
loop_
 _symmetry_equiv_pos_site_id
 _symmetry_equiv_pos_as_xyz
  1  'x, y, z'
loop_
 _atom_site_type_symbol
 _atom_site_label
 _atom_site_symmetry_multiplicity
 _atom_site_fract_x
 _atom_site_fract_y
 _atom_site_fract_z
 _atom_site_occupancy
  La  La0  1  0.00000000  0.13659700  0.75000000  1
  La  La1  1  0.50000000  0.36340300  0.25000000  1
  La  La2  1  0.50000000  0.63659700  0.75000000  1
  La  La3  1  0.00000000  0.86340300  0.25000000  1
  Sn  Sn4  1  0.00000000  0.41380200  0.75000000  1
  Sn  Sn5  1  0.50000000  0.08619800  0.25000000  1
  Sn  Sn6  1  0.50000000  0.91380200  0.75000000  1
  Sn  Sn7  1  0.00000000  0.58619800  0.25000000  1
