# generated using pymatgen
data_Th2Co17
_symmetry_space_group_name_H-M   'P 1'
_cell_length_a   8.37085026
_cell_length_b   8.37085026
_cell_length_c   12.17913235
_cell_angle_alpha   90.00000000
_cell_angle_beta   90.00000000
_cell_angle_gamma   120.00000000
_symmetry_Int_Tables_number   1
_chemical_formula_structural   Th2Co17
_chemical_formula_sum   'Th6 Co51'
_cell_volume   739.07094409
_cell_formula_units_Z   3
loop_
 _symmetry_equiv_pos_site_id
 _symmetry_equiv_pos_as_xyz
  1  'x, y, z'
loop_
 _atom_site_type_symbol
 _atom_site_label
 _atom_site_symmetry_multiplicity
 _atom_site_fract_x
 _atom_site_fract_y
 _atom_site_fract_z
 _atom_site_occupancy
  Th  Th0  1  0.33333333  0.66666667  0.32315667  1
  Th  Th1  1  0.33333333  0.66666667  0.01017667  1
  Th  Th2  1  0.00000000  0.00000000  0.65649000  1
  Th  Th3  1  0.00000000  0.00000000  0.34351000  1
  Th  Th4  1  0.66666667  0.33333333  0.98982333  1
  Th  Th5  1  0.66666667  0.33333333  0.67684333  1
  Co  Co6  1  0.16420167  0.83579833  0.18103233  1
  Co  Co7  1  0.16420167  0.32840333  0.18103233  1
  Co  Co8  1  0.33333333  0.66666667  0.76361767  1
  Co  Co9  1  0.33333333  0.66666667  0.56971567  1
  Co  Co10  1  0.16666667  0.83333333  0.83333333  1
  Co  Co11  1  0.33333333  0.16666667  0.16666667  1
  Co  Co12  1  0.83333333  0.66666667  0.16666667  1
  Co  Co13  1  0.95128667  0.61795333  0.33333333  1
  Co  Co14  1  0.00000000  0.71538000  0.00000000  1
  Co  Co15  1  0.71538000  1.00000000  0.00000000  1
  Co  Co16  1  0.38204667  0.04871333  0.33333333  1
  Co  Co17  1  0.00000000  0.28462000  0.00000000  1
  Co  Co18  1  0.28462000  1.00000000  0.00000000  1
  Co  Co19  1  0.50246500  0.00493000  0.15230100  1
  Co  Co20  1  0.50246500  0.49753500  0.15230100  1
  Co  Co21  1  0.99507000  0.49753500  0.15230100  1
  Co  Co22  1  0.67159667  0.83579833  0.18103233  1
  Co  Co23  1  0.83086833  0.16913167  0.51436567  1
  Co  Co24  1  0.83086833  0.66173667  0.51436567  1
  Co  Co25  1  0.00000000  0.00000000  0.09695100  1
  Co  Co26  1  0.00000000  0.00000000  0.90304900  1
  Co  Co27  1  0.83333333  0.16666667  0.16666667  1
  Co  Co28  1  0.00000000  0.50000000  0.50000000  1
  Co  Co29  1  0.50000000  0.00000000  0.50000000  1
  Co  Co30  1  0.61795333  0.95128667  0.66666667  1
  Co  Co31  1  0.66666667  0.04871333  0.33333333  1
  Co  Co32  1  0.38204667  0.33333333  0.33333333  1
  Co  Co33  1  0.04871333  0.38204667  0.66666667  1
  Co  Co34  1  0.66666667  0.61795333  0.33333333  1
  Co  Co35  1  0.95128667  0.33333333  0.33333333  1
  Co  Co36  1  0.16913167  0.33826333  0.48563433  1
  Co  Co37  1  0.16913167  0.83086833  0.48563433  1
  Co  Co38  1  0.66173667  0.83086833  0.48563433  1
  Co  Co39  1  0.33826333  0.16913167  0.51436567  1
  Co  Co40  1  0.49753500  0.50246500  0.84769900  1
  Co  Co41  1  0.49753500  0.99507000  0.84769900  1
  Co  Co42  1  0.66666667  0.33333333  0.43028433  1
  Co  Co43  1  0.66666667  0.33333333  0.23638233  1
  Co  Co44  1  0.50000000  0.50000000  0.50000000  1
  Co  Co45  1  0.66666667  0.83333333  0.83333333  1
  Co  Co46  1  0.16666667  0.33333333  0.83333333  1
  Co  Co47  1  0.28462000  0.28462000  0.00000000  1
  Co  Co48  1  0.33333333  0.38204667  0.66666667  1
  Co  Co49  1  0.04871333  0.66666667  0.66666667  1
  Co  Co50  1  0.71538000  0.71538000  0.00000000  1
  Co  Co51  1  0.33333333  0.95128667  0.66666667  1
  Co  Co52  1  0.61795333  0.66666667  0.66666667  1
  Co  Co53  1  0.83579833  0.67159667  0.81896767  1
  Co  Co54  1  0.83579833  0.16420167  0.81896767  1
  Co  Co55  1  0.32840333  0.16420167  0.81896767  1
  Co  Co56  1  0.00493000  0.50246500  0.84769900  1
