# generated using pymatgen
data_Tb2Si5Rh3
_symmetry_space_group_name_H-M   'P 1'
_cell_length_a   11.14082800
_cell_length_b   11.83626200
_cell_length_c   5.71636730
_cell_angle_alpha   90.00000000
_cell_angle_beta   118.31257591
_cell_angle_gamma   90.00000000
_symmetry_Int_Tables_number   1
_chemical_formula_structural   Tb2Si5Rh3
_chemical_formula_sum   'Tb8 Si20 Rh12'
_cell_volume   663.61931173
_cell_formula_units_Z   4
loop_
 _symmetry_equiv_pos_site_id
 _symmetry_equiv_pos_as_xyz
  1  'x, y, z'
loop_
 _atom_site_type_symbol
 _atom_site_label
 _atom_site_symmetry_multiplicity
 _atom_site_fract_x
 _atom_site_fract_y
 _atom_site_fract_z
 _atom_site_occupancy
  Tb  Tb0  1  0.26684000  0.86591200  0.76024700  1
  Tb  Tb1  1  0.73316000  0.86591200  0.73975300  1
  Tb  Tb2  1  0.73316000  0.13408800  0.23975300  1
  Tb  Tb3  1  0.26684000  0.13408800  0.26024700  1
  Tb  Tb4  1  0.76684000  0.36591200  0.76024700  1
  Tb  Tb5  1  0.23316000  0.36591200  0.73975300  1
  Tb  Tb6  1  0.23316000  0.63408800  0.23975300  1
  Tb  Tb7  1  0.76684000  0.63408800  0.26024700  1
  Si  Si8  1  0.83789400  0.10413900  0.83859900  1
  Si  Si9  1  0.16210600  0.10413900  0.66140100  1
  Si  Si10  1  0.16210600  0.89586100  0.16140100  1
  Si  Si11  1  0.83789400  0.89586100  0.33859900  1
  Si  Si12  1  0.50000000  0.98757400  0.75000000  1
  Si  Si13  1  0.50000000  0.01242600  0.25000000  1
  Si  Si14  1  0.50000000  0.72399800  0.75000000  1
  Si  Si15  1  0.50000000  0.71041400  0.25000000  1
  Si  Si16  1  0.50000000  0.28958600  0.75000000  1
  Si  Si17  1  0.50000000  0.27600200  0.25000000  1
  Si  Si18  1  0.33789400  0.60413900  0.83859900  1
  Si  Si19  1  0.66210600  0.60413900  0.66140100  1
  Si  Si20  1  0.66210600  0.39586100  0.16140100  1
  Si  Si21  1  0.33789400  0.39586100  0.33859900  1
  Si  Si22  1  0.00000000  0.48757400  0.75000000  1
  Si  Si23  1  0.00000000  0.51242600  0.25000000  1
  Si  Si24  1  0.00000000  0.22399800  0.75000000  1
  Si  Si25  1  0.00000000  0.21041400  0.25000000  1
  Si  Si26  1  0.00000000  0.78958600  0.75000000  1
  Si  Si27  1  0.00000000  0.77600200  0.25000000  1
  Rh  Rh28  1  0.50000000  0.50200200  0.25000000  1
  Rh  Rh29  1  0.40028250  0.13929750  0.87366500  1
  Rh  Rh30  1  0.40028250  0.86070250  0.37366500  1
  Rh  Rh31  1  0.59971750  0.86070250  0.12633500  1
  Rh  Rh32  1  0.50000000  0.49799800  0.75000000  1
  Rh  Rh33  1  0.59971750  0.13929750  0.62633500  1
  Rh  Rh34  1  0.00000000  0.00200200  0.25000000  1
  Rh  Rh35  1  0.90028250  0.63929750  0.87366500  1
  Rh  Rh36  1  0.90028250  0.36070250  0.37366500  1
  Rh  Rh37  1  0.09971750  0.36070250  0.12633500  1
  Rh  Rh38  1  0.00000000  0.99799800  0.75000000  1
  Rh  Rh39  1  0.09971750  0.63929750  0.62633500  1
