# generated using pymatgen
data_BaCr10O15
_symmetry_space_group_name_H-M   'P 1'
_cell_length_a   10.45186600
_cell_length_b   11.73129600
_cell_length_c   9.62839200
_cell_angle_alpha   90.00000000
_cell_angle_beta   90.00000000
_cell_angle_gamma   90.00000000
_symmetry_Int_Tables_number   1
_chemical_formula_structural   BaCr10O15
_chemical_formula_sum   'Ba4 Cr40 O60'
_cell_volume   1180.57501927
_cell_formula_units_Z   4
loop_
 _symmetry_equiv_pos_site_id
 _symmetry_equiv_pos_as_xyz
  1  'x, y, z'
loop_
 _atom_site_type_symbol
 _atom_site_label
 _atom_site_symmetry_multiplicity
 _atom_site_fract_x
 _atom_site_fract_y
 _atom_site_fract_z
 _atom_site_occupancy
  Ba  Ba0  1  0.00000000  0.00000000  0.50000000  1
  Ba  Ba1  1  0.50000000  0.00000000  0.00000000  1
  Ba  Ba2  1  0.50000000  0.50000000  0.50000000  1
  Ba  Ba3  1  0.00000000  0.50000000  0.00000000  1
  Cr  Cr4  1  0.66241200  0.75579500  0.11474400  1
  Cr  Cr5  1  0.33758800  0.74420500  0.61474400  1
  Cr  Cr6  1  0.66241200  0.74420500  0.38525600  1
  Cr  Cr7  1  0.33758800  0.75579500  0.88525600  1
  Cr  Cr8  1  0.33758800  0.24420500  0.88525600  1
  Cr  Cr9  1  0.66241200  0.25579500  0.38525600  1
  Cr  Cr10  1  0.33758800  0.25579500  0.61474400  1
  Cr  Cr11  1  0.66241200  0.24420500  0.11474400  1
  Cr  Cr12  1  0.41569050  0.37280950  0.14329100  1
  Cr  Cr13  1  0.58430950  0.12719050  0.64329100  1
  Cr  Cr14  1  0.41569050  0.12719050  0.35670900  1
  Cr  Cr15  1  0.58430950  0.37280950  0.85670900  1
  Cr  Cr16  1  0.58430950  0.62719050  0.85670900  1
  Cr  Cr17  1  0.41569050  0.87280950  0.35670900  1
  Cr  Cr18  1  0.58430950  0.87280950  0.64329100  1
  Cr  Cr19  1  0.41569050  0.62719050  0.14329100  1
  Cr  Cr20  1  0.81669200  0.00000000  0.86526200  1
  Cr  Cr21  1  0.68330800  0.00000000  0.36526200  1
  Cr  Cr22  1  0.31669200  0.00000000  0.63473800  1
  Cr  Cr23  1  0.18330800  0.00000000  0.13473800  1
  Cr  Cr24  1  0.16241200  0.25579500  0.11474400  1
  Cr  Cr25  1  0.83758800  0.24420500  0.61474400  1
  Cr  Cr26  1  0.16241200  0.24420500  0.38525600  1
  Cr  Cr27  1  0.83758800  0.25579500  0.88525600  1
  Cr  Cr28  1  0.83758800  0.74420500  0.88525600  1
  Cr  Cr29  1  0.16241200  0.75579500  0.38525600  1
  Cr  Cr30  1  0.83758800  0.75579500  0.61474400  1
  Cr  Cr31  1  0.16241200  0.74420500  0.11474400  1
  Cr  Cr32  1  0.91569050  0.87280950  0.14329100  1
  Cr  Cr33  1  0.08430950  0.62719050  0.64329100  1
  Cr  Cr34  1  0.91569050  0.62719050  0.35670900  1
  Cr  Cr35  1  0.08430950  0.87280950  0.85670900  1
  Cr  Cr36  1  0.08430950  0.12719050  0.85670900  1
  Cr  Cr37  1  0.91569050  0.37280950  0.35670900  1
  Cr  Cr38  1  0.08430950  0.37280950  0.64329100  1
  Cr  Cr39  1  0.91569050  0.12719050  0.14329100  1
  Cr  Cr40  1  0.31669200  0.50000000  0.86526200  1
  Cr  Cr41  1  0.18330800  0.50000000  0.36526200  1
  Cr  Cr42  1  0.81669200  0.50000000  0.63473800  1
  Cr  Cr43  1  0.68330800  0.50000000  0.13473800  1
  O  O44  1  0.50000000  0.00000000  0.50000000  1
  O  O45  1  0.00000000  0.00000000  0.00000000  1
  O  O46  1  0.14490400  0.00000000  0.73979300  1
  O  O47  1  0.35509600  0.00000000  0.23979300  1
  O  O48  1  0.64490400  0.00000000  0.76020700  1
  O  O49  1  0.85509600  0.00000000  0.26020700  1
  O  O50  1  0.59062350  0.63188350  0.24032100  1
  O  O51  1  0.40937650  0.86811650  0.74032100  1
  O  O52  1  0.59062350  0.86811650  0.25967900  1
  O  O53  1  0.40937650  0.63188350  0.75967900  1
  O  O54  1  0.40937650  0.36811650  0.75967900  1
  O  O55  1  0.59062350  0.13188350  0.25967900  1
  O  O56  1  0.40937650  0.13188350  0.74032100  1
  O  O57  1  0.59062350  0.36811650  0.24032100  1
  O  O58  1  0.31469000  0.25000000  0.25000000  1
  O  O59  1  0.68531000  0.25000000  0.75000000  1
  O  O60  1  0.68531000  0.75000000  0.75000000  1
  O  O61  1  0.31469000  0.75000000  0.25000000  1
  O  O62  1  0.23419250  0.13054850  0.99456300  1
  O  O63  1  0.26580750  0.86945150  0.49456300  1
  O  O64  1  0.73419250  0.86945150  0.50543700  1
  O  O65  1  0.76580750  0.13054850  0.00543700  1
  O  O66  1  0.50000000  0.25619800  0.00000000  1
  O  O67  1  0.50000000  0.24380200  0.50000000  1
  O  O68  1  0.50000000  0.74380200  0.00000000  1
  O  O69  1  0.50000000  0.75619800  0.50000000  1
  O  O70  1  0.23419250  0.86945150  0.99456300  1
  O  O71  1  0.26580750  0.13054850  0.49456300  1
  O  O72  1  0.73419250  0.13054850  0.50543700  1
  O  O73  1  0.76580750  0.86945150  0.00543700  1
  O  O74  1  0.00000000  0.50000000  0.50000000  1
  O  O75  1  0.50000000  0.50000000  0.00000000  1
  O  O76  1  0.64490400  0.50000000  0.73979300  1
  O  O77  1  0.85509600  0.50000000  0.23979300  1
  O  O78  1  0.14490400  0.50000000  0.76020700  1
  O  O79  1  0.35509600  0.50000000  0.26020700  1
  O  O80  1  0.09062350  0.13188350  0.24032100  1
  O  O81  1  0.90937650  0.36811650  0.74032100  1
  O  O82  1  0.09062350  0.36811650  0.25967900  1
  O  O83  1  0.90937650  0.13188350  0.75967900  1
  O  O84  1  0.90937650  0.86811650  0.75967900  1
  O  O85  1  0.09062350  0.63188350  0.25967900  1
  O  O86  1  0.90937650  0.63188350  0.74032100  1
  O  O87  1  0.09062350  0.86811650  0.24032100  1
  O  O88  1  0.81469000  0.75000000  0.25000000  1
  O  O89  1  0.18531000  0.75000000  0.75000000  1
  O  O90  1  0.18531000  0.25000000  0.75000000  1
  O  O91  1  0.81469000  0.25000000  0.25000000  1
  O  O92  1  0.73419250  0.63054850  0.99456300  1
  O  O93  1  0.76580750  0.36945150  0.49456300  1
  O  O94  1  0.23419250  0.36945150  0.50543700  1
  O  O95  1  0.26580750  0.63054850  0.00543700  1
  O  O96  1  0.00000000  0.75619800  0.00000000  1
  O  O97  1  0.00000000  0.74380200  0.50000000  1
  O  O98  1  0.00000000  0.24380200  0.00000000  1
  O  O99  1  0.00000000  0.25619800  0.50000000  1
  O  O100  1  0.73419250  0.36945150  0.99456300  1
  O  O101  1  0.76580750  0.63054850  0.49456300  1
  O  O102  1  0.23419250  0.63054850  0.50543700  1
  O  O103  1  0.26580750  0.36945150  0.00543700  1
