# generated using pymatgen
data_Ge2Os
_symmetry_space_group_name_H-M   'P 1'
_cell_length_a   9.10291400
_cell_length_b   3.13255600
_cell_length_c   7.77021214
_cell_angle_alpha   90.00000000
_cell_angle_beta   119.24491493
_cell_angle_gamma   90.00000000
_symmetry_Int_Tables_number   1
_chemical_formula_structural   Ge2Os
_chemical_formula_sum   'Ge8 Os4'
_cell_volume   193.32908291
_cell_formula_units_Z   4
loop_
 _symmetry_equiv_pos_site_id
 _symmetry_equiv_pos_as_xyz
  1  'x, y, z'
loop_
 _atom_site_type_symbol
 _atom_site_label
 _atom_site_symmetry_multiplicity
 _atom_site_fract_x
 _atom_site_fract_y
 _atom_site_fract_z
 _atom_site_occupancy
  Ge  Ge0  1  0.85614700  0.00000000  0.46784400  1
  Ge  Ge1  1  0.14385300  0.00000000  0.53215600  1
  Ge  Ge2  1  0.10076200  0.50000000  0.88853200  1
  Ge  Ge3  1  0.89923800  0.50000000  0.11146800  1
  Ge  Ge4  1  0.35614700  0.50000000  0.46784400  1
  Ge  Ge5  1  0.64385300  0.50000000  0.53215600  1
  Ge  Ge6  1  0.60076200  0.00000000  0.88853200  1
  Ge  Ge7  1  0.39923800  0.00000000  0.11146800  1
  Os  Os8  1  0.65419000  0.50000000  0.20095800  1
  Os  Os9  1  0.34581000  0.50000000  0.79904200  1
  Os  Os10  1  0.15419000  0.00000000  0.20095800  1
  Os  Os11  1  0.84581000  0.00000000  0.79904200  1
