# generated using pymatgen
data_Ho2Si5Ni3
_symmetry_space_group_name_H-M   'P 1'
_cell_length_a   5.63401800
_cell_length_b   9.57097200
_cell_length_c   11.09686400
_cell_angle_alpha   90.00000000
_cell_angle_beta   90.00000000
_cell_angle_gamma   90.00000000
_symmetry_Int_Tables_number   1
_chemical_formula_structural   Ho2Si5Ni3
_chemical_formula_sum   'Ho8 Si20 Ni12'
_cell_volume   598.37651402
_cell_formula_units_Z   4
loop_
 _symmetry_equiv_pos_site_id
 _symmetry_equiv_pos_as_xyz
  1  'x, y, z'
loop_
 _atom_site_type_symbol
 _atom_site_label
 _atom_site_symmetry_multiplicity
 _atom_site_fract_x
 _atom_site_fract_y
 _atom_site_fract_z
 _atom_site_occupancy
  Ho  Ho0  1  0.50000000  0.73632700  0.36860700  1
  Ho  Ho1  1  0.50000000  0.26367300  0.63139300  1
  Ho  Ho2  1  0.00000000  0.73632700  0.63139300  1
  Ho  Ho3  1  0.00000000  0.26367300  0.36860700  1
  Ho  Ho4  1  0.00000000  0.23632700  0.86860700  1
  Ho  Ho5  1  0.00000000  0.76367300  0.13139300  1
  Ho  Ho6  1  0.50000000  0.23632700  0.13139300  1
  Ho  Ho7  1  0.50000000  0.76367300  0.86860700  1
  Si  Si8  1  0.75000000  0.00000000  0.00000000  1
  Si  Si9  1  0.25000000  0.00000000  0.00000000  1
  Si  Si10  1  0.75000000  0.00000000  0.26702250  1
  Si  Si11  1  0.75000000  0.00000000  0.73297750  1
  Si  Si12  1  0.25000000  0.00000000  0.73297750  1
  Si  Si13  1  0.25000000  0.00000000  0.26702250  1
  Si  Si14  1  0.00000000  0.15309550  0.60716450  1
  Si  Si15  1  0.50000000  0.84690450  0.60716450  1
  Si  Si16  1  0.50000000  0.15309550  0.39283550  1
  Si  Si17  1  0.00000000  0.84690450  0.39283550  1
  Si  Si18  1  0.25000000  0.50000000  0.50000000  1
  Si  Si19  1  0.75000000  0.50000000  0.50000000  1
  Si  Si20  1  0.25000000  0.50000000  0.76702250  1
  Si  Si21  1  0.25000000  0.50000000  0.23297750  1
  Si  Si22  1  0.75000000  0.50000000  0.23297750  1
  Si  Si23  1  0.75000000  0.50000000  0.76702250  1
  Si  Si24  1  0.50000000  0.65309550  0.10716450  1
  Si  Si25  1  0.00000000  0.34690450  0.10716450  1
  Si  Si26  1  0.00000000  0.65309550  0.89283550  1
  Si  Si27  1  0.50000000  0.34690450  0.89283550  1
  Ni  Ni28  1  0.00000000  0.11244450  0.13458250  1
  Ni  Ni29  1  0.75000000  0.00000000  0.50000000  1
  Ni  Ni30  1  0.50000000  0.88755550  0.13458250  1
  Ni  Ni31  1  0.50000000  0.11244450  0.86541750  1
  Ni  Ni32  1  0.00000000  0.88755550  0.86541750  1
  Ni  Ni33  1  0.25000000  0.00000000  0.50000000  1
  Ni  Ni34  1  0.50000000  0.61244450  0.63458250  1
  Ni  Ni35  1  0.25000000  0.50000000  0.00000000  1
  Ni  Ni36  1  0.00000000  0.38755550  0.63458250  1
  Ni  Ni37  1  0.00000000  0.61244450  0.36541750  1
  Ni  Ni38  1  0.50000000  0.38755550  0.36541750  1
  Ni  Ni39  1  0.75000000  0.50000000  0.00000000  1
