# generated using pymatgen
data_CaZn11
_symmetry_space_group_name_H-M   'P 1'
_cell_length_a   10.70353600
_cell_length_b   10.70353600
_cell_length_c   6.83849000
_cell_angle_alpha   90.00000000
_cell_angle_beta   90.00000000
_cell_angle_gamma   90.00000000
_symmetry_Int_Tables_number   1
_chemical_formula_structural   CaZn11
_chemical_formula_sum   'Ca4 Zn44'
_cell_volume   783.45627688
_cell_formula_units_Z   4
loop_
 _symmetry_equiv_pos_site_id
 _symmetry_equiv_pos_as_xyz
  1  'x, y, z'
loop_
 _atom_site_type_symbol
 _atom_site_label
 _atom_site_symmetry_multiplicity
 _atom_site_fract_x
 _atom_site_fract_y
 _atom_site_fract_z
 _atom_site_occupancy
  Ca  Ca0  1  0.50000000  0.00000000  0.75000000  1
  Ca  Ca1  1  0.00000000  0.00000000  0.50000000  1
  Ca  Ca2  1  0.00000000  0.50000000  0.25000000  1
  Ca  Ca3  1  0.50000000  0.50000000  0.00000000  1
  Zn  Zn4  1  0.12140300  0.29460400  0.55306800  1
  Zn  Zn5  1  0.79460400  0.87859700  0.80306800  1
  Zn  Zn6  1  0.20539600  0.12140300  0.80306800  1
  Zn  Zn7  1  0.87859700  0.70539600  0.55306800  1
  Zn  Zn8  1  0.70539600  0.87859700  0.44693200  1
  Zn  Zn9  1  0.29460400  0.12140300  0.44693200  1
  Zn  Zn10  1  0.12140300  0.20539600  0.19693200  1
  Zn  Zn11  1  0.87859700  0.79460400  0.19693200  1
  Zn  Zn12  1  0.87859700  0.20539600  0.19693200  1
  Zn  Zn13  1  0.70539600  0.12140300  0.44693200  1
  Zn  Zn14  1  0.29460400  0.87859700  0.44693200  1
  Zn  Zn15  1  0.12140300  0.79460400  0.19693200  1
  Zn  Zn16  1  0.79460400  0.12140300  0.80306800  1
  Zn  Zn17  1  0.20539600  0.87859700  0.80306800  1
  Zn  Zn18  1  0.87859700  0.29460400  0.55306800  1
  Zn  Zn19  1  0.12140300  0.70539600  0.55306800  1
  Zn  Zn20  1  0.75000000  0.00000000  0.12500000  1
  Zn  Zn21  1  0.00000000  0.75000000  0.87500000  1
  Zn  Zn22  1  0.00000000  0.25000000  0.87500000  1
  Zn  Zn23  1  0.25000000  0.00000000  0.12500000  1
  Zn  Zn24  1  0.00000000  0.00000000  0.00000000  1
  Zn  Zn25  1  0.50000000  0.00000000  0.25000000  1
  Zn  Zn26  1  0.62140300  0.79460400  0.05306800  1
  Zn  Zn27  1  0.29460400  0.37859700  0.30306800  1
  Zn  Zn28  1  0.70539600  0.62140300  0.30306800  1
  Zn  Zn29  1  0.37859700  0.20539600  0.05306800  1
  Zn  Zn30  1  0.20539600  0.37859700  0.94693200  1
  Zn  Zn31  1  0.79460400  0.62140300  0.94693200  1
  Zn  Zn32  1  0.62140300  0.70539600  0.69693200  1
  Zn  Zn33  1  0.37859700  0.29460400  0.69693200  1
  Zn  Zn34  1  0.37859700  0.70539600  0.69693200  1
  Zn  Zn35  1  0.20539600  0.62140300  0.94693200  1
  Zn  Zn36  1  0.79460400  0.37859700  0.94693200  1
  Zn  Zn37  1  0.62140300  0.29460400  0.69693200  1
  Zn  Zn38  1  0.29460400  0.62140300  0.30306800  1
  Zn  Zn39  1  0.70539600  0.37859700  0.30306800  1
  Zn  Zn40  1  0.37859700  0.79460400  0.05306800  1
  Zn  Zn41  1  0.62140300  0.20539600  0.05306800  1
  Zn  Zn42  1  0.25000000  0.50000000  0.62500000  1
  Zn  Zn43  1  0.50000000  0.25000000  0.37500000  1
  Zn  Zn44  1  0.50000000  0.75000000  0.37500000  1
  Zn  Zn45  1  0.75000000  0.50000000  0.62500000  1
  Zn  Zn46  1  0.50000000  0.50000000  0.50000000  1
  Zn  Zn47  1  0.00000000  0.50000000  0.75000000  1
