# generated using pymatgen
data_Pr3(NiGe)4
_symmetry_space_group_name_H-M   'P 1'
_cell_length_a   4.15281600
_cell_length_b   4.18793000
_cell_length_c   24.15639400
_cell_angle_alpha   90.00000000
_cell_angle_beta   90.00000000
_cell_angle_gamma   90.00000000
_symmetry_Int_Tables_number   1
_chemical_formula_structural   Pr3(NiGe)4
_chemical_formula_sum   'Pr6 Ni8 Ge8'
_cell_volume   420.12082301
_cell_formula_units_Z   2
loop_
 _symmetry_equiv_pos_site_id
 _symmetry_equiv_pos_as_xyz
  1  'x, y, z'
loop_
 _atom_site_type_symbol
 _atom_site_label
 _atom_site_symmetry_multiplicity
 _atom_site_fract_x
 _atom_site_fract_y
 _atom_site_fract_z
 _atom_site_occupancy
  Pr  Pr0  1  0.00000000  0.00000000  0.00000000  1
  Pr  Pr1  1  0.50000000  0.00000000  0.85148200  1
  Pr  Pr2  1  0.00000000  0.50000000  0.64851800  1
  Pr  Pr3  1  0.50000000  0.50000000  0.50000000  1
  Pr  Pr4  1  0.00000000  0.50000000  0.35148200  1
  Pr  Pr5  1  0.50000000  0.00000000  0.14851800  1
  Ni  Ni6  1  0.00000000  0.00000000  0.54973200  1
  Ni  Ni7  1  0.50000000  0.50000000  0.95026800  1
  Ni  Ni8  1  0.50000000  0.00000000  0.69915500  1
  Ni  Ni9  1  0.00000000  0.50000000  0.80084500  1
  Ni  Ni10  1  0.50000000  0.50000000  0.04973200  1
  Ni  Ni11  1  0.00000000  0.00000000  0.45026800  1
  Ni  Ni12  1  0.00000000  0.50000000  0.19915500  1
  Ni  Ni13  1  0.50000000  0.00000000  0.30084500  1
  Ge  Ge14  1  0.50000000  0.50000000  0.74996500  1
  Ge  Ge15  1  0.50000000  0.00000000  0.59966200  1
  Ge  Ge16  1  0.00000000  0.50000000  0.90033800  1
  Ge  Ge17  1  0.00000000  0.00000000  0.75003500  1
  Ge  Ge18  1  0.00000000  0.00000000  0.24996500  1
  Ge  Ge19  1  0.00000000  0.50000000  0.09966200  1
  Ge  Ge20  1  0.50000000  0.00000000  0.40033800  1
  Ge  Ge21  1  0.50000000  0.50000000  0.25003500  1
