# generated using pymatgen
data_ErSi3Ni
_symmetry_space_group_name_H-M   'P 1'
_cell_length_a   3.92202400
_cell_length_b   20.97967600
_cell_length_c   3.92452600
_cell_angle_alpha   90.00000000
_cell_angle_beta   90.00000000
_cell_angle_gamma   90.00000000
_symmetry_Int_Tables_number   1
_chemical_formula_structural   ErSi3Ni
_chemical_formula_sum   'Er4 Si12 Ni4'
_cell_volume   322.92095963
_cell_formula_units_Z   4
loop_
 _symmetry_equiv_pos_site_id
 _symmetry_equiv_pos_as_xyz
  1  'x, y, z'
loop_
 _atom_site_type_symbol
 _atom_site_label
 _atom_site_symmetry_multiplicity
 _atom_site_fract_x
 _atom_site_fract_y
 _atom_site_fract_z
 _atom_site_occupancy
  Er  Er0  1  0.50000000  0.83115400  0.50000000  1
  Er  Er1  1  0.00000000  0.66884600  0.50000000  1
  Er  Er2  1  0.00000000  0.33115400  0.50000000  1
  Er  Er3  1  0.50000000  0.16884600  0.50000000  1
  Si  Si4  1  0.50000000  0.94380200  0.00000000  1
  Si  Si5  1  0.00000000  0.55619800  0.00000000  1
  Si  Si6  1  0.50000000  0.71806600  0.00000000  1
  Si  Si7  1  0.00000000  0.78193400  0.00000000  1
  Si  Si8  1  0.00000000  0.94386700  0.50000000  1
  Si  Si9  1  0.50000000  0.55613300  0.50000000  1
  Si  Si10  1  0.00000000  0.44380200  0.00000000  1
  Si  Si11  1  0.50000000  0.05619800  0.00000000  1
  Si  Si12  1  0.00000000  0.21806600  0.00000000  1
  Si  Si13  1  0.50000000  0.28193400  0.00000000  1
  Si  Si14  1  0.50000000  0.44386700  0.50000000  1
  Si  Si15  1  0.00000000  0.05613300  0.50000000  1
  Ni  Ni16  1  0.50000000  0.61081700  0.00000000  1
  Ni  Ni17  1  0.00000000  0.88918300  0.00000000  1
  Ni  Ni18  1  0.00000000  0.11081700  0.00000000  1
  Ni  Ni19  1  0.50000000  0.38918300  0.00000000  1
