# generated using pymatgen
data_Sr5Ge3
_symmetry_space_group_name_H-M   'P 1'
_cell_length_a   8.17466800
_cell_length_b   8.17466800
_cell_length_c   15.96237800
_cell_angle_alpha   90.00000000
_cell_angle_beta   90.00000000
_cell_angle_gamma   90.00000000
_symmetry_Int_Tables_number   1
_chemical_formula_structural   Sr5Ge3
_chemical_formula_sum   'Sr20 Ge12'
_cell_volume   1066.68905301
_cell_formula_units_Z   4
loop_
 _symmetry_equiv_pos_site_id
 _symmetry_equiv_pos_as_xyz
  1  'x, y, z'
loop_
 _atom_site_type_symbol
 _atom_site_label
 _atom_site_symmetry_multiplicity
 _atom_site_fract_x
 _atom_site_fract_y
 _atom_site_fract_z
 _atom_site_occupancy
  Sr  Sr0  1  0.82168350  0.67831650  0.35920900  1
  Sr  Sr1  1  0.67831650  0.17831650  0.35920900  1
  Sr  Sr2  1  0.32168350  0.82168350  0.35920900  1
  Sr  Sr3  1  0.82168350  0.32168350  0.14079100  1
  Sr  Sr4  1  0.17831650  0.32168350  0.35920900  1
  Sr  Sr5  1  0.67831650  0.82168350  0.14079100  1
  Sr  Sr6  1  0.32168350  0.17831650  0.14079100  1
  Sr  Sr7  1  0.17831650  0.67831650  0.14079100  1
  Sr  Sr8  1  0.50000000  0.50000000  0.00000000  1
  Sr  Sr9  1  0.00000000  0.00000000  0.00000000  1
  Sr  Sr10  1  0.32168350  0.17831650  0.85920900  1
  Sr  Sr11  1  0.17831650  0.67831650  0.85920900  1
  Sr  Sr12  1  0.82168350  0.32168350  0.85920900  1
  Sr  Sr13  1  0.32168350  0.82168350  0.64079100  1
  Sr  Sr14  1  0.67831650  0.82168350  0.85920900  1
  Sr  Sr15  1  0.17831650  0.32168350  0.64079100  1
  Sr  Sr16  1  0.82168350  0.67831650  0.64079100  1
  Sr  Sr17  1  0.67831650  0.17831650  0.64079100  1
  Sr  Sr18  1  0.00000000  0.00000000  0.50000000  1
  Sr  Sr19  1  0.50000000  0.50000000  0.50000000  1
  Ge  Ge20  1  0.11372600  0.61372600  0.50000000  1
  Ge  Ge21  1  0.88627400  0.61372600  0.00000000  1
  Ge  Ge22  1  0.11372600  0.38627400  0.00000000  1
  Ge  Ge23  1  0.38627400  0.88627400  0.00000000  1
  Ge  Ge24  1  0.50000000  0.50000000  0.25000000  1
  Ge  Ge25  1  0.00000000  0.00000000  0.25000000  1
  Ge  Ge26  1  0.61372600  0.11372600  0.00000000  1
  Ge  Ge27  1  0.38627400  0.11372600  0.50000000  1
  Ge  Ge28  1  0.61372600  0.88627400  0.50000000  1
  Ge  Ge29  1  0.88627400  0.38627400  0.50000000  1
  Ge  Ge30  1  0.00000000  0.00000000  0.75000000  1
  Ge  Ge31  1  0.50000000  0.50000000  0.75000000  1
