# generated using pymatgen
data_Ba3Ag2
_symmetry_space_group_name_H-M   'P 1'
_cell_length_a   10.59948645
_cell_length_b   10.59948645
_cell_length_c   19.55645623
_cell_angle_alpha   90.00000000
_cell_angle_beta   90.00000000
_cell_angle_gamma   120.00000000
_symmetry_Int_Tables_number   1
_chemical_formula_structural   Ba3Ag2
_chemical_formula_sum   'Ba27 Ag18'
_cell_volume   1902.78815974
_cell_formula_units_Z   9
loop_
 _symmetry_equiv_pos_site_id
 _symmetry_equiv_pos_as_xyz
  1  'x, y, z'
loop_
 _atom_site_type_symbol
 _atom_site_label
 _atom_site_symmetry_multiplicity
 _atom_site_fract_x
 _atom_site_fract_y
 _atom_site_fract_z
 _atom_site_occupancy
  Ba  Ba0  1  0.33333333  0.66666667  0.16666667  1
  Ba  Ba1  1  0.33333333  0.66666667  0.96046267  1
  Ba  Ba2  1  0.33333333  0.66666667  0.37287067  1
  Ba  Ba3  1  0.73859000  0.97937700  0.09387700  1
  Ba  Ba4  1  0.24078700  0.26141000  0.09387700  1
  Ba  Ba5  1  0.02062300  0.75921300  0.09387700  1
  Ba  Ba6  1  0.92807667  0.35395633  0.23945633  1
  Ba  Ba7  1  0.42587967  0.07192333  0.23945633  1
  Ba  Ba8  1  0.64604367  0.57412033  0.23945633  1
  Ba  Ba9  1  1.00000000  0.00000000  0.50000000  1
  Ba  Ba10  1  0.00000000  0.00000000  0.29379600  1
  Ba  Ba11  1  0.00000000  0.00000000  0.70620400  1
  Ba  Ba12  1  0.40525667  0.31271033  0.42721033  1
  Ba  Ba13  1  0.90745367  0.59474333  0.42721033  1
  Ba  Ba14  1  0.68728967  0.09254633  0.42721033  1
  Ba  Ba15  1  0.59474333  0.68728967  0.57278967  1
  Ba  Ba16  1  0.09254633  0.40525667  0.57278967  1
  Ba  Ba17  1  0.31271033  0.90745367  0.57278967  1
  Ba  Ba18  1  0.66666667  0.33333333  0.83333333  1
  Ba  Ba19  1  0.66666667  0.33333333  0.62712933  1
  Ba  Ba20  1  0.66666667  0.33333333  0.03953733  1
  Ba  Ba21  1  0.07192333  0.64604367  0.76054367  1
  Ba  Ba22  1  0.57412033  0.92807667  0.76054367  1
  Ba  Ba23  1  0.35395633  0.42587967  0.76054367  1
  Ba  Ba24  1  0.26141000  0.02062300  0.90612300  1
  Ba  Ba25  1  0.75921300  0.73859000  0.90612300  1
  Ba  Ba26  1  0.97937700  0.24078700  0.90612300  1
  Ag  Ag27  1  0.40047600  0.97235500  0.06251300  1
  Ag  Ag28  1  0.57187900  0.59952400  0.06251300  1
  Ag  Ag29  1  0.02764500  0.42812100  0.06251300  1
  Ag  Ag30  1  0.26619067  0.36097833  0.27082033  1
  Ag  Ag31  1  0.09478767  0.73380933  0.27082033  1
  Ag  Ag32  1  0.63902167  0.90521233  0.27082033  1
  Ag  Ag33  1  0.06714267  0.30568833  0.39584633  1
  Ag  Ag34  1  0.23854567  0.93285733  0.39584633  1
  Ag  Ag35  1  0.69431167  0.76145433  0.39584633  1
  Ag  Ag36  1  0.93285733  0.69431167  0.60415367  1
  Ag  Ag37  1  0.76145433  0.06714267  0.60415367  1
  Ag  Ag38  1  0.30568833  0.23854567  0.60415367  1
  Ag  Ag39  1  0.73380933  0.63902167  0.72917967  1
  Ag  Ag40  1  0.90521233  0.26619067  0.72917967  1
  Ag  Ag41  1  0.36097833  0.09478767  0.72917967  1
  Ag  Ag42  1  0.59952400  0.02764500  0.93748700  1
  Ag  Ag43  1  0.42812100  0.40047600  0.93748700  1
  Ag  Ag44  1  0.97235500  0.57187900  0.93748700  1
