# generated using pymatgen
data_Pa3Sb4
_symmetry_space_group_name_H-M   'P 1'
_cell_length_a   9.17197600
_cell_length_b   9.17197600
_cell_length_c   9.17197600
_cell_angle_alpha   90.00000000
_cell_angle_beta   90.00000000
_cell_angle_gamma   90.00000000
_symmetry_Int_Tables_number   1
_chemical_formula_structural   Pa3Sb4
_chemical_formula_sum   'Pa12 Sb16'
_cell_volume   771.59379942
_cell_formula_units_Z   4
loop_
 _symmetry_equiv_pos_site_id
 _symmetry_equiv_pos_as_xyz
  1  'x, y, z'
loop_
 _atom_site_type_symbol
 _atom_site_label
 _atom_site_symmetry_multiplicity
 _atom_site_fract_x
 _atom_site_fract_y
 _atom_site_fract_z
 _atom_site_occupancy
  Pa  Pa0  1  0.37500000  0.50000000  0.75000000  1
  Pa  Pa1  1  0.50000000  0.75000000  0.37500000  1
  Pa  Pa2  1  0.12500000  0.50000000  0.25000000  1
  Pa  Pa3  1  0.75000000  0.37500000  0.50000000  1
  Pa  Pa4  1  0.25000000  0.12500000  0.50000000  1
  Pa  Pa5  1  0.50000000  0.25000000  0.12500000  1
  Pa  Pa6  1  0.87500000  0.00000000  0.25000000  1
  Pa  Pa7  1  0.00000000  0.25000000  0.87500000  1
  Pa  Pa8  1  0.62500000  0.00000000  0.75000000  1
  Pa  Pa9  1  0.25000000  0.87500000  0.00000000  1
  Pa  Pa10  1  0.75000000  0.62500000  0.00000000  1
  Pa  Pa11  1  0.00000000  0.75000000  0.62500000  1
  Sb  Sb12  1  0.07965650  0.57965650  0.92034350  1
  Sb  Sb13  1  0.57965650  0.92034350  0.07965650  1
  Sb  Sb14  1  0.92034350  0.07965650  0.57965650  1
  Sb  Sb15  1  0.32965650  0.17034350  0.82965650  1
  Sb  Sb16  1  0.42034350  0.42034350  0.42034350  1
  Sb  Sb17  1  0.17034350  0.17034350  0.17034350  1
  Sb  Sb18  1  0.17034350  0.82965650  0.32965650  1
  Sb  Sb19  1  0.82965650  0.32965650  0.17034350  1
  Sb  Sb20  1  0.57965650  0.07965650  0.42034350  1
  Sb  Sb21  1  0.07965650  0.42034350  0.57965650  1
  Sb  Sb22  1  0.42034350  0.57965650  0.07965650  1
  Sb  Sb23  1  0.82965650  0.67034350  0.32965650  1
  Sb  Sb24  1  0.92034350  0.92034350  0.92034350  1
  Sb  Sb25  1  0.67034350  0.67034350  0.67034350  1
  Sb  Sb26  1  0.67034350  0.32965650  0.82965650  1
  Sb  Sb27  1  0.32965650  0.82965650  0.67034350  1
