# generated using pymatgen
data_Sr3YbRhO6
_symmetry_space_group_name_H-M   'P 1'
_cell_length_a   9.81205948
_cell_length_b   9.81205948
_cell_length_c   11.41870525
_cell_angle_alpha   90.00000000
_cell_angle_beta   90.00000000
_cell_angle_gamma   120.00000000
_symmetry_Int_Tables_number   1
_chemical_formula_structural   Sr3YbRhO6
_chemical_formula_sum   'Sr18 Yb6 Rh6 O36'
_cell_volume   952.06771511
_cell_formula_units_Z   6
loop_
 _symmetry_equiv_pos_site_id
 _symmetry_equiv_pos_as_xyz
  1  'x, y, z'
loop_
 _atom_site_type_symbol
 _atom_site_label
 _atom_site_symmetry_multiplicity
 _atom_site_fract_x
 _atom_site_fract_y
 _atom_site_fract_z
 _atom_site_occupancy
  Sr  Sr0  1  0.69817533  0.03150867  0.41666667  1
  Sr  Sr1  1  0.33333333  0.30182467  0.41666667  1
  Sr  Sr2  1  0.96849133  0.66666667  0.41666667  1
  Sr  Sr3  1  0.30182467  0.96849133  0.58333333  1
  Sr  Sr4  1  0.03150867  0.33333333  0.58333333  1
  Sr  Sr5  1  0.66666667  0.69817533  0.58333333  1
  Sr  Sr6  1  0.36484200  0.36484200  0.75000000  1
  Sr  Sr7  1  1.00000000  0.63515800  0.75000000  1
  Sr  Sr8  1  0.63515800  0.00000000  0.75000000  1
  Sr  Sr9  1  0.96849133  0.30182467  0.91666667  1
  Sr  Sr10  1  0.69817533  0.66666667  0.91666667  1
  Sr  Sr11  1  0.33333333  0.03150867  0.91666667  1
  Sr  Sr12  1  0.03150867  0.69817533  0.08333333  1
  Sr  Sr13  1  0.66666667  0.96849133  0.08333333  1
  Sr  Sr14  1  0.30182467  0.33333333  0.08333333  1
  Sr  Sr15  1  0.63515800  0.63515800  0.25000000  1
  Sr  Sr16  1  0.36484200  1.00000000  0.25000000  1
  Sr  Sr17  1  0.00000000  0.36484200  0.25000000  1
  Yb  Yb18  1  0.00000000  0.00000000  0.25000000  1
  Yb  Yb19  1  0.00000000  0.00000000  0.75000000  1
  Yb  Yb20  1  0.66666667  0.33333333  0.58333333  1
  Yb  Yb21  1  0.66666667  0.33333333  0.08333333  1
  Yb  Yb22  1  0.33333333  0.66666667  0.91666667  1
  Yb  Yb23  1  0.33333333  0.66666667  0.41666667  1
  Rh  Rh24  1  0.00000000  0.00000000  0.00000000  1
  Rh  Rh25  1  0.00000000  0.00000000  0.50000000  1
  Rh  Rh26  1  0.66666667  0.33333333  0.33333333  1
  Rh  Rh27  1  0.66666667  0.33333333  0.83333333  1
  Rh  Rh28  1  0.33333333  0.66666667  0.66666667  1
  Rh  Rh29  1  0.33333333  0.66666667  0.16666667  1
  O  O30  1  0.84595767  0.35699733  0.44048233  1
  O  O31  1  0.64300267  0.48896033  0.44048233  1
  O  O32  1  0.51103967  0.15404233  0.44048233  1
  O  O33  1  0.15562700  0.97633600  0.39285100  1
  O  O34  1  0.02366400  0.17929100  0.39285100  1
  O  O35  1  0.82070900  0.84437300  0.39285100  1
  O  O36  1  0.15404233  0.64300267  0.55951767  1
  O  O37  1  0.35699733  0.51103967  0.55951767  1
  O  O38  1  0.48896033  0.84595767  0.55951767  1
  O  O39  1  0.84437300  0.02366400  0.60714900  1
  O  O40  1  0.17929100  0.15562700  0.60714900  1
  O  O41  1  0.97633600  0.82070900  0.60714900  1
  O  O42  1  0.51262433  0.69033067  0.77381567  1
  O  O43  1  0.30966933  0.82229367  0.77381567  1
  O  O44  1  0.17770633  0.48737567  0.77381567  1
  O  O45  1  0.82229367  0.30966933  0.72618433  1
  O  O46  1  0.69033067  0.51262433  0.72618433  1
  O  O47  1  0.48737567  0.17770633  0.72618433  1
  O  O48  1  0.82070900  0.97633600  0.89285100  1
  O  O49  1  0.02366400  0.84437300  0.89285100  1
  O  O50  1  0.15562700  0.17929100  0.89285100  1
  O  O51  1  0.51103967  0.35699733  0.94048233  1
  O  O52  1  0.84595767  0.48896033  0.94048233  1
  O  O53  1  0.64300267  0.15404233  0.94048233  1
  O  O54  1  0.17929100  0.02366400  0.10714900  1
  O  O55  1  0.97633600  0.15562700  0.10714900  1
  O  O56  1  0.84437300  0.82070900  0.10714900  1
  O  O57  1  0.48896033  0.64300267  0.05951767  1
  O  O58  1  0.35699733  0.84595767  0.05951767  1
  O  O59  1  0.15404233  0.51103967  0.05951767  1
  O  O60  1  0.48737567  0.30966933  0.22618433  1
  O  O61  1  0.69033067  0.17770633  0.22618433  1
  O  O62  1  0.82229367  0.51262433  0.22618433  1
  O  O63  1  0.17770633  0.69033067  0.27381567  1
  O  O64  1  0.51262433  0.82229367  0.27381567  1
  O  O65  1  0.30966933  0.48737567  0.27381567  1
