# generated using pymatgen
data_Sm6GaCo2
_symmetry_space_group_name_H-M   'P 1'
_cell_length_a   9.42624400
_cell_length_b   9.78788200
_cell_length_c   10.02748800
_cell_angle_alpha   90.00000000
_cell_angle_beta   90.00000000
_cell_angle_gamma   90.00000000
_symmetry_Int_Tables_number   1
_chemical_formula_structural   Sm6GaCo2
_chemical_formula_sum   'Sm24 Ga4 Co8'
_cell_volume   925.16576411
_cell_formula_units_Z   4
loop_
 _symmetry_equiv_pos_site_id
 _symmetry_equiv_pos_as_xyz
  1  'x, y, z'
loop_
 _atom_site_type_symbol
 _atom_site_label
 _atom_site_symmetry_multiplicity
 _atom_site_fract_x
 _atom_site_fract_y
 _atom_site_fract_z
 _atom_site_occupancy
  Sm  Sm0  1  0.00000000  0.30396750  0.26250150  1
  Sm  Sm1  1  0.21880700  0.18013200  0.00000000  1
  Sm  Sm2  1  0.78119300  0.18013200  0.00000000  1
  Sm  Sm3  1  0.31310900  0.50000000  0.17451500  1
  Sm  Sm4  1  0.18689100  0.00000000  0.67451500  1
  Sm  Sm5  1  0.00000000  0.69603250  0.26250150  1
  Sm  Sm6  1  0.50000000  0.80396750  0.23749850  1
  Sm  Sm7  1  0.18689100  0.00000000  0.32548500  1
  Sm  Sm8  1  0.31310900  0.50000000  0.82548500  1
  Sm  Sm9  1  0.71880700  0.31986800  0.50000000  1
  Sm  Sm10  1  0.28119300  0.31986800  0.50000000  1
  Sm  Sm11  1  0.50000000  0.19603250  0.23749850  1
  Sm  Sm12  1  0.50000000  0.80396750  0.76250150  1
  Sm  Sm13  1  0.71880700  0.68013200  0.50000000  1
  Sm  Sm14  1  0.28119300  0.68013200  0.50000000  1
  Sm  Sm15  1  0.81310900  0.00000000  0.67451500  1
  Sm  Sm16  1  0.68689100  0.50000000  0.17451500  1
  Sm  Sm17  1  0.50000000  0.19603250  0.76250150  1
  Sm  Sm18  1  0.00000000  0.30396750  0.73749850  1
  Sm  Sm19  1  0.68689100  0.50000000  0.82548500  1
  Sm  Sm20  1  0.81310900  0.00000000  0.32548500  1
  Sm  Sm21  1  0.21880700  0.81986800  0.00000000  1
  Sm  Sm22  1  0.78119300  0.81986800  0.00000000  1
  Sm  Sm23  1  0.00000000  0.69603250  0.73749850  1
  Ga  Ga24  1  0.50000000  0.00000000  0.00000000  1
  Ga  Ga25  1  0.00000000  0.50000000  0.00000000  1
  Ga  Ga26  1  0.00000000  0.50000000  0.50000000  1
  Ga  Ga27  1  0.50000000  0.00000000  0.50000000  1
  Co  Co28  1  0.00000000  0.00000000  0.88682600  1
  Co  Co29  1  0.50000000  0.33464500  0.00000000  1
  Co  Co30  1  0.00000000  0.16535500  0.50000000  1
  Co  Co31  1  0.00000000  0.00000000  0.11317400  1
  Co  Co32  1  0.50000000  0.50000000  0.38682600  1
  Co  Co33  1  0.00000000  0.83464500  0.50000000  1
  Co  Co34  1  0.50000000  0.66535500  0.00000000  1
  Co  Co35  1  0.50000000  0.50000000  0.61317400  1
