# generated using pymatgen
data_Ba4Ru3O10
_symmetry_space_group_name_H-M   'P 1'
_cell_length_a   5.86993800
_cell_length_b   13.39337600
_cell_length_c   13.30291000
_cell_angle_alpha   90.00000000
_cell_angle_beta   90.00000000
_cell_angle_gamma   90.00000000
_symmetry_Int_Tables_number   1
_chemical_formula_structural   Ba4Ru3O10
_chemical_formula_sum   'Ba16 Ru12 O40'
_cell_volume   1045.85199273
_cell_formula_units_Z   4
loop_
 _symmetry_equiv_pos_site_id
 _symmetry_equiv_pos_as_xyz
  1  'x, y, z'
loop_
 _atom_site_type_symbol
 _atom_site_label
 _atom_site_symmetry_multiplicity
 _atom_site_fract_x
 _atom_site_fract_y
 _atom_site_fract_z
 _atom_site_occupancy
  Ba  Ba0  1  0.00000000  0.53461400  0.13949400  1
  Ba  Ba1  1  0.50000000  0.96538600  0.86050600  1
  Ba  Ba2  1  0.00000000  0.96538600  0.63949400  1
  Ba  Ba3  1  0.50000000  0.53461400  0.36050600  1
  Ba  Ba4  1  0.50000000  0.74037200  0.11310000  1
  Ba  Ba5  1  0.00000000  0.75962800  0.88690000  1
  Ba  Ba6  1  0.50000000  0.75962800  0.61310000  1
  Ba  Ba7  1  0.00000000  0.74037200  0.38690000  1
  Ba  Ba8  1  0.50000000  0.03461400  0.13949400  1
  Ba  Ba9  1  0.00000000  0.46538600  0.86050600  1
  Ba  Ba10  1  0.50000000  0.46538600  0.63949400  1
  Ba  Ba11  1  0.00000000  0.03461400  0.36050600  1
  Ba  Ba12  1  0.00000000  0.24037200  0.11310000  1
  Ba  Ba13  1  0.50000000  0.25962800  0.88690000  1
  Ba  Ba14  1  0.00000000  0.25962800  0.61310000  1
  Ba  Ba15  1  0.50000000  0.24037200  0.38690000  1
  Ru  Ru16  1  0.00000000  0.87584900  0.14911300  1
  Ru  Ru17  1  0.50000000  0.62415100  0.85088700  1
  Ru  Ru18  1  0.00000000  0.62415100  0.64911300  1
  Ru  Ru19  1  0.50000000  0.87584900  0.35088700  1
  Ru  Ru20  1  0.50000000  0.50000000  0.00000000  1
  Ru  Ru21  1  0.00000000  0.50000000  0.50000000  1
  Ru  Ru22  1  0.50000000  0.37584900  0.14911300  1
  Ru  Ru23  1  0.00000000  0.12415100  0.85088700  1
  Ru  Ru24  1  0.50000000  0.12415100  0.64911300  1
  Ru  Ru25  1  0.00000000  0.37584900  0.35088700  1
  Ru  Ru26  1  0.00000000  0.00000000  0.00000000  1
  Ru  Ru27  1  0.50000000  0.00000000  0.50000000  1
  O  O28  1  0.00000000  0.73057300  0.15031500  1
  O  O29  1  0.50000000  0.76942700  0.84968500  1
  O  O30  1  0.00000000  0.76942700  0.65031500  1
  O  O31  1  0.50000000  0.73057300  0.34968500  1
  O  O32  1  0.73072850  0.60996650  0.96478500  1
  O  O33  1  0.23072850  0.89003350  0.03521500  1
  O  O34  1  0.26927150  0.89003350  0.46478500  1
  O  O35  1  0.76927150  0.60996650  0.53521500  1
  O  O36  1  0.76927150  0.89003350  0.03521500  1
  O  O37  1  0.26927150  0.60996650  0.96478500  1
  O  O38  1  0.23072850  0.60996650  0.53521500  1
  O  O39  1  0.73072850  0.89003350  0.46478500  1
  O  O40  1  0.50000000  0.53519200  0.14986100  1
  O  O41  1  0.00000000  0.96480800  0.85013900  1
  O  O42  1  0.75000000  0.88065400  0.25000000  1
  O  O43  1  0.25000000  0.61934600  0.75000000  1
  O  O44  1  0.75000000  0.61934600  0.75000000  1
  O  O45  1  0.25000000  0.88065400  0.25000000  1
  O  O46  1  0.00000000  0.53519200  0.35013900  1
  O  O47  1  0.50000000  0.96480800  0.64986100  1
  O  O48  1  0.50000000  0.23057300  0.15031500  1
  O  O49  1  0.00000000  0.26942700  0.84968500  1
  O  O50  1  0.50000000  0.26942700  0.65031500  1
  O  O51  1  0.00000000  0.23057300  0.34968500  1
  O  O52  1  0.23072850  0.10996650  0.96478500  1
  O  O53  1  0.73072850  0.39003350  0.03521500  1
  O  O54  1  0.76927150  0.39003350  0.46478500  1
  O  O55  1  0.26927150  0.10996650  0.53521500  1
  O  O56  1  0.26927150  0.39003350  0.03521500  1
  O  O57  1  0.76927150  0.10996650  0.96478500  1
  O  O58  1  0.73072850  0.10996650  0.53521500  1
  O  O59  1  0.23072850  0.39003350  0.46478500  1
  O  O60  1  0.00000000  0.03519200  0.14986100  1
  O  O61  1  0.50000000  0.46480800  0.85013900  1
  O  O62  1  0.25000000  0.38065400  0.25000000  1
  O  O63  1  0.75000000  0.11934600  0.75000000  1
  O  O64  1  0.25000000  0.11934600  0.75000000  1
  O  O65  1  0.75000000  0.38065400  0.25000000  1
  O  O66  1  0.50000000  0.03519200  0.35013900  1
  O  O67  1  0.00000000  0.46480800  0.64986100  1
