# generated using pymatgen
data_Tl2TeO6
_symmetry_space_group_name_H-M   'P 1'
_cell_length_a   9.28383033
_cell_length_b   9.28383033
_cell_length_c   5.09060800
_cell_angle_alpha   90.00000000
_cell_angle_beta   90.00000000
_cell_angle_gamma   120.00000000
_symmetry_Int_Tables_number   1
_chemical_formula_structural   Tl2TeO6
_chemical_formula_sum   'Tl6 Te3 O18'
_cell_volume   379.97469619
_cell_formula_units_Z   3
loop_
 _symmetry_equiv_pos_site_id
 _symmetry_equiv_pos_as_xyz
  1  'x, y, z'
loop_
 _atom_site_type_symbol
 _atom_site_label
 _atom_site_symmetry_multiplicity
 _atom_site_fract_x
 _atom_site_fract_y
 _atom_site_fract_z
 _atom_site_occupancy
  Tl  Tl0  1  0.71182900  0.71182900  0.50000000  1
  Tl  Tl1  1  0.00000000  0.28817100  0.50000000  1
  Tl  Tl2  1  0.28817100  0.00000000  0.50000000  1
  Tl  Tl3  1  0.37444700  0.37444700  0.00000000  1
  Tl  Tl4  1  0.00000000  0.62555300  0.00000000  1
  Tl  Tl5  1  0.62555300  0.00000000  0.00000000  1
  Te  Te6  1  0.66666667  0.33333333  0.48547400  1
  Te  Te7  1  0.33333333  0.66666667  0.51452600  1
  Te  Te8  1  0.00000000  0.00000000  0.00000000  1
  O  O9  1  0.75693600  0.22270700  0.70449200  1
  O  O10  1  0.77729300  0.53422900  0.70449200  1
  O  O11  1  0.46577100  0.24306400  0.70449200  1
  O  O12  1  0.53422900  0.77729300  0.29550800  1
  O  O13  1  0.24306400  0.46577100  0.29550800  1
  O  O14  1  0.22270700  0.75693600  0.29550800  1
  O  O15  1  0.59703200  0.46200500  0.26470500  1
  O  O16  1  0.53799500  0.13502700  0.26470500  1
  O  O17  1  0.86497300  0.40296800  0.26470500  1
  O  O18  1  0.07965800  0.87985400  0.78372700  1
  O  O19  1  0.12014600  0.19980400  0.78372700  1
  O  O20  1  0.80019600  0.92034200  0.78372700  1
  O  O21  1  0.19980400  0.12014600  0.21627300  1
  O  O22  1  0.92034200  0.80019600  0.21627300  1
  O  O23  1  0.87985400  0.07965800  0.21627300  1
  O  O24  1  0.46200500  0.59703200  0.73529500  1
  O  O25  1  0.40296800  0.86497300  0.73529500  1
  O  O26  1  0.13502700  0.53799500  0.73529500  1
