# generated using pymatgen
data_LaTm(Ge2Ir)2
_symmetry_space_group_name_H-M   'P 1'
_cell_length_a   4.35952600
_cell_length_b   8.93143600
_cell_length_c   16.28504800
_cell_angle_alpha   90.00000000
_cell_angle_beta   90.00000000
_cell_angle_gamma   90.00000000
_symmetry_Int_Tables_number   1
_chemical_formula_structural   LaTm(Ge2Ir)2
_chemical_formula_sum   'La4 Tm4 Ge16 Ir8'
_cell_volume   634.08810414
_cell_formula_units_Z   4
loop_
 _symmetry_equiv_pos_site_id
 _symmetry_equiv_pos_as_xyz
  1  'x, y, z'
loop_
 _atom_site_type_symbol
 _atom_site_label
 _atom_site_symmetry_multiplicity
 _atom_site_fract_x
 _atom_site_fract_y
 _atom_site_fract_z
 _atom_site_occupancy
  La  La0  1  0.00000000  0.26099700  0.00000000  1
  La  La1  1  0.00000000  0.73900300  0.00000000  1
  La  La2  1  0.50000000  0.76099700  0.50000000  1
  La  La3  1  0.50000000  0.23900300  0.50000000  1
  Tm  Tm4  1  0.00000000  0.50000000  0.79328400  1
  Tm  Tm5  1  0.50000000  0.00000000  0.70671600  1
  Tm  Tm6  1  0.50000000  0.00000000  0.29328400  1
  Tm  Tm7  1  0.00000000  0.50000000  0.20671600  1
  Ge  Ge8  1  0.50000000  0.34863600  0.70131600  1
  Ge  Ge9  1  0.00000000  0.15136400  0.79868400  1
  Ge  Ge10  1  0.00000000  0.84863600  0.79868400  1
  Ge  Ge11  1  0.50000000  0.65136400  0.70131600  1
  Ge  Ge12  1  0.50000000  0.00000000  0.92102200  1
  Ge  Ge13  1  0.50000000  0.50000000  0.92010600  1
  Ge  Ge14  1  0.00000000  0.50000000  0.57897800  1
  Ge  Ge15  1  0.00000000  0.00000000  0.57989400  1
  Ge  Ge16  1  0.00000000  0.84863600  0.20131600  1
  Ge  Ge17  1  0.50000000  0.65136400  0.29868400  1
  Ge  Ge18  1  0.50000000  0.34863600  0.29868400  1
  Ge  Ge19  1  0.00000000  0.15136400  0.20131600  1
  Ge  Ge20  1  0.00000000  0.50000000  0.42102200  1
  Ge  Ge21  1  0.00000000  0.00000000  0.42010600  1
  Ge  Ge22  1  0.50000000  0.00000000  0.07897800  1
  Ge  Ge23  1  0.50000000  0.50000000  0.07989400  1
  Ir  Ir24  1  0.00000000  0.74825850  0.64895350  1
  Ir  Ir25  1  0.50000000  0.75174150  0.85104650  1
  Ir  Ir26  1  0.00000000  0.25174150  0.64895350  1
  Ir  Ir27  1  0.50000000  0.24825850  0.85104650  1
  Ir  Ir28  1  0.50000000  0.24825850  0.14895350  1
  Ir  Ir29  1  0.00000000  0.25174150  0.35104650  1
  Ir  Ir30  1  0.50000000  0.75174150  0.14895350  1
  Ir  Ir31  1  0.00000000  0.74825850  0.35104650  1
