# generated using pymatgen
data_Y3Ge5
_symmetry_space_group_name_H-M   'P 1'
_cell_length_a   5.79712000
_cell_length_b   13.80928800
_cell_length_c   17.43450200
_cell_angle_alpha   90.00000000
_cell_angle_beta   90.00000000
_cell_angle_gamma   90.00000000
_symmetry_Int_Tables_number   1
_chemical_formula_structural   Y3Ge5
_chemical_formula_sum   'Y24 Ge40'
_cell_volume   1395.70336047
_cell_formula_units_Z   8
loop_
 _symmetry_equiv_pos_site_id
 _symmetry_equiv_pos_as_xyz
  1  'x, y, z'
loop_
 _atom_site_type_symbol
 _atom_site_label
 _atom_site_symmetry_multiplicity
 _atom_site_fract_x
 _atom_site_fract_y
 _atom_site_fract_z
 _atom_site_occupancy
  Y  Y0  1  0.00000000  0.74516500  0.00000000  1
  Y  Y1  1  0.75000000  0.99516500  0.75000000  1
  Y  Y2  1  0.26525100  0.50310800  0.08188500  1
  Y  Y3  1  0.73474900  0.50310800  0.91811500  1
  Y  Y4  1  0.48474900  0.75310800  0.83188500  1
  Y  Y5  1  0.51525100  0.75310800  0.16811500  1
  Y  Y6  1  0.00000000  0.24516500  0.50000000  1
  Y  Y7  1  0.75000000  0.49516500  0.25000000  1
  Y  Y8  1  0.26525100  0.00310800  0.58188500  1
  Y  Y9  1  0.73474900  0.00310800  0.41811500  1
  Y  Y10  1  0.48474900  0.25310800  0.33188500  1
  Y  Y11  1  0.51525100  0.25310800  0.66811500  1
  Y  Y12  1  0.50000000  0.24516500  0.00000000  1
  Y  Y13  1  0.25000000  0.49516500  0.75000000  1
  Y  Y14  1  0.76525100  0.00310800  0.08188500  1
  Y  Y15  1  0.23474900  0.00310800  0.91811500  1
  Y  Y16  1  0.98474900  0.25310800  0.83188500  1
  Y  Y17  1  0.01525100  0.25310800  0.16811500  1
  Y  Y18  1  0.50000000  0.74516500  0.50000000  1
  Y  Y19  1  0.25000000  0.99516500  0.25000000  1
  Y  Y20  1  0.76525100  0.50310800  0.58188500  1
  Y  Y21  1  0.23474900  0.50310800  0.41811500  1
  Y  Y22  1  0.98474900  0.75310800  0.33188500  1
  Y  Y23  1  0.01525100  0.75310800  0.66811500  1
  Ge  Ge24  1  0.06233500  0.64906450  0.18580150  1
  Ge  Ge25  1  0.93766500  0.64906450  0.81419850  1
  Ge  Ge26  1  0.68766500  0.89906450  0.93580150  1
  Ge  Ge27  1  0.31233500  0.89906450  0.06419850  1
  Ge  Ge28  1  0.00063800  0.83236250  0.16302850  1
  Ge  Ge29  1  0.99936200  0.83236250  0.83697150  1
  Ge  Ge30  1  0.25000000  0.94386400  0.75000000  1
  Ge  Ge31  1  0.50000000  0.69386400  0.00000000  1
  Ge  Ge32  1  0.75063800  0.58236250  0.08697150  1
  Ge  Ge33  1  0.24936200  0.58236250  0.91302850  1
  Ge  Ge34  1  0.06233500  0.14906450  0.68580150  1
  Ge  Ge35  1  0.93766500  0.14906450  0.31419850  1
  Ge  Ge36  1  0.68766500  0.39906450  0.43580150  1
  Ge  Ge37  1  0.31233500  0.39906450  0.56419850  1
  Ge  Ge38  1  0.00063800  0.33236250  0.66302850  1
  Ge  Ge39  1  0.99936200  0.33236250  0.33697150  1
  Ge  Ge40  1  0.25000000  0.44386400  0.25000000  1
  Ge  Ge41  1  0.50000000  0.19386400  0.50000000  1
  Ge  Ge42  1  0.75063800  0.08236250  0.58697150  1
  Ge  Ge43  1  0.24936200  0.08236250  0.41302850  1
  Ge  Ge44  1  0.56233500  0.14906450  0.18580150  1
  Ge  Ge45  1  0.43766500  0.14906450  0.81419850  1
  Ge  Ge46  1  0.18766500  0.39906450  0.93580150  1
  Ge  Ge47  1  0.81233500  0.39906450  0.06419850  1
  Ge  Ge48  1  0.50063800  0.33236250  0.16302850  1
  Ge  Ge49  1  0.49936200  0.33236250  0.83697150  1
  Ge  Ge50  1  0.75000000  0.44386400  0.75000000  1
  Ge  Ge51  1  0.00000000  0.19386400  0.00000000  1
  Ge  Ge52  1  0.25063800  0.08236250  0.08697150  1
  Ge  Ge53  1  0.74936200  0.08236250  0.91302850  1
  Ge  Ge54  1  0.56233500  0.64906450  0.68580150  1
  Ge  Ge55  1  0.43766500  0.64906450  0.31419850  1
  Ge  Ge56  1  0.18766500  0.89906450  0.43580150  1
  Ge  Ge57  1  0.81233500  0.89906450  0.56419850  1
  Ge  Ge58  1  0.50063800  0.83236250  0.66302850  1
  Ge  Ge59  1  0.49936200  0.83236250  0.33697150  1
  Ge  Ge60  1  0.75000000  0.94386400  0.25000000  1
  Ge  Ge61  1  0.00000000  0.69386400  0.50000000  1
  Ge  Ge62  1  0.25063800  0.58236250  0.58697150  1
  Ge  Ge63  1  0.74936200  0.58236250  0.41302850  1
