# generated using pymatgen
data_EuIn2Ni
_symmetry_space_group_name_H-M   'P 1'
_cell_length_a   4.40162600
_cell_length_b   10.73524200
_cell_length_c   7.79388400
_cell_angle_alpha   90.00000000
_cell_angle_beta   90.00000000
_cell_angle_gamma   90.00000000
_symmetry_Int_Tables_number   1
_chemical_formula_structural   EuIn2Ni
_chemical_formula_sum   'Eu4 In8 Ni4'
_cell_volume   368.28066195
_cell_formula_units_Z   4
loop_
 _symmetry_equiv_pos_site_id
 _symmetry_equiv_pos_as_xyz
  1  'x, y, z'
loop_
 _atom_site_type_symbol
 _atom_site_label
 _atom_site_symmetry_multiplicity
 _atom_site_fract_x
 _atom_site_fract_y
 _atom_site_fract_z
 _atom_site_occupancy
  Eu  Eu0  1  0.50000000  0.44262400  0.75000000  1
  Eu  Eu1  1  0.00000000  0.05737600  0.25000000  1
  Eu  Eu2  1  0.00000000  0.94262400  0.75000000  1
  Eu  Eu3  1  0.50000000  0.55737600  0.25000000  1
  In  In4  1  0.00000000  0.34624400  0.44693700  1
  In  In5  1  0.50000000  0.15375600  0.55306300  1
  In  In6  1  0.50000000  0.15375600  0.94693700  1
  In  In7  1  0.00000000  0.34624400  0.05306300  1
  In  In8  1  0.50000000  0.84624400  0.44693700  1
  In  In9  1  0.00000000  0.65375600  0.55306300  1
  In  In10  1  0.00000000  0.65375600  0.94693700  1
  In  In11  1  0.50000000  0.84624400  0.05306300  1
  Ni  Ni12  1  0.00000000  0.22120200  0.75000000  1
  Ni  Ni13  1  0.50000000  0.27879800  0.25000000  1
  Ni  Ni14  1  0.50000000  0.72120200  0.75000000  1
  Ni  Ni15  1  0.00000000  0.77879800  0.25000000  1
