# generated using pymatgen
data_Ni2Te3O8
_symmetry_space_group_name_H-M   'P 1'
_cell_length_a   12.51061600
_cell_length_b   5.25781600
_cell_length_c   11.53781353
_cell_angle_alpha   90.00000000
_cell_angle_beta   98.61193885
_cell_angle_gamma   90.00000000
_symmetry_Int_Tables_number   1
_chemical_formula_structural   Ni2Te3O8
_chemical_formula_sum   'Ni8 Te12 O32'
_cell_volume   750.38336411
_cell_formula_units_Z   4
loop_
 _symmetry_equiv_pos_site_id
 _symmetry_equiv_pos_as_xyz
  1  'x, y, z'
loop_
 _atom_site_type_symbol
 _atom_site_label
 _atom_site_symmetry_multiplicity
 _atom_site_fract_x
 _atom_site_fract_y
 _atom_site_fract_z
 _atom_site_occupancy
  Ni  Ni0  1  0.73649100  0.67648200  0.85480100  1
  Ni  Ni1  1  0.76350900  0.17648200  0.64519900  1
  Ni  Ni2  1  0.76350900  0.82351800  0.14519900  1
  Ni  Ni3  1  0.73649100  0.32351800  0.35480100  1
  Ni  Ni4  1  0.23649100  0.17648200  0.85480100  1
  Ni  Ni5  1  0.26350900  0.67648200  0.64519900  1
  Ni  Ni6  1  0.26350900  0.32351800  0.14519900  1
  Ni  Ni7  1  0.23649100  0.82351800  0.35480100  1
  Te  Te8  1  0.00000000  0.18376400  0.25000000  1
  Te  Te9  1  0.00000000  0.81623600  0.75000000  1
  Te  Te10  1  0.63447700  0.68366900  0.55550500  1
  Te  Te11  1  0.86552300  0.18366900  0.94449500  1
  Te  Te12  1  0.86552300  0.81633100  0.44449500  1
  Te  Te13  1  0.63447700  0.31633100  0.05550500  1
  Te  Te14  1  0.50000000  0.68376400  0.25000000  1
  Te  Te15  1  0.50000000  0.31623600  0.75000000  1
  Te  Te16  1  0.13447700  0.18366900  0.55550500  1
  Te  Te17  1  0.36552300  0.68366900  0.94449500  1
  Te  Te18  1  0.36552300  0.31633100  0.44449500  1
  Te  Te19  1  0.13447700  0.81633100  0.05550500  1
  O  O20  1  0.76753700  0.49179300  0.02658700  1
  O  O21  1  0.73246300  0.99179300  0.47341300  1
  O  O22  1  0.73246300  0.00820700  0.97341300  1
  O  O23  1  0.76753700  0.50820700  0.52658700  1
  O  O24  1  0.69853100  0.15282600  0.19868300  1
  O  O25  1  0.80146900  0.65282600  0.30131700  1
  O  O26  1  0.80146900  0.34717400  0.80131700  1
  O  O27  1  0.69853100  0.84717400  0.69868300  1
  O  O28  1  0.61256350  0.65184250  0.13039000  1
  O  O29  1  0.88743650  0.15184250  0.36961000  1
  O  O30  1  0.58386150  0.54526150  0.85638800  1
  O  O31  1  0.91613850  0.04526150  0.64361200  1
  O  O32  1  0.91613850  0.95473850  0.14361200  1
  O  O33  1  0.58386150  0.45473850  0.35638800  1
  O  O34  1  0.61256350  0.34815750  0.63039000  1
  O  O35  1  0.88743650  0.84815750  0.86961000  1
  O  O36  1  0.26753700  0.99179300  0.02658700  1
  O  O37  1  0.23246300  0.49179300  0.47341300  1
  O  O38  1  0.23246300  0.50820700  0.97341300  1
  O  O39  1  0.26753700  0.00820700  0.52658700  1
  O  O40  1  0.19853100  0.65282600  0.19868300  1
  O  O41  1  0.30146900  0.15282600  0.30131700  1
  O  O42  1  0.30146900  0.84717400  0.80131700  1
  O  O43  1  0.19853100  0.34717400  0.69868300  1
  O  O44  1  0.11256350  0.15184250  0.13039000  1
  O  O45  1  0.38743650  0.65184250  0.36961000  1
  O  O46  1  0.08386150  0.04526150  0.85638800  1
  O  O47  1  0.41613850  0.54526150  0.64361200  1
  O  O48  1  0.41613850  0.45473850  0.14361200  1
  O  O49  1  0.08386150  0.95473850  0.35638800  1
  O  O50  1  0.11256350  0.84815750  0.63039000  1
  O  O51  1  0.38743650  0.34815750  0.86961000  1
