# generated using pymatgen
data_BaAs3
_symmetry_space_group_name_H-M   'P 1'
_cell_length_a   10.31986600
_cell_length_b   7.89434600
_cell_length_c   6.13350543
_cell_angle_alpha   90.00000000
_cell_angle_beta   113.42684627
_cell_angle_gamma   90.00000000
_symmetry_Int_Tables_number   1
_chemical_formula_structural   BaAs3
_chemical_formula_sum   'Ba4 As12'
_cell_volume   458.49799001
_cell_formula_units_Z   4
loop_
 _symmetry_equiv_pos_site_id
 _symmetry_equiv_pos_as_xyz
  1  'x, y, z'
loop_
 _atom_site_type_symbol
 _atom_site_label
 _atom_site_symmetry_multiplicity
 _atom_site_fract_x
 _atom_site_fract_y
 _atom_site_fract_z
 _atom_site_occupancy
  Ba  Ba0  1  0.33502300  0.50000000  0.66368300  1
  Ba  Ba1  1  0.66497700  0.50000000  0.33631700  1
  Ba  Ba2  1  0.83502300  0.00000000  0.66368300  1
  Ba  Ba3  1  0.16497700  0.00000000  0.33631700  1
  As  As4  1  0.13887450  0.76525150  0.81669000  1
  As  As5  1  0.86112550  0.76525150  0.18331000  1
  As  As6  1  0.00426800  0.50000000  0.79589100  1
  As  As7  1  0.99573200  0.50000000  0.20410900  1
  As  As8  1  0.13887450  0.23474850  0.81669000  1
  As  As9  1  0.86112550  0.23474850  0.18331000  1
  As  As10  1  0.63887450  0.26525150  0.81669000  1
  As  As11  1  0.36112550  0.26525150  0.18331000  1
  As  As12  1  0.50426800  0.00000000  0.79589100  1
  As  As13  1  0.49573200  0.00000000  0.20410900  1
  As  As14  1  0.63887450  0.73474850  0.81669000  1
  As  As15  1  0.36112550  0.73474850  0.18331000  1
