# generated using pymatgen
data_Ba5Yb8Zn4O21
_symmetry_space_group_name_H-M   'P 1'
_cell_length_a   13.84517600
_cell_length_b   13.84517600
_cell_length_c   5.67604400
_cell_angle_alpha   90.00000000
_cell_angle_beta   90.00000000
_cell_angle_gamma   90.00000000
_symmetry_Int_Tables_number   1
_chemical_formula_structural   Ba5Yb8Zn4O21
_chemical_formula_sum   'Ba10 Yb16 Zn8 O42'
_cell_volume   1088.03462203
_cell_formula_units_Z   2
loop_
 _symmetry_equiv_pos_site_id
 _symmetry_equiv_pos_as_xyz
  1  'x, y, z'
loop_
 _atom_site_type_symbol
 _atom_site_label
 _atom_site_symmetry_multiplicity
 _atom_site_fract_x
 _atom_site_fract_y
 _atom_site_fract_z
 _atom_site_occupancy
  Ba  Ba0  1  0.53308200  0.85589500  0.00000000  1
  Ba  Ba1  1  0.35589500  0.96691800  0.50000000  1
  Ba  Ba2  1  0.64410500  0.03308200  0.50000000  1
  Ba  Ba3  1  0.46691800  0.14410500  0.00000000  1
  Ba  Ba4  1  0.00000000  0.00000000  0.00000000  1
  Ba  Ba5  1  0.03308200  0.35589500  0.50000000  1
  Ba  Ba6  1  0.85589500  0.46691800  0.00000000  1
  Ba  Ba7  1  0.14410500  0.53308200  0.00000000  1
  Ba  Ba8  1  0.96691800  0.64410500  0.50000000  1
  Ba  Ba9  1  0.50000000  0.50000000  0.50000000  1
  Yb  Yb10  1  0.40850000  0.63992200  0.00000000  1
  Yb  Yb11  1  0.13992200  0.09150000  0.50000000  1
  Yb  Yb12  1  0.86007800  0.90850000  0.50000000  1
  Yb  Yb13  1  0.59150000  0.36007800  0.00000000  1
  Yb  Yb14  1  0.24978400  0.83306800  0.00000000  1
  Yb  Yb15  1  0.33306800  0.25021600  0.50000000  1
  Yb  Yb16  1  0.66693200  0.74978400  0.50000000  1
  Yb  Yb17  1  0.75021600  0.16693200  0.00000000  1
  Yb  Yb18  1  0.90850000  0.13992200  0.50000000  1
  Yb  Yb19  1  0.63992200  0.59150000  0.00000000  1
  Yb  Yb20  1  0.36007800  0.40850000  0.00000000  1
  Yb  Yb21  1  0.09150000  0.86007800  0.50000000  1
  Yb  Yb22  1  0.74978400  0.33306800  0.50000000  1
  Yb  Yb23  1  0.83306800  0.75021600  0.00000000  1
  Yb  Yb24  1  0.16693200  0.24978400  0.00000000  1
  Yb  Yb25  1  0.25021600  0.66693200  0.50000000  1
  Zn  Zn26  1  0.54223000  0.25429600  0.50000000  1
  Zn  Zn27  1  0.75429600  0.95777000  0.00000000  1
  Zn  Zn28  1  0.24570400  0.04223000  0.00000000  1
  Zn  Zn29  1  0.45777000  0.74570400  0.50000000  1
  Zn  Zn30  1  0.04223000  0.75429600  0.00000000  1
  Zn  Zn31  1  0.25429600  0.45777000  0.50000000  1
  Zn  Zn32  1  0.74570400  0.54223000  0.50000000  1
  Zn  Zn33  1  0.95777000  0.24570400  0.00000000  1
  O  O34  1  0.64487200  0.23767200  0.26046300  1
  O  O35  1  0.73767200  0.85512800  0.76046300  1
  O  O36  1  0.26232800  0.14487200  0.76046300  1
  O  O37  1  0.35512800  0.76232800  0.26046300  1
  O  O38  1  0.35512800  0.76232800  0.73953700  1
  O  O39  1  0.26232800  0.14487200  0.23953700  1
  O  O40  1  0.73767200  0.85512800  0.23953700  1
  O  O41  1  0.64487200  0.23767200  0.73953700  1
  O  O42  1  0.82026750  0.04175450  0.24241450  1
  O  O43  1  0.54175450  0.67973250  0.74241450  1
  O  O44  1  0.45824550  0.32026750  0.74241450  1
  O  O45  1  0.17973250  0.95824550  0.24241450  1
  O  O46  1  0.17973250  0.95824550  0.75758550  1
  O  O47  1  0.45824550  0.32026750  0.25758550  1
  O  O48  1  0.54175450  0.67973250  0.25758550  1
  O  O49  1  0.82026750  0.04175450  0.75758550  1
  O  O50  1  0.62739500  0.03113800  0.00000000  1
  O  O51  1  0.00000000  0.00000000  0.50000000  1
  O  O52  1  0.37260500  0.96886200  0.00000000  1
  O  O53  1  0.46886200  0.12739500  0.50000000  1
  O  O54  1  0.53113800  0.87260500  0.50000000  1
  O  O55  1  0.14487200  0.73767200  0.76046300  1
  O  O56  1  0.23767200  0.35512800  0.26046300  1
  O  O57  1  0.76232800  0.64487200  0.26046300  1
  O  O58  1  0.85512800  0.26232800  0.76046300  1
  O  O59  1  0.85512800  0.26232800  0.23953700  1
  O  O60  1  0.76232800  0.64487200  0.73953700  1
  O  O61  1  0.23767200  0.35512800  0.73953700  1
  O  O62  1  0.14487200  0.73767200  0.23953700  1
  O  O63  1  0.32026750  0.54175450  0.74241450  1
  O  O64  1  0.04175450  0.17973250  0.24241450  1
  O  O65  1  0.95824550  0.82026750  0.24241450  1
  O  O66  1  0.67973250  0.45824550  0.74241450  1
  O  O67  1  0.67973250  0.45824550  0.25758550  1
  O  O68  1  0.95824550  0.82026750  0.75758550  1
  O  O69  1  0.04175450  0.17973250  0.75758550  1
  O  O70  1  0.32026750  0.54175450  0.25758550  1
  O  O71  1  0.12739500  0.53113800  0.50000000  1
  O  O72  1  0.50000000  0.50000000  0.00000000  1
  O  O73  1  0.87260500  0.46886200  0.50000000  1
  O  O74  1  0.96886200  0.62739500  0.00000000  1
  O  O75  1  0.03113800  0.37260500  0.00000000  1
