# generated using pymatgen
data_Ba2Yb(CuO2)4
_symmetry_space_group_name_H-M   'P 1'
_cell_length_a   3.83237000
_cell_length_b   27.89398000
_cell_length_c   3.86422700
_cell_angle_alpha   90.00000000
_cell_angle_beta   90.00000000
_cell_angle_gamma   90.00000000
_symmetry_Int_Tables_number   1
_chemical_formula_structural   Ba2Yb(CuO2)4
_chemical_formula_sum   'Ba4 Yb2 Cu8 O16'
_cell_volume   413.08606775
_cell_formula_units_Z   2
loop_
 _symmetry_equiv_pos_site_id
 _symmetry_equiv_pos_as_xyz
  1  'x, y, z'
loop_
 _atom_site_type_symbol
 _atom_site_label
 _atom_site_symmetry_multiplicity
 _atom_site_fract_x
 _atom_site_fract_y
 _atom_site_fract_z
 _atom_site_occupancy
  Ba  Ba0  1  0.00000000  0.63041700  0.50000000  1
  Ba  Ba1  1  0.50000000  0.86958300  0.50000000  1
  Ba  Ba2  1  0.50000000  0.13041700  0.50000000  1
  Ba  Ba3  1  0.00000000  0.36958300  0.50000000  1
  Yb  Yb4  1  0.50000000  0.00000000  0.50000000  1
  Yb  Yb5  1  0.00000000  0.50000000  0.50000000  1
  Cu  Cu6  1  0.50000000  0.55722200  0.00000000  1
  Cu  Cu7  1  0.00000000  0.94277800  0.00000000  1
  Cu  Cu8  1  0.50000000  0.71219500  0.00000000  1
  Cu  Cu9  1  0.00000000  0.78780500  0.00000000  1
  Cu  Cu10  1  0.00000000  0.05722200  0.00000000  1
  Cu  Cu11  1  0.50000000  0.44277800  0.00000000  1
  Cu  Cu12  1  0.00000000  0.21219500  0.00000000  1
  Cu  Cu13  1  0.50000000  0.28780500  0.00000000  1
  O  O14  1  0.00000000  0.72005300  0.00000000  1
  O  O15  1  0.50000000  0.77994700  0.00000000  1
  O  O16  1  0.00000000  0.55294700  0.00000000  1
  O  O17  1  0.50000000  0.94705300  0.00000000  1
  O  O18  1  0.50000000  0.55354700  0.50000000  1
  O  O19  1  0.00000000  0.94645300  0.50000000  1
  O  O20  1  0.50000000  0.64673500  0.00000000  1
  O  O21  1  0.00000000  0.85326500  0.00000000  1
  O  O22  1  0.50000000  0.22005300  0.00000000  1
  O  O23  1  0.00000000  0.27994700  0.00000000  1
  O  O24  1  0.50000000  0.05294700  0.00000000  1
  O  O25  1  0.00000000  0.44705300  0.00000000  1
  O  O26  1  0.00000000  0.05354700  0.50000000  1
  O  O27  1  0.50000000  0.44645300  0.50000000  1
  O  O28  1  0.00000000  0.14673500  0.00000000  1
  O  O29  1  0.50000000  0.35326500  0.00000000  1
