# generated using pymatgen
data_KLi6IrO6
_symmetry_space_group_name_H-M   'P 1'
_cell_length_a   8.28679578
_cell_length_b   8.28679578
_cell_length_c   7.21725915
_cell_angle_alpha   90.00000000
_cell_angle_beta   90.00000000
_cell_angle_gamma   120.00000000
_symmetry_Int_Tables_number   1
_chemical_formula_structural   KLi6IrO6
_chemical_formula_sum   'K3 Li18 Ir3 O18'
_cell_volume   429.21629720
_cell_formula_units_Z   3
loop_
 _symmetry_equiv_pos_site_id
 _symmetry_equiv_pos_as_xyz
  1  'x, y, z'
loop_
 _atom_site_type_symbol
 _atom_site_label
 _atom_site_symmetry_multiplicity
 _atom_site_fract_x
 _atom_site_fract_y
 _atom_site_fract_z
 _atom_site_occupancy
  K  K0  1  0.00000000  0.00000000  0.50000000  1
  K  K1  1  0.66666667  0.33333333  0.83333333  1
  K  K2  1  0.33333333  0.66666667  0.16666667  1
  Li  Li3  1  0.00483167  0.33333333  0.33333333  1
  Li  Li4  1  0.66666667  0.67149833  0.33333333  1
  Li  Li5  1  0.00483167  0.67149833  0.33333333  1
  Li  Li6  1  0.66666667  0.99516833  0.33333333  1
  Li  Li7  1  0.32850167  0.33333333  0.33333333  1
  Li  Li8  1  0.32850167  0.99516833  0.33333333  1
  Li  Li9  1  0.67149833  0.66666667  0.66666667  1
  Li  Li10  1  0.33333333  0.00483167  0.66666667  1
  Li  Li11  1  0.67149833  0.00483167  0.66666667  1
  Li  Li12  1  0.33333333  0.32850167  0.66666667  1
  Li  Li13  1  0.99516833  0.66666667  0.66666667  1
  Li  Li14  1  0.99516833  0.32850167  0.66666667  1
  Li  Li15  1  0.33816500  0.00000000  0.00000000  1
  Li  Li16  1  0.00000000  0.33816500  0.00000000  1
  Li  Li17  1  0.33816500  0.33816500  0.00000000  1
  Li  Li18  1  0.00000000  0.66183500  0.00000000  1
  Li  Li19  1  0.66183500  0.00000000  0.00000000  1
  Li  Li20  1  0.66183500  0.66183500  0.00000000  1
  Ir  Ir21  1  0.00000000  0.00000000  0.00000000  1
  Ir  Ir22  1  0.66666667  0.33333333  0.33333333  1
  Ir  Ir23  1  0.33333333  0.66666667  0.66666667  1
  O  O24  1  0.21622967  0.43245933  0.50948033  1
  O  O25  1  0.21622967  0.78377033  0.50948033  1
  O  O26  1  0.78377033  0.56754067  0.49051967  1
  O  O27  1  0.78377033  0.21622967  0.49051967  1
  O  O28  1  0.43245933  0.21622967  0.49051967  1
  O  O29  1  0.56754067  0.78377033  0.50948033  1
  O  O30  1  0.88289633  0.76579267  0.84281367  1
  O  O31  1  0.88289633  0.11710367  0.84281367  1
  O  O32  1  0.45043700  0.90087400  0.82385300  1
  O  O33  1  0.45043700  0.54956300  0.82385300  1
  O  O34  1  0.09912600  0.54956300  0.82385300  1
  O  O35  1  0.23420733  0.11710367  0.84281367  1
  O  O36  1  0.54956300  0.09912600  0.17614700  1
  O  O37  1  0.54956300  0.45043700  0.17614700  1
  O  O38  1  0.11710367  0.23420733  0.15718633  1
  O  O39  1  0.11710367  0.88289633  0.15718633  1
  O  O40  1  0.76579267  0.88289633  0.15718633  1
  O  O41  1  0.90087400  0.45043700  0.17614700  1
