# generated using pymatgen
data_Tb2Si5Ni3
_symmetry_space_group_name_H-M   'P 1'
_cell_length_a   5.66047600
_cell_length_b   9.58073600
_cell_length_c   11.16559400
_cell_angle_alpha   90.00000000
_cell_angle_beta   90.00000000
_cell_angle_gamma   90.00000000
_symmetry_Int_Tables_number   1
_chemical_formula_structural   Tb2Si5Ni3
_chemical_formula_sum   'Tb8 Si20 Ni12'
_cell_volume   605.52720344
_cell_formula_units_Z   4
loop_
 _symmetry_equiv_pos_site_id
 _symmetry_equiv_pos_as_xyz
  1  'x, y, z'
loop_
 _atom_site_type_symbol
 _atom_site_label
 _atom_site_symmetry_multiplicity
 _atom_site_fract_x
 _atom_site_fract_y
 _atom_site_fract_z
 _atom_site_occupancy
  Tb  Tb0  1  0.00000000  0.23678800  0.13118000  1
  Tb  Tb1  1  0.00000000  0.76321200  0.86882000  1
  Tb  Tb2  1  0.50000000  0.23678800  0.86882000  1
  Tb  Tb3  1  0.50000000  0.76321200  0.13118000  1
  Tb  Tb4  1  0.50000000  0.73678800  0.63118000  1
  Tb  Tb5  1  0.50000000  0.26321200  0.36882000  1
  Tb  Tb6  1  0.00000000  0.73678800  0.36882000  1
  Tb  Tb7  1  0.00000000  0.26321200  0.63118000  1
  Si  Si8  1  0.25000000  0.00000000  0.00000000  1
  Si  Si9  1  0.75000000  0.00000000  0.00000000  1
  Si  Si10  1  0.75000000  0.50000000  0.23340000  1
  Si  Si11  1  0.75000000  0.50000000  0.76660000  1
  Si  Si12  1  0.25000000  0.50000000  0.76660000  1
  Si  Si13  1  0.25000000  0.50000000  0.23340000  1
  Si  Si14  1  0.50000000  0.65226600  0.89258500  1
  Si  Si15  1  0.00000000  0.34773400  0.89258500  1
  Si  Si16  1  0.00000000  0.65226600  0.10741500  1
  Si  Si17  1  0.50000000  0.34773400  0.10741500  1
  Si  Si18  1  0.75000000  0.50000000  0.50000000  1
  Si  Si19  1  0.25000000  0.50000000  0.50000000  1
  Si  Si20  1  0.25000000  0.00000000  0.73340000  1
  Si  Si21  1  0.25000000  0.00000000  0.26660000  1
  Si  Si22  1  0.75000000  0.00000000  0.26660000  1
  Si  Si23  1  0.75000000  0.00000000  0.73340000  1
  Si  Si24  1  0.00000000  0.15226600  0.39258500  1
  Si  Si25  1  0.50000000  0.84773400  0.39258500  1
  Si  Si26  1  0.50000000  0.15226600  0.60741500  1
  Si  Si27  1  0.00000000  0.84773400  0.60741500  1
  Ni  Ni28  1  0.50000000  0.61173500  0.36576200  1
  Ni  Ni29  1  0.75000000  0.50000000  0.00000000  1
  Ni  Ni30  1  0.00000000  0.38826500  0.36576200  1
  Ni  Ni31  1  0.00000000  0.61173500  0.63423800  1
  Ni  Ni32  1  0.50000000  0.38826500  0.63423800  1
  Ni  Ni33  1  0.25000000  0.50000000  0.00000000  1
  Ni  Ni34  1  0.00000000  0.11173500  0.86576200  1
  Ni  Ni35  1  0.25000000  0.00000000  0.50000000  1
  Ni  Ni36  1  0.50000000  0.88826500  0.86576200  1
  Ni  Ni37  1  0.50000000  0.11173500  0.13423800  1
  Ni  Ni38  1  0.00000000  0.88826500  0.13423800  1
  Ni  Ni39  1  0.75000000  0.00000000  0.50000000  1
