# generated using pymatgen
data_TmSb2
_symmetry_space_group_name_H-M   'P 1'
_cell_length_a   3.53068400
_cell_length_b   6.26100400
_cell_length_c   7.63079100
_cell_angle_alpha   90.00000000
_cell_angle_beta   90.00000000
_cell_angle_gamma   90.00000000
_symmetry_Int_Tables_number   1
_chemical_formula_structural   TmSb2
_chemical_formula_sum   'Tm2 Sb4'
_cell_volume   168.68341687
_cell_formula_units_Z   2
loop_
 _symmetry_equiv_pos_site_id
 _symmetry_equiv_pos_as_xyz
  1  'x, y, z'
loop_
 _atom_site_type_symbol
 _atom_site_label
 _atom_site_symmetry_multiplicity
 _atom_site_fract_x
 _atom_site_fract_y
 _atom_site_fract_z
 _atom_site_occupancy
  Tm  Tm0  1  0.00000000  0.00000000  0.00000000  1
  Tm  Tm1  1  0.50000000  0.50000000  0.00000000  1
  Sb  Sb2  1  0.75000000  0.25000000  0.67901700  1
  Sb  Sb3  1  0.25000000  0.25000000  0.32098300  1
  Sb  Sb4  1  0.25000000  0.75000000  0.67901700  1
  Sb  Sb5  1  0.75000000  0.75000000  0.32098300  1
