# generated using pymatgen
data_Nd3OsO7
_symmetry_space_group_name_H-M   'P 1'
_cell_length_a   7.53352400
_cell_length_b   10.97672400
_cell_length_c   7.61667400
_cell_angle_alpha   90.00000000
_cell_angle_beta   90.00000000
_cell_angle_gamma   90.00000000
_symmetry_Int_Tables_number   1
_chemical_formula_structural   Nd3OsO7
_chemical_formula_sum   'Nd12 Os4 O28'
_cell_volume   629.84877406
_cell_formula_units_Z   4
loop_
 _symmetry_equiv_pos_site_id
 _symmetry_equiv_pos_as_xyz
  1  'x, y, z'
loop_
 _atom_site_type_symbol
 _atom_site_label
 _atom_site_symmetry_multiplicity
 _atom_site_fract_x
 _atom_site_fract_y
 _atom_site_fract_z
 _atom_site_occupancy
  Nd  Nd0  1  0.00000000  0.00000000  0.00000000  1
  Nd  Nd1  1  0.00000000  0.00000000  0.50000000  1
  Nd  Nd2  1  0.69773700  0.77683000  0.75000000  1
  Nd  Nd3  1  0.30226300  0.22317000  0.25000000  1
  Nd  Nd4  1  0.69773700  0.22317000  0.75000000  1
  Nd  Nd5  1  0.30226300  0.77683000  0.25000000  1
  Nd  Nd6  1  0.50000000  0.50000000  0.00000000  1
  Nd  Nd7  1  0.50000000  0.50000000  0.50000000  1
  Nd  Nd8  1  0.19773700  0.27683000  0.75000000  1
  Nd  Nd9  1  0.80226300  0.72317000  0.25000000  1
  Nd  Nd10  1  0.19773700  0.72317000  0.75000000  1
  Nd  Nd11  1  0.80226300  0.27683000  0.25000000  1
  Os  Os12  1  0.50000000  0.00000000  0.00000000  1
  Os  Os13  1  0.50000000  0.00000000  0.50000000  1
  Os  Os14  1  0.00000000  0.50000000  0.00000000  1
  Os  Os15  1  0.00000000  0.50000000  0.50000000  1
  O  O16  1  0.58341400  0.00000000  0.75000000  1
  O  O17  1  0.41658600  0.00000000  0.25000000  1
  O  O18  1  0.47475100  0.36806800  0.75000000  1
  O  O19  1  0.52524900  0.63193200  0.25000000  1
  O  O20  1  0.47475100  0.63193200  0.75000000  1
  O  O21  1  0.52524900  0.36806800  0.25000000  1
  O  O22  1  0.31401400  0.12547800  0.96166500  1
  O  O23  1  0.68598600  0.87452200  0.46166500  1
  O  O24  1  0.31401400  0.87452200  0.96166500  1
  O  O25  1  0.68598600  0.12547800  0.46166500  1
  O  O26  1  0.31401400  0.12547800  0.53833500  1
  O  O27  1  0.68598600  0.87452200  0.03833500  1
  O  O28  1  0.68598600  0.12547800  0.03833500  1
  O  O29  1  0.31401400  0.87452200  0.53833500  1
  O  O30  1  0.08341400  0.50000000  0.75000000  1
  O  O31  1  0.91658600  0.50000000  0.25000000  1
  O  O32  1  0.97475100  0.86806800  0.75000000  1
  O  O33  1  0.02524900  0.13193200  0.25000000  1
  O  O34  1  0.97475100  0.13193200  0.75000000  1
  O  O35  1  0.02524900  0.86806800  0.25000000  1
  O  O36  1  0.81401400  0.62547800  0.96166500  1
  O  O37  1  0.18598600  0.37452200  0.46166500  1
  O  O38  1  0.81401400  0.37452200  0.96166500  1
  O  O39  1  0.18598600  0.62547800  0.46166500  1
  O  O40  1  0.81401400  0.62547800  0.53833500  1
  O  O41  1  0.18598600  0.37452200  0.03833500  1
  O  O42  1  0.18598600  0.62547800  0.03833500  1
  O  O43  1  0.81401400  0.37452200  0.53833500  1
