# generated using pymatgen
data_Sr(Ni2Sn)2
_symmetry_space_group_name_H-M   'P 1'
_cell_length_a   7.88610800
_cell_length_b   7.88610800
_cell_length_c   7.80467400
_cell_angle_alpha   90.00000000
_cell_angle_beta   90.00000000
_cell_angle_gamma   90.00000000
_symmetry_Int_Tables_number   1
_chemical_formula_structural   Sr(Ni2Sn)2
_chemical_formula_sum   'Sr4 Ni16 Sn8'
_cell_volume   485.37813455
_cell_formula_units_Z   4
loop_
 _symmetry_equiv_pos_site_id
 _symmetry_equiv_pos_as_xyz
  1  'x, y, z'
loop_
 _atom_site_type_symbol
 _atom_site_label
 _atom_site_symmetry_multiplicity
 _atom_site_fract_x
 _atom_site_fract_y
 _atom_site_fract_z
 _atom_site_occupancy
  Sr  Sr0  1  0.00000000  0.00000000  0.25000000  1
  Sr  Sr1  1  0.00000000  0.00000000  0.75000000  1
  Sr  Sr2  1  0.50000000  0.50000000  0.75000000  1
  Sr  Sr3  1  0.50000000  0.50000000  0.25000000  1
  Ni  Ni4  1  0.86376550  0.63623450  0.33773050  1
  Ni  Ni5  1  0.36376550  0.86376550  0.33773050  1
  Ni  Ni6  1  0.63623450  0.13623450  0.33773050  1
  Ni  Ni7  1  0.13623450  0.36376550  0.33773050  1
  Ni  Ni8  1  0.36376550  0.13623450  0.16226950  1
  Ni  Ni9  1  0.13623450  0.63623450  0.16226950  1
  Ni  Ni10  1  0.63623450  0.86376550  0.16226950  1
  Ni  Ni11  1  0.86376550  0.36376550  0.16226950  1
  Ni  Ni12  1  0.36376550  0.13623450  0.83773050  1
  Ni  Ni13  1  0.86376550  0.36376550  0.83773050  1
  Ni  Ni14  1  0.13623450  0.63623450  0.83773050  1
  Ni  Ni15  1  0.63623450  0.86376550  0.83773050  1
  Ni  Ni16  1  0.86376550  0.63623450  0.66226950  1
  Ni  Ni17  1  0.63623450  0.13623450  0.66226950  1
  Ni  Ni18  1  0.13623450  0.36376550  0.66226950  1
  Ni  Ni19  1  0.36376550  0.86376550  0.66226950  1
  Sn  Sn20  1  0.34024500  0.15975500  0.50000000  1
  Sn  Sn21  1  0.65975500  0.15975500  0.00000000  1
  Sn  Sn22  1  0.84024500  0.34024500  0.50000000  1
  Sn  Sn23  1  0.15975500  0.34024500  0.00000000  1
  Sn  Sn24  1  0.84024500  0.65975500  0.00000000  1
  Sn  Sn25  1  0.15975500  0.65975500  0.50000000  1
  Sn  Sn26  1  0.34024500  0.84024500  0.00000000  1
  Sn  Sn27  1  0.65975500  0.84024500  0.50000000  1
