# generated using pymatgen
data_TaTe2
_symmetry_space_group_name_H-M   'P 1'
_cell_length_a   15.51331000
_cell_length_b   10.95431600
_cell_length_c   9.66882357
_cell_angle_alpha   90.00000000
_cell_angle_beta   112.88906579
_cell_angle_gamma   90.00000000
_symmetry_Int_Tables_number   1
_chemical_formula_structural   TaTe2
_chemical_formula_sum   'Ta18 Te36'
_cell_volume   1513.71955246
_cell_formula_units_Z   18
loop_
 _symmetry_equiv_pos_site_id
 _symmetry_equiv_pos_as_xyz
  1  'x, y, z'
loop_
 _atom_site_type_symbol
 _atom_site_label
 _atom_site_symmetry_multiplicity
 _atom_site_fract_x
 _atom_site_fract_y
 _atom_site_fract_z
 _atom_site_occupancy
  Ta  Ta0  1  0.64000700  0.66155100  0.28722000  1
  Ta  Ta1  1  0.35999300  0.66155100  0.71278000  1
  Ta  Ta2  1  0.35999300  0.33844900  0.71278000  1
  Ta  Ta3  1  0.64000700  0.33844900  0.28722000  1
  Ta  Ta4  1  0.36339400  0.00000000  0.71155300  1
  Ta  Ta5  1  0.63660600  0.00000000  0.28844700  1
  Ta  Ta6  1  0.50000000  0.19596700  0.00000000  1
  Ta  Ta7  1  0.50000000  0.80403300  0.00000000  1
  Ta  Ta8  1  0.00000000  0.00000000  0.00000000  1
  Ta  Ta9  1  0.14000700  0.16155100  0.28722000  1
  Ta  Ta10  1  0.85999300  0.16155100  0.71278000  1
  Ta  Ta11  1  0.85999300  0.83844900  0.71278000  1
  Ta  Ta12  1  0.14000700  0.83844900  0.28722000  1
  Ta  Ta13  1  0.86339400  0.50000000  0.71155300  1
  Ta  Ta14  1  0.13660600  0.50000000  0.28844700  1
  Ta  Ta15  1  0.00000000  0.69596700  0.00000000  1
  Ta  Ta16  1  0.00000000  0.30403300  0.00000000  1
  Ta  Ta17  1  0.50000000  0.50000000  0.00000000  1
  Te  Te18  1  0.20956300  0.16607100  0.61709500  1
  Te  Te19  1  0.79043700  0.16607100  0.38290500  1
  Te  Te20  1  0.79043700  0.83392900  0.38290500  1
  Te  Te21  1  0.20956300  0.83392900  0.61709500  1
  Te  Te22  1  0.29454700  0.00000000  0.38276200  1
  Te  Te23  1  0.70545300  0.00000000  0.61723800  1
  Te  Te24  1  0.65067100  0.66126800  0.01480100  1
  Te  Te25  1  0.34932900  0.66126800  0.98519900  1
  Te  Te26  1  0.34932900  0.33873200  0.98519900  1
  Te  Te27  1  0.99139500  0.00000000  0.69419800  1
  Te  Te28  1  0.00860500  0.00000000  0.30580200  1
  Te  Te29  1  0.49027650  0.82866450  0.69602000  1
  Te  Te30  1  0.50972350  0.82866450  0.30398000  1
  Te  Te31  1  0.50972350  0.17133550  0.30398000  1
  Te  Te32  1  0.49027650  0.17133550  0.69602000  1
  Te  Te33  1  0.63219000  0.00000000  0.01213400  1
  Te  Te34  1  0.36781000  0.00000000  0.98786600  1
  Te  Te35  1  0.65067100  0.33873200  0.01480100  1
  Te  Te36  1  0.70956300  0.66607100  0.61709500  1
  Te  Te37  1  0.29043700  0.66607100  0.38290500  1
  Te  Te38  1  0.29043700  0.33392900  0.38290500  1
  Te  Te39  1  0.70956300  0.33392900  0.61709500  1
  Te  Te40  1  0.79454700  0.50000000  0.38276200  1
  Te  Te41  1  0.20545300  0.50000000  0.61723800  1
  Te  Te42  1  0.15067100  0.16126800  0.01480100  1
  Te  Te43  1  0.84932900  0.16126800  0.98519900  1
  Te  Te44  1  0.84932900  0.83873200  0.98519900  1
  Te  Te45  1  0.49139500  0.50000000  0.69419800  1
  Te  Te46  1  0.50860500  0.50000000  0.30580200  1
  Te  Te47  1  0.99027650  0.32866450  0.69602000  1
  Te  Te48  1  0.00972350  0.32866450  0.30398000  1
  Te  Te49  1  0.00972350  0.67133550  0.30398000  1
  Te  Te50  1  0.99027650  0.67133550  0.69602000  1
  Te  Te51  1  0.13219000  0.50000000  0.01213400  1
  Te  Te52  1  0.86781000  0.50000000  0.98786600  1
  Te  Te53  1  0.15067100  0.83873200  0.01480100  1
