# generated using pymatgen
data_LiIrF6
_symmetry_space_group_name_H-M   'P 1'
_cell_length_a   5.22066406
_cell_length_b   5.22066406
_cell_length_c   13.78987343
_cell_angle_alpha   90.00000000
_cell_angle_beta   90.00000000
_cell_angle_gamma   120.00000000
_symmetry_Int_Tables_number   1
_chemical_formula_structural   LiIrF6
_chemical_formula_sum   'Li3 Ir3 F18'
_cell_volume   325.49356622
_cell_formula_units_Z   3
loop_
 _symmetry_equiv_pos_site_id
 _symmetry_equiv_pos_as_xyz
  1  'x, y, z'
loop_
 _atom_site_type_symbol
 _atom_site_label
 _atom_site_symmetry_multiplicity
 _atom_site_fract_x
 _atom_site_fract_y
 _atom_site_fract_z
 _atom_site_occupancy
  Li  Li0  1  0.33333333  0.66666667  0.16666667  1
  Li  Li1  1  1.00000000  0.00000000  0.50000000  1
  Li  Li2  1  0.66666667  0.33333333  0.83333333  1
  Ir  Ir3  1  0.00000000  0.00000000  0.00000000  1
  Ir  Ir4  1  0.66666667  0.33333333  0.33333333  1
  Ir  Ir5  1  0.33333333  0.66666667  0.66666667  1
  F  F6  1  0.27442367  0.95501733  0.08034833  1
  F  F7  1  0.68059367  0.72557633  0.08034833  1
  F  F8  1  0.62168400  0.01392700  0.25298500  1
  F  F9  1  0.04498267  0.31940633  0.08034833  1
  F  F10  1  0.98607300  0.60775700  0.25298500  1
  F  F11  1  0.39224300  0.37831600  0.25298500  1
  F  F12  1  0.94109033  0.28835067  0.41368167  1
  F  F13  1  0.34726033  0.05890967  0.41368167  1
  F  F14  1  0.28835067  0.34726033  0.58631833  1
  F  F15  1  0.71164933  0.65273967  0.41368167  1
  F  F16  1  0.65273967  0.94109033  0.58631833  1
  F  F17  1  0.05890967  0.71164933  0.58631833  1
  F  F18  1  0.60775700  0.62168400  0.74701500  1
  F  F19  1  0.01392700  0.39224300  0.74701500  1
  F  F20  1  0.95501733  0.68059367  0.91965167  1
  F  F21  1  0.37831600  0.98607300  0.74701500  1
  F  F22  1  0.31940633  0.27442367  0.91965167  1
  F  F23  1  0.72557633  0.04498267  0.91965167  1
