# generated using pymatgen
data_Ta3Co3C
_symmetry_space_group_name_H-M   'P 1'
_cell_length_a   11.30781400
_cell_length_b   11.30781400
_cell_length_c   11.30781400
_cell_angle_alpha   90.00000000
_cell_angle_beta   90.00000000
_cell_angle_gamma   90.00000000
_symmetry_Int_Tables_number   1
_chemical_formula_structural   Ta3Co3C
_chemical_formula_sum   'Ta48 Co48 C16'
_cell_volume   1445.89237934
_cell_formula_units_Z   16
loop_
 _symmetry_equiv_pos_site_id
 _symmetry_equiv_pos_as_xyz
  1  'x, y, z'
loop_
 _atom_site_type_symbol
 _atom_site_label
 _atom_site_symmetry_multiplicity
 _atom_site_fract_x
 _atom_site_fract_y
 _atom_site_fract_z
 _atom_site_occupancy
  Ta  Ta0  1  0.50000000  0.69835800  0.50000000  1
  Ta  Ta1  1  0.50000000  0.30164200  0.50000000  1
  Ta  Ta2  1  0.25000000  0.55164200  0.25000000  1
  Ta  Ta3  1  0.44835800  0.75000000  0.25000000  1
  Ta  Ta4  1  0.05164200  0.75000000  0.25000000  1
  Ta  Ta5  1  0.25000000  0.94835800  0.25000000  1
  Ta  Ta6  1  0.00000000  0.00000000  0.30164200  1
  Ta  Ta7  1  0.25000000  0.75000000  0.05164200  1
  Ta  Ta8  1  0.50000000  0.00000000  0.19835800  1
  Ta  Ta9  1  0.80164200  0.00000000  0.50000000  1
  Ta  Ta10  1  0.25000000  0.75000000  0.44835800  1
  Ta  Ta11  1  0.19835800  0.00000000  0.50000000  1
  Ta  Ta12  1  0.50000000  0.19835800  0.00000000  1
  Ta  Ta13  1  0.50000000  0.80164200  0.00000000  1
  Ta  Ta14  1  0.25000000  0.05164200  0.75000000  1
  Ta  Ta15  1  0.44835800  0.25000000  0.75000000  1
  Ta  Ta16  1  0.05164200  0.25000000  0.75000000  1
  Ta  Ta17  1  0.25000000  0.44835800  0.75000000  1
  Ta  Ta18  1  0.00000000  0.50000000  0.80164200  1
  Ta  Ta19  1  0.25000000  0.25000000  0.55164200  1
  Ta  Ta20  1  0.50000000  0.50000000  0.69835800  1
  Ta  Ta21  1  0.80164200  0.50000000  0.00000000  1
  Ta  Ta22  1  0.25000000  0.25000000  0.94835800  1
  Ta  Ta23  1  0.19835800  0.50000000  0.00000000  1
  Ta  Ta24  1  0.00000000  0.69835800  0.00000000  1
  Ta  Ta25  1  0.00000000  0.30164200  0.00000000  1
  Ta  Ta26  1  0.75000000  0.55164200  0.75000000  1
  Ta  Ta27  1  0.94835800  0.75000000  0.75000000  1
  Ta  Ta28  1  0.55164200  0.75000000  0.75000000  1
  Ta  Ta29  1  0.75000000  0.94835800  0.75000000  1
  Ta  Ta30  1  0.50000000  0.00000000  0.80164200  1
  Ta  Ta31  1  0.75000000  0.75000000  0.55164200  1
  Ta  Ta32  1  0.00000000  0.00000000  0.69835800  1
  Ta  Ta33  1  0.30164200  0.00000000  0.00000000  1
  Ta  Ta34  1  0.75000000  0.75000000  0.94835800  1
  Ta  Ta35  1  0.69835800  0.00000000  0.00000000  1
  Ta  Ta36  1  0.00000000  0.19835800  0.50000000  1
  Ta  Ta37  1  0.00000000  0.80164200  0.50000000  1
  Ta  Ta38  1  0.75000000  0.05164200  0.25000000  1
  Ta  Ta39  1  0.94835800  0.25000000  0.25000000  1
  Ta  Ta40  1  0.55164200  0.25000000  0.25000000  1
  Ta  Ta41  1  0.75000000  0.44835800  0.25000000  1
  Ta  Ta42  1  0.50000000  0.50000000  0.30164200  1
  Ta  Ta43  1  0.75000000  0.25000000  0.05164200  1
  Ta  Ta44  1  0.00000000  0.50000000  0.19835800  1
  Ta  Ta45  1  0.30164200  0.50000000  0.50000000  1
  Ta  Ta46  1  0.75000000  0.25000000  0.44835800  1
  Ta  Ta47  1  0.69835800  0.50000000  0.50000000  1
  Co  Co48  1  0.12500000  0.12500000  0.12500000  1
  Co  Co49  1  0.17120000  0.17120000  0.32880000  1
  Co  Co50  1  0.32880000  0.17120000  0.17120000  1
  Co  Co51  1  0.07880000  0.92120000  0.07880000  1
  Co  Co52  1  0.92120000  0.07880000  0.07880000  1
  Co  Co53  1  0.42120000  0.92120000  0.42120000  1
  Co  Co54  1  0.57880000  0.07880000  0.42120000  1
  Co  Co55  1  0.17120000  0.32880000  0.17120000  1
  Co  Co56  1  0.62500000  0.87500000  0.37500000  1
  Co  Co57  1  0.87500000  0.87500000  0.12500000  1
  Co  Co58  1  0.37500000  0.12500000  0.37500000  1
  Co  Co59  1  0.32880000  0.32880000  0.32880000  1
  Co  Co60  1  0.12500000  0.62500000  0.62500000  1
  Co  Co61  1  0.17120000  0.67120000  0.82880000  1
  Co  Co62  1  0.32880000  0.67120000  0.67120000  1
  Co  Co63  1  0.07880000  0.42120000  0.57880000  1
  Co  Co64  1  0.92120000  0.57880000  0.57880000  1
  Co  Co65  1  0.42120000  0.42120000  0.92120000  1
  Co  Co66  1  0.57880000  0.57880000  0.92120000  1
  Co  Co67  1  0.17120000  0.82880000  0.67120000  1
  Co  Co68  1  0.62500000  0.37500000  0.87500000  1
  Co  Co69  1  0.87500000  0.37500000  0.62500000  1
  Co  Co70  1  0.37500000  0.62500000  0.87500000  1
  Co  Co71  1  0.32880000  0.82880000  0.82880000  1
  Co  Co72  1  0.62500000  0.12500000  0.62500000  1
  Co  Co73  1  0.67120000  0.17120000  0.82880000  1
  Co  Co74  1  0.82880000  0.17120000  0.67120000  1
  Co  Co75  1  0.57880000  0.92120000  0.57880000  1
  Co  Co76  1  0.42120000  0.07880000  0.57880000  1
  Co  Co77  1  0.92120000  0.92120000  0.92120000  1
  Co  Co78  1  0.07880000  0.07880000  0.92120000  1
  Co  Co79  1  0.67120000  0.32880000  0.67120000  1
  Co  Co80  1  0.12500000  0.87500000  0.87500000  1
  Co  Co81  1  0.37500000  0.87500000  0.62500000  1
  Co  Co82  1  0.87500000  0.12500000  0.87500000  1
  Co  Co83  1  0.82880000  0.32880000  0.82880000  1
  Co  Co84  1  0.62500000  0.62500000  0.12500000  1
  Co  Co85  1  0.67120000  0.67120000  0.32880000  1
  Co  Co86  1  0.82880000  0.67120000  0.17120000  1
  Co  Co87  1  0.57880000  0.42120000  0.07880000  1
  Co  Co88  1  0.42120000  0.57880000  0.07880000  1
  Co  Co89  1  0.92120000  0.42120000  0.42120000  1
  Co  Co90  1  0.07880000  0.57880000  0.42120000  1
  Co  Co91  1  0.67120000  0.82880000  0.17120000  1
  Co  Co92  1  0.12500000  0.37500000  0.37500000  1
  Co  Co93  1  0.37500000  0.37500000  0.12500000  1
  Co  Co94  1  0.87500000  0.62500000  0.37500000  1
  Co  Co95  1  0.82880000  0.82880000  0.32880000  1
  C  C96  1  0.12500000  0.62500000  0.12500000  1
  C  C97  1  0.37500000  0.87500000  0.12500000  1
  C  C98  1  0.12500000  0.87500000  0.37500000  1
  C  C99  1  0.37500000  0.62500000  0.37500000  1
  C  C100  1  0.12500000  0.12500000  0.62500000  1
  C  C101  1  0.37500000  0.37500000  0.62500000  1
  C  C102  1  0.12500000  0.37500000  0.87500000  1
  C  C103  1  0.37500000  0.12500000  0.87500000  1
  C  C104  1  0.62500000  0.62500000  0.62500000  1
  C  C105  1  0.87500000  0.87500000  0.62500000  1
  C  C106  1  0.62500000  0.87500000  0.87500000  1
  C  C107  1  0.87500000  0.62500000  0.87500000  1
  C  C108  1  0.62500000  0.12500000  0.12500000  1
  C  C109  1  0.87500000  0.37500000  0.12500000  1
  C  C110  1  0.62500000  0.37500000  0.37500000  1
  C  C111  1  0.87500000  0.12500000  0.37500000  1
