# generated using pymatgen
data_Er2Co3Ge5
_symmetry_space_group_name_H-M   'P 1'
_cell_length_a   10.99286800
_cell_length_b   11.74605800
_cell_length_c   5.69081904
_cell_angle_alpha   90.00000000
_cell_angle_beta   119.18892774
_cell_angle_gamma   90.00000000
_symmetry_Int_Tables_number   1
_chemical_formula_structural   Er2Co3Ge5
_chemical_formula_sum   'Er8 Co12 Ge20'
_cell_volume   641.50537776
_cell_formula_units_Z   4
loop_
 _symmetry_equiv_pos_site_id
 _symmetry_equiv_pos_as_xyz
  1  'x, y, z'
loop_
 _atom_site_type_symbol
 _atom_site_label
 _atom_site_symmetry_multiplicity
 _atom_site_fract_x
 _atom_site_fract_y
 _atom_site_fract_z
 _atom_site_occupancy
  Er  Er0  1  0.73159650  0.85896450  0.73235900  1
  Er  Er1  1  0.73159650  0.14103550  0.23235900  1
  Er  Er2  1  0.26840350  0.14103550  0.26764100  1
  Er  Er3  1  0.26840350  0.85896450  0.76764100  1
  Er  Er4  1  0.23159650  0.35896450  0.73235900  1
  Er  Er5  1  0.23159650  0.64103550  0.23235900  1
  Er  Er6  1  0.76840350  0.64103550  0.26764100  1
  Er  Er7  1  0.76840350  0.35896450  0.76764100  1
  Co  Co8  1  0.50000000  0.49726200  0.75000000  1
  Co  Co9  1  0.50000000  0.50273800  0.25000000  1
  Co  Co10  1  0.40260350  0.85877050  0.38031000  1
  Co  Co11  1  0.40260350  0.14122950  0.88031000  1
  Co  Co12  1  0.59739650  0.14122950  0.61969000  1
  Co  Co13  1  0.59739650  0.85877050  0.11969000  1
  Co  Co14  1  0.00000000  0.99726200  0.75000000  1
  Co  Co15  1  0.00000000  0.00273800  0.25000000  1
  Co  Co16  1  0.90260350  0.35877050  0.38031000  1
  Co  Co17  1  0.90260350  0.64122950  0.88031000  1
  Co  Co18  1  0.09739650  0.64122950  0.61969000  1
  Co  Co19  1  0.09739650  0.35877050  0.11969000  1
  Ge  Ge20  1  0.82875550  0.90931150  0.32641800  1
  Ge  Ge21  1  0.17124450  0.90931150  0.17358200  1
  Ge  Ge22  1  0.17124450  0.09068850  0.67358200  1
  Ge  Ge23  1  0.82875550  0.09068850  0.82641800  1
  Ge  Ge24  1  0.50000000  0.28725100  0.75000000  1
  Ge  Ge25  1  0.50000000  0.71274900  0.25000000  1
  Ge  Ge26  1  0.50000000  0.99076200  0.75000000  1
  Ge  Ge27  1  0.50000000  0.00923800  0.25000000  1
  Ge  Ge28  1  0.50000000  0.72557300  0.75000000  1
  Ge  Ge29  1  0.50000000  0.27442700  0.25000000  1
  Ge  Ge30  1  0.32875550  0.40931150  0.32641800  1
  Ge  Ge31  1  0.67124450  0.40931150  0.17358200  1
  Ge  Ge32  1  0.67124450  0.59068850  0.67358200  1
  Ge  Ge33  1  0.32875550  0.59068850  0.82641800  1
  Ge  Ge34  1  0.00000000  0.78725100  0.75000000  1
  Ge  Ge35  1  0.00000000  0.21274900  0.25000000  1
  Ge  Ge36  1  0.00000000  0.49076200  0.75000000  1
  Ge  Ge37  1  0.00000000  0.50923800  0.25000000  1
  Ge  Ge38  1  0.00000000  0.22557300  0.75000000  1
  Ge  Ge39  1  0.00000000  0.77442700  0.25000000  1
