# generated using pymatgen
data_La2C3
_symmetry_space_group_name_H-M   'P 1'
_cell_length_a   8.81888200
_cell_length_b   8.81888200
_cell_length_c   8.81888200
_cell_angle_alpha   90.00000000
_cell_angle_beta   90.00000000
_cell_angle_gamma   90.00000000
_symmetry_Int_Tables_number   1
_chemical_formula_structural   La2C3
_chemical_formula_sum   'La16 C24'
_cell_volume   685.86808536
_cell_formula_units_Z   8
loop_
 _symmetry_equiv_pos_site_id
 _symmetry_equiv_pos_as_xyz
  1  'x, y, z'
loop_
 _atom_site_type_symbol
 _atom_site_label
 _atom_site_symmetry_multiplicity
 _atom_site_fract_x
 _atom_site_fract_y
 _atom_site_fract_z
 _atom_site_occupancy
  La  La0  1  0.30220750  0.30220750  0.30220750  1
  La  La1  1  0.94779250  0.44779250  0.05220750  1
  La  La2  1  0.44779250  0.05220750  0.94779250  1
  La  La3  1  0.05220750  0.94779250  0.44779250  1
  La  La4  1  0.69779250  0.80220750  0.19779250  1
  La  La5  1  0.80220750  0.19779250  0.69779250  1
  La  La6  1  0.19779250  0.69779250  0.80220750  1
  La  La7  1  0.05220750  0.05220750  0.05220750  1
  La  La8  1  0.80220750  0.80220750  0.80220750  1
  La  La9  1  0.44779250  0.94779250  0.55220750  1
  La  La10  1  0.94779250  0.55220750  0.44779250  1
  La  La11  1  0.55220750  0.44779250  0.94779250  1
  La  La12  1  0.19779250  0.30220750  0.69779250  1
  La  La13  1  0.30220750  0.69779250  0.19779250  1
  La  La14  1  0.69779250  0.19779250  0.30220750  1
  La  La15  1  0.55220750  0.55220750  0.55220750  1
  C  C16  1  0.00000000  0.75000000  0.04960100  1
  C  C17  1  0.00000000  0.75000000  0.20039900  1
  C  C18  1  0.29960100  0.00000000  0.25000000  1
  C  C19  1  0.25000000  0.29960100  0.00000000  1
  C  C20  1  0.20039900  0.00000000  0.75000000  1
  C  C21  1  0.75000000  0.20039900  0.00000000  1
  C  C22  1  0.00000000  0.25000000  0.45039900  1
  C  C23  1  0.25000000  0.45039900  0.00000000  1
  C  C24  1  0.00000000  0.25000000  0.29960100  1
  C  C25  1  0.45039900  0.00000000  0.25000000  1
  C  C26  1  0.04960100  0.00000000  0.75000000  1
  C  C27  1  0.75000000  0.04960100  0.00000000  1
  C  C28  1  0.50000000  0.25000000  0.54960100  1
  C  C29  1  0.50000000  0.25000000  0.70039900  1
  C  C30  1  0.79960100  0.50000000  0.75000000  1
  C  C31  1  0.75000000  0.79960100  0.50000000  1
  C  C32  1  0.70039900  0.50000000  0.25000000  1
  C  C33  1  0.25000000  0.70039900  0.50000000  1
  C  C34  1  0.50000000  0.75000000  0.95039900  1
  C  C35  1  0.75000000  0.95039900  0.50000000  1
  C  C36  1  0.50000000  0.75000000  0.79960100  1
  C  C37  1  0.95039900  0.50000000  0.75000000  1
  C  C38  1  0.54960100  0.50000000  0.25000000  1
  C  C39  1  0.25000000  0.54960100  0.50000000  1
