# generated using pymatgen
data_BaN2
_symmetry_space_group_name_H-M   'P 1'
_cell_length_a   7.26094400
_cell_length_b   4.48389600
_cell_length_c   7.33778643
_cell_angle_alpha   90.00000000
_cell_angle_beta   105.07714215
_cell_angle_gamma   90.00000000
_symmetry_Int_Tables_number   1
_chemical_formula_structural   BaN2
_chemical_formula_sum   'Ba4 N8'
_cell_volume   230.67491243
_cell_formula_units_Z   4
loop_
 _symmetry_equiv_pos_site_id
 _symmetry_equiv_pos_as_xyz
  1  'x, y, z'
loop_
 _atom_site_type_symbol
 _atom_site_label
 _atom_site_symmetry_multiplicity
 _atom_site_fract_x
 _atom_site_fract_y
 _atom_site_fract_z
 _atom_site_occupancy
  Ba  Ba0  1  0.50000000  0.28845100  0.25000000  1
  Ba  Ba1  1  0.50000000  0.71154900  0.75000000  1
  Ba  Ba2  1  0.00000000  0.78845100  0.25000000  1
  Ba  Ba3  1  0.00000000  0.21154900  0.75000000  1
  N  N4  1  0.70324500  0.85174400  0.45408000  1
  N  N5  1  0.29675500  0.85174400  0.04592000  1
  N  N6  1  0.70324500  0.14825600  0.95408000  1
  N  N7  1  0.29675500  0.14825600  0.54592000  1
  N  N8  1  0.20324500  0.35174400  0.45408000  1
  N  N9  1  0.79675500  0.35174400  0.04592000  1
  N  N10  1  0.20324500  0.64825600  0.95408000  1
  N  N11  1  0.79675500  0.64825600  0.54592000  1
