# generated using pymatgen
data_Lu(BRh)4
_symmetry_space_group_name_H-M   'P 1'
_cell_length_a   7.51674200
_cell_length_b   7.51674200
_cell_length_c   14.89613000
_cell_angle_alpha   90.00000000
_cell_angle_beta   90.00000000
_cell_angle_gamma   90.00000000
_symmetry_Int_Tables_number   1
_chemical_formula_structural   Lu(BRh)4
_chemical_formula_sum   'Lu8 B32 Rh32'
_cell_volume   841.65235293
_cell_formula_units_Z   8
loop_
 _symmetry_equiv_pos_site_id
 _symmetry_equiv_pos_as_xyz
  1  'x, y, z'
loop_
 _atom_site_type_symbol
 _atom_site_label
 _atom_site_symmetry_multiplicity
 _atom_site_fract_x
 _atom_site_fract_y
 _atom_site_fract_z
 _atom_site_occupancy
  Lu  Lu0  1  0.50000000  0.50000000  0.25000000  1
  Lu  Lu1  1  0.00000000  0.50000000  0.00000000  1
  Lu  Lu2  1  0.50000000  0.00000000  0.00000000  1
  Lu  Lu3  1  0.00000000  0.00000000  0.25000000  1
  Lu  Lu4  1  0.00000000  0.00000000  0.75000000  1
  Lu  Lu5  1  0.50000000  0.00000000  0.50000000  1
  Lu  Lu6  1  0.00000000  0.50000000  0.50000000  1
  Lu  Lu7  1  0.50000000  0.50000000  0.75000000  1
  B  B8  1  0.63711550  0.32993350  0.41770950  1
  B  B9  1  0.36288450  0.67006650  0.41770950  1
  B  B10  1  0.63711550  0.17006650  0.33229050  1
  B  B11  1  0.36288450  0.82993350  0.33229050  1
  B  B12  1  0.67006650  0.36288450  0.08229050  1
  B  B13  1  0.32993350  0.63711550  0.08229050  1
  B  B14  1  0.82993350  0.36288450  0.16770950  1
  B  B15  1  0.17006650  0.63711550  0.16770950  1
  B  B16  1  0.86288450  0.67006650  0.33229050  1
  B  B17  1  0.13711550  0.32993350  0.33229050  1
  B  B18  1  0.86288450  0.82993350  0.41770950  1
  B  B19  1  0.13711550  0.17006650  0.41770950  1
  B  B20  1  0.32993350  0.13711550  0.16770950  1
  B  B21  1  0.67006650  0.86288450  0.16770950  1
  B  B22  1  0.17006650  0.13711550  0.08229050  1
  B  B23  1  0.82993350  0.86288450  0.08229050  1
  B  B24  1  0.13711550  0.82993350  0.91770950  1
  B  B25  1  0.86288450  0.17006650  0.91770950  1
  B  B26  1  0.13711550  0.67006650  0.83229050  1
  B  B27  1  0.86288450  0.32993350  0.83229050  1
  B  B28  1  0.17006650  0.86288450  0.58229050  1
  B  B29  1  0.82993350  0.13711550  0.58229050  1
  B  B30  1  0.32993350  0.86288450  0.66770950  1
  B  B31  1  0.67006650  0.13711550  0.66770950  1
  B  B32  1  0.36288450  0.17006650  0.83229050  1
  B  B33  1  0.63711550  0.82993350  0.83229050  1
  B  B34  1  0.36288450  0.32993350  0.91770950  1
  B  B35  1  0.63711550  0.67006650  0.91770950  1
  B  B36  1  0.82993350  0.63711550  0.66770950  1
  B  B37  1  0.17006650  0.36288450  0.66770950  1
  B  B38  1  0.67006650  0.63711550  0.58229050  1
  B  B39  1  0.32993350  0.36288450  0.58229050  1
  Rh  Rh40  1  0.84577850  0.38348950  0.31329350  1
  Rh  Rh41  1  0.15422150  0.61651050  0.31329350  1
  Rh  Rh42  1  0.84577850  0.11651050  0.43670650  1
  Rh  Rh43  1  0.15422150  0.88348950  0.43670650  1
  Rh  Rh44  1  0.61651050  0.15422150  0.18670650  1
  Rh  Rh45  1  0.38348950  0.84577850  0.18670650  1
  Rh  Rh46  1  0.88348950  0.15422150  0.06329350  1
  Rh  Rh47  1  0.11651050  0.84577850  0.06329350  1
  Rh  Rh48  1  0.65422150  0.61651050  0.43670650  1
  Rh  Rh49  1  0.34577850  0.38348950  0.43670650  1
  Rh  Rh50  1  0.65422150  0.88348950  0.31329350  1
  Rh  Rh51  1  0.34577850  0.11651050  0.31329350  1
  Rh  Rh52  1  0.38348950  0.34577850  0.06329350  1
  Rh  Rh53  1  0.61651050  0.65422150  0.06329350  1
  Rh  Rh54  1  0.11651050  0.34577850  0.18670650  1
  Rh  Rh55  1  0.88348950  0.65422150  0.18670650  1
  Rh  Rh56  1  0.34577850  0.88348950  0.81329350  1
  Rh  Rh57  1  0.65422150  0.11651050  0.81329350  1
  Rh  Rh58  1  0.34577850  0.61651050  0.93670650  1
  Rh  Rh59  1  0.65422150  0.38348950  0.93670650  1
  Rh  Rh60  1  0.11651050  0.65422150  0.68670650  1
  Rh  Rh61  1  0.88348950  0.34577850  0.68670650  1
  Rh  Rh62  1  0.38348950  0.65422150  0.56329350  1
  Rh  Rh63  1  0.61651050  0.34577850  0.56329350  1
  Rh  Rh64  1  0.15422150  0.11651050  0.93670650  1
  Rh  Rh65  1  0.84577850  0.88348950  0.93670650  1
  Rh  Rh66  1  0.15422150  0.38348950  0.81329350  1
  Rh  Rh67  1  0.84577850  0.61651050  0.81329350  1
  Rh  Rh68  1  0.88348950  0.84577850  0.56329350  1
  Rh  Rh69  1  0.11651050  0.15422150  0.56329350  1
  Rh  Rh70  1  0.61651050  0.84577850  0.68670650  1
  Rh  Rh71  1  0.38348950  0.15422150  0.68670650  1
