# generated using pymatgen
data_Nb3Cr3C
_symmetry_space_group_name_H-M   'P 1'
_cell_length_a   11.56487200
_cell_length_b   11.56487200
_cell_length_c   11.56487200
_cell_angle_alpha   90.00000000
_cell_angle_beta   90.00000000
_cell_angle_gamma   90.00000000
_symmetry_Int_Tables_number   1
_chemical_formula_structural   Nb3Cr3C
_chemical_formula_sum   'Nb48 Cr48 C16'
_cell_volume   1546.75842799
_cell_formula_units_Z   16
loop_
 _symmetry_equiv_pos_site_id
 _symmetry_equiv_pos_as_xyz
  1  'x, y, z'
loop_
 _atom_site_type_symbol
 _atom_site_label
 _atom_site_symmetry_multiplicity
 _atom_site_fract_x
 _atom_site_fract_y
 _atom_site_fract_z
 _atom_site_occupancy
  Nb  Nb0  1  0.25000000  0.25000000  0.05763400  1
  Nb  Nb1  1  0.25000000  0.25000000  0.44236600  1
  Nb  Nb2  1  0.00000000  0.00000000  0.19236600  1
  Nb  Nb3  1  0.69236600  0.00000000  0.50000000  1
  Nb  Nb4  1  0.30763400  0.00000000  0.50000000  1
  Nb  Nb5  1  0.50000000  0.00000000  0.30763400  1
  Nb  Nb6  1  0.25000000  0.05763400  0.25000000  1
  Nb  Nb7  1  0.50000000  0.80763400  0.50000000  1
  Nb  Nb8  1  0.25000000  0.44236600  0.25000000  1
  Nb  Nb9  1  0.05763400  0.25000000  0.25000000  1
  Nb  Nb10  1  0.50000000  0.19236600  0.50000000  1
  Nb  Nb11  1  0.44236600  0.25000000  0.25000000  1
  Nb  Nb12  1  0.25000000  0.75000000  0.55763400  1
  Nb  Nb13  1  0.25000000  0.75000000  0.94236600  1
  Nb  Nb14  1  0.00000000  0.50000000  0.69236600  1
  Nb  Nb15  1  0.69236600  0.50000000  0.00000000  1
  Nb  Nb16  1  0.30763400  0.50000000  0.00000000  1
  Nb  Nb17  1  0.50000000  0.50000000  0.80763400  1
  Nb  Nb18  1  0.25000000  0.55763400  0.75000000  1
  Nb  Nb19  1  0.50000000  0.30763400  0.00000000  1
  Nb  Nb20  1  0.25000000  0.94236600  0.75000000  1
  Nb  Nb21  1  0.05763400  0.75000000  0.75000000  1
  Nb  Nb22  1  0.50000000  0.69236600  0.00000000  1
  Nb  Nb23  1  0.44236600  0.75000000  0.75000000  1
  Nb  Nb24  1  0.75000000  0.25000000  0.55763400  1
  Nb  Nb25  1  0.75000000  0.25000000  0.94236600  1
  Nb  Nb26  1  0.50000000  0.00000000  0.69236600  1
  Nb  Nb27  1  0.19236600  0.00000000  0.00000000  1
  Nb  Nb28  1  0.80763400  0.00000000  0.00000000  1
  Nb  Nb29  1  0.00000000  0.00000000  0.80763400  1
  Nb  Nb30  1  0.75000000  0.05763400  0.75000000  1
  Nb  Nb31  1  0.00000000  0.80763400  0.00000000  1
  Nb  Nb32  1  0.75000000  0.44236600  0.75000000  1
  Nb  Nb33  1  0.55763400  0.25000000  0.75000000  1
  Nb  Nb34  1  0.00000000  0.19236600  0.00000000  1
  Nb  Nb35  1  0.94236600  0.25000000  0.75000000  1
  Nb  Nb36  1  0.75000000  0.75000000  0.05763400  1
  Nb  Nb37  1  0.75000000  0.75000000  0.44236600  1
  Nb  Nb38  1  0.50000000  0.50000000  0.19236600  1
  Nb  Nb39  1  0.19236600  0.50000000  0.50000000  1
  Nb  Nb40  1  0.80763400  0.50000000  0.50000000  1
  Nb  Nb41  1  0.00000000  0.50000000  0.30763400  1
  Nb  Nb42  1  0.75000000  0.55763400  0.25000000  1
  Nb  Nb43  1  0.00000000  0.30763400  0.50000000  1
  Nb  Nb44  1  0.75000000  0.94236600  0.25000000  1
  Nb  Nb45  1  0.55763400  0.75000000  0.25000000  1
  Nb  Nb46  1  0.00000000  0.69236600  0.50000000  1
  Nb  Nb47  1  0.94236600  0.75000000  0.25000000  1
  Cr  Cr48  1  0.37500000  0.87500000  0.12500000  1
  Cr  Cr49  1  0.42152500  0.07847500  0.07847500  1
  Cr  Cr50  1  0.07847500  0.42152500  0.07847500  1
  Cr  Cr51  1  0.32847500  0.82847500  0.32847500  1
  Cr  Cr52  1  0.17152500  0.82847500  0.17152500  1
  Cr  Cr53  1  0.17152500  0.67152500  0.32847500  1
  Cr  Cr54  1  0.32847500  0.67152500  0.17152500  1
  Cr  Cr55  1  0.42152500  0.42152500  0.42152500  1
  Cr  Cr56  1  0.37500000  0.62500000  0.37500000  1
  Cr  Cr57  1  0.12500000  0.87500000  0.37500000  1
  Cr  Cr58  1  0.12500000  0.62500000  0.12500000  1
  Cr  Cr59  1  0.07847500  0.07847500  0.42152500  1
  Cr  Cr60  1  0.37500000  0.37500000  0.62500000  1
  Cr  Cr61  1  0.42152500  0.57847500  0.57847500  1
  Cr  Cr62  1  0.07847500  0.92152500  0.57847500  1
  Cr  Cr63  1  0.32847500  0.32847500  0.82847500  1
  Cr  Cr64  1  0.17152500  0.32847500  0.67152500  1
  Cr  Cr65  1  0.17152500  0.17152500  0.82847500  1
  Cr  Cr66  1  0.32847500  0.17152500  0.67152500  1
  Cr  Cr67  1  0.42152500  0.92152500  0.92152500  1
  Cr  Cr68  1  0.37500000  0.12500000  0.87500000  1
  Cr  Cr69  1  0.12500000  0.37500000  0.87500000  1
  Cr  Cr70  1  0.12500000  0.12500000  0.62500000  1
  Cr  Cr71  1  0.07847500  0.57847500  0.92152500  1
  Cr  Cr72  1  0.87500000  0.87500000  0.62500000  1
  Cr  Cr73  1  0.92152500  0.07847500  0.57847500  1
  Cr  Cr74  1  0.57847500  0.42152500  0.57847500  1
  Cr  Cr75  1  0.82847500  0.82847500  0.82847500  1
  Cr  Cr76  1  0.67152500  0.82847500  0.67152500  1
  Cr  Cr77  1  0.67152500  0.67152500  0.82847500  1
  Cr  Cr78  1  0.82847500  0.67152500  0.67152500  1
  Cr  Cr79  1  0.92152500  0.42152500  0.92152500  1
  Cr  Cr80  1  0.87500000  0.62500000  0.87500000  1
  Cr  Cr81  1  0.62500000  0.87500000  0.87500000  1
  Cr  Cr82  1  0.62500000  0.62500000  0.62500000  1
  Cr  Cr83  1  0.57847500  0.07847500  0.92152500  1
  Cr  Cr84  1  0.87500000  0.37500000  0.12500000  1
  Cr  Cr85  1  0.92152500  0.57847500  0.07847500  1
  Cr  Cr86  1  0.57847500  0.92152500  0.07847500  1
  Cr  Cr87  1  0.82847500  0.32847500  0.32847500  1
  Cr  Cr88  1  0.67152500  0.32847500  0.17152500  1
  Cr  Cr89  1  0.67152500  0.17152500  0.32847500  1
  Cr  Cr90  1  0.82847500  0.17152500  0.17152500  1
  Cr  Cr91  1  0.92152500  0.92152500  0.42152500  1
  Cr  Cr92  1  0.87500000  0.12500000  0.37500000  1
  Cr  Cr93  1  0.62500000  0.37500000  0.37500000  1
  Cr  Cr94  1  0.62500000  0.12500000  0.12500000  1
  Cr  Cr95  1  0.57847500  0.57847500  0.42152500  1
  C  C96  1  0.87500000  0.87500000  0.12500000  1
  C  C97  1  0.62500000  0.87500000  0.37500000  1
  C  C98  1  0.37500000  0.12500000  0.37500000  1
  C  C99  1  0.12500000  0.12500000  0.12500000  1
  C  C100  1  0.87500000  0.37500000  0.62500000  1
  C  C101  1  0.62500000  0.37500000  0.87500000  1
  C  C102  1  0.37500000  0.62500000  0.87500000  1
  C  C103  1  0.12500000  0.62500000  0.62500000  1
  C  C104  1  0.37500000  0.87500000  0.62500000  1
  C  C105  1  0.12500000  0.87500000  0.87500000  1
  C  C106  1  0.87500000  0.12500000  0.87500000  1
  C  C107  1  0.62500000  0.12500000  0.62500000  1
  C  C108  1  0.37500000  0.37500000  0.12500000  1
  C  C109  1  0.12500000  0.37500000  0.37500000  1
  C  C110  1  0.87500000  0.62500000  0.37500000  1
  C  C111  1  0.62500000  0.62500000  0.12500000  1
