# generated using pymatgen
data_Pr2B5
_symmetry_space_group_name_H-M   'P 1'
_cell_length_a   15.30996400
_cell_length_b   7.33670000
_cell_length_c   7.36122192
_cell_angle_alpha   90.00000000
_cell_angle_beta   109.47940513
_cell_angle_gamma   90.00000000
_symmetry_Int_Tables_number   1
_chemical_formula_structural   Pr2B5
_chemical_formula_sum   'Pr16 B40'
_cell_volume   779.51888513
_cell_formula_units_Z   8
loop_
 _symmetry_equiv_pos_site_id
 _symmetry_equiv_pos_as_xyz
  1  'x, y, z'
loop_
 _atom_site_type_symbol
 _atom_site_label
 _atom_site_symmetry_multiplicity
 _atom_site_fract_x
 _atom_site_fract_y
 _atom_site_fract_z
 _atom_site_occupancy
  Pr  Pr0  1  0.38139000  0.43767300  0.77770400  1
  Pr  Pr1  1  0.11861000  0.93767300  0.72229600  1
  Pr  Pr2  1  0.11861000  0.06232700  0.22229600  1
  Pr  Pr3  1  0.38139000  0.56232700  0.27770400  1
  Pr  Pr4  1  0.38106300  0.92926500  0.90404000  1
  Pr  Pr5  1  0.11893700  0.42926500  0.59596000  1
  Pr  Pr6  1  0.11893700  0.57073500  0.09596000  1
  Pr  Pr7  1  0.38106300  0.07073500  0.40404000  1
  Pr  Pr8  1  0.88139000  0.93767300  0.77770400  1
  Pr  Pr9  1  0.61861000  0.43767300  0.72229600  1
  Pr  Pr10  1  0.61861000  0.56232700  0.22229600  1
  Pr  Pr11  1  0.88139000  0.06232700  0.27770400  1
  Pr  Pr12  1  0.88106300  0.42926500  0.90404000  1
  Pr  Pr13  1  0.61893700  0.92926500  0.59596000  1
  Pr  Pr14  1  0.61893700  0.07073500  0.09596000  1
  Pr  Pr15  1  0.88106300  0.57073500  0.40404000  1
  B  B16  1  0.04323200  0.24621200  0.84999800  1
  B  B17  1  0.45676800  0.74621200  0.65000200  1
  B  B18  1  0.45676800  0.25378800  0.15000200  1
  B  B19  1  0.04323200  0.75378800  0.34999800  1
  B  B20  1  0.25070750  0.84243950  0.09278000  1
  B  B21  1  0.24929250  0.34243950  0.40722000  1
  B  B22  1  0.24929250  0.65756050  0.90722000  1
  B  B23  1  0.25070750  0.15756050  0.59278000  1
  B  B24  1  0.24887700  0.28978400  0.17023400  1
  B  B25  1  0.25112300  0.78978400  0.32976600  1
  B  B26  1  0.25112300  0.21021600  0.82976600  1
  B  B27  1  0.24887700  0.71021600  0.67023400  1
  B  B28  1  0.24988500  0.42115500  0.95989400  1
  B  B29  1  0.25011500  0.92115500  0.54010600  1
  B  B30  1  0.25011500  0.07884500  0.04010600  1
  B  B31  1  0.24988500  0.57884500  0.45989400  1
  B  B32  1  0.33973600  0.25040200  0.06157200  1
  B  B33  1  0.16026400  0.75040200  0.43842800  1
  B  B34  1  0.16026400  0.24959800  0.93842800  1
  B  B35  1  0.33973600  0.74959800  0.56157200  1
  B  B36  1  0.54323200  0.74621200  0.84999800  1
  B  B37  1  0.95676800  0.24621200  0.65000200  1
  B  B38  1  0.95676800  0.75378800  0.15000200  1
  B  B39  1  0.54323200  0.25378800  0.34999800  1
  B  B40  1  0.75070750  0.34243950  0.09278000  1
  B  B41  1  0.74929250  0.84243950  0.40722000  1
  B  B42  1  0.74929250  0.15756050  0.90722000  1
  B  B43  1  0.75070750  0.65756050  0.59278000  1
  B  B44  1  0.74887700  0.78978400  0.17023400  1
  B  B45  1  0.75112300  0.28978400  0.32976600  1
  B  B46  1  0.75112300  0.71021600  0.82976600  1
  B  B47  1  0.74887700  0.21021600  0.67023400  1
  B  B48  1  0.74988500  0.92115500  0.95989400  1
  B  B49  1  0.75011500  0.42115500  0.54010600  1
  B  B50  1  0.75011500  0.57884500  0.04010600  1
  B  B51  1  0.74988500  0.07884500  0.45989400  1
  B  B52  1  0.83973600  0.75040200  0.06157200  1
  B  B53  1  0.66026400  0.25040200  0.43842800  1
  B  B54  1  0.66026400  0.74959800  0.93842800  1
  B  B55  1  0.83973600  0.24959800  0.56157200  1
