# generated using pymatgen
data_Mo3P
_symmetry_space_group_name_H-M   'P 1'
_cell_length_a   9.85500600
_cell_length_b   9.85500600
_cell_length_c   4.84961800
_cell_angle_alpha   90.00000000
_cell_angle_beta   90.00000000
_cell_angle_gamma   90.00000000
_symmetry_Int_Tables_number   1
_chemical_formula_structural   Mo3P
_chemical_formula_sum   'Mo24 P8'
_cell_volume   471.00044453
_cell_formula_units_Z   8
loop_
 _symmetry_equiv_pos_site_id
 _symmetry_equiv_pos_as_xyz
  1  'x, y, z'
loop_
 _atom_site_type_symbol
 _atom_site_label
 _atom_site_symmetry_multiplicity
 _atom_site_fract_x
 _atom_site_fract_y
 _atom_site_fract_z
 _atom_site_occupancy
  Mo  Mo0  1  0.70098550  0.70098550  0.23063650  1
  Mo  Mo1  1  0.79901450  0.20098550  0.26936350  1
  Mo  Mo2  1  0.70098550  0.29901450  0.76936350  1
  Mo  Mo3  1  0.79901450  0.79901450  0.73063650  1
  Mo  Mo4  1  0.50000000  0.85476300  0.50000000  1
  Mo  Mo5  1  0.64523700  0.00000000  0.00000000  1
  Mo  Mo6  1  0.35476300  0.00000000  0.00000000  1
  Mo  Mo7  1  0.50000000  0.14523700  0.50000000  1
  Mo  Mo8  1  0.90729250  0.90729250  0.23196650  1
  Mo  Mo9  1  0.59270750  0.40729250  0.26803350  1
  Mo  Mo10  1  0.90729250  0.09270750  0.76803350  1
  Mo  Mo11  1  0.59270750  0.59270750  0.73196650  1
  Mo  Mo12  1  0.20098550  0.20098550  0.73063650  1
  Mo  Mo13  1  0.29901450  0.70098550  0.76936350  1
  Mo  Mo14  1  0.20098550  0.79901450  0.26936350  1
  Mo  Mo15  1  0.29901450  0.29901450  0.23063650  1
  Mo  Mo16  1  0.00000000  0.35476300  0.00000000  1
  Mo  Mo17  1  0.14523700  0.50000000  0.50000000  1
  Mo  Mo18  1  0.85476300  0.50000000  0.50000000  1
  Mo  Mo19  1  0.00000000  0.64523700  0.00000000  1
  Mo  Mo20  1  0.40729250  0.40729250  0.73196650  1
  Mo  Mo21  1  0.09270750  0.90729250  0.76803350  1
  Mo  Mo22  1  0.40729250  0.59270750  0.26803350  1
  Mo  Mo23  1  0.09270750  0.09270750  0.23196650  1
  P  P24  1  0.50000000  0.20839200  0.00000000  1
  P  P25  1  0.29160800  0.00000000  0.50000000  1
  P  P26  1  0.70839200  0.00000000  0.50000000  1
  P  P27  1  0.50000000  0.79160800  0.00000000  1
  P  P28  1  0.00000000  0.70839200  0.50000000  1
  P  P29  1  0.79160800  0.50000000  0.00000000  1
  P  P30  1  0.20839200  0.50000000  0.00000000  1
  P  P31  1  0.00000000  0.29160800  0.50000000  1
