# generated using pymatgen
data_CsCd13
_symmetry_space_group_name_H-M   'P 1'
_cell_length_a   14.20877200
_cell_length_b   14.20877200
_cell_length_c   14.20877200
_cell_angle_alpha   90.00000000
_cell_angle_beta   90.00000000
_cell_angle_gamma   90.00000000
_symmetry_Int_Tables_number   1
_chemical_formula_structural   CsCd13
_chemical_formula_sum   'Cs8 Cd104'
_cell_volume   2868.59763690
_cell_formula_units_Z   8
loop_
 _symmetry_equiv_pos_site_id
 _symmetry_equiv_pos_as_xyz
  1  'x, y, z'
loop_
 _atom_site_type_symbol
 _atom_site_label
 _atom_site_symmetry_multiplicity
 _atom_site_fract_x
 _atom_site_fract_y
 _atom_site_fract_z
 _atom_site_occupancy
  Cs  Cs0  1  0.25000000  0.25000000  0.25000000  1
  Cs  Cs1  1  0.25000000  0.75000000  0.25000000  1
  Cs  Cs2  1  0.25000000  0.75000000  0.75000000  1
  Cs  Cs3  1  0.25000000  0.25000000  0.75000000  1
  Cs  Cs4  1  0.75000000  0.25000000  0.75000000  1
  Cs  Cs5  1  0.75000000  0.75000000  0.75000000  1
  Cs  Cs6  1  0.75000000  0.75000000  0.25000000  1
  Cs  Cs7  1  0.75000000  0.25000000  0.25000000  1
  Cd  Cd8  1  0.50000000  0.00000000  0.50000000  1
  Cd  Cd9  1  0.00000000  0.00000000  0.50000000  1
  Cd  Cd10  1  0.50000000  0.12100800  0.32020300  1
  Cd  Cd11  1  0.87899200  0.00000000  0.32020300  1
  Cd  Cd12  1  0.12100800  0.00000000  0.32020300  1
  Cd  Cd13  1  0.82020300  0.12100800  0.50000000  1
  Cd  Cd14  1  0.17979700  0.12100800  0.50000000  1
  Cd  Cd15  1  0.50000000  0.32020300  0.37899200  1
  Cd  Cd16  1  0.00000000  0.67979700  0.12100800  1
  Cd  Cd17  1  0.82020300  0.00000000  0.12100800  1
  Cd  Cd18  1  0.62100800  0.82020300  0.50000000  1
  Cd  Cd19  1  0.37899200  0.82020300  0.50000000  1
  Cd  Cd20  1  0.17979700  0.00000000  0.12100800  1
  Cd  Cd21  1  0.67979700  0.00000000  0.37899200  1
  Cd  Cd22  1  0.62100800  0.17979700  0.50000000  1
  Cd  Cd23  1  0.32020300  0.00000000  0.37899200  1
  Cd  Cd24  1  0.37899200  0.17979700  0.50000000  1
  Cd  Cd25  1  0.82020300  0.87899200  0.50000000  1
  Cd  Cd26  1  0.62100800  0.00000000  0.17979700  1
  Cd  Cd27  1  0.00000000  0.32020300  0.12100800  1
  Cd  Cd28  1  0.50000000  0.67979700  0.37899200  1
  Cd  Cd29  1  0.37899200  0.00000000  0.17979700  1
  Cd  Cd30  1  0.17979700  0.87899200  0.50000000  1
  Cd  Cd31  1  0.50000000  0.87899200  0.32020300  1
  Cd  Cd32  1  0.00000000  0.12100800  0.17979700  1
  Cd  Cd33  1  0.00000000  0.87899200  0.17979700  1
  Cd  Cd34  1  0.50000000  0.50000000  0.00000000  1
  Cd  Cd35  1  0.00000000  0.50000000  0.00000000  1
  Cd  Cd36  1  0.50000000  0.62100800  0.82020300  1
  Cd  Cd37  1  0.87899200  0.50000000  0.82020300  1
  Cd  Cd38  1  0.12100800  0.50000000  0.82020300  1
  Cd  Cd39  1  0.82020300  0.62100800  0.00000000  1
  Cd  Cd40  1  0.17979700  0.62100800  0.00000000  1
  Cd  Cd41  1  0.50000000  0.82020300  0.87899200  1
  Cd  Cd42  1  0.00000000  0.17979700  0.62100800  1
  Cd  Cd43  1  0.82020300  0.50000000  0.62100800  1
  Cd  Cd44  1  0.62100800  0.32020300  0.00000000  1
  Cd  Cd45  1  0.37899200  0.32020300  0.00000000  1
  Cd  Cd46  1  0.17979700  0.50000000  0.62100800  1
  Cd  Cd47  1  0.67979700  0.50000000  0.87899200  1
  Cd  Cd48  1  0.62100800  0.67979700  0.00000000  1
  Cd  Cd49  1  0.32020300  0.50000000  0.87899200  1
  Cd  Cd50  1  0.37899200  0.67979700  0.00000000  1
  Cd  Cd51  1  0.82020300  0.37899200  0.00000000  1
  Cd  Cd52  1  0.62100800  0.50000000  0.67979700  1
  Cd  Cd53  1  0.00000000  0.82020300  0.62100800  1
  Cd  Cd54  1  0.50000000  0.17979700  0.87899200  1
  Cd  Cd55  1  0.37899200  0.50000000  0.67979700  1
  Cd  Cd56  1  0.17979700  0.37899200  0.00000000  1
  Cd  Cd57  1  0.50000000  0.37899200  0.82020300  1
  Cd  Cd58  1  0.00000000  0.62100800  0.67979700  1
  Cd  Cd59  1  0.00000000  0.37899200  0.67979700  1
  Cd  Cd60  1  0.00000000  0.00000000  0.00000000  1
  Cd  Cd61  1  0.50000000  0.00000000  0.00000000  1
  Cd  Cd62  1  0.00000000  0.12100800  0.82020300  1
  Cd  Cd63  1  0.37899200  0.00000000  0.82020300  1
  Cd  Cd64  1  0.62100800  0.00000000  0.82020300  1
  Cd  Cd65  1  0.32020300  0.12100800  0.00000000  1
  Cd  Cd66  1  0.67979700  0.12100800  0.00000000  1
  Cd  Cd67  1  0.00000000  0.32020300  0.87899200  1
  Cd  Cd68  1  0.50000000  0.67979700  0.62100800  1
  Cd  Cd69  1  0.32020300  0.00000000  0.62100800  1
  Cd  Cd70  1  0.12100800  0.82020300  0.00000000  1
  Cd  Cd71  1  0.87899200  0.82020300  0.00000000  1
  Cd  Cd72  1  0.67979700  0.00000000  0.62100800  1
  Cd  Cd73  1  0.17979700  0.00000000  0.87899200  1
  Cd  Cd74  1  0.12100800  0.17979700  0.00000000  1
  Cd  Cd75  1  0.82020300  0.00000000  0.87899200  1
  Cd  Cd76  1  0.87899200  0.17979700  0.00000000  1
  Cd  Cd77  1  0.32020300  0.87899200  0.00000000  1
  Cd  Cd78  1  0.12100800  0.00000000  0.67979700  1
  Cd  Cd79  1  0.50000000  0.32020300  0.62100800  1
  Cd  Cd80  1  0.00000000  0.67979700  0.87899200  1
  Cd  Cd81  1  0.87899200  0.00000000  0.67979700  1
  Cd  Cd82  1  0.67979700  0.87899200  0.00000000  1
  Cd  Cd83  1  0.00000000  0.87899200  0.82020300  1
  Cd  Cd84  1  0.50000000  0.12100800  0.67979700  1
  Cd  Cd85  1  0.50000000  0.87899200  0.67979700  1
  Cd  Cd86  1  0.00000000  0.50000000  0.50000000  1
  Cd  Cd87  1  0.50000000  0.50000000  0.50000000  1
  Cd  Cd88  1  0.00000000  0.62100800  0.32020300  1
  Cd  Cd89  1  0.37899200  0.50000000  0.32020300  1
  Cd  Cd90  1  0.62100800  0.50000000  0.32020300  1
  Cd  Cd91  1  0.32020300  0.62100800  0.50000000  1
  Cd  Cd92  1  0.67979700  0.62100800  0.50000000  1
  Cd  Cd93  1  0.00000000  0.82020300  0.37899200  1
  Cd  Cd94  1  0.50000000  0.17979700  0.12100800  1
  Cd  Cd95  1  0.32020300  0.50000000  0.12100800  1
  Cd  Cd96  1  0.12100800  0.32020300  0.50000000  1
  Cd  Cd97  1  0.87899200  0.32020300  0.50000000  1
  Cd  Cd98  1  0.67979700  0.50000000  0.12100800  1
  Cd  Cd99  1  0.17979700  0.50000000  0.37899200  1
  Cd  Cd100  1  0.12100800  0.67979700  0.50000000  1
  Cd  Cd101  1  0.82020300  0.50000000  0.37899200  1
  Cd  Cd102  1  0.87899200  0.67979700  0.50000000  1
  Cd  Cd103  1  0.32020300  0.37899200  0.50000000  1
  Cd  Cd104  1  0.12100800  0.50000000  0.17979700  1
  Cd  Cd105  1  0.50000000  0.82020300  0.12100800  1
  Cd  Cd106  1  0.00000000  0.17979700  0.37899200  1
  Cd  Cd107  1  0.87899200  0.50000000  0.17979700  1
  Cd  Cd108  1  0.67979700  0.37899200  0.50000000  1
  Cd  Cd109  1  0.00000000  0.37899200  0.32020300  1
  Cd  Cd110  1  0.50000000  0.62100800  0.17979700  1
  Cd  Cd111  1  0.50000000  0.37899200  0.17979700  1
