# generated using pymatgen
data_LaMg2Ni
_symmetry_space_group_name_H-M   'P 1'
_cell_length_a   4.18805600
_cell_length_b   10.19359200
_cell_length_c   8.39438400
_cell_angle_alpha   90.00000000
_cell_angle_beta   90.00000000
_cell_angle_gamma   90.00000000
_symmetry_Int_Tables_number   1
_chemical_formula_structural   LaMg2Ni
_chemical_formula_sum   'La4 Mg8 Ni4'
_cell_volume   358.36745222
_cell_formula_units_Z   4
loop_
 _symmetry_equiv_pos_site_id
 _symmetry_equiv_pos_as_xyz
  1  'x, y, z'
loop_
 _atom_site_type_symbol
 _atom_site_label
 _atom_site_symmetry_multiplicity
 _atom_site_fract_x
 _atom_site_fract_y
 _atom_site_fract_z
 _atom_site_occupancy
  La  La0  1  0.50000000  0.06017500  0.75000000  1
  La  La1  1  0.00000000  0.43982500  0.25000000  1
  La  La2  1  0.00000000  0.56017500  0.75000000  1
  La  La3  1  0.50000000  0.93982500  0.25000000  1
  Mg  Mg4  1  0.00000000  0.15453200  0.05499000  1
  Mg  Mg5  1  0.50000000  0.34546800  0.94501000  1
  Mg  Mg6  1  0.00000000  0.15453200  0.44501000  1
  Mg  Mg7  1  0.50000000  0.34546800  0.55499000  1
  Mg  Mg8  1  0.50000000  0.65453200  0.05499000  1
  Mg  Mg9  1  0.00000000  0.84546800  0.94501000  1
  Mg  Mg10  1  0.50000000  0.65453200  0.44501000  1
  Mg  Mg11  1  0.00000000  0.84546800  0.55499000  1
  Ni  Ni12  1  0.50000000  0.22577200  0.25000000  1
  Ni  Ni13  1  0.00000000  0.27422800  0.75000000  1
  Ni  Ni14  1  0.00000000  0.72577200  0.25000000  1
  Ni  Ni15  1  0.50000000  0.77422800  0.75000000  1
