# generated using pymatgen
data_K3Hg11
_symmetry_space_group_name_H-M   'P 1'
_cell_length_a   5.32016400
_cell_length_b   10.96999600
_cell_length_c   15.51230000
_cell_angle_alpha   90.00000000
_cell_angle_beta   90.00000000
_cell_angle_gamma   90.00000000
_symmetry_Int_Tables_number   1
_chemical_formula_structural   K3Hg11
_chemical_formula_sum   'K6 Hg22'
_cell_volume   905.33161068
_cell_formula_units_Z   2
loop_
 _symmetry_equiv_pos_site_id
 _symmetry_equiv_pos_as_xyz
  1  'x, y, z'
loop_
 _atom_site_type_symbol
 _atom_site_label
 _atom_site_symmetry_multiplicity
 _atom_site_fract_x
 _atom_site_fract_y
 _atom_site_fract_z
 _atom_site_occupancy
  K  K0  1  0.50000000  0.50000000  0.80688700  1
  K  K1  1  0.50000000  0.50000000  0.19311300  1
  K  K2  1  0.00000000  0.00000000  0.00000000  1
  K  K3  1  0.00000000  0.00000000  0.30688700  1
  K  K4  1  0.00000000  0.00000000  0.69311300  1
  K  K5  1  0.50000000  0.50000000  0.50000000  1
  Hg  Hg6  1  0.00000000  0.28479550  0.13382950  1
  Hg  Hg7  1  0.00000000  0.63960750  0.33060850  1
  Hg  Hg8  1  0.00000000  0.36039250  0.66939150  1
  Hg  Hg9  1  0.00000000  0.63960750  0.66939150  1
  Hg  Hg10  1  0.00000000  0.36039250  0.33060850  1
  Hg  Hg11  1  0.50000000  0.70009200  0.00000000  1
  Hg  Hg12  1  0.50000000  0.29990800  0.00000000  1
  Hg  Hg13  1  0.00000000  0.50000000  0.00000000  1
  Hg  Hg14  1  0.00000000  0.71520450  0.86617050  1
  Hg  Hg15  1  0.00000000  0.28479550  0.86617050  1
  Hg  Hg16  1  0.00000000  0.71520450  0.13382950  1
  Hg  Hg17  1  0.50000000  0.78479550  0.63382950  1
  Hg  Hg18  1  0.50000000  0.13960750  0.83060850  1
  Hg  Hg19  1  0.50000000  0.86039250  0.16939150  1
  Hg  Hg20  1  0.50000000  0.13960750  0.16939150  1
  Hg  Hg21  1  0.50000000  0.86039250  0.83060850  1
  Hg  Hg22  1  0.00000000  0.20009200  0.50000000  1
  Hg  Hg23  1  0.00000000  0.79990800  0.50000000  1
  Hg  Hg24  1  0.50000000  0.00000000  0.50000000  1
  Hg  Hg25  1  0.50000000  0.21520450  0.36617050  1
  Hg  Hg26  1  0.50000000  0.78479550  0.36617050  1
  Hg  Hg27  1  0.50000000  0.21520450  0.63382950  1
