# generated using pymatgen
data_Ni(TePd)2
_symmetry_space_group_name_H-M   'P 1'
_cell_length_a   5.16892800
_cell_length_b   6.37202600
_cell_length_c   11.48728200
_cell_angle_alpha   90.00000000
_cell_angle_beta   90.00000000
_cell_angle_gamma   90.00000000
_symmetry_Int_Tables_number   1
_chemical_formula_structural   Ni(TePd)2
_chemical_formula_sum   'Ni4 Te8 Pd8'
_cell_volume   378.35136453
_cell_formula_units_Z   4
loop_
 _symmetry_equiv_pos_site_id
 _symmetry_equiv_pos_as_xyz
  1  'x, y, z'
loop_
 _atom_site_type_symbol
 _atom_site_label
 _atom_site_symmetry_multiplicity
 _atom_site_fract_x
 _atom_site_fract_y
 _atom_site_fract_z
 _atom_site_occupancy
  Ni  Ni0  1  0.25000000  0.00000000  0.00000000  1
  Ni  Ni1  1  0.75000000  0.00000000  0.00000000  1
  Ni  Ni2  1  0.75000000  0.50000000  0.50000000  1
  Ni  Ni3  1  0.25000000  0.50000000  0.50000000  1
  Te  Te4  1  0.50000000  0.22039000  0.14639800  1
  Te  Te5  1  0.00000000  0.27961000  0.35360200  1
  Te  Te6  1  0.50000000  0.72039000  0.35360200  1
  Te  Te7  1  0.00000000  0.77961000  0.14639800  1
  Te  Te8  1  0.00000000  0.72039000  0.64639800  1
  Te  Te9  1  0.50000000  0.77961000  0.85360200  1
  Te  Te10  1  0.00000000  0.22039000  0.85360200  1
  Te  Te11  1  0.50000000  0.27961000  0.64639800  1
  Pd  Pd12  1  0.00000000  0.86676100  0.39581200  1
  Pd  Pd13  1  0.00000000  0.36676100  0.10418800  1
  Pd  Pd14  1  0.50000000  0.13323900  0.39581200  1
  Pd  Pd15  1  0.50000000  0.63323900  0.10418800  1
  Pd  Pd16  1  0.50000000  0.36676100  0.89581200  1
  Pd  Pd17  1  0.50000000  0.86676100  0.60418800  1
  Pd  Pd18  1  0.00000000  0.63323900  0.89581200  1
  Pd  Pd19  1  0.00000000  0.13323900  0.60418800  1
