# generated using pymatgen
data_CrCdO4
_symmetry_space_group_name_H-M   'P 1'
_cell_length_a   10.58801400
_cell_length_b   9.87068000
_cell_length_c   7.19520320
_cell_angle_alpha   90.00000000
_cell_angle_beta   101.57665016
_cell_angle_gamma   90.00000000
_symmetry_Int_Tables_number   1
_chemical_formula_structural   CrCdO4
_chemical_formula_sum   'Cr8 Cd8 O32'
_cell_volume   736.67976238
_cell_formula_units_Z   8
loop_
 _symmetry_equiv_pos_site_id
 _symmetry_equiv_pos_as_xyz
  1  'x, y, z'
loop_
 _atom_site_type_symbol
 _atom_site_label
 _atom_site_symmetry_multiplicity
 _atom_site_fract_x
 _atom_site_fract_y
 _atom_site_fract_z
 _atom_site_occupancy
  Cr  Cr0  1  0.77374500  0.50000000  0.41786800  1
  Cr  Cr1  1  0.22625500  0.50000000  0.58213200  1
  Cr  Cr2  1  0.00000000  0.25566800  0.00000000  1
  Cr  Cr3  1  0.00000000  0.74433200  0.00000000  1
  Cr  Cr4  1  0.27374500  0.00000000  0.41786800  1
  Cr  Cr5  1  0.72625500  0.00000000  0.58213200  1
  Cr  Cr6  1  0.50000000  0.75566800  0.00000000  1
  Cr  Cr7  1  0.50000000  0.24433200  0.00000000  1
  Cd  Cd8  1  0.28932100  0.50000000  0.12513600  1
  Cd  Cd9  1  0.71067900  0.50000000  0.87486400  1
  Cd  Cd10  1  0.00000000  0.18718200  0.50000000  1
  Cd  Cd11  1  0.00000000  0.81281800  0.50000000  1
  Cd  Cd12  1  0.78932100  0.00000000  0.12513600  1
  Cd  Cd13  1  0.21067900  0.00000000  0.87486400  1
  Cd  Cd14  1  0.50000000  0.68718200  0.50000000  1
  Cd  Cd15  1  0.50000000  0.31281800  0.50000000  1
  O  O16  1  0.14146350  0.63755350  0.52156900  1
  O  O17  1  0.85853650  0.63755350  0.47843100  1
  O  O18  1  0.85853650  0.36244650  0.47843100  1
  O  O19  1  0.14146350  0.36244650  0.52156900  1
  O  O20  1  0.04462650  0.84045350  0.82832400  1
  O  O21  1  0.95537350  0.84045350  0.17167600  1
  O  O22  1  0.95537350  0.15954650  0.17167600  1
  O  O23  1  0.04462650  0.15954650  0.82832400  1
  O  O24  1  0.64586300  0.50000000  0.53945800  1
  O  O25  1  0.35413700  0.50000000  0.46054200  1
  O  O26  1  0.28425300  0.50000000  0.81095600  1
  O  O27  1  0.71574700  0.50000000  0.18904400  1
  O  O28  1  0.87711200  0.65091800  0.90133900  1
  O  O29  1  0.12288800  0.65091800  0.09866100  1
  O  O30  1  0.12288800  0.34908200  0.09866100  1
  O  O31  1  0.87711200  0.34908200  0.90133900  1
  O  O32  1  0.64146350  0.13755350  0.52156900  1
  O  O33  1  0.35853650  0.13755350  0.47843100  1
  O  O34  1  0.35853650  0.86244650  0.47843100  1
  O  O35  1  0.64146350  0.86244650  0.52156900  1
  O  O36  1  0.54462650  0.34045350  0.82832400  1
  O  O37  1  0.45537350  0.34045350  0.17167600  1
  O  O38  1  0.45537350  0.65954650  0.17167600  1
  O  O39  1  0.54462650  0.65954650  0.82832400  1
  O  O40  1  0.14586300  0.00000000  0.53945800  1
  O  O41  1  0.85413700  0.00000000  0.46054200  1
  O  O42  1  0.78425300  0.00000000  0.81095600  1
  O  O43  1  0.21574700  0.00000000  0.18904400  1
  O  O44  1  0.37711200  0.15091800  0.90133900  1
  O  O45  1  0.62288800  0.15091800  0.09866100  1
  O  O46  1  0.62288800  0.84908200  0.09866100  1
  O  O47  1  0.37711200  0.84908200  0.90133900  1
