# generated using pymatgen
data_LaAsRh
_symmetry_space_group_name_H-M   'P 1'
_cell_length_a   4.21684800
_cell_length_b   4.21684800
_cell_length_c   15.10110000
_cell_angle_alpha   90.00000000
_cell_angle_beta   90.00000000
_cell_angle_gamma   90.00000000
_symmetry_Int_Tables_number   1
_chemical_formula_structural   LaAsRh
_chemical_formula_sum   'La4 As4 Rh4'
_cell_volume   268.52484652
_cell_formula_units_Z   4
loop_
 _symmetry_equiv_pos_site_id
 _symmetry_equiv_pos_as_xyz
  1  'x, y, z'
loop_
 _atom_site_type_symbol
 _atom_site_label
 _atom_site_symmetry_multiplicity
 _atom_site_fract_x
 _atom_site_fract_y
 _atom_site_fract_z
 _atom_site_occupancy
  La  La0  1  0.00000000  0.50000000  0.00032700  1
  La  La1  1  0.00000000  0.00000000  0.75032700  1
  La  La2  1  0.50000000  0.00000000  0.50032700  1
  La  La3  1  0.50000000  0.50000000  0.25032700  1
  As  As4  1  0.50000000  0.00000000  0.08025600  1
  As  As5  1  0.50000000  0.50000000  0.83025600  1
  As  As6  1  0.00000000  0.50000000  0.58025600  1
  As  As7  1  0.00000000  0.00000000  0.33025600  1
  Rh  Rh8  1  0.50000000  0.00000000  0.91521600  1
  Rh  Rh9  1  0.00000000  0.00000000  0.16521600  1
  Rh  Rh10  1  0.00000000  0.50000000  0.41521600  1
  Rh  Rh11  1  0.50000000  0.50000000  0.66521600  1
