# generated using pymatgen
data_Sm9Ga4
_symmetry_space_group_name_H-M   'P 1'
_cell_length_a   11.93960800
_cell_length_b   11.93960800
_cell_length_c   5.12766400
_cell_angle_alpha   90.00000000
_cell_angle_beta   90.00000000
_cell_angle_gamma   90.00000000
_symmetry_Int_Tables_number   1
_chemical_formula_structural   Sm9Ga4
_chemical_formula_sum   'Sm18 Ga8'
_cell_volume   730.97024036
_cell_formula_units_Z   2
loop_
 _symmetry_equiv_pos_site_id
 _symmetry_equiv_pos_as_xyz
  1  'x, y, z'
loop_
 _atom_site_type_symbol
 _atom_site_label
 _atom_site_symmetry_multiplicity
 _atom_site_fract_x
 _atom_site_fract_y
 _atom_site_fract_z
 _atom_site_occupancy
  Sm  Sm0  1  0.00000000  0.00000000  0.50000000  1
  Sm  Sm1  1  0.37594350  0.09520950  0.50000000  1
  Sm  Sm2  1  0.40479050  0.87594350  0.00000000  1
  Sm  Sm3  1  0.59520950  0.12405650  0.00000000  1
  Sm  Sm4  1  0.62405650  0.90479050  0.50000000  1
  Sm  Sm5  1  0.81549100  0.88981600  0.00000000  1
  Sm  Sm6  1  0.61018400  0.31549100  0.50000000  1
  Sm  Sm7  1  0.38981600  0.68450900  0.50000000  1
  Sm  Sm8  1  0.18450900  0.11018400  0.00000000  1
  Sm  Sm9  1  0.50000000  0.50000000  0.00000000  1
  Sm  Sm10  1  0.87594350  0.59520950  0.00000000  1
  Sm  Sm11  1  0.90479050  0.37594350  0.50000000  1
  Sm  Sm12  1  0.09520950  0.62405650  0.50000000  1
  Sm  Sm13  1  0.12405650  0.40479050  0.00000000  1
  Sm  Sm14  1  0.31549100  0.38981600  0.50000000  1
  Sm  Sm15  1  0.11018400  0.81549100  0.00000000  1
  Sm  Sm16  1  0.88981600  0.18450900  0.00000000  1
  Sm  Sm17  1  0.68450900  0.61018400  0.50000000  1
  Ga  Ga18  1  0.61283750  0.73184250  0.00000000  1
  Ga  Ga19  1  0.76815750  0.11283750  0.50000000  1
  Ga  Ga20  1  0.23184250  0.88716250  0.50000000  1
  Ga  Ga21  1  0.38716250  0.26815750  0.00000000  1
  Ga  Ga22  1  0.11283750  0.23184250  0.50000000  1
  Ga  Ga23  1  0.26815750  0.61283750  0.00000000  1
  Ga  Ga24  1  0.73184250  0.38716250  0.00000000  1
  Ga  Ga25  1  0.88716250  0.76815750  0.50000000  1
