# generated using pymatgen
data_Lu3BC3
_symmetry_space_group_name_H-M   'P 1'
_cell_length_a   4.98352800
_cell_length_b   5.01769400
_cell_length_c   15.70778600
_cell_angle_alpha   90.00000000
_cell_angle_beta   90.00000000
_cell_angle_gamma   90.00000000
_symmetry_Int_Tables_number   1
_chemical_formula_structural   Lu3BC3
_chemical_formula_sum   'Lu12 B4 C12'
_cell_volume   392.78604645
_cell_formula_units_Z   4
loop_
 _symmetry_equiv_pos_site_id
 _symmetry_equiv_pos_as_xyz
  1  'x, y, z'
loop_
 _atom_site_type_symbol
 _atom_site_label
 _atom_site_symmetry_multiplicity
 _atom_site_fract_x
 _atom_site_fract_y
 _atom_site_fract_z
 _atom_site_occupancy
  Lu  Lu0  1  0.50000000  0.91646100  0.39583400  1
  Lu  Lu1  1  0.50000000  0.08353900  0.89583400  1
  Lu  Lu2  1  0.50000000  0.08353900  0.60416600  1
  Lu  Lu3  1  0.50000000  0.91646100  0.10416600  1
  Lu  Lu4  1  0.50000000  0.58973400  0.75000000  1
  Lu  Lu5  1  0.50000000  0.41026600  0.25000000  1
  Lu  Lu6  1  0.00000000  0.41646100  0.39583400  1
  Lu  Lu7  1  0.00000000  0.58353900  0.89583400  1
  Lu  Lu8  1  0.00000000  0.58353900  0.60416600  1
  Lu  Lu9  1  0.00000000  0.41646100  0.10416600  1
  Lu  Lu10  1  0.00000000  0.08973400  0.75000000  1
  Lu  Lu11  1  0.00000000  0.91026600  0.25000000  1
  B  B12  1  0.00000000  0.00000000  0.50000000  1
  B  B13  1  0.00000000  0.00000000  0.00000000  1
  B  B14  1  0.50000000  0.50000000  0.50000000  1
  B  B15  1  0.50000000  0.50000000  0.00000000  1
  C  C16  1  0.50000000  0.40449100  0.41230800  1
  C  C17  1  0.50000000  0.59550900  0.91230800  1
  C  C18  1  0.50000000  0.59550900  0.58769200  1
  C  C19  1  0.50000000  0.40449100  0.08769200  1
  C  C20  1  0.50000000  0.90191400  0.25000000  1
  C  C21  1  0.50000000  0.09808600  0.75000000  1
  C  C22  1  0.00000000  0.90449100  0.41230800  1
  C  C23  1  0.00000000  0.09550900  0.91230800  1
  C  C24  1  0.00000000  0.09550900  0.58769200  1
  C  C25  1  0.00000000  0.90449100  0.08769200  1
  C  C26  1  0.00000000  0.40191400  0.25000000  1
  C  C27  1  0.00000000  0.59808600  0.75000000  1
