# generated using pymatgen
data_Ho6GaCo2
_symmetry_space_group_name_H-M   'P 1'
_cell_length_a   9.21114600
_cell_length_b   9.48566200
_cell_length_c   9.80141400
_cell_angle_alpha   90.00000000
_cell_angle_beta   90.00000000
_cell_angle_gamma   90.00000000
_symmetry_Int_Tables_number   1
_chemical_formula_structural   Ho6GaCo2
_chemical_formula_sum   'Ho24 Ga4 Co8'
_cell_volume   856.38695895
_cell_formula_units_Z   4
loop_
 _symmetry_equiv_pos_site_id
 _symmetry_equiv_pos_as_xyz
  1  'x, y, z'
loop_
 _atom_site_type_symbol
 _atom_site_label
 _atom_site_symmetry_multiplicity
 _atom_site_fract_x
 _atom_site_fract_y
 _atom_site_fract_z
 _atom_site_occupancy
  Ho  Ho0  1  0.00000000  0.69711100  0.26128200  1
  Ho  Ho1  1  0.50000000  0.80288900  0.23871800  1
  Ho  Ho2  1  0.18803300  0.00000000  0.67355300  1
  Ho  Ho3  1  0.18803300  0.00000000  0.32644700  1
  Ho  Ho4  1  0.31196700  0.50000000  0.82644700  1
  Ho  Ho5  1  0.31196700  0.50000000  0.17355300  1
  Ho  Ho6  1  0.00000000  0.30288900  0.26128200  1
  Ho  Ho7  1  0.50000000  0.19711100  0.23871800  1
  Ho  Ho8  1  0.78058500  0.18074000  0.00000000  1
  Ho  Ho9  1  0.28058500  0.31926000  0.50000000  1
  Ho  Ho10  1  0.21941500  0.18074000  0.00000000  1
  Ho  Ho11  1  0.71941500  0.31926000  0.50000000  1
  Ho  Ho12  1  0.50000000  0.19711100  0.76128200  1
  Ho  Ho13  1  0.00000000  0.30288900  0.73871800  1
  Ho  Ho14  1  0.68803300  0.50000000  0.17355300  1
  Ho  Ho15  1  0.68803300  0.50000000  0.82644700  1
  Ho  Ho16  1  0.81196700  0.00000000  0.32644700  1
  Ho  Ho17  1  0.81196700  0.00000000  0.67355300  1
  Ho  Ho18  1  0.50000000  0.80288900  0.76128200  1
  Ho  Ho19  1  0.00000000  0.69711100  0.73871800  1
  Ho  Ho20  1  0.28058500  0.68074000  0.50000000  1
  Ho  Ho21  1  0.78058500  0.81926000  0.00000000  1
  Ho  Ho22  1  0.71941500  0.68074000  0.50000000  1
  Ho  Ho23  1  0.21941500  0.81926000  0.00000000  1
  Ga  Ga24  1  0.50000000  0.00000000  0.00000000  1
  Ga  Ga25  1  0.00000000  0.50000000  0.00000000  1
  Ga  Ga26  1  0.00000000  0.50000000  0.50000000  1
  Ga  Ga27  1  0.50000000  0.00000000  0.50000000  1
  Co  Co28  1  0.00000000  0.00000000  0.11517400  1
  Co  Co29  1  0.00000000  0.00000000  0.88482600  1
  Co  Co30  1  0.00000000  0.16367600  0.50000000  1
  Co  Co31  1  0.50000000  0.33632400  0.00000000  1
  Co  Co32  1  0.50000000  0.50000000  0.61517400  1
  Co  Co33  1  0.50000000  0.50000000  0.38482600  1
  Co  Co34  1  0.50000000  0.66367600  0.00000000  1
  Co  Co35  1  0.00000000  0.83632400  0.50000000  1
