# generated using pymatgen
data_P2Pt5
_symmetry_space_group_name_H-M   'P 1'
_cell_length_a   10.96332800
_cell_length_b   5.44924800
_cell_length_c   7.52653613
_cell_angle_alpha   90.00000000
_cell_angle_beta   99.47904709
_cell_angle_gamma   90.00000000
_symmetry_Int_Tables_number   1
_chemical_formula_structural   P2Pt5
_chemical_formula_sum   'P8 Pt20'
_cell_volume   443.50995483
_cell_formula_units_Z   4
loop_
 _symmetry_equiv_pos_site_id
 _symmetry_equiv_pos_as_xyz
  1  'x, y, z'
loop_
 _atom_site_type_symbol
 _atom_site_label
 _atom_site_symmetry_multiplicity
 _atom_site_fract_x
 _atom_site_fract_y
 _atom_site_fract_z
 _atom_site_occupancy
  P  P0  1  0.65893550  0.90564550  0.77556400  1
  P  P1  1  0.84106450  0.40564550  0.72443600  1
  P  P2  1  0.84106450  0.59435450  0.22443600  1
  P  P3  1  0.65893550  0.09435450  0.27556400  1
  P  P4  1  0.15893550  0.40564550  0.77556400  1
  P  P5  1  0.34106450  0.90564550  0.72443600  1
  P  P6  1  0.34106450  0.09435450  0.22443600  1
  P  P7  1  0.15893550  0.59435450  0.27556400  1
  Pt  Pt8  1  0.88127900  0.27389100  0.03259100  1
  Pt  Pt9  1  0.61872100  0.77389100  0.46740900  1
  Pt  Pt10  1  0.85551200  0.22592900  0.40517800  1
  Pt  Pt11  1  0.64448800  0.72592900  0.09482200  1
  Pt  Pt12  1  0.64448800  0.27407100  0.59482200  1
  Pt  Pt13  1  0.85551200  0.77407100  0.90517800  1
  Pt  Pt14  1  0.88127900  0.72610900  0.53259100  1
  Pt  Pt15  1  0.61872100  0.22610900  0.96740900  1
  Pt  Pt16  1  0.00000000  0.88845900  0.25000000  1
  Pt  Pt17  1  0.00000000  0.11154100  0.75000000  1
  Pt  Pt18  1  0.38127900  0.77389100  0.03259100  1
  Pt  Pt19  1  0.11872100  0.27389100  0.46740900  1
  Pt  Pt20  1  0.35551200  0.72592900  0.40517800  1
  Pt  Pt21  1  0.14448800  0.22592900  0.09482200  1
  Pt  Pt22  1  0.14448800  0.77407100  0.59482200  1
  Pt  Pt23  1  0.35551200  0.27407100  0.90517800  1
  Pt  Pt24  1  0.38127900  0.22610900  0.53259100  1
  Pt  Pt25  1  0.11872100  0.72610900  0.96740900  1
  Pt  Pt26  1  0.50000000  0.38845900  0.25000000  1
  Pt  Pt27  1  0.50000000  0.61154100  0.75000000  1
