# generated using pymatgen
data_BaCu9Ge4
_symmetry_space_group_name_H-M   'P 1'
_cell_length_a   8.37355600
_cell_length_b   8.37355600
_cell_length_c   12.06239000
_cell_angle_alpha   90.00000000
_cell_angle_beta   90.00000000
_cell_angle_gamma   90.00000000
_symmetry_Int_Tables_number   1
_chemical_formula_structural   BaCu9Ge4
_chemical_formula_sum   'Ba4 Cu36 Ge16'
_cell_volume   845.77184572
_cell_formula_units_Z   4
loop_
 _symmetry_equiv_pos_site_id
 _symmetry_equiv_pos_as_xyz
  1  'x, y, z'
loop_
 _atom_site_type_symbol
 _atom_site_label
 _atom_site_symmetry_multiplicity
 _atom_site_fract_x
 _atom_site_fract_y
 _atom_site_fract_z
 _atom_site_occupancy
  Ba  Ba0  1  0.00000000  0.00000000  0.25000000  1
  Ba  Ba1  1  0.50000000  0.50000000  0.25000000  1
  Ba  Ba2  1  0.50000000  0.50000000  0.75000000  1
  Ba  Ba3  1  0.00000000  0.00000000  0.75000000  1
  Cu  Cu4  1  0.38322550  0.88322550  0.17772050  1
  Cu  Cu5  1  0.88322550  0.38322550  0.32227950  1
  Cu  Cu6  1  0.11677450  0.61677450  0.32227950  1
  Cu  Cu7  1  0.38322550  0.11677450  0.32227950  1
  Cu  Cu8  1  0.61677450  0.88322550  0.32227950  1
  Cu  Cu9  1  0.11677450  0.38322550  0.17772050  1
  Cu  Cu10  1  0.88322550  0.61677450  0.17772050  1
  Cu  Cu11  1  0.61677450  0.11677450  0.17772050  1
  Cu  Cu12  1  0.29585900  0.43838300  0.00000000  1
  Cu  Cu13  1  0.93838300  0.79585900  0.00000000  1
  Cu  Cu14  1  0.50000000  0.00000000  0.00000000  1
  Cu  Cu15  1  0.00000000  0.50000000  0.00000000  1
  Cu  Cu16  1  0.70414100  0.56161700  0.00000000  1
  Cu  Cu17  1  0.43838300  0.70414100  0.00000000  1
  Cu  Cu18  1  0.56161700  0.29585900  0.00000000  1
  Cu  Cu19  1  0.20414100  0.93838300  0.00000000  1
  Cu  Cu20  1  0.79585900  0.06161700  0.00000000  1
  Cu  Cu21  1  0.06161700  0.20414100  0.00000000  1
  Cu  Cu22  1  0.88322550  0.38322550  0.67772050  1
  Cu  Cu23  1  0.38322550  0.88322550  0.82227950  1
  Cu  Cu24  1  0.61677450  0.11677450  0.82227950  1
  Cu  Cu25  1  0.88322550  0.61677450  0.82227950  1
  Cu  Cu26  1  0.11677450  0.38322550  0.82227950  1
  Cu  Cu27  1  0.61677450  0.88322550  0.67772050  1
  Cu  Cu28  1  0.38322550  0.11677450  0.67772050  1
  Cu  Cu29  1  0.11677450  0.61677450  0.67772050  1
  Cu  Cu30  1  0.79585900  0.93838300  0.50000000  1
  Cu  Cu31  1  0.43838300  0.29585900  0.50000000  1
  Cu  Cu32  1  0.00000000  0.50000000  0.50000000  1
  Cu  Cu33  1  0.50000000  0.00000000  0.50000000  1
  Cu  Cu34  1  0.20414100  0.06161700  0.50000000  1
  Cu  Cu35  1  0.93838300  0.20414100  0.50000000  1
  Cu  Cu36  1  0.06161700  0.79585900  0.50000000  1
  Cu  Cu37  1  0.70414100  0.43838300  0.50000000  1
  Cu  Cu38  1  0.29585900  0.56161700  0.50000000  1
  Cu  Cu39  1  0.56161700  0.70414100  0.50000000  1
  Ge  Ge40  1  0.17852250  0.67852250  0.12076150  1
  Ge  Ge41  1  0.67852250  0.17852250  0.37923850  1
  Ge  Ge42  1  0.32147750  0.82147750  0.37923850  1
  Ge  Ge43  1  0.17852250  0.32147750  0.37923850  1
  Ge  Ge44  1  0.82147750  0.67852250  0.37923850  1
  Ge  Ge45  1  0.32147750  0.17852250  0.12076150  1
  Ge  Ge46  1  0.67852250  0.82147750  0.12076150  1
  Ge  Ge47  1  0.82147750  0.32147750  0.12076150  1
  Ge  Ge48  1  0.67852250  0.17852250  0.62076150  1
  Ge  Ge49  1  0.17852250  0.67852250  0.87923850  1
  Ge  Ge50  1  0.82147750  0.32147750  0.87923850  1
  Ge  Ge51  1  0.67852250  0.82147750  0.87923850  1
  Ge  Ge52  1  0.32147750  0.17852250  0.87923850  1
  Ge  Ge53  1  0.82147750  0.67852250  0.62076150  1
  Ge  Ge54  1  0.17852250  0.32147750  0.62076150  1
  Ge  Ge55  1  0.32147750  0.82147750  0.62076150  1
