# generated using pymatgen
data_Ba3CoSb2O9
_symmetry_space_group_name_H-M   'P 1'
_cell_length_a   5.94278729
_cell_length_b   5.94278729
_cell_length_c   14.69617226
_cell_angle_alpha   90.00000000
_cell_angle_beta   90.00000000
_cell_angle_gamma   120.00000000
_symmetry_Int_Tables_number   1
_chemical_formula_structural   Ba3CoSb2O9
_chemical_formula_sum   'Ba6 Co2 Sb4 O18'
_cell_volume   449.48503525
_cell_formula_units_Z   2
loop_
 _symmetry_equiv_pos_site_id
 _symmetry_equiv_pos_as_xyz
  1  'x, y, z'
loop_
 _atom_site_type_symbol
 _atom_site_label
 _atom_site_symmetry_multiplicity
 _atom_site_fract_x
 _atom_site_fract_y
 _atom_site_fract_z
 _atom_site_occupancy
  Ba  Ba0  1  0.00000000  0.00000000  0.25000000  1
  Ba  Ba1  1  0.00000000  0.00000000  0.75000000  1
  Ba  Ba2  1  0.66666667  0.33333333  0.08715950  1
  Ba  Ba3  1  0.66666667  0.33333333  0.41284050  1
  Ba  Ba4  1  0.33333333  0.66666667  0.58715950  1
  Ba  Ba5  1  0.33333333  0.66666667  0.91284050  1
  Co  Co6  1  0.00000000  0.00000000  0.50000000  1
  Co  Co7  1  0.00000000  0.00000000  0.00000000  1
  Sb  Sb8  1  0.33333333  0.66666667  0.34799350  1
  Sb  Sb9  1  0.66666667  0.33333333  0.65200650  1
  Sb  Sb10  1  0.66666667  0.33333333  0.84799350  1
  Sb  Sb11  1  0.33333333  0.66666667  0.15200650  1
  O  O12  1  0.51826350  0.03652700  0.75000000  1
  O  O13  1  0.48173650  0.96347300  0.25000000  1
  O  O14  1  0.96347300  0.48173650  0.75000000  1
  O  O15  1  0.03652700  0.51826350  0.25000000  1
  O  O16  1  0.48173650  0.51826350  0.25000000  1
  O  O17  1  0.51826350  0.48173650  0.75000000  1
  O  O18  1  0.83063900  0.66127800  0.58415900  1
  O  O19  1  0.16936100  0.33872200  0.08415900  1
  O  O20  1  0.83063900  0.16936100  0.91584100  1
  O  O21  1  0.66127800  0.83063900  0.08415900  1
  O  O22  1  0.33872200  0.16936100  0.58415900  1
  O  O23  1  0.33872200  0.16936100  0.91584100  1
  O  O24  1  0.16936100  0.83063900  0.08415900  1
  O  O25  1  0.16936100  0.33872200  0.41584100  1
  O  O26  1  0.66127800  0.83063900  0.41584100  1
  O  O27  1  0.83063900  0.16936100  0.58415900  1
  O  O28  1  0.16936100  0.83063900  0.41584100  1
  O  O29  1  0.83063900  0.66127800  0.91584100  1
