# generated using pymatgen
data_Y5S7
_symmetry_space_group_name_H-M   'P 1'
_cell_length_a   12.88279600
_cell_length_b   3.82025000
_cell_length_c   11.63742767
_cell_angle_alpha   90.00000000
_cell_angle_beta   104.58159897
_cell_angle_gamma   90.00000000
_symmetry_Int_Tables_number   1
_chemical_formula_structural   Y5S7
_chemical_formula_sum   'Y10 S14'
_cell_volume   554.29386648
_cell_formula_units_Z   2
loop_
 _symmetry_equiv_pos_site_id
 _symmetry_equiv_pos_as_xyz
  1  'x, y, z'
loop_
 _atom_site_type_symbol
 _atom_site_label
 _atom_site_symmetry_multiplicity
 _atom_site_fract_x
 _atom_site_fract_y
 _atom_site_fract_z
 _atom_site_occupancy
  Y  Y0  1  0.61194600  0.50000000  0.42117200  1
  Y  Y1  1  0.88805400  0.00000000  0.57882800  1
  Y  Y2  1  0.80031600  0.50000000  0.18741700  1
  Y  Y3  1  0.69968400  0.00000000  0.81258300  1
  Y  Y4  1  0.00000000  0.00000000  0.00000000  1
  Y  Y5  1  0.11194600  0.00000000  0.42117200  1
  Y  Y6  1  0.38805400  0.50000000  0.57882800  1
  Y  Y7  1  0.30031600  0.00000000  0.18741700  1
  Y  Y8  1  0.19968400  0.50000000  0.81258300  1
  Y  Y9  1  0.50000000  0.50000000  0.00000000  1
  S  S10  1  0.75931400  0.50000000  0.64731700  1
  S  S11  1  0.74068600  0.00000000  0.35268300  1
  S  S12  1  0.95817700  0.00000000  0.21488500  1
  S  S13  1  0.54182300  0.50000000  0.78511500  1
  S  S14  1  0.65908700  0.00000000  0.05118800  1
  S  S15  1  0.00000000  0.50000000  0.50000000  1
  S  S16  1  0.84091300  0.50000000  0.94881200  1
  S  S17  1  0.25931400  0.00000000  0.64731700  1
  S  S18  1  0.24068600  0.50000000  0.35268300  1
  S  S19  1  0.45817700  0.50000000  0.21488500  1
  S  S20  1  0.04182300  0.00000000  0.78511500  1
  S  S21  1  0.15908700  0.50000000  0.05118800  1
  S  S22  1  0.50000000  0.00000000  0.50000000  1
  S  S23  1  0.34091300  0.00000000  0.94881200  1
