# generated using pymatgen
data_Pr2NiO4
_symmetry_space_group_name_H-M   'P 1'
_cell_length_a   3.88154124
_cell_length_b   3.88154124
_cell_length_c   12.44528877
_cell_angle_alpha   90.00000000
_cell_angle_beta   90.00000000
_cell_angle_gamma   90.00000000
_symmetry_Int_Tables_number   1
_chemical_formula_structural   Pr2NiO4
_chemical_formula_sum   'Pr4 Ni2 O8'
_cell_volume   187.50523095
_cell_formula_units_Z   2
loop_
 _symmetry_equiv_pos_site_id
 _symmetry_equiv_pos_as_xyz
  1  'x, y, z'
loop_
 _atom_site_type_symbol
 _atom_site_label
 _atom_site_symmetry_multiplicity
 _atom_site_fract_x
 _atom_site_fract_y
 _atom_site_fract_z
 _atom_site_occupancy
  Pr  Pr0  1  0.00000000  0.00000000  0.63565429  1
  Pr  Pr1  1  0.50000000  0.50000000  0.86434571  1
  Pr  Pr2  1  0.50000000  0.50000000  0.13565429  1
  Pr  Pr3  1  0.00000000  0.00000000  0.36434571  1
  Ni  Ni4  1  0.00000000  0.00000000  0.00000000  1
  Ni  Ni5  1  0.50000000  0.50000000  0.50000000  1
  O  O6  1  0.00000000  0.00000000  0.82208847  1
  O  O7  1  0.50000000  0.50000000  0.67791153  1
  O  O8  1  0.50000000  0.00000000  0.50000000  1
  O  O9  1  0.00000000  0.50000000  0.50000000  1
  O  O10  1  0.50000000  0.50000000  0.32208847  1
  O  O11  1  0.00000000  0.00000000  0.17791153  1
  O  O12  1  0.00000000  0.50000000  0.00000000  1
  O  O13  1  0.50000000  0.00000000  0.00000000  1
