# generated using pymatgen
data_NaZr2TiF11
_symmetry_space_group_name_H-M   'P 1'
_cell_length_a   9.28461000
_cell_length_b   6.88137000
_cell_length_c   7.93189720
_cell_angle_alpha   90.00000000
_cell_angle_beta   116.09757669
_cell_angle_gamma   90.00000000
_symmetry_Int_Tables_number   1
_chemical_formula_structural   NaZr2TiF11
_chemical_formula_sum   'Na2 Zr4 Ti2 F22'
_cell_volume   455.10784700
_cell_formula_units_Z   2
loop_
 _symmetry_equiv_pos_site_id
 _symmetry_equiv_pos_as_xyz
  1  'x, y, z'
loop_
 _atom_site_type_symbol
 _atom_site_label
 _atom_site_symmetry_multiplicity
 _atom_site_fract_x
 _atom_site_fract_y
 _atom_site_fract_z
 _atom_site_occupancy
  Na  Na0  1  0.00000000  0.00000000  0.00000000  1
  Na  Na1  1  0.50000000  0.50000000  0.00000000  1
  Zr  Zr2  1  0.00432700  0.50000000  0.23456400  1
  Zr  Zr3  1  0.99567300  0.50000000  0.76543600  1
  Zr  Zr4  1  0.50432700  0.00000000  0.23456400  1
  Zr  Zr5  1  0.49567300  0.00000000  0.76543600  1
  Ti  Ti6  1  0.00000000  0.00000000  0.50000000  1
  Ti  Ti7  1  0.50000000  0.50000000  0.50000000  1
  F  F8  1  0.01436800  0.79481000  0.30992600  1
  F  F9  1  0.98563200  0.79481000  0.69007400  1
  F  F10  1  0.98563200  0.20519000  0.69007400  1
  F  F11  1  0.01436800  0.20519000  0.30992600  1
  F  F12  1  0.00000000  0.50000000  0.50000000  1
  F  F13  1  0.00000000  0.32930800  0.00000000  1
  F  F14  1  0.00000000  0.67069200  0.00000000  1
  F  F15  1  0.74420000  0.50000000  0.64127600  1
  F  F16  1  0.25580000  0.50000000  0.35872400  1
  F  F17  1  0.76572900  0.50000000  0.11082000  1
  F  F18  1  0.23427100  0.50000000  0.88918000  1
  F  F19  1  0.51436800  0.29481000  0.30992600  1
  F  F20  1  0.48563200  0.29481000  0.69007400  1
  F  F21  1  0.48563200  0.70519000  0.69007400  1
  F  F22  1  0.51436800  0.70519000  0.30992600  1
  F  F23  1  0.50000000  0.00000000  0.50000000  1
  F  F24  1  0.50000000  0.82930800  0.00000000  1
  F  F25  1  0.50000000  0.17069200  0.00000000  1
  F  F26  1  0.24420000  0.00000000  0.64127600  1
  F  F27  1  0.75580000  0.00000000  0.35872400  1
  F  F28  1  0.26572900  0.00000000  0.11082000  1
  F  F29  1  0.73427100  0.00000000  0.88918000  1
