# generated using pymatgen
data_Mn3V2O8
_symmetry_space_group_name_H-M   'P 1'
_cell_length_a   6.32940402
_cell_length_b   11.92912176
_cell_length_c   8.62032108
_cell_angle_alpha   90.00000000
_cell_angle_beta   90.00000000
_cell_angle_gamma   90.00000000
_symmetry_Int_Tables_number   1
_chemical_formula_structural   Mn3V2O8
_chemical_formula_sum   'Mn12 V8 O32'
_cell_volume   650.87071604
_cell_formula_units_Z   4
loop_
 _symmetry_equiv_pos_site_id
 _symmetry_equiv_pos_as_xyz
  1  'x, y, z'
loop_
 _atom_site_type_symbol
 _atom_site_label
 _atom_site_symmetry_multiplicity
 _atom_site_fract_x
 _atom_site_fract_y
 _atom_site_fract_z
 _atom_site_occupancy
  Mn  Mn0  1  0.25000000  0.36199088  0.75000000  1
  Mn  Mn1  1  0.75000000  0.13800912  0.25000000  1
  Mn  Mn2  1  0.75000000  0.36199088  0.75000000  1
  Mn  Mn3  1  0.25000000  0.13800912  0.25000000  1
  Mn  Mn4  1  0.00000000  0.00000000  0.00000000  1
  Mn  Mn5  1  0.50000000  0.00000000  0.50000000  1
  Mn  Mn6  1  0.75000000  0.86199088  0.75000000  1
  Mn  Mn7  1  0.25000000  0.63800912  0.25000000  1
  Mn  Mn8  1  0.25000000  0.86199088  0.75000000  1
  Mn  Mn9  1  0.75000000  0.63800912  0.25000000  1
  Mn  Mn10  1  0.50000000  0.50000000  0.00000000  1
  Mn  Mn11  1  0.00000000  0.50000000  0.50000000  1
  V  V12  1  0.00000000  0.38052105  0.11831551  1
  V  V13  1  0.50000000  0.11947895  0.88168449  1
  V  V14  1  0.00000000  0.11947895  0.61831551  1
  V  V15  1  0.50000000  0.38052105  0.38168449  1
  V  V16  1  0.50000000  0.88052105  0.11831551  1
  V  V17  1  0.00000000  0.61947895  0.88168449  1
  V  V18  1  0.50000000  0.61947895  0.61831551  1
  V  V19  1  0.00000000  0.88052105  0.38168449  1
  O  O20  1  0.22392007  0.38343013  0.00145573  1
  O  O21  1  0.72392007  0.11656987  0.99854427  1
  O  O22  1  0.77607993  0.11656987  0.50145573  1
  O  O23  1  0.27607993  0.38343013  0.49854427  1
  O  O24  1  0.27607993  0.11656987  0.99854427  1
  O  O25  1  0.77607993  0.38343013  0.00145573  1
  O  O26  1  0.72392007  0.38343013  0.49854427  1
  O  O27  1  0.22392007  0.11656987  0.50145573  1
  O  O28  1  0.50000000  0.49946970  0.24876489  1
  O  O29  1  0.00000000  0.00053030  0.75123511  1
  O  O30  1  0.50000000  0.25390697  0.27805011  1
  O  O31  1  0.00000000  0.24609303  0.72194989  1
  O  O32  1  0.50000000  0.24609303  0.77805011  1
  O  O33  1  0.50000000  0.00053030  0.74876489  1
  O  O34  1  0.00000000  0.49946970  0.25123511  1
  O  O35  1  0.00000000  0.25390697  0.22194989  1
  O  O36  1  0.72392007  0.88343013  0.00145573  1
  O  O37  1  0.22392007  0.61656987  0.99854427  1
  O  O38  1  0.27607993  0.61656987  0.50145573  1
  O  O39  1  0.77607993  0.88343013  0.49854427  1
  O  O40  1  0.77607993  0.61656987  0.99854427  1
  O  O41  1  0.27607993  0.88343013  0.00145573  1
  O  O42  1  0.22392007  0.88343013  0.49854427  1
  O  O43  1  0.72392007  0.61656987  0.50145573  1
  O  O44  1  0.00000000  0.99946970  0.24876489  1
  O  O45  1  0.50000000  0.50053030  0.75123511  1
  O  O46  1  0.00000000  0.75390698  0.27805011  1
  O  O47  1  0.50000000  0.74609302  0.72194989  1
  O  O48  1  0.00000000  0.74609302  0.77805011  1
  O  O49  1  0.00000000  0.50053030  0.74876489  1
  O  O50  1  0.50000000  0.99946970  0.25123511  1
  O  O51  1  0.50000000  0.75390698  0.22194989  1
