# generated using pymatgen
data_Dy2Si5Ni3
_symmetry_space_group_name_H-M   'P 1'
_cell_length_a   5.64667600
_cell_length_b   9.57494600
_cell_length_c   11.12961400
_cell_angle_alpha   90.00000000
_cell_angle_beta   90.00000000
_cell_angle_gamma   90.00000000
_symmetry_Int_Tables_number   1
_chemical_formula_structural   Dy2Si5Ni3
_chemical_formula_sum   'Dy8 Si20 Ni12'
_cell_volume   601.74058617
_cell_formula_units_Z   4
loop_
 _symmetry_equiv_pos_site_id
 _symmetry_equiv_pos_as_xyz
  1  'x, y, z'
loop_
 _atom_site_type_symbol
 _atom_site_label
 _atom_site_symmetry_multiplicity
 _atom_site_fract_x
 _atom_site_fract_y
 _atom_site_fract_z
 _atom_site_occupancy
  Dy  Dy0  1  0.50000000  0.73655700  0.36872900  1
  Dy  Dy1  1  0.50000000  0.26344300  0.63127100  1
  Dy  Dy2  1  0.00000000  0.73655700  0.63127100  1
  Dy  Dy3  1  0.00000000  0.26344300  0.36872900  1
  Dy  Dy4  1  0.00000000  0.23655700  0.86872900  1
  Dy  Dy5  1  0.00000000  0.76344300  0.13127100  1
  Dy  Dy6  1  0.50000000  0.23655700  0.13127100  1
  Dy  Dy7  1  0.50000000  0.76344300  0.86872900  1
  Si  Si8  1  0.75000000  0.00000000  0.00000000  1
  Si  Si9  1  0.25000000  0.00000000  0.00000000  1
  Si  Si10  1  0.75000000  0.00000000  0.26680000  1
  Si  Si11  1  0.75000000  0.00000000  0.73320000  1
  Si  Si12  1  0.25000000  0.00000000  0.73320000  1
  Si  Si13  1  0.25000000  0.00000000  0.26680000  1
  Si  Si14  1  0.00000000  0.15268350  0.60730050  1
  Si  Si15  1  0.50000000  0.84731650  0.60730050  1
  Si  Si16  1  0.50000000  0.15268350  0.39269950  1
  Si  Si17  1  0.00000000  0.84731650  0.39269950  1
  Si  Si18  1  0.25000000  0.50000000  0.50000000  1
  Si  Si19  1  0.75000000  0.50000000  0.50000000  1
  Si  Si20  1  0.25000000  0.50000000  0.76680000  1
  Si  Si21  1  0.25000000  0.50000000  0.23320000  1
  Si  Si22  1  0.75000000  0.50000000  0.23320000  1
  Si  Si23  1  0.75000000  0.50000000  0.76680000  1
  Si  Si24  1  0.50000000  0.65268350  0.10730050  1
  Si  Si25  1  0.00000000  0.34731650  0.10730050  1
  Si  Si26  1  0.00000000  0.65268350  0.89269950  1
  Si  Si27  1  0.50000000  0.34731650  0.89269950  1
  Ni  Ni28  1  0.00000000  0.11211100  0.13439800  1
  Ni  Ni29  1  0.75000000  0.00000000  0.50000000  1
  Ni  Ni30  1  0.50000000  0.88788900  0.13439800  1
  Ni  Ni31  1  0.50000000  0.11211100  0.86560200  1
  Ni  Ni32  1  0.00000000  0.88788900  0.86560200  1
  Ni  Ni33  1  0.25000000  0.00000000  0.50000000  1
  Ni  Ni34  1  0.50000000  0.61211100  0.63439800  1
  Ni  Ni35  1  0.25000000  0.50000000  0.00000000  1
  Ni  Ni36  1  0.00000000  0.38788900  0.63439800  1
  Ni  Ni37  1  0.00000000  0.61211100  0.36560200  1
  Ni  Ni38  1  0.50000000  0.38788900  0.36560200  1
  Ni  Ni39  1  0.75000000  0.50000000  0.00000000  1
