# generated using pymatgen
data_Ba(Ni5P3)2
_symmetry_space_group_name_H-M   'P 1'
_cell_length_a   6.43034000
_cell_length_b   16.21978000
_cell_length_c   8.77426400
_cell_angle_alpha   90.00000000
_cell_angle_beta   90.00000000
_cell_angle_gamma   90.00000000
_symmetry_Int_Tables_number   1
_chemical_formula_structural   Ba(Ni5P3)2
_chemical_formula_sum   'Ba4 Ni40 P24'
_cell_volume   915.14432976
_cell_formula_units_Z   4
loop_
 _symmetry_equiv_pos_site_id
 _symmetry_equiv_pos_as_xyz
  1  'x, y, z'
loop_
 _atom_site_type_symbol
 _atom_site_label
 _atom_site_symmetry_multiplicity
 _atom_site_fract_x
 _atom_site_fract_y
 _atom_site_fract_z
 _atom_site_occupancy
  Ba  Ba0  1  0.00000000  0.50000000  0.00000000  1
  Ba  Ba1  1  0.50000000  0.50000000  0.50000000  1
  Ba  Ba2  1  0.50000000  0.00000000  0.00000000  1
  Ba  Ba3  1  0.00000000  0.00000000  0.50000000  1
  Ni  Ni4  1  0.50000000  0.79086600  0.79356600  1
  Ni  Ni5  1  0.50000000  0.70913400  0.29356600  1
  Ni  Ni6  1  0.25000000  0.83824500  0.25000000  1
  Ni  Ni7  1  0.00000000  0.79086600  0.70643400  1
  Ni  Ni8  1  0.25000000  0.66175500  0.75000000  1
  Ni  Ni9  1  0.75000000  0.83824500  0.25000000  1
  Ni  Ni10  1  0.00000000  0.54532100  0.38148200  1
  Ni  Ni11  1  0.50000000  0.95467900  0.61851800  1
  Ni  Ni12  1  0.00000000  0.95467900  0.88148200  1
  Ni  Ni13  1  0.50000000  0.54532100  0.11851800  1
  Ni  Ni14  1  0.80130300  0.82511000  0.97108900  1
  Ni  Ni15  1  0.30130300  0.67489000  0.02891100  1
  Ni  Ni16  1  0.19869700  0.67489000  0.47108900  1
  Ni  Ni17  1  0.69869700  0.82511000  0.52891100  1
  Ni  Ni18  1  0.69869700  0.67489000  0.02891100  1
  Ni  Ni19  1  0.19869700  0.82511000  0.97108900  1
  Ni  Ni20  1  0.30130300  0.82511000  0.52891100  1
  Ni  Ni21  1  0.80130300  0.67489000  0.47108900  1
  Ni  Ni22  1  0.75000000  0.66175500  0.75000000  1
  Ni  Ni23  1  0.00000000  0.70913400  0.20643400  1
  Ni  Ni24  1  0.00000000  0.29086600  0.79356600  1
  Ni  Ni25  1  0.00000000  0.20913400  0.29356600  1
  Ni  Ni26  1  0.75000000  0.33824500  0.25000000  1
  Ni  Ni27  1  0.50000000  0.29086600  0.70643400  1
  Ni  Ni28  1  0.75000000  0.16175500  0.75000000  1
  Ni  Ni29  1  0.25000000  0.33824500  0.25000000  1
  Ni  Ni30  1  0.50000000  0.04532100  0.38148200  1
  Ni  Ni31  1  0.00000000  0.45467900  0.61851800  1
  Ni  Ni32  1  0.50000000  0.45467900  0.88148200  1
  Ni  Ni33  1  0.00000000  0.04532100  0.11851800  1
  Ni  Ni34  1  0.30130300  0.32511000  0.97108900  1
  Ni  Ni35  1  0.80130300  0.17489000  0.02891100  1
  Ni  Ni36  1  0.69869700  0.17489000  0.47108900  1
  Ni  Ni37  1  0.19869700  0.32511000  0.52891100  1
  Ni  Ni38  1  0.19869700  0.17489000  0.02891100  1
  Ni  Ni39  1  0.69869700  0.32511000  0.97108900  1
  Ni  Ni40  1  0.80130300  0.32511000  0.52891100  1
  Ni  Ni41  1  0.30130300  0.17489000  0.47108900  1
  Ni  Ni42  1  0.25000000  0.16175500  0.75000000  1
  Ni  Ni43  1  0.50000000  0.20913400  0.20643400  1
  P  P44  1  0.25000000  0.60951900  0.25000000  1
  P  P45  1  0.75000000  0.89048100  0.75000000  1
  P  P46  1  0.50000000  0.58991600  0.87271300  1
  P  P47  1  0.00000000  0.91008400  0.12728700  1
  P  P48  1  0.50000000  0.91008400  0.37271300  1
  P  P49  1  0.00000000  0.58991600  0.62728700  1
  P  P50  1  0.50000000  0.70861700  0.57471400  1
  P  P51  1  0.00000000  0.79138300  0.42528600  1
  P  P52  1  0.50000000  0.79138300  0.07471400  1
  P  P53  1  0.00000000  0.70861700  0.92528600  1
  P  P54  1  0.25000000  0.89048100  0.75000000  1
  P  P55  1  0.75000000  0.60951900  0.25000000  1
  P  P56  1  0.75000000  0.10951900  0.25000000  1
  P  P57  1  0.25000000  0.39048100  0.75000000  1
  P  P58  1  0.00000000  0.08991600  0.87271300  1
  P  P59  1  0.50000000  0.41008400  0.12728700  1
  P  P60  1  0.00000000  0.41008400  0.37271300  1
  P  P61  1  0.50000000  0.08991600  0.62728700  1
  P  P62  1  0.00000000  0.20861700  0.57471400  1
  P  P63  1  0.50000000  0.29138300  0.42528600  1
  P  P64  1  0.00000000  0.29138300  0.07471400  1
  P  P65  1  0.50000000  0.20861700  0.92528600  1
  P  P66  1  0.75000000  0.39048100  0.75000000  1
  P  P67  1  0.25000000  0.10951900  0.25000000  1
