# generated using pymatgen
data_LuAl4Ni
_symmetry_space_group_name_H-M   'P 1'
_cell_length_a   4.00686400
_cell_length_b   15.14851000
_cell_length_c   6.68005700
_cell_angle_alpha   90.00000000
_cell_angle_beta   90.00000000
_cell_angle_gamma   90.00000000
_symmetry_Int_Tables_number   1
_chemical_formula_structural   LuAl4Ni
_chemical_formula_sum   'Lu4 Al16 Ni4'
_cell_volume   405.46622920
_cell_formula_units_Z   4
loop_
 _symmetry_equiv_pos_site_id
 _symmetry_equiv_pos_as_xyz
  1  'x, y, z'
loop_
 _atom_site_type_symbol
 _atom_site_label
 _atom_site_symmetry_multiplicity
 _atom_site_fract_x
 _atom_site_fract_y
 _atom_site_fract_z
 _atom_site_occupancy
  Lu  Lu0  1  0.50000000  0.62066600  0.25000000  1
  Lu  Lu1  1  0.00000000  0.87933400  0.75000000  1
  Lu  Lu2  1  0.00000000  0.12066600  0.25000000  1
  Lu  Lu3  1  0.50000000  0.37933400  0.75000000  1
  Al  Al4  1  0.50000000  0.00000000  0.00000000  1
  Al  Al5  1  0.50000000  0.00000000  0.50000000  1
  Al  Al6  1  0.50000000  0.57452200  0.75000000  1
  Al  Al7  1  0.00000000  0.92547800  0.25000000  1
  Al  Al8  1  0.00000000  0.68705400  0.94638800  1
  Al  Al9  1  0.50000000  0.81294600  0.05361200  1
  Al  Al10  1  0.50000000  0.81294600  0.44638800  1
  Al  Al11  1  0.00000000  0.68705400  0.55361200  1
  Al  Al12  1  0.00000000  0.50000000  0.00000000  1
  Al  Al13  1  0.00000000  0.50000000  0.50000000  1
  Al  Al14  1  0.00000000  0.07452200  0.75000000  1
  Al  Al15  1  0.50000000  0.42547800  0.25000000  1
  Al  Al16  1  0.50000000  0.18705400  0.94638800  1
  Al  Al17  1  0.00000000  0.31294600  0.05361200  1
  Al  Al18  1  0.00000000  0.31294600  0.44638800  1
  Al  Al19  1  0.50000000  0.18705400  0.55361200  1
  Ni  Ni20  1  0.00000000  0.77140100  0.25000000  1
  Ni  Ni21  1  0.50000000  0.72859900  0.75000000  1
  Ni  Ni22  1  0.50000000  0.27140100  0.25000000  1
  Ni  Ni23  1  0.00000000  0.22859900  0.75000000  1
