# generated using pymatgen
data_Li12Al3Si4
_symmetry_space_group_name_H-M   'P 1'
_cell_length_a   10.52048800
_cell_length_b   10.52048800
_cell_length_c   10.52048800
_cell_angle_alpha   90.00000000
_cell_angle_beta   90.00000000
_cell_angle_gamma   90.00000000
_symmetry_Int_Tables_number   1
_chemical_formula_structural   Li12Al3Si4
_chemical_formula_sum   'Li48 Al12 Si16'
_cell_volume   1164.41463698
_cell_formula_units_Z   4
loop_
 _symmetry_equiv_pos_site_id
 _symmetry_equiv_pos_as_xyz
  1  'x, y, z'
loop_
 _atom_site_type_symbol
 _atom_site_label
 _atom_site_symmetry_multiplicity
 _atom_site_fract_x
 _atom_site_fract_y
 _atom_site_fract_z
 _atom_site_occupancy
  Li  Li0  1  0.90256100  0.36622600  0.28771900  1
  Li  Li1  1  0.88377400  0.15256100  0.46228100  1
  Li  Li2  1  0.11622600  0.34743900  0.46228100  1
  Li  Li3  1  0.34743900  0.53771900  0.38377400  1
  Li  Li4  1  0.34743900  0.46228100  0.11622600  1
  Li  Li5  1  0.46228100  0.88377400  0.15256100  1
  Li  Li6  1  0.53771900  0.38377400  0.34743900  1
  Li  Li7  1  0.71228100  0.59743900  0.36622600  1
  Li  Li8  1  0.13377400  0.28771900  0.09743900  1
  Li  Li9  1  0.28771900  0.09743900  0.13377400  1
  Li  Li10  1  0.63377400  0.21228100  0.90256100  1
  Li  Li11  1  0.28771900  0.90256100  0.36622600  1
  Li  Li12  1  0.36622600  0.28771900  0.90256100  1
  Li  Li13  1  0.36622600  0.71228100  0.59743900  1
  Li  Li14  1  0.21228100  0.90256100  0.63377400  1
  Li  Li15  1  0.09743900  0.13377400  0.28771900  1
  Li  Li16  1  0.90256100  0.63377400  0.21228100  1
  Li  Li17  1  0.59743900  0.36622600  0.71228100  1
  Li  Li18  1  0.11622600  0.65256100  0.03771900  1
  Li  Li19  1  0.15256100  0.46228100  0.88377400  1
  Li  Li20  1  0.46228100  0.11622600  0.34743900  1
  Li  Li21  1  0.38377400  0.34743900  0.53771900  1
  Li  Li22  1  0.65256100  0.03771900  0.11622600  1
  Li  Li23  1  0.03771900  0.11622600  0.65256100  1
  Li  Li24  1  0.40256100  0.86622600  0.78771900  1
  Li  Li25  1  0.38377400  0.65256100  0.96228100  1
  Li  Li26  1  0.61622600  0.84743900  0.96228100  1
  Li  Li27  1  0.84743900  0.03771900  0.88377400  1
  Li  Li28  1  0.84743900  0.96228100  0.61622600  1
  Li  Li29  1  0.96228100  0.38377400  0.65256100  1
  Li  Li30  1  0.03771900  0.88377400  0.84743900  1
  Li  Li31  1  0.21228100  0.09743900  0.86622600  1
  Li  Li32  1  0.63377400  0.78771900  0.59743900  1
  Li  Li33  1  0.78771900  0.59743900  0.63377400  1
  Li  Li34  1  0.13377400  0.71228100  0.40256100  1
  Li  Li35  1  0.78771900  0.40256100  0.86622600  1
  Li  Li36  1  0.86622600  0.78771900  0.40256100  1
  Li  Li37  1  0.86622600  0.21228100  0.09743900  1
  Li  Li38  1  0.71228100  0.40256100  0.13377400  1
  Li  Li39  1  0.59743900  0.63377400  0.78771900  1
  Li  Li40  1  0.40256100  0.13377400  0.71228100  1
  Li  Li41  1  0.09743900  0.86622600  0.21228100  1
  Li  Li42  1  0.61622600  0.15256100  0.53771900  1
  Li  Li43  1  0.65256100  0.96228100  0.38377400  1
  Li  Li44  1  0.96228100  0.61622600  0.84743900  1
  Li  Li45  1  0.88377400  0.84743900  0.03771900  1
  Li  Li46  1  0.15256100  0.53771900  0.61622600  1
  Li  Li47  1  0.53771900  0.61622600  0.15256100  1
  Al  Al48  1  0.25000000  0.12500000  0.50000000  1
  Al  Al49  1  0.12500000  0.50000000  0.25000000  1
  Al  Al50  1  0.37500000  0.50000000  0.75000000  1
  Al  Al51  1  0.50000000  0.25000000  0.12500000  1
  Al  Al52  1  0.50000000  0.75000000  0.37500000  1
  Al  Al53  1  0.75000000  0.37500000  0.50000000  1
  Al  Al54  1  0.75000000  0.62500000  0.00000000  1
  Al  Al55  1  0.62500000  0.00000000  0.75000000  1
  Al  Al56  1  0.87500000  0.00000000  0.25000000  1
  Al  Al57  1  0.00000000  0.75000000  0.62500000  1
  Al  Al58  1  0.00000000  0.25000000  0.87500000  1
  Al  Al59  1  0.25000000  0.87500000  0.00000000  1
  Si  Si60  1  0.95420300  0.45420300  0.04579700  1
  Si  Si61  1  0.79579700  0.20420300  0.70420300  1
  Si  Si62  1  0.70420300  0.79579700  0.20420300  1
  Si  Si63  1  0.29579700  0.29579700  0.29579700  1
  Si  Si64  1  0.45420300  0.04579700  0.95420300  1
  Si  Si65  1  0.04579700  0.04579700  0.04579700  1
  Si  Si66  1  0.04579700  0.95420300  0.45420300  1
  Si  Si67  1  0.20420300  0.70420300  0.79579700  1
  Si  Si68  1  0.45420300  0.95420300  0.54579700  1
  Si  Si69  1  0.29579700  0.70420300  0.20420300  1
  Si  Si70  1  0.20420300  0.29579700  0.70420300  1
  Si  Si71  1  0.79579700  0.79579700  0.79579700  1
  Si  Si72  1  0.95420300  0.54579700  0.45420300  1
  Si  Si73  1  0.54579700  0.54579700  0.54579700  1
  Si  Si74  1  0.54579700  0.45420300  0.95420300  1
  Si  Si75  1  0.70420300  0.20420300  0.29579700  1
