# generated using pymatgen
data_CeGa4Co9
_symmetry_space_group_name_H-M   'P 1'
_cell_length_a   7.96098400
_cell_length_b   7.96098400
_cell_length_c   11.66044800
_cell_angle_alpha   90.00000000
_cell_angle_beta   90.00000000
_cell_angle_gamma   90.00000000
_symmetry_Int_Tables_number   1
_chemical_formula_structural   CeGa4Co9
_chemical_formula_sum   'Ce4 Ga16 Co36'
_cell_volume   739.00731747
_cell_formula_units_Z   4
loop_
 _symmetry_equiv_pos_site_id
 _symmetry_equiv_pos_as_xyz
  1  'x, y, z'
loop_
 _atom_site_type_symbol
 _atom_site_label
 _atom_site_symmetry_multiplicity
 _atom_site_fract_x
 _atom_site_fract_y
 _atom_site_fract_z
 _atom_site_occupancy
  Ce  Ce0  1  0.50000000  0.50000000  0.25000000  1
  Ce  Ce1  1  0.00000000  0.00000000  0.25000000  1
  Ce  Ce2  1  0.00000000  0.00000000  0.75000000  1
  Ce  Ce3  1  0.50000000  0.50000000  0.75000000  1
  Ga  Ga4  1  0.18072300  0.68072300  0.12420550  1
  Ga  Ga5  1  0.81927700  0.31927700  0.12420550  1
  Ga  Ga6  1  0.18072300  0.31927700  0.37579450  1
  Ga  Ga7  1  0.81927700  0.68072300  0.37579450  1
  Ga  Ga8  1  0.31927700  0.81927700  0.37579450  1
  Ga  Ga9  1  0.68072300  0.18072300  0.37579450  1
  Ga  Ga10  1  0.68072300  0.81927700  0.12420550  1
  Ga  Ga11  1  0.31927700  0.18072300  0.12420550  1
  Ga  Ga12  1  0.68072300  0.18072300  0.62420550  1
  Ga  Ga13  1  0.31927700  0.81927700  0.62420550  1
  Ga  Ga14  1  0.68072300  0.81927700  0.87579450  1
  Ga  Ga15  1  0.31927700  0.18072300  0.87579450  1
  Ga  Ga16  1  0.81927700  0.31927700  0.87579450  1
  Ga  Ga17  1  0.18072300  0.68072300  0.87579450  1
  Ga  Ga18  1  0.18072300  0.31927700  0.62420550  1
  Ga  Ga19  1  0.81927700  0.68072300  0.62420550  1
  Co  Co20  1  0.06160350  0.20081150  0.00000000  1
  Co  Co21  1  0.43839650  0.29918850  0.50000000  1
  Co  Co22  1  0.56160350  0.29918850  0.00000000  1
  Co  Co23  1  0.93839650  0.20081150  0.50000000  1
  Co  Co24  1  0.79918850  0.93839650  0.50000000  1
  Co  Co25  1  0.20081150  0.06160350  0.50000000  1
  Co  Co26  1  0.70081150  0.43839650  0.50000000  1
  Co  Co27  1  0.79918850  0.06160350  0.00000000  1
  Co  Co28  1  0.00000000  0.50000000  0.00000000  1
  Co  Co29  1  0.50000000  0.00000000  0.00000000  1
  Co  Co30  1  0.61333450  0.11333450  0.17531500  1
  Co  Co31  1  0.38666550  0.88666550  0.17531500  1
  Co  Co32  1  0.61333450  0.88666550  0.32468500  1
  Co  Co33  1  0.38666550  0.11333450  0.32468500  1
  Co  Co34  1  0.88666550  0.38666550  0.32468500  1
  Co  Co35  1  0.11333450  0.61333450  0.32468500  1
  Co  Co36  1  0.11333450  0.38666550  0.17531500  1
  Co  Co37  1  0.88666550  0.61333450  0.17531500  1
  Co  Co38  1  0.56160350  0.70081150  0.50000000  1
  Co  Co39  1  0.93839650  0.79918850  0.00000000  1
  Co  Co40  1  0.06160350  0.79918850  0.50000000  1
  Co  Co41  1  0.43839650  0.70081150  0.00000000  1
  Co  Co42  1  0.29918850  0.43839650  0.00000000  1
  Co  Co43  1  0.70081150  0.56160350  0.00000000  1
  Co  Co44  1  0.20081150  0.93839650  0.00000000  1
  Co  Co45  1  0.29918850  0.56160350  0.50000000  1
  Co  Co46  1  0.50000000  0.00000000  0.50000000  1
  Co  Co47  1  0.00000000  0.50000000  0.50000000  1
  Co  Co48  1  0.11333450  0.61333450  0.67531500  1
  Co  Co49  1  0.88666550  0.38666550  0.67531500  1
  Co  Co50  1  0.11333450  0.38666550  0.82468500  1
  Co  Co51  1  0.88666550  0.61333450  0.82468500  1
  Co  Co52  1  0.38666550  0.88666550  0.82468500  1
  Co  Co53  1  0.61333450  0.11333450  0.82468500  1
  Co  Co54  1  0.61333450  0.88666550  0.67531500  1
  Co  Co55  1  0.38666550  0.11333450  0.67531500  1
