# generated using pymatgen
data_Ba6Lu2(WO6)3
_symmetry_space_group_name_H-M   'P 1'
_cell_length_a   5.92458614
_cell_length_b   5.92458614
_cell_length_c   43.32833321
_cell_angle_alpha   90.00000000
_cell_angle_beta   90.00000000
_cell_angle_gamma   120.00000000
_symmetry_Int_Tables_number   1
_chemical_formula_structural   Ba6Lu2(WO6)3
_chemical_formula_sum   'Ba18 Lu6 W9 O54'
_cell_volume   1317.09969965
_cell_formula_units_Z   3
loop_
 _symmetry_equiv_pos_site_id
 _symmetry_equiv_pos_as_xyz
  1  'x, y, z'
loop_
 _atom_site_type_symbol
 _atom_site_label
 _atom_site_symmetry_multiplicity
 _atom_site_fract_x
 _atom_site_fract_y
 _atom_site_fract_z
 _atom_site_occupancy
  Ba  Ba0  1  0.33333333  0.66666667  0.02993867  1
  Ba  Ba1  1  0.33333333  0.66666667  0.30339467  1
  Ba  Ba2  1  0.00000000  0.00000000  0.18671800  1
  Ba  Ba3  1  0.66666667  0.33333333  0.14661533  1
  Ba  Ba4  1  0.00000000  0.00000000  0.08778200  1
  Ba  Ba5  1  0.66666667  0.33333333  0.24555133  1
  Ba  Ba6  1  0.00000000  0.00000000  0.36327200  1
  Ba  Ba7  1  0.00000000  0.00000000  0.63672800  1
  Ba  Ba8  1  0.66666667  0.33333333  0.52005133  1
  Ba  Ba9  1  0.33333333  0.66666667  0.47994867  1
  Ba  Ba10  1  0.66666667  0.33333333  0.42111533  1
  Ba  Ba11  1  0.33333333  0.66666667  0.57888467  1
  Ba  Ba12  1  0.66666667  0.33333333  0.69660533  1
  Ba  Ba13  1  0.66666667  0.33333333  0.97006133  1
  Ba  Ba14  1  0.33333333  0.66666667  0.85338467  1
  Ba  Ba15  1  0.00000000  0.00000000  0.81328200  1
  Ba  Ba16  1  0.33333333  0.66666667  0.75444867  1
  Ba  Ba17  1  0.00000000  0.00000000  0.91221800  1
  Lu  Lu18  1  0.00000000  0.00000000  0.27560100  1
  Lu  Lu19  1  0.66666667  0.33333333  0.05773233  1
  Lu  Lu20  1  0.66666667  0.33333333  0.60893433  1
  Lu  Lu21  1  0.33333333  0.66666667  0.39106567  1
  Lu  Lu22  1  0.33333333  0.66666667  0.94226767  1
  Lu  Lu23  1  0.00000000  0.00000000  0.72439900  1
  W  W24  1  0.33333333  0.66666667  0.11408167  1
  W  W25  1  0.33333333  0.66666667  0.21925167  1
  W  W26  1  0.00000000  0.00000000  0.00000000  1
  W  W27  1  0.00000000  0.00000000  0.44741500  1
  W  W28  1  0.00000000  0.00000000  0.55258500  1
  W  W29  1  0.66666667  0.33333333  0.33333333  1
  W  W30  1  0.66666667  0.33333333  0.78074833  1
  W  W31  1  0.66666667  0.33333333  0.88591833  1
  W  W32  1  0.33333333  0.66666667  0.66666667  1
  O  O33  1  0.84288533  0.68577067  0.02588967  1
  O  O34  1  0.84288533  0.15711467  0.02588967  1
  O  O35  1  0.31422933  0.15711467  0.02588967  1
  O  O36  1  0.35243733  0.17621867  0.30744367  1
  O  O37  1  0.82378133  0.64756267  0.30744367  1
  O  O38  1  0.82378133  0.17621867  0.30744367  1
  O  O39  1  0.17726700  0.35453400  0.24938800  1
  O  O40  1  0.17726700  0.82273300  0.24938800  1
  O  O41  1  0.64546600  0.82273300  0.24938800  1
  O  O42  1  0.02120067  0.51060033  0.08394533  1
  O  O43  1  0.48939967  0.97879933  0.08394533  1
  O  O44  1  0.49228767  0.50771233  0.19755433  1
  O  O45  1  0.49228767  0.98457533  0.19755433  1
  O  O46  1  0.01542467  0.50771233  0.19755433  1
  O  O47  1  0.65124200  0.82562100  0.13577900  1
  O  O48  1  0.17437900  0.82562100  0.13577900  1
  O  O49  1  0.17437900  0.34875800  0.13577900  1
  O  O50  1  0.48939967  0.51060033  0.08394533  1
  O  O51  1  0.50955200  0.01910400  0.35922300  1
  O  O52  1  0.50955200  0.49044800  0.35922300  1
  O  O53  1  0.98089600  0.49044800  0.35922300  1
  O  O54  1  0.01910400  0.50955200  0.64077700  1
  O  O55  1  0.49044800  0.98089600  0.64077700  1
  O  O56  1  0.49044800  0.50955200  0.64077700  1
  O  O57  1  0.84393367  0.68786733  0.58272133  1
  O  O58  1  0.84393367  0.15606633  0.58272133  1
  O  O59  1  0.31213267  0.15606633  0.58272133  1
  O  O60  1  0.68786733  0.84393367  0.41727867  1
  O  O61  1  0.15606633  0.31213267  0.41727867  1
  O  O62  1  0.15895433  0.84104567  0.53088767  1
  O  O63  1  0.15895433  0.31790867  0.53088767  1
  O  O64  1  0.68209133  0.84104567  0.53088767  1
  O  O65  1  0.31790867  0.15895433  0.46911233  1
  O  O66  1  0.84104567  0.15895433  0.46911233  1
  O  O67  1  0.84104567  0.68209133  0.46911233  1
  O  O68  1  0.15606633  0.84393367  0.41727867  1
  O  O69  1  0.17621867  0.35243733  0.69255633  1
  O  O70  1  0.17621867  0.82378133  0.69255633  1
  O  O71  1  0.64756267  0.82378133  0.69255633  1
  O  O72  1  0.68577067  0.84288533  0.97411033  1
  O  O73  1  0.15711467  0.31422933  0.97411033  1
  O  O74  1  0.15711467  0.84288533  0.97411033  1
  O  O75  1  0.51060033  0.02120067  0.91605467  1
  O  O76  1  0.51060033  0.48939967  0.91605467  1
  O  O77  1  0.97879933  0.48939967  0.91605467  1
  O  O78  1  0.35453400  0.17726700  0.75061200  1
  O  O79  1  0.82273300  0.64546600  0.75061200  1
  O  O80  1  0.82562100  0.17437900  0.86422100  1
  O  O81  1  0.82562100  0.65124200  0.86422100  1
  O  O82  1  0.34875800  0.17437900  0.86422100  1
  O  O83  1  0.98457533  0.49228767  0.80244567  1
  O  O84  1  0.50771233  0.49228767  0.80244567  1
  O  O85  1  0.50771233  0.01542467  0.80244567  1
  O  O86  1  0.82273300  0.17726700  0.75061200  1
