# generated using pymatgen
data_Cr2NiO4
_symmetry_space_group_name_H-M   'P 1'
_cell_length_a   5.86158628
_cell_length_b   5.86158628
_cell_length_c   8.73653174
_cell_angle_alpha   90.00000000
_cell_angle_beta   90.00000000
_cell_angle_gamma   90.00000000
_symmetry_Int_Tables_number   1
_chemical_formula_structural   Cr2NiO4
_chemical_formula_sum   'Cr8 Ni4 O16'
_cell_volume   300.17144976
_cell_formula_units_Z   4
loop_
 _symmetry_equiv_pos_site_id
 _symmetry_equiv_pos_as_xyz
  1  'x, y, z'
loop_
 _atom_site_type_symbol
 _atom_site_label
 _atom_site_symmetry_multiplicity
 _atom_site_fract_x
 _atom_site_fract_y
 _atom_site_fract_z
 _atom_site_occupancy
  Cr  Cr0  1  0.50000000  0.25000000  0.62500000  1
  Cr  Cr1  1  0.00000000  0.25000000  0.12500000  1
  Cr  Cr2  1  0.25000000  0.00000000  0.87500000  1
  Cr  Cr3  1  0.75000000  0.00000000  0.87500000  1
  Cr  Cr4  1  0.00000000  0.75000000  0.12500000  1
  Cr  Cr5  1  0.50000000  0.75000000  0.62500000  1
  Cr  Cr6  1  0.75000000  0.50000000  0.37500000  1
  Cr  Cr7  1  0.25000000  0.50000000  0.37500000  1
  Ni  Ni8  1  0.00000000  0.50000000  0.75000000  1
  Ni  Ni9  1  0.50000000  0.50000000  0.00000000  1
  Ni  Ni10  1  0.50000000  0.00000000  0.25000000  1
  Ni  Ni11  1  0.00000000  0.00000000  0.50000000  1
  O  O12  1  0.50000000  0.76421350  0.85606550  1
  O  O13  1  0.26421350  0.00000000  0.64393450  1
  O  O14  1  0.73578650  0.00000000  0.64393450  1
  O  O15  1  0.00000000  0.23578650  0.89393450  1
  O  O16  1  0.00000000  0.76421350  0.89393450  1
  O  O17  1  0.23578650  0.00000000  0.10606550  1
  O  O18  1  0.50000000  0.23578650  0.85606550  1
  O  O19  1  0.76421350  0.00000000  0.10606550  1
  O  O20  1  0.00000000  0.26421350  0.35606550  1
  O  O21  1  0.76421350  0.50000000  0.14393450  1
  O  O22  1  0.23578650  0.50000000  0.14393450  1
  O  O23  1  0.50000000  0.73578650  0.39393450  1
  O  O24  1  0.50000000  0.26421350  0.39393450  1
  O  O25  1  0.73578650  0.50000000  0.60606550  1
  O  O26  1  0.00000000  0.73578650  0.35606550  1
  O  O27  1  0.26421350  0.50000000  0.60606550  1
