# generated using pymatgen
data_EuPd
_symmetry_space_group_name_H-M   'P 1'
_cell_length_a   4.13554600
_cell_length_b   11.29501200
_cell_length_c   4.54675200
_cell_angle_alpha   90.00000000
_cell_angle_beta   90.00000000
_cell_angle_gamma   90.00000000
_symmetry_Int_Tables_number   1
_chemical_formula_structural   EuPd
_chemical_formula_sum   'Eu4 Pd4'
_cell_volume   212.38352226
_cell_formula_units_Z   4
loop_
 _symmetry_equiv_pos_site_id
 _symmetry_equiv_pos_as_xyz
  1  'x, y, z'
loop_
 _atom_site_type_symbol
 _atom_site_label
 _atom_site_symmetry_multiplicity
 _atom_site_fract_x
 _atom_site_fract_y
 _atom_site_fract_z
 _atom_site_occupancy
  Eu  Eu0  1  0.50000000  0.63795400  0.75000000  1
  Eu  Eu1  1  0.00000000  0.86204600  0.25000000  1
  Eu  Eu2  1  0.00000000  0.13795400  0.75000000  1
  Eu  Eu3  1  0.50000000  0.36204600  0.25000000  1
  Pd  Pd4  1  0.50000000  0.92289000  0.75000000  1
  Pd  Pd5  1  0.00000000  0.57711000  0.25000000  1
  Pd  Pd6  1  0.00000000  0.42289000  0.75000000  1
  Pd  Pd7  1  0.50000000  0.07711000  0.25000000  1
