# generated using pymatgen
data_Ho2Ge2Os
_symmetry_space_group_name_H-M   'P 1'
_cell_length_a   10.76819000
_cell_length_b   4.29798800
_cell_length_c   10.10649628
_cell_angle_alpha   90.00000000
_cell_angle_beta   118.10949383
_cell_angle_gamma   90.00000000
_symmetry_Int_Tables_number   1
_chemical_formula_structural   Ho2Ge2Os
_chemical_formula_sum   'Ho8 Ge8 Os4'
_cell_volume   412.57332629
_cell_formula_units_Z   4
loop_
 _symmetry_equiv_pos_site_id
 _symmetry_equiv_pos_as_xyz
  1  'x, y, z'
loop_
 _atom_site_type_symbol
 _atom_site_label
 _atom_site_symmetry_multiplicity
 _atom_site_fract_x
 _atom_site_fract_y
 _atom_site_fract_z
 _atom_site_occupancy
  Ho  Ho0  1  0.81635100  0.00000000  0.88494400  1
  Ho  Ho1  1  0.50409700  0.50000000  0.67478400  1
  Ho  Ho2  1  0.18364900  0.00000000  0.11505600  1
  Ho  Ho3  1  0.49590300  0.50000000  0.32521600  1
  Ho  Ho4  1  0.31635100  0.50000000  0.88494400  1
  Ho  Ho5  1  0.00409700  0.00000000  0.67478400  1
  Ho  Ho6  1  0.68364900  0.50000000  0.11505600  1
  Ho  Ho7  1  0.99590300  0.00000000  0.32521600  1
  Ge  Ge8  1  0.48722700  0.00000000  0.12468500  1
  Ge  Ge9  1  0.35755900  0.00000000  0.43829400  1
  Ge  Ge10  1  0.51277300  0.00000000  0.87531500  1
  Ge  Ge11  1  0.64244100  0.00000000  0.56170600  1
  Ge  Ge12  1  0.98722700  0.50000000  0.12468500  1
  Ge  Ge13  1  0.85755900  0.50000000  0.43829400  1
  Ge  Ge14  1  0.01277300  0.50000000  0.87531500  1
  Ge  Ge15  1  0.14244100  0.50000000  0.56170600  1
  Os  Os16  1  0.22994700  0.50000000  0.36797300  1
  Os  Os17  1  0.77005300  0.50000000  0.63202700  1
  Os  Os18  1  0.72994700  0.00000000  0.36797300  1
  Os  Os19  1  0.27005300  0.00000000  0.63202700  1
