# generated using pymatgen
data_La4MnSe6O
_symmetry_space_group_name_H-M   'P 1'
_cell_length_a   9.83651434
_cell_length_b   9.83651434
_cell_length_c   7.13657700
_cell_angle_alpha   90.00000000
_cell_angle_beta   90.00000000
_cell_angle_gamma   120.00000000
_symmetry_Int_Tables_number   1
_chemical_formula_structural   La4MnSe6O
_chemical_formula_sum   'La8 Mn2 Se12 O2'
_cell_volume   598.00256511
_cell_formula_units_Z   2
loop_
 _symmetry_equiv_pos_site_id
 _symmetry_equiv_pos_as_xyz
  1  'x, y, z'
loop_
 _atom_site_type_symbol
 _atom_site_label
 _atom_site_symmetry_multiplicity
 _atom_site_fract_x
 _atom_site_fract_y
 _atom_site_fract_z
 _atom_site_occupancy
  La  La0  1  0.66666667  0.33333333  0.70720500  1
  La  La1  1  0.33333333  0.66666667  0.20720500  1
  La  La2  1  0.20023900  0.79976100  0.66061500  1
  La  La3  1  0.40047800  0.20023900  0.16061500  1
  La  La4  1  0.79976100  0.59952200  0.16061500  1
  La  La5  1  0.20023900  0.40047800  0.66061500  1
  La  La6  1  0.59952200  0.79976100  0.66061500  1
  La  La7  1  0.79976100  0.20023900  0.16061500  1
  Mn  Mn8  1  0.00000000  0.00000000  0.99444900  1
  Mn  Mn9  1  0.00000000  0.00000000  0.49444900  1
  Se  Se10  1  0.53015000  0.06030000  0.44490900  1
  Se  Se11  1  0.46985000  0.93970000  0.94490900  1
  Se  Se12  1  0.06030000  0.53015000  0.94490900  1
  Se  Se13  1  0.53015000  0.46985000  0.44490900  1
  Se  Se14  1  0.93970000  0.46985000  0.44490900  1
  Se  Se15  1  0.46985000  0.53015000  0.94490900  1
  Se  Se16  1  0.12612750  0.87387250  0.26296000  1
  Se  Se17  1  0.25225500  0.12612750  0.76296000  1
  Se  Se18  1  0.87387250  0.74774500  0.76296000  1
  Se  Se19  1  0.12612750  0.25225500  0.26296000  1
  Se  Se20  1  0.74774500  0.87387250  0.26296000  1
  Se  Se21  1  0.87387250  0.12612750  0.76296000  1
  O  O22  1  0.66666667  0.33333333  0.04375900  1
  O  O23  1  0.33333333  0.66666667  0.54375900  1
