# generated using pymatgen
data_Sr5Sn3
_symmetry_space_group_name_H-M   'P 1'
_cell_length_a   8.62865800
_cell_length_b   8.62865800
_cell_length_c   16.49234800
_cell_angle_alpha   90.00000000
_cell_angle_beta   90.00000000
_cell_angle_gamma   90.00000000
_symmetry_Int_Tables_number   1
_chemical_formula_structural   Sr5Sn3
_chemical_formula_sum   'Sr20 Sn12'
_cell_volume   1227.91697153
_cell_formula_units_Z   4
loop_
 _symmetry_equiv_pos_site_id
 _symmetry_equiv_pos_as_xyz
  1  'x, y, z'
loop_
 _atom_site_type_symbol
 _atom_site_label
 _atom_site_symmetry_multiplicity
 _atom_site_fract_x
 _atom_site_fract_y
 _atom_site_fract_z
 _atom_site_occupancy
  Sr  Sr0  1  0.50000000  0.50000000  0.00000000  1
  Sr  Sr1  1  0.00000000  0.00000000  0.00000000  1
  Sr  Sr2  1  0.67587550  0.17587550  0.35883650  1
  Sr  Sr3  1  0.32412450  0.82412450  0.35883650  1
  Sr  Sr4  1  0.82412450  0.67587550  0.35883650  1
  Sr  Sr5  1  0.17587550  0.32412450  0.35883650  1
  Sr  Sr6  1  0.82412450  0.32412450  0.14116350  1
  Sr  Sr7  1  0.17587550  0.67587550  0.14116350  1
  Sr  Sr8  1  0.67587550  0.82412450  0.14116350  1
  Sr  Sr9  1  0.32412450  0.17587550  0.14116350  1
  Sr  Sr10  1  0.00000000  0.00000000  0.50000000  1
  Sr  Sr11  1  0.50000000  0.50000000  0.50000000  1
  Sr  Sr12  1  0.17587550  0.67587550  0.85883650  1
  Sr  Sr13  1  0.82412450  0.32412450  0.85883650  1
  Sr  Sr14  1  0.32412450  0.17587550  0.85883650  1
  Sr  Sr15  1  0.67587550  0.82412450  0.85883650  1
  Sr  Sr16  1  0.32412450  0.82412450  0.64116350  1
  Sr  Sr17  1  0.67587550  0.17587550  0.64116350  1
  Sr  Sr18  1  0.17587550  0.32412450  0.64116350  1
  Sr  Sr19  1  0.82412450  0.67587550  0.64116350  1
  Sn  Sn20  1  0.00000000  0.00000000  0.25000000  1
  Sn  Sn21  1  0.50000000  0.50000000  0.25000000  1
  Sn  Sn22  1  0.37877400  0.87877400  0.00000000  1
  Sn  Sn23  1  0.62122600  0.12122600  0.00000000  1
  Sn  Sn24  1  0.12122600  0.37877400  0.00000000  1
  Sn  Sn25  1  0.87877400  0.62122600  0.00000000  1
  Sn  Sn26  1  0.50000000  0.50000000  0.75000000  1
  Sn  Sn27  1  0.00000000  0.00000000  0.75000000  1
  Sn  Sn28  1  0.87877400  0.37877400  0.50000000  1
  Sn  Sn29  1  0.12122600  0.62122600  0.50000000  1
  Sn  Sn30  1  0.62122600  0.87877400  0.50000000  1
  Sn  Sn31  1  0.37877400  0.12122600  0.50000000  1
