# generated using pymatgen
data_LaCd2Pd
_symmetry_space_group_name_H-M   'P 1'
_cell_length_a   4.32644000
_cell_length_b   10.20966000
_cell_length_c   8.64835100
_cell_angle_alpha   90.00000000
_cell_angle_beta   90.00000000
_cell_angle_gamma   90.00000000
_symmetry_Int_Tables_number   1
_chemical_formula_structural   LaCd2Pd
_chemical_formula_sum   'La4 Cd8 Pd4'
_cell_volume   382.01047543
_cell_formula_units_Z   4
loop_
 _symmetry_equiv_pos_site_id
 _symmetry_equiv_pos_as_xyz
  1  'x, y, z'
loop_
 _atom_site_type_symbol
 _atom_site_label
 _atom_site_symmetry_multiplicity
 _atom_site_fract_x
 _atom_site_fract_y
 _atom_site_fract_z
 _atom_site_occupancy
  La  La0  1  0.50000000  0.43515000  0.75000000  1
  La  La1  1  0.00000000  0.06485000  0.25000000  1
  La  La2  1  0.00000000  0.93515000  0.75000000  1
  La  La3  1  0.50000000  0.56485000  0.25000000  1
  Cd  Cd4  1  0.00000000  0.35479700  0.04733300  1
  Cd  Cd5  1  0.50000000  0.14520300  0.95266700  1
  Cd  Cd6  1  0.00000000  0.35479700  0.45266700  1
  Cd  Cd7  1  0.50000000  0.14520300  0.54733300  1
  Cd  Cd8  1  0.50000000  0.85479700  0.04733300  1
  Cd  Cd9  1  0.00000000  0.64520300  0.95266700  1
  Cd  Cd10  1  0.50000000  0.85479700  0.45266700  1
  Cd  Cd11  1  0.00000000  0.64520300  0.54733300  1
  Pd  Pd12  1  0.50000000  0.27943900  0.25000000  1
  Pd  Pd13  1  0.00000000  0.22056100  0.75000000  1
  Pd  Pd14  1  0.00000000  0.77943900  0.25000000  1
  Pd  Pd15  1  0.50000000  0.72056100  0.75000000  1
