# generated using pymatgen
data_ErAg(WO4)2
_symmetry_space_group_name_H-M   'P 1'
_cell_length_a   10.00624800
_cell_length_b   10.84505000
_cell_length_c   7.27900416
_cell_angle_alpha   90.00000000
_cell_angle_beta   127.03208757
_cell_angle_gamma   90.00000000
_symmetry_Int_Tables_number   1
_chemical_formula_structural   ErAg(WO4)2
_chemical_formula_sum   'Er4 Ag4 W8 O32'
_cell_volume   630.57974928
_cell_formula_units_Z   4
loop_
 _symmetry_equiv_pos_site_id
 _symmetry_equiv_pos_as_xyz
  1  'x, y, z'
loop_
 _atom_site_type_symbol
 _atom_site_label
 _atom_site_symmetry_multiplicity
 _atom_site_fract_x
 _atom_site_fract_y
 _atom_site_fract_z
 _atom_site_occupancy
  Er  Er0  1  0.50000000  0.19903200  0.00000000  1
  Er  Er1  1  0.50000000  0.80096800  0.00000000  1
  Er  Er2  1  0.00000000  0.69903200  0.00000000  1
  Er  Er3  1  0.00000000  0.30096800  0.00000000  1
  Ag  Ag4  1  0.31862400  0.00000000  0.47811500  1
  Ag  Ag5  1  0.68137600  0.00000000  0.52188500  1
  Ag  Ag6  1  0.81862400  0.50000000  0.47811500  1
  Ag  Ag7  1  0.18137600  0.50000000  0.52188500  1
  W  W8  1  0.21256100  0.00000000  0.97189500  1
  W  W9  1  0.78743900  0.00000000  0.02810500  1
  W  W10  1  0.50000000  0.66352300  0.50000000  1
  W  W11  1  0.50000000  0.33647700  0.50000000  1
  W  W12  1  0.71256100  0.50000000  0.97189500  1
  W  W13  1  0.28743900  0.50000000  0.02810500  1
  W  W14  1  0.00000000  0.16352300  0.50000000  1
  W  W15  1  0.00000000  0.83647700  0.50000000  1
  O  O16  1  0.97813300  0.00000000  0.65905600  1
  O  O17  1  0.02186700  0.00000000  0.34094400  1
  O  O18  1  0.17037800  0.86990400  0.08936900  1
  O  O19  1  0.82962200  0.86990400  0.91063100  1
  O  O20  1  0.82962200  0.13009600  0.91063100  1
  O  O21  1  0.17037800  0.13009600  0.08936900  1
  O  O22  1  0.55311100  0.00000000  0.86039000  1
  O  O23  1  0.44688900  0.00000000  0.13961000  1
  O  O24  1  0.77043250  0.87410150  0.23970600  1
  O  O25  1  0.22956750  0.87410150  0.76029400  1
  O  O26  1  0.22956750  0.12589850  0.76029400  1
  O  O27  1  0.77043250  0.12589850  0.23970600  1
  O  O28  1  0.54747600  0.76450400  0.34788200  1
  O  O29  1  0.45252400  0.76450400  0.65211800  1
  O  O30  1  0.45252400  0.23549600  0.65211800  1
  O  O31  1  0.54747600  0.23549600  0.34788200  1
  O  O32  1  0.47813300  0.50000000  0.65905600  1
  O  O33  1  0.52186700  0.50000000  0.34094400  1
  O  O34  1  0.67037800  0.36990400  0.08936900  1
  O  O35  1  0.32962200  0.36990400  0.91063100  1
  O  O36  1  0.32962200  0.63009600  0.91063100  1
  O  O37  1  0.67037800  0.63009600  0.08936900  1
  O  O38  1  0.05311100  0.50000000  0.86039000  1
  O  O39  1  0.94688900  0.50000000  0.13961000  1
  O  O40  1  0.27043250  0.37410150  0.23970600  1
  O  O41  1  0.72956750  0.37410150  0.76029400  1
  O  O42  1  0.72956750  0.62589850  0.76029400  1
  O  O43  1  0.27043250  0.62589850  0.23970600  1
  O  O44  1  0.04747600  0.26450400  0.34788200  1
  O  O45  1  0.95252400  0.26450400  0.65211800  1
  O  O46  1  0.95252400  0.73549600  0.65211800  1
  O  O47  1  0.04747600  0.73549600  0.34788200  1
