# generated using pymatgen
data_K2Co(SeO3)2
_symmetry_space_group_name_H-M   'P 1'
_cell_length_a   5.59565097
_cell_length_b   5.59565097
_cell_length_c   18.91174823
_cell_angle_alpha   90.00000000
_cell_angle_beta   90.00000000
_cell_angle_gamma   120.00000000
_symmetry_Int_Tables_number   1
_chemical_formula_structural   K2Co(SeO3)2
_chemical_formula_sum   'K6 Co3 Se6 O18'
_cell_volume   512.81833546
_cell_formula_units_Z   3
loop_
 _symmetry_equiv_pos_site_id
 _symmetry_equiv_pos_as_xyz
  1  'x, y, z'
loop_
 _atom_site_type_symbol
 _atom_site_label
 _atom_site_symmetry_multiplicity
 _atom_site_fract_x
 _atom_site_fract_y
 _atom_site_fract_z
 _atom_site_occupancy
  K  K0  1  0.00000000  0.00000000  0.80542950  1
  K  K1  1  0.33333333  0.66666667  0.86123717  1
  K  K2  1  0.66666667  0.33333333  0.13876283  1
  K  K3  1  0.00000000  0.00000000  0.19457050  1
  K  K4  1  0.33333333  0.66666667  0.47209617  1
  K  K5  1  0.66666667  0.33333333  0.52790383  1
  Co  Co6  1  0.00000000  0.00000000  0.00000000  1
  Co  Co7  1  0.66666667  0.33333333  0.33333333  1
  Co  Co8  1  0.33333333  0.66666667  0.66666667  1
  Se  Se9  1  0.66666667  0.33333333  0.96471750  1
  Se  Se10  1  0.66666667  0.33333333  0.70194917  1
  Se  Se11  1  0.33333333  0.66666667  0.29805083  1
  Se  Se12  1  0.33333333  0.66666667  0.03528250  1
  Se  Se13  1  0.00000000  0.00000000  0.63138417  1
  Se  Se14  1  0.00000000  0.00000000  0.36861583  1
  O  O15  1  0.50385217  0.49614783  0.73966183  1
  O  O16  1  0.82948117  0.17051883  0.92700483  1
  O  O17  1  0.34103767  0.17051883  0.92700483  1
  O  O18  1  0.99229567  0.49614783  0.73966183  1
  O  O19  1  0.50385217  0.00770433  0.73966183  1
  O  O20  1  0.82948117  0.65896233  0.92700483  1
  O  O21  1  0.17051883  0.82948117  0.07299517  1
  O  O22  1  0.49614783  0.50385217  0.26033817  1
  O  O23  1  0.00770433  0.50385217  0.26033817  1
  O  O24  1  0.65896233  0.82948117  0.07299517  1
  O  O25  1  0.17051883  0.34103767  0.07299517  1
  O  O26  1  0.49614783  0.99229567  0.26033817  1
  O  O27  1  0.83718550  0.16281450  0.40632850  1
  O  O28  1  0.16281450  0.83718550  0.59367150  1
  O  O29  1  0.67437100  0.83718550  0.59367150  1
  O  O30  1  0.32562900  0.16281450  0.40632850  1
  O  O31  1  0.83718550  0.67437100  0.40632850  1
  O  O32  1  0.16281450  0.32562900  0.59367150  1
