# generated using pymatgen
data_LuAl7Au3
_symmetry_space_group_name_H-M   'P 1'
_cell_length_a   8.06870180
_cell_length_b   8.06870180
_cell_length_c   21.10338656
_cell_angle_alpha   90.00000000
_cell_angle_beta   90.00000000
_cell_angle_gamma   120.00000000
_symmetry_Int_Tables_number   1
_chemical_formula_structural   LuAl7Au3
_chemical_formula_sum   'Lu6 Al42 Au18'
_cell_volume   1189.84425001
_cell_formula_units_Z   6
loop_
 _symmetry_equiv_pos_site_id
 _symmetry_equiv_pos_as_xyz
  1  'x, y, z'
loop_
 _atom_site_type_symbol
 _atom_site_label
 _atom_site_symmetry_multiplicity
 _atom_site_fract_x
 _atom_site_fract_y
 _atom_site_fract_z
 _atom_site_occupancy
  Lu  Lu0  1  0.00000000  0.00000000  0.00000000  1
  Lu  Lu1  1  0.33333333  0.66666667  0.16666667  1
  Lu  Lu2  1  0.66666667  0.33333333  0.33333333  1
  Lu  Lu3  1  0.00000000  0.00000000  0.50000000  1
  Lu  Lu4  1  0.33333333  0.66666667  0.66666667  1
  Lu  Lu5  1  0.66666667  0.33333333  0.83333333  1
  Al  Al6  1  0.79333567  0.80363433  0.13693033  1
  Al  Al7  1  0.19636567  0.98970133  0.13693033  1
  Al  Al8  1  0.01029867  0.20666433  0.13693033  1
  Al  Al9  1  0.53999767  0.67696533  0.02973633  1
  Al  Al10  1  0.32303467  0.86303233  0.02973633  1
  Al  Al11  1  0.13696767  0.46000233  0.02973633  1
  Al  Al12  1  0.87333100  0.52969900  0.19640300  1
  Al  Al13  1  0.47030100  0.34363200  0.19640300  1
  Al  Al14  1  0.66666667  0.33333333  0.08333333  1
  Al  Al15  1  0.00000000  0.00000000  0.25000000  1
  Al  Al16  1  0.52969900  0.87333100  0.30359700  1
  Al  Al17  1  0.34363200  0.47030100  0.30359700  1
  Al  Al18  1  0.12666900  0.65636800  0.30359700  1
  Al  Al19  1  0.65636800  0.12666900  0.19640300  1
  Al  Al20  1  0.46000233  0.13696767  0.47026367  1
  Al  Al21  1  0.86303233  0.32303467  0.47026367  1
  Al  Al22  1  0.67696533  0.53999767  0.47026367  1
  Al  Al23  1  0.20666433  0.01029867  0.36306967  1
  Al  Al24  1  0.98970133  0.19636567  0.36306967  1
  Al  Al25  1  0.80363433  0.79333567  0.36306967  1
  Al  Al26  1  0.53999767  0.86303233  0.52973633  1
  Al  Al27  1  0.13696767  0.67696533  0.52973633  1
  Al  Al28  1  0.33333333  0.66666667  0.41666667  1
  Al  Al29  1  0.66666667  0.33333333  0.58333333  1
  Al  Al30  1  0.19636567  0.20666433  0.63693033  1
  Al  Al31  1  0.01029867  0.80363433  0.63693033  1
  Al  Al32  1  0.79333567  0.98970133  0.63693033  1
  Al  Al33  1  0.32303467  0.46000233  0.52973633  1
  Al  Al34  1  0.12666900  0.47030100  0.80359700  1
  Al  Al35  1  0.52969900  0.65636800  0.80359700  1
  Al  Al36  1  0.34363200  0.87333100  0.80359700  1
  Al  Al37  1  0.87333100  0.34363200  0.69640300  1
  Al  Al38  1  0.65636800  0.52969900  0.69640300  1
  Al  Al39  1  0.47030100  0.12666900  0.69640300  1
  Al  Al40  1  0.20666433  0.19636567  0.86306967  1
  Al  Al41  1  0.80363433  0.01029867  0.86306967  1
  Al  Al42  1  0.00000000  0.00000000  0.75000000  1
  Al  Al43  1  0.33333333  0.66666667  0.91666667  1
  Al  Al44  1  0.86303233  0.53999767  0.97026367  1
  Al  Al45  1  0.67696533  0.13696767  0.97026367  1
  Al  Al46  1  0.46000233  0.32303467  0.97026367  1
  Al  Al47  1  0.98970133  0.79333567  0.86306967  1
  Au  Au48  1  0.00000000  0.32553600  0.25000000  1
  Au  Au49  1  0.67446400  0.67446400  0.25000000  1
  Au  Au50  1  0.32553600  0.00000000  0.25000000  1
  Au  Au51  1  0.66666667  0.00779733  0.08333333  1
  Au  Au52  1  0.99220267  0.65886933  0.08333333  1
  Au  Au53  1  0.34113067  0.33333333  0.08333333  1
  Au  Au54  1  0.66666667  0.65886933  0.58333333  1
  Au  Au55  1  0.34113067  0.00779733  0.58333333  1
  Au  Au56  1  0.99220267  0.33333333  0.58333333  1
  Au  Au57  1  0.33333333  0.34113067  0.41666667  1
  Au  Au58  1  0.65886933  0.99220267  0.41666667  1
  Au  Au59  1  0.00779733  0.66666667  0.41666667  1
  Au  Au60  1  0.33333333  0.99220267  0.91666667  1
  Au  Au61  1  0.00779733  0.34113067  0.91666667  1
  Au  Au62  1  0.65886933  0.66666667  0.91666667  1
  Au  Au63  1  0.00000000  0.67446400  0.75000000  1
  Au  Au64  1  0.32553600  0.32553600  0.75000000  1
  Au  Au65  1  0.67446400  0.00000000  0.75000000  1
