# generated using pymatgen
data_SmGaSb2
_symmetry_space_group_name_H-M   'P 1'
_cell_length_a   4.33543200
_cell_length_b   22.44951400
_cell_length_c   4.37271100
_cell_angle_alpha   90.00000000
_cell_angle_beta   90.00000000
_cell_angle_gamma   90.00000000
_symmetry_Int_Tables_number   1
_chemical_formula_structural   SmGaSb2
_chemical_formula_sum   'Sm4 Ga4 Sb8'
_cell_volume   425.58870896
_cell_formula_units_Z   4
loop_
 _symmetry_equiv_pos_site_id
 _symmetry_equiv_pos_as_xyz
  1  'x, y, z'
loop_
 _atom_site_type_symbol
 _atom_site_label
 _atom_site_symmetry_multiplicity
 _atom_site_fract_x
 _atom_site_fract_y
 _atom_site_fract_z
 _atom_site_occupancy
  Sm  Sm0  1  0.50000000  0.63727600  0.25000000  1
  Sm  Sm1  1  0.00000000  0.86272400  0.75000000  1
  Sm  Sm2  1  0.00000000  0.13727600  0.25000000  1
  Sm  Sm3  1  0.50000000  0.36272400  0.75000000  1
  Ga  Ga4  1  0.15837000  0.00000000  0.00000000  1
  Ga  Ga5  1  0.84163000  0.00000000  0.50000000  1
  Ga  Ga6  1  0.65837000  0.50000000  0.00000000  1
  Ga  Ga7  1  0.34163000  0.50000000  0.50000000  1
  Sb  Sb8  1  0.00000000  0.75022200  0.25000000  1
  Sb  Sb9  1  0.50000000  0.74977800  0.75000000  1
  Sb  Sb10  1  0.00000000  0.59232300  0.75000000  1
  Sb  Sb11  1  0.50000000  0.90767700  0.25000000  1
  Sb  Sb12  1  0.50000000  0.25022200  0.25000000  1
  Sb  Sb13  1  0.00000000  0.24977800  0.75000000  1
  Sb  Sb14  1  0.50000000  0.09232300  0.75000000  1
  Sb  Sb15  1  0.00000000  0.40767700  0.25000000  1
