# generated using pymatgen
data_Mn3P
_symmetry_space_group_name_H-M   'P 1'
_cell_length_a   8.94114400
_cell_length_b   8.94114400
_cell_length_c   4.44867400
_cell_angle_alpha   90.00000000
_cell_angle_beta   90.00000000
_cell_angle_gamma   90.00000000
_symmetry_Int_Tables_number   1
_chemical_formula_structural   Mn3P
_chemical_formula_sum   'Mn24 P8'
_cell_volume   355.64504351
_cell_formula_units_Z   8
loop_
 _symmetry_equiv_pos_site_id
 _symmetry_equiv_pos_as_xyz
  1  'x, y, z'
loop_
 _atom_site_type_symbol
 _atom_site_label
 _atom_site_symmetry_multiplicity
 _atom_site_fract_x
 _atom_site_fract_y
 _atom_site_fract_z
 _atom_site_occupancy
  Mn  Mn0  1  0.35556800  0.97040200  0.01315800  1
  Mn  Mn1  1  0.52959800  0.85556800  0.48684200  1
  Mn  Mn2  1  0.47040200  0.14443200  0.48684200  1
  Mn  Mn3  1  0.64443200  0.02959800  0.01315800  1
  Mn  Mn4  1  0.67294800  0.28018000  0.74336800  1
  Mn  Mn5  1  0.21982000  0.17294800  0.75663200  1
  Mn  Mn6  1  0.78018000  0.82705200  0.75663200  1
  Mn  Mn7  1  0.32705200  0.71982000  0.74336800  1
  Mn  Mn8  1  0.41682850  0.60604550  0.28152750  1
  Mn  Mn9  1  0.89395450  0.91682850  0.21847250  1
  Mn  Mn10  1  0.10604550  0.08317150  0.21847250  1
  Mn  Mn11  1  0.58317150  0.39395450  0.28152750  1
  Mn  Mn12  1  0.85556800  0.47040200  0.51315800  1
  Mn  Mn13  1  0.02959800  0.35556800  0.98684200  1
  Mn  Mn14  1  0.97040200  0.64443200  0.98684200  1
  Mn  Mn15  1  0.14443200  0.52959800  0.51315800  1
  Mn  Mn16  1  0.17294800  0.78018000  0.24336800  1
  Mn  Mn17  1  0.71982000  0.67294800  0.25663200  1
  Mn  Mn18  1  0.28018000  0.32705200  0.25663200  1
  Mn  Mn19  1  0.82705200  0.21982000  0.24336800  1
  Mn  Mn20  1  0.91682850  0.10604550  0.78152750  1
  Mn  Mn21  1  0.39395450  0.41682850  0.71847250  1
  Mn  Mn22  1  0.60604550  0.58317150  0.71847250  1
  Mn  Mn23  1  0.08317150  0.89395450  0.78152750  1
  P  P24  1  0.70916700  0.04059500  0.50786300  1
  P  P25  1  0.45940500  0.20916700  0.99213700  1
  P  P26  1  0.54059500  0.79083300  0.99213700  1
  P  P27  1  0.29083300  0.95940500  0.50786300  1
  P  P28  1  0.20916700  0.54059500  0.00786300  1
  P  P29  1  0.95940500  0.70916700  0.49213700  1
  P  P30  1  0.04059500  0.29083300  0.49213700  1
  P  P31  1  0.79083300  0.45940500  0.00786300  1
