# generated using pymatgen
data_Lu(MnGe)2
_symmetry_space_group_name_H-M   'P 1'
_cell_length_a   3.89661400
_cell_length_b   3.89661400
_cell_length_c   10.79851600
_cell_angle_alpha   90.00000000
_cell_angle_beta   90.00000000
_cell_angle_gamma   90.00000000
_symmetry_Int_Tables_number   1
_chemical_formula_structural   Lu(MnGe)2
_chemical_formula_sum   'Lu2 Mn4 Ge4'
_cell_volume   163.96035472
_cell_formula_units_Z   2
loop_
 _symmetry_equiv_pos_site_id
 _symmetry_equiv_pos_as_xyz
  1  'x, y, z'
loop_
 _atom_site_type_symbol
 _atom_site_label
 _atom_site_symmetry_multiplicity
 _atom_site_fract_x
 _atom_site_fract_y
 _atom_site_fract_z
 _atom_site_occupancy
  Lu  Lu0  1  0.00000000  0.00000000  0.00000000  1
  Lu  Lu1  1  0.50000000  0.50000000  0.50000000  1
  Mn  Mn2  1  0.00000000  0.50000000  0.25000000  1
  Mn  Mn3  1  0.50000000  0.00000000  0.25000000  1
  Mn  Mn4  1  0.50000000  0.00000000  0.75000000  1
  Mn  Mn5  1  0.00000000  0.50000000  0.75000000  1
  Ge  Ge6  1  0.50000000  0.50000000  0.11712800  1
  Ge  Ge7  1  0.00000000  0.00000000  0.38287200  1
  Ge  Ge8  1  0.00000000  0.00000000  0.61712800  1
  Ge  Ge9  1  0.50000000  0.50000000  0.88287200  1
