# generated using pymatgen
data_SrNi5As3
_symmetry_space_group_name_H-M   'P 1'
_cell_length_a   3.76199200
_cell_length_b   12.23808400
_cell_length_c   11.94685200
_cell_angle_alpha   90.00000000
_cell_angle_beta   90.00000000
_cell_angle_gamma   90.00000000
_symmetry_Int_Tables_number   1
_chemical_formula_structural   SrNi5As3
_chemical_formula_sum   'Sr4 Ni20 As12'
_cell_volume   550.02797796
_cell_formula_units_Z   4
loop_
 _symmetry_equiv_pos_site_id
 _symmetry_equiv_pos_as_xyz
  1  'x, y, z'
loop_
 _atom_site_type_symbol
 _atom_site_label
 _atom_site_symmetry_multiplicity
 _atom_site_fract_x
 _atom_site_fract_y
 _atom_site_fract_z
 _atom_site_occupancy
  Sr  Sr0  1  0.50000000  0.33575700  0.75000000  1
  Sr  Sr1  1  0.00000000  0.16424300  0.25000000  1
  Sr  Sr2  1  0.00000000  0.83575700  0.75000000  1
  Sr  Sr3  1  0.50000000  0.66424300  0.25000000  1
  Ni  Ni4  1  0.50000000  0.30683500  0.43299900  1
  Ni  Ni5  1  0.00000000  0.19316500  0.93299900  1
  Ni  Ni6  1  0.00000000  0.00000000  0.50000000  1
  Ni  Ni7  1  0.00000000  0.00000000  0.00000000  1
  Ni  Ni8  1  0.00000000  0.45166400  0.14476200  1
  Ni  Ni9  1  0.50000000  0.04833600  0.85523800  1
  Ni  Ni10  1  0.50000000  0.04833600  0.64476200  1
  Ni  Ni11  1  0.50000000  0.30683500  0.06700100  1
  Ni  Ni12  1  0.00000000  0.19316500  0.56700100  1
  Ni  Ni13  1  0.00000000  0.45166400  0.35523800  1
  Ni  Ni14  1  0.00000000  0.80683500  0.43299900  1
  Ni  Ni15  1  0.50000000  0.69316500  0.93299900  1
  Ni  Ni16  1  0.50000000  0.50000000  0.50000000  1
  Ni  Ni17  1  0.50000000  0.50000000  0.00000000  1
  Ni  Ni18  1  0.50000000  0.95166400  0.14476200  1
  Ni  Ni19  1  0.00000000  0.54833600  0.85523800  1
  Ni  Ni20  1  0.00000000  0.54833600  0.64476200  1
  Ni  Ni21  1  0.00000000  0.80683500  0.06700100  1
  Ni  Ni22  1  0.50000000  0.69316500  0.56700100  1
  Ni  Ni23  1  0.50000000  0.95166400  0.35523800  1
  As  As24  1  0.00000000  0.37907100  0.95923000  1
  As  As25  1  0.50000000  0.38657200  0.25000000  1
  As  As26  1  0.00000000  0.37907100  0.54077000  1
  As  As27  1  0.50000000  0.12092900  0.45923000  1
  As  As28  1  0.00000000  0.11342800  0.75000000  1
  As  As29  1  0.50000000  0.12092900  0.04077000  1
  As  As30  1  0.50000000  0.87907100  0.95923000  1
  As  As31  1  0.00000000  0.88657200  0.25000000  1
  As  As32  1  0.50000000  0.87907100  0.54077000  1
  As  As33  1  0.00000000  0.62092900  0.45923000  1
  As  As34  1  0.50000000  0.61342800  0.75000000  1
  As  As35  1  0.00000000  0.62092900  0.04077000  1
