# generated using pymatgen
data_Mn4SiO7
_symmetry_space_group_name_H-M   'P 1'
_cell_length_a   8.12805293
_cell_length_b   8.12805293
_cell_length_c   4.94015400
_cell_angle_alpha   90.00000000
_cell_angle_beta   90.00000000
_cell_angle_gamma   120.00000000
_symmetry_Int_Tables_number   1
_chemical_formula_structural   Mn4SiO7
_chemical_formula_sum   'Mn8 Si2 O14'
_cell_volume   282.64686003
_cell_formula_units_Z   2
loop_
 _symmetry_equiv_pos_site_id
 _symmetry_equiv_pos_as_xyz
  1  'x, y, z'
loop_
 _atom_site_type_symbol
 _atom_site_label
 _atom_site_symmetry_multiplicity
 _atom_site_fract_x
 _atom_site_fract_y
 _atom_site_fract_z
 _atom_site_occupancy
  Mn  Mn0  1  0.00000000  0.00000000  0.48945400  1
  Mn  Mn1  1  0.70431900  0.59136200  0.99661600  1
  Mn  Mn2  1  0.40863800  0.11295700  0.99661600  1
  Mn  Mn3  1  0.88704300  0.29568100  0.99661600  1
  Mn  Mn4  1  0.00000000  0.00000000  0.98945400  1
  Mn  Mn5  1  0.11295700  0.70431900  0.49661600  1
  Mn  Mn6  1  0.59136200  0.88704300  0.49661600  1
  Mn  Mn7  1  0.29568100  0.40863800  0.49661600  1
  Si  Si8  1  0.33333333  0.66666667  0.06228600  1
  Si  Si9  1  0.66666667  0.33333333  0.56228600  1
  O  O10  1  0.66666667  0.33333333  0.22939700  1
  O  O11  1  0.33333333  0.66666667  0.72939700  1
  O  O12  1  0.15316100  0.94769400  0.73913500  1
  O  O13  1  0.94769400  0.79453300  0.23913500  1
  O  O14  1  0.20546700  0.15316100  0.23913500  1
  O  O15  1  0.79453300  0.84683900  0.73913500  1
  O  O16  1  0.05230600  0.20546700  0.73913500  1
  O  O17  1  0.84683900  0.05230600  0.23913500  1
  O  O18  1  0.37669100  0.87041600  0.20123800  1
  O  O19  1  0.87041600  0.49372500  0.70123800  1
  O  O20  1  0.50627500  0.37669100  0.70123800  1
  O  O21  1  0.49372500  0.62330900  0.20123800  1
  O  O22  1  0.62330900  0.12958400  0.70123800  1
  O  O23  1  0.12958400  0.50627500  0.20123800  1
