# generated using pymatgen
data_Tb2Al6Si4Pt
_symmetry_space_group_name_H-M   'P 1'
_cell_length_a   4.17499189
_cell_length_b   4.17499189
_cell_length_c   50.78743012
_cell_angle_alpha   90.00000000
_cell_angle_beta   90.00000000
_cell_angle_gamma   120.00000000
_symmetry_Int_Tables_number   1
_chemical_formula_structural   Tb2Al6Si4Pt
_chemical_formula_sum   'Tb6 Al18 Si12 Pt3'
_cell_volume   766.65176943
_cell_formula_units_Z   3
loop_
 _symmetry_equiv_pos_site_id
 _symmetry_equiv_pos_as_xyz
  1  'x, y, z'
loop_
 _atom_site_type_symbol
 _atom_site_label
 _atom_site_symmetry_multiplicity
 _atom_site_fract_x
 _atom_site_fract_y
 _atom_site_fract_z
 _atom_site_occupancy
  Tb  Tb0  1  0.33333333  0.66666667  0.23259767  1
  Tb  Tb1  1  0.33333333  0.66666667  0.10073567  1
  Tb  Tb2  1  0.00000000  0.00000000  0.56593100  1
  Tb  Tb3  1  0.00000000  0.00000000  0.43406900  1
  Tb  Tb4  1  0.66666667  0.33333333  0.89926433  1
  Tb  Tb5  1  0.66666667  0.33333333  0.76740233  1
  Al  Al6  1  0.66666667  0.33333333  0.28305333  1
  Al  Al7  1  0.00000000  0.00000000  0.05028000  1
  Al  Al8  1  0.00000000  0.00000000  0.18517400  1
  Al  Al9  1  0.66666667  0.33333333  0.14815933  1
  Al  Al10  1  0.00000000  0.00000000  0.31763900  1
  Al  Al11  1  0.66666667  0.33333333  0.01569433  1
  Al  Al12  1  0.33333333  0.66666667  0.61638667  1
  Al  Al13  1  0.66666667  0.33333333  0.38361333  1
  Al  Al14  1  0.66666667  0.33333333  0.51850733  1
  Al  Al15  1  0.33333333  0.66666667  0.48149267  1
  Al  Al16  1  0.66666667  0.33333333  0.65097233  1
  Al  Al17  1  0.33333333  0.66666667  0.34902767  1
  Al  Al18  1  0.00000000  0.00000000  0.94972000  1
  Al  Al19  1  0.33333333  0.66666667  0.71694667  1
  Al  Al20  1  0.33333333  0.66666667  0.85184067  1
  Al  Al21  1  0.00000000  0.00000000  0.81482600  1
  Al  Al22  1  0.33333333  0.66666667  0.98430567  1
  Al  Al23  1  0.00000000  0.00000000  0.68236100  1
  Si  Si24  1  0.66666667  0.33333333  0.06736733  1
  Si  Si25  1  0.00000000  0.00000000  0.13517900  1
  Si  Si26  1  0.00000000  0.00000000  0.26596600  1
  Si  Si27  1  0.66666667  0.33333333  0.19815433  1
  Si  Si28  1  0.33333333  0.66666667  0.40070067  1
  Si  Si29  1  0.66666667  0.33333333  0.46851233  1
  Si  Si30  1  0.66666667  0.33333333  0.59929933  1
  Si  Si31  1  0.33333333  0.66666667  0.53148767  1
  Si  Si32  1  0.00000000  0.00000000  0.73403400  1
  Si  Si33  1  0.33333333  0.66666667  0.80184567  1
  Si  Si34  1  0.33333333  0.66666667  0.93263267  1
  Si  Si35  1  0.00000000  0.00000000  0.86482100  1
  Pt  Pt36  1  0.00000000  0.00000000  0.00000000  1
  Pt  Pt37  1  0.66666667  0.33333333  0.33333333  1
  Pt  Pt38  1  0.33333333  0.66666667  0.66666667  1
