# generated using pymatgen
data_LaSi4Ni9
_symmetry_space_group_name_H-M   'P 1'
_cell_length_a   7.84555600
_cell_length_b   7.84555600
_cell_length_c   11.43662200
_cell_angle_alpha   90.00000000
_cell_angle_beta   90.00000000
_cell_angle_gamma   90.00000000
_symmetry_Int_Tables_number   1
_chemical_formula_structural   LaSi4Ni9
_chemical_formula_sum   'La4 Si16 Ni36'
_cell_volume   703.95552279
_cell_formula_units_Z   4
loop_
 _symmetry_equiv_pos_site_id
 _symmetry_equiv_pos_as_xyz
  1  'x, y, z'
loop_
 _atom_site_type_symbol
 _atom_site_label
 _atom_site_symmetry_multiplicity
 _atom_site_fract_x
 _atom_site_fract_y
 _atom_site_fract_z
 _atom_site_occupancy
  La  La0  1  0.50000000  0.50000000  0.25000000  1
  La  La1  1  0.00000000  0.00000000  0.25000000  1
  La  La2  1  0.00000000  0.00000000  0.75000000  1
  La  La3  1  0.50000000  0.50000000  0.75000000  1
  Si  Si4  1  0.82972000  0.32972000  0.11728600  1
  Si  Si5  1  0.32972000  0.82972000  0.38271400  1
  Si  Si6  1  0.17028000  0.32972000  0.38271400  1
  Si  Si7  1  0.67028000  0.82972000  0.11728600  1
  Si  Si8  1  0.32972000  0.17028000  0.11728600  1
  Si  Si9  1  0.17028000  0.67028000  0.11728600  1
  Si  Si10  1  0.67028000  0.17028000  0.38271400  1
  Si  Si11  1  0.82972000  0.67028000  0.38271400  1
  Si  Si12  1  0.32972000  0.82972000  0.61728600  1
  Si  Si13  1  0.82972000  0.32972000  0.88271400  1
  Si  Si14  1  0.67028000  0.82972000  0.88271400  1
  Si  Si15  1  0.17028000  0.32972000  0.61728600  1
  Si  Si16  1  0.82972000  0.67028000  0.61728600  1
  Si  Si17  1  0.67028000  0.17028000  0.61728600  1
  Si  Si18  1  0.17028000  0.67028000  0.88271400  1
  Si  Si19  1  0.32972000  0.17028000  0.88271400  1
  Ni  Ni20  1  0.70425400  0.56879800  0.00000000  1
  Ni  Ni21  1  0.93120200  0.79574600  0.00000000  1
  Ni  Ni22  1  0.63092200  0.13092200  0.18482000  1
  Ni  Ni23  1  0.86907800  0.63092200  0.18482000  1
  Ni  Ni24  1  0.29574600  0.43120200  0.00000000  1
  Ni  Ni25  1  0.63092200  0.86907800  0.31518000  1
  Ni  Ni26  1  0.36907800  0.13092200  0.31518000  1
  Ni  Ni27  1  0.13092200  0.63092200  0.31518000  1
  Ni  Ni28  1  0.86907800  0.36907800  0.31518000  1
  Ni  Ni29  1  0.36907800  0.86907800  0.18482000  1
  Ni  Ni30  1  0.00000000  0.50000000  0.00000000  1
  Ni  Ni31  1  0.50000000  0.00000000  0.00000000  1
  Ni  Ni32  1  0.06879800  0.79574600  0.50000000  1
  Ni  Ni33  1  0.20425400  0.93120200  0.00000000  1
  Ni  Ni34  1  0.29574600  0.56879800  0.50000000  1
  Ni  Ni35  1  0.06879800  0.20425400  0.00000000  1
  Ni  Ni36  1  0.13092200  0.36907800  0.18482000  1
  Ni  Ni37  1  0.43120200  0.70425400  0.00000000  1
  Ni  Ni38  1  0.20425400  0.06879800  0.50000000  1
  Ni  Ni39  1  0.43120200  0.29574600  0.50000000  1
  Ni  Ni40  1  0.13092200  0.63092200  0.68482000  1
  Ni  Ni41  1  0.36907800  0.13092200  0.68482000  1
  Ni  Ni42  1  0.79574600  0.93120200  0.50000000  1
  Ni  Ni43  1  0.13092200  0.36907800  0.81518000  1
  Ni  Ni44  1  0.86907800  0.63092200  0.81518000  1
  Ni  Ni45  1  0.63092200  0.13092200  0.81518000  1
  Ni  Ni46  1  0.36907800  0.86907800  0.81518000  1
  Ni  Ni47  1  0.86907800  0.36907800  0.68482000  1
  Ni  Ni48  1  0.50000000  0.00000000  0.50000000  1
  Ni  Ni49  1  0.00000000  0.50000000  0.50000000  1
  Ni  Ni50  1  0.56879800  0.29574600  0.00000000  1
  Ni  Ni51  1  0.70425400  0.43120200  0.50000000  1
  Ni  Ni52  1  0.79574600  0.06879800  0.00000000  1
  Ni  Ni53  1  0.56879800  0.70425400  0.50000000  1
  Ni  Ni54  1  0.63092200  0.86907800  0.68482000  1
  Ni  Ni55  1  0.93120200  0.20425400  0.50000000  1
