# generated using pymatgen
data_Nb5Ga13
_symmetry_space_group_name_H-M   'P 1'
_cell_length_a   3.80573200
_cell_length_b   40.80219000
_cell_length_c   3.79071800
_cell_angle_alpha   90.00000000
_cell_angle_beta   90.00000000
_cell_angle_gamma   90.00000000
_symmetry_Int_Tables_number   1
_chemical_formula_structural   Nb5Ga13
_chemical_formula_sum   'Nb10 Ga26'
_cell_volume   588.63103120
_cell_formula_units_Z   2
loop_
 _symmetry_equiv_pos_site_id
 _symmetry_equiv_pos_as_xyz
  1  'x, y, z'
loop_
 _atom_site_type_symbol
 _atom_site_label
 _atom_site_symmetry_multiplicity
 _atom_site_fract_x
 _atom_site_fract_y
 _atom_site_fract_z
 _atom_site_occupancy
  Nb  Nb0  1  0.50000000  0.39202100  0.50000000  1
  Nb  Nb1  1  0.00000000  0.10797900  0.50000000  1
  Nb  Nb2  1  0.50000000  0.21608500  0.00000000  1
  Nb  Nb3  1  0.00000000  0.28391500  0.00000000  1
  Nb  Nb4  1  0.50000000  0.00000000  0.00000000  1
  Nb  Nb5  1  0.00000000  0.89202100  0.50000000  1
  Nb  Nb6  1  0.50000000  0.60797900  0.50000000  1
  Nb  Nb7  1  0.00000000  0.71608500  0.00000000  1
  Nb  Nb8  1  0.50000000  0.78391500  0.00000000  1
  Nb  Nb9  1  0.00000000  0.50000000  0.00000000  1
  Ga  Ga10  1  0.50000000  0.05485800  0.50000000  1
  Ga  Ga11  1  0.00000000  0.44514200  0.50000000  1
  Ga  Ga12  1  0.50000000  0.16434400  0.50000000  1
  Ga  Ga13  1  0.00000000  0.33565600  0.50000000  1
  Ga  Ga14  1  0.50000000  0.27182100  0.50000000  1
  Ga  Ga15  1  0.00000000  0.00000000  0.50000000  1
  Ga  Ga16  1  0.00000000  0.05461100  0.00000000  1
  Ga  Ga17  1  0.50000000  0.44538900  0.00000000  1
  Ga  Ga18  1  0.00000000  0.16495500  0.00000000  1
  Ga  Ga19  1  0.50000000  0.33504500  0.00000000  1
  Ga  Ga20  1  0.00000000  0.38810700  0.00000000  1
  Ga  Ga21  1  0.50000000  0.11189300  0.00000000  1
  Ga  Ga22  1  0.00000000  0.22817900  0.50000000  1
  Ga  Ga23  1  0.00000000  0.55485800  0.50000000  1
  Ga  Ga24  1  0.50000000  0.94514200  0.50000000  1
  Ga  Ga25  1  0.00000000  0.66434400  0.50000000  1
  Ga  Ga26  1  0.50000000  0.83565600  0.50000000  1
  Ga  Ga27  1  0.00000000  0.77182100  0.50000000  1
  Ga  Ga28  1  0.50000000  0.50000000  0.50000000  1
  Ga  Ga29  1  0.50000000  0.55461100  0.00000000  1
  Ga  Ga30  1  0.00000000  0.94538900  0.00000000  1
  Ga  Ga31  1  0.50000000  0.66495500  0.00000000  1
  Ga  Ga32  1  0.00000000  0.83504500  0.00000000  1
  Ga  Ga33  1  0.50000000  0.88810700  0.00000000  1
  Ga  Ga34  1  0.00000000  0.61189300  0.00000000  1
  Ga  Ga35  1  0.50000000  0.72817900  0.50000000  1
