# generated using pymatgen
data_ThPt
_symmetry_space_group_name_H-M   'P 1'
_cell_length_a   3.93381400
_cell_length_b   11.28072600
_cell_length_c   4.48305800
_cell_angle_alpha   90.00000000
_cell_angle_beta   90.00000000
_cell_angle_gamma   90.00000000
_symmetry_Int_Tables_number   1
_chemical_formula_structural   ThPt
_chemical_formula_sum   'Th4 Pt4'
_cell_volume   198.94142751
_cell_formula_units_Z   4
loop_
 _symmetry_equiv_pos_site_id
 _symmetry_equiv_pos_as_xyz
  1  'x, y, z'
loop_
 _atom_site_type_symbol
 _atom_site_label
 _atom_site_symmetry_multiplicity
 _atom_site_fract_x
 _atom_site_fract_y
 _atom_site_fract_z
 _atom_site_occupancy
  Th  Th0  1  0.50000000  0.63644000  0.25000000  1
  Th  Th1  1  0.00000000  0.86356000  0.75000000  1
  Th  Th2  1  0.00000000  0.13644000  0.25000000  1
  Th  Th3  1  0.50000000  0.36356000  0.75000000  1
  Pt  Pt4  1  0.50000000  0.90384500  0.25000000  1
  Pt  Pt5  1  0.00000000  0.59615500  0.75000000  1
  Pt  Pt6  1  0.00000000  0.40384500  0.25000000  1
  Pt  Pt7  1  0.50000000  0.09615500  0.75000000  1
