# generated using pymatgen
data_Yb2Ge6Pd
_symmetry_space_group_name_H-M   'P 1'
_cell_length_a   8.02920200
_cell_length_b   8.24210400
_cell_length_c   22.55508100
_cell_angle_alpha   90.00000000
_cell_angle_beta   90.00000000
_cell_angle_gamma   90.00000000
_symmetry_Int_Tables_number   1
_chemical_formula_structural   Yb2Ge6Pd
_chemical_formula_sum   'Yb16 Ge48 Pd8'
_cell_volume   1492.63927709
_cell_formula_units_Z   8
loop_
 _symmetry_equiv_pos_site_id
 _symmetry_equiv_pos_as_xyz
  1  'x, y, z'
loop_
 _atom_site_type_symbol
 _atom_site_label
 _atom_site_symmetry_multiplicity
 _atom_site_fract_x
 _atom_site_fract_y
 _atom_site_fract_z
 _atom_site_occupancy
  Yb  Yb0  1  0.37550300  0.24952800  0.08493200  1
  Yb  Yb1  1  0.62449700  0.25047200  0.58493200  1
  Yb  Yb2  1  0.37550300  0.25047200  0.41506800  1
  Yb  Yb3  1  0.62449700  0.24952800  0.91506800  1
  Yb  Yb4  1  0.62449700  0.75047200  0.91506800  1
  Yb  Yb5  1  0.37550300  0.74952800  0.41506800  1
  Yb  Yb6  1  0.62449700  0.74952800  0.58493200  1
  Yb  Yb7  1  0.37550300  0.75047200  0.08493200  1
  Yb  Yb8  1  0.87550300  0.74952800  0.08493200  1
  Yb  Yb9  1  0.12449700  0.75047200  0.58493200  1
  Yb  Yb10  1  0.87550300  0.75047200  0.41506800  1
  Yb  Yb11  1  0.12449700  0.74952800  0.91506800  1
  Yb  Yb12  1  0.12449700  0.25047200  0.91506800  1
  Yb  Yb13  1  0.87550300  0.24952800  0.41506800  1
  Yb  Yb14  1  0.12449700  0.24952800  0.58493200  1
  Yb  Yb15  1  0.87550300  0.25047200  0.08493200  1
  Ge  Ge16  1  0.59629900  0.00000000  0.80547600  1
  Ge  Ge17  1  0.90370100  0.00000000  0.30547600  1
  Ge  Ge18  1  0.09629900  0.00000000  0.69452400  1
  Ge  Ge19  1  0.40370100  0.00000000  0.19452400  1
  Ge  Ge20  1  0.65214200  0.00000000  0.69426500  1
  Ge  Ge21  1  0.84785800  0.00000000  0.19426500  1
  Ge  Ge22  1  0.15214200  0.00000000  0.80573500  1
  Ge  Ge23  1  0.34785800  0.00000000  0.30573500  1
  Ge  Ge24  1  0.87066600  0.00000000  0.96974900  1
  Ge  Ge25  1  0.62933400  0.00000000  0.46974900  1
  Ge  Ge26  1  0.37066600  0.00000000  0.53025100  1
  Ge  Ge27  1  0.12933400  0.00000000  0.03025100  1
  Ge  Ge28  1  0.62562750  0.22593850  0.19492800  1
  Ge  Ge29  1  0.37437250  0.27406150  0.69492800  1
  Ge  Ge30  1  0.62562750  0.27406150  0.30507200  1
  Ge  Ge31  1  0.37437250  0.22593850  0.80507200  1
  Ge  Ge32  1  0.37437250  0.77406150  0.80507200  1
  Ge  Ge33  1  0.62562750  0.72593850  0.30507200  1
  Ge  Ge34  1  0.37437250  0.72593850  0.69492800  1
  Ge  Ge35  1  0.62562750  0.77406150  0.19492800  1
  Ge  Ge36  1  0.12170700  0.00000000  0.46431200  1
  Ge  Ge37  1  0.37829300  0.00000000  0.96431200  1
  Ge  Ge38  1  0.62170700  0.00000000  0.03568800  1
  Ge  Ge39  1  0.87829300  0.00000000  0.53568800  1
  Ge  Ge40  1  0.09629900  0.50000000  0.80547600  1
  Ge  Ge41  1  0.40370100  0.50000000  0.30547600  1
  Ge  Ge42  1  0.59629900  0.50000000  0.69452400  1
  Ge  Ge43  1  0.90370100  0.50000000  0.19452400  1
  Ge  Ge44  1  0.15214200  0.50000000  0.69426500  1
  Ge  Ge45  1  0.34785800  0.50000000  0.19426500  1
  Ge  Ge46  1  0.65214200  0.50000000  0.80573500  1
  Ge  Ge47  1  0.84785800  0.50000000  0.30573500  1
  Ge  Ge48  1  0.37066600  0.50000000  0.96974900  1
  Ge  Ge49  1  0.12933400  0.50000000  0.46974900  1
  Ge  Ge50  1  0.87066600  0.50000000  0.53025100  1
  Ge  Ge51  1  0.62933400  0.50000000  0.03025100  1
  Ge  Ge52  1  0.12562750  0.72593850  0.19492800  1
  Ge  Ge53  1  0.87437250  0.77406150  0.69492800  1
  Ge  Ge54  1  0.12562750  0.77406150  0.30507200  1
  Ge  Ge55  1  0.87437250  0.72593850  0.80507200  1
  Ge  Ge56  1  0.87437250  0.27406150  0.80507200  1
  Ge  Ge57  1  0.12562750  0.22593850  0.30507200  1
  Ge  Ge58  1  0.87437250  0.22593850  0.69492800  1
  Ge  Ge59  1  0.12562750  0.27406150  0.19492800  1
  Ge  Ge60  1  0.62170700  0.50000000  0.46431200  1
  Ge  Ge61  1  0.87829300  0.50000000  0.96431200  1
  Ge  Ge62  1  0.12170700  0.50000000  0.03568800  1
  Ge  Ge63  1  0.37829300  0.50000000  0.53568800  1
  Pd  Pd64  1  0.87427300  0.00000000  0.85944800  1
  Pd  Pd65  1  0.62572700  0.00000000  0.35944800  1
  Pd  Pd66  1  0.37427300  0.00000000  0.64055200  1
  Pd  Pd67  1  0.12572700  0.00000000  0.14055200  1
  Pd  Pd68  1  0.37427300  0.50000000  0.85944800  1
  Pd  Pd69  1  0.12572700  0.50000000  0.35944800  1
  Pd  Pd70  1  0.87427300  0.50000000  0.64055200  1
  Pd  Pd71  1  0.62572700  0.50000000  0.14055200  1
