# generated using pymatgen
data_Fe(PdSe)2
_symmetry_space_group_name_H-M   'P 1'
_cell_length_a   5.09937400
_cell_length_b   5.95015400
_cell_length_c   10.70941200
_cell_angle_alpha   90.00000000
_cell_angle_beta   90.00000000
_cell_angle_gamma   90.00000000
_symmetry_Int_Tables_number   1
_chemical_formula_structural   Fe(PdSe)2
_chemical_formula_sum   'Fe4 Pd8 Se8'
_cell_volume   324.94562793
_cell_formula_units_Z   4
loop_
 _symmetry_equiv_pos_site_id
 _symmetry_equiv_pos_as_xyz
  1  'x, y, z'
loop_
 _atom_site_type_symbol
 _atom_site_label
 _atom_site_symmetry_multiplicity
 _atom_site_fract_x
 _atom_site_fract_y
 _atom_site_fract_z
 _atom_site_occupancy
  Fe  Fe0  1  0.25000000  0.00000000  0.00000000  1
  Fe  Fe1  1  0.75000000  0.00000000  0.00000000  1
  Fe  Fe2  1  0.75000000  0.50000000  0.50000000  1
  Fe  Fe3  1  0.25000000  0.50000000  0.50000000  1
  Pd  Pd4  1  0.00000000  0.38002100  0.11131000  1
  Pd  Pd5  1  0.50000000  0.11997900  0.38869000  1
  Pd  Pd6  1  0.00000000  0.88002100  0.38869000  1
  Pd  Pd7  1  0.50000000  0.61997900  0.11131000  1
  Pd  Pd8  1  0.50000000  0.88002100  0.61131000  1
  Pd  Pd9  1  0.00000000  0.61997900  0.88869000  1
  Pd  Pd10  1  0.50000000  0.38002100  0.88869000  1
  Pd  Pd11  1  0.00000000  0.11997900  0.61131000  1
  Se  Se12  1  0.00000000  0.29818900  0.35606500  1
  Se  Se13  1  0.50000000  0.20181100  0.14393500  1
  Se  Se14  1  0.50000000  0.70181100  0.35606500  1
  Se  Se15  1  0.00000000  0.79818900  0.14393500  1
  Se  Se16  1  0.50000000  0.79818900  0.85606500  1
  Se  Se17  1  0.00000000  0.70181100  0.64393500  1
  Se  Se18  1  0.00000000  0.20181100  0.85606500  1
  Se  Se19  1  0.50000000  0.29818900  0.64393500  1
