# generated using pymatgen
data_V5S4
_symmetry_space_group_name_H-M   'P 1'
_cell_length_a   8.99118200
_cell_length_b   8.99118200
_cell_length_c   3.15671000
_cell_angle_alpha   90.00000000
_cell_angle_beta   90.00000000
_cell_angle_gamma   90.00000000
_symmetry_Int_Tables_number   1
_chemical_formula_structural   V5S4
_chemical_formula_sum   'V10 S8'
_cell_volume   255.19270982
_cell_formula_units_Z   2
loop_
 _symmetry_equiv_pos_site_id
 _symmetry_equiv_pos_as_xyz
  1  'x, y, z'
loop_
 _atom_site_type_symbol
 _atom_site_label
 _atom_site_symmetry_multiplicity
 _atom_site_fract_x
 _atom_site_fract_y
 _atom_site_fract_z
 _atom_site_occupancy
  V  V0  1  0.37901450  0.29990950  0.00000000  1
  V  V1  1  0.79990950  0.12098550  0.50000000  1
  V  V2  1  0.00000000  0.00000000  0.00000000  1
  V  V3  1  0.62098550  0.70009050  0.00000000  1
  V  V4  1  0.20009050  0.87901450  0.50000000  1
  V  V5  1  0.87901450  0.79990950  0.50000000  1
  V  V6  1  0.29990950  0.62098550  0.00000000  1
  V  V7  1  0.50000000  0.50000000  0.50000000  1
  V  V8  1  0.12098550  0.20009050  0.50000000  1
  V  V9  1  0.70009050  0.37901450  0.00000000  1
  S  S10  1  0.72842550  0.93621250  0.00000000  1
  S  S11  1  0.43621250  0.77157450  0.50000000  1
  S  S12  1  0.27157450  0.06378750  0.00000000  1
  S  S13  1  0.56378750  0.22842550  0.50000000  1
  S  S14  1  0.22842550  0.43621250  0.50000000  1
  S  S15  1  0.93621250  0.27157450  0.00000000  1
  S  S16  1  0.77157450  0.56378750  0.50000000  1
  S  S17  1  0.06378750  0.72842550  0.00000000  1
