# generated using pymatgen
data_La5Si3
_symmetry_space_group_name_H-M   'P 1'
_cell_length_a   8.00802200
_cell_length_b   8.00802200
_cell_length_c   13.89837200
_cell_angle_alpha   90.00000000
_cell_angle_beta   90.00000000
_cell_angle_gamma   90.00000000
_symmetry_Int_Tables_number   1
_chemical_formula_structural   La5Si3
_chemical_formula_sum   'La20 Si12'
_cell_volume   891.28058624
_cell_formula_units_Z   4
loop_
 _symmetry_equiv_pos_site_id
 _symmetry_equiv_pos_as_xyz
  1  'x, y, z'
loop_
 _atom_site_type_symbol
 _atom_site_label
 _atom_site_symmetry_multiplicity
 _atom_site_fract_x
 _atom_site_fract_y
 _atom_site_fract_z
 _atom_site_occupancy
  La  La0  1  0.82073750  0.67926250  0.35296900  1
  La  La1  1  0.67926250  0.17926250  0.35296900  1
  La  La2  1  0.32073750  0.82073750  0.35296900  1
  La  La3  1  0.82073750  0.32073750  0.14703100  1
  La  La4  1  0.17926250  0.32073750  0.35296900  1
  La  La5  1  0.67926250  0.82073750  0.14703100  1
  La  La6  1  0.32073750  0.17926250  0.14703100  1
  La  La7  1  0.17926250  0.67926250  0.14703100  1
  La  La8  1  0.50000000  0.50000000  0.00000000  1
  La  La9  1  0.00000000  0.00000000  0.00000000  1
  La  La10  1  0.32073750  0.17926250  0.85296900  1
  La  La11  1  0.17926250  0.67926250  0.85296900  1
  La  La12  1  0.82073750  0.32073750  0.85296900  1
  La  La13  1  0.32073750  0.82073750  0.64703100  1
  La  La14  1  0.67926250  0.82073750  0.85296900  1
  La  La15  1  0.17926250  0.32073750  0.64703100  1
  La  La16  1  0.82073750  0.67926250  0.64703100  1
  La  La17  1  0.67926250  0.17926250  0.64703100  1
  La  La18  1  0.00000000  0.00000000  0.50000000  1
  La  La19  1  0.50000000  0.50000000  0.50000000  1
  Si  Si20  1  0.61290900  0.11290900  0.00000000  1
  Si  Si21  1  0.88709100  0.61290900  0.00000000  1
  Si  Si22  1  0.11290900  0.38709100  0.00000000  1
  Si  Si23  1  0.88709100  0.38709100  0.50000000  1
  Si  Si24  1  0.50000000  0.50000000  0.25000000  1
  Si  Si25  1  0.00000000  0.00000000  0.25000000  1
  Si  Si26  1  0.11290900  0.61290900  0.50000000  1
  Si  Si27  1  0.38709100  0.11290900  0.50000000  1
  Si  Si28  1  0.61290900  0.88709100  0.50000000  1
  Si  Si29  1  0.38709100  0.88709100  0.00000000  1
  Si  Si30  1  0.00000000  0.00000000  0.75000000  1
  Si  Si31  1  0.50000000  0.50000000  0.75000000  1
