# generated using pymatgen
data_ScSi7Rh3
_symmetry_space_group_name_H-M   'P 1'
_cell_length_a   7.56823026
_cell_length_b   7.56823026
_cell_length_c   19.81952070
_cell_angle_alpha   90.00000000
_cell_angle_beta   90.00000000
_cell_angle_gamma   120.00000000
_symmetry_Int_Tables_number   1
_chemical_formula_structural   ScSi7Rh3
_chemical_formula_sum   'Sc6 Si42 Rh18'
_cell_volume   983.13340605
_cell_formula_units_Z   6
loop_
 _symmetry_equiv_pos_site_id
 _symmetry_equiv_pos_as_xyz
  1  'x, y, z'
loop_
 _atom_site_type_symbol
 _atom_site_label
 _atom_site_symmetry_multiplicity
 _atom_site_fract_x
 _atom_site_fract_y
 _atom_site_fract_z
 _atom_site_occupancy
  Sc  Sc0  1  0.00000000  0.00000000  0.00000000  1
  Sc  Sc1  1  0.33333333  0.66666667  0.16666667  1
  Sc  Sc2  1  0.66666667  0.33333333  0.33333333  1
  Sc  Sc3  1  0.00000000  0.00000000  0.50000000  1
  Sc  Sc4  1  0.33333333  0.66666667  0.66666667  1
  Sc  Sc5  1  0.66666667  0.33333333  0.83333333  1
  Si  Si6  1  0.00000000  0.00000000  0.25000000  1
  Si  Si7  1  0.66666667  0.33333333  0.08333333  1
  Si  Si8  1  0.19108700  0.98810900  0.13658400  1
  Si  Si9  1  0.79702200  0.80891300  0.13658400  1
  Si  Si10  1  0.01189100  0.20297800  0.13658400  1
  Si  Si11  1  0.53631133  0.67855767  0.03008267  1
  Si  Si12  1  0.14224633  0.46368867  0.03008267  1
  Si  Si13  1  0.32144233  0.85775367  0.03008267  1
  Si  Si14  1  0.34522433  0.47557967  0.30325067  1
  Si  Si15  1  0.52442033  0.86964467  0.30325067  1
  Si  Si16  1  0.13035533  0.65477567  0.30325067  1
  Si  Si17  1  0.65477567  0.13035533  0.19674933  1
  Si  Si18  1  0.86964467  0.52442033  0.19674933  1
  Si  Si19  1  0.47557967  0.34522433  0.19674933  1
  Si  Si20  1  0.66666667  0.33333333  0.58333333  1
  Si  Si21  1  0.33333333  0.66666667  0.41666667  1
  Si  Si22  1  0.85775367  0.32144233  0.46991733  1
  Si  Si23  1  0.46368867  0.14224633  0.46991733  1
  Si  Si24  1  0.67855767  0.53631133  0.46991733  1
  Si  Si25  1  0.20297800  0.01189100  0.36341600  1
  Si  Si26  1  0.80891300  0.79702200  0.36341600  1
  Si  Si27  1  0.98810900  0.19108700  0.36341600  1
  Si  Si28  1  0.01189100  0.80891300  0.63658400  1
  Si  Si29  1  0.19108700  0.20297800  0.63658400  1
  Si  Si30  1  0.79702200  0.98810900  0.63658400  1
  Si  Si31  1  0.32144233  0.46368867  0.53008267  1
  Si  Si32  1  0.53631133  0.85775367  0.53008267  1
  Si  Si33  1  0.14224633  0.67855767  0.53008267  1
  Si  Si34  1  0.33333333  0.66666667  0.91666667  1
  Si  Si35  1  0.00000000  0.00000000  0.75000000  1
  Si  Si36  1  0.52442033  0.65477567  0.80325067  1
  Si  Si37  1  0.13035533  0.47557967  0.80325067  1
  Si  Si38  1  0.34522433  0.86964467  0.80325067  1
  Si  Si39  1  0.86964467  0.34522433  0.69674933  1
  Si  Si40  1  0.47557967  0.13035533  0.69674933  1
  Si  Si41  1  0.65477567  0.52442033  0.69674933  1
  Si  Si42  1  0.67855767  0.14224633  0.96991733  1
  Si  Si43  1  0.85775367  0.53631133  0.96991733  1
  Si  Si44  1  0.46368867  0.32144233  0.96991733  1
  Si  Si45  1  0.98810900  0.79702200  0.86341600  1
  Si  Si46  1  0.20297800  0.19108700  0.86341600  1
  Si  Si47  1  0.80891300  0.01189100  0.86341600  1
  Rh  Rh48  1  0.00000000  0.32203100  0.25000000  1
  Rh  Rh49  1  0.34463567  0.33333333  0.08333333  1
  Rh  Rh50  1  0.98869767  0.65536433  0.08333333  1
  Rh  Rh51  1  0.66666667  0.01130233  0.08333333  1
  Rh  Rh52  1  0.67796900  0.67796900  0.25000000  1
  Rh  Rh53  1  0.32203100  0.00000000  0.25000000  1
  Rh  Rh54  1  0.66666667  0.65536433  0.58333333  1
  Rh  Rh55  1  0.01130233  0.66666667  0.41666667  1
  Rh  Rh56  1  0.65536433  0.98869767  0.41666667  1
  Rh  Rh57  1  0.33333333  0.34463567  0.41666667  1
  Rh  Rh58  1  0.34463567  0.01130233  0.58333333  1
  Rh  Rh59  1  0.98869767  0.33333333  0.58333333  1
  Rh  Rh60  1  0.33333333  0.98869767  0.91666667  1
  Rh  Rh61  1  0.67796900  0.00000000  0.75000000  1
  Rh  Rh62  1  0.32203100  0.32203100  0.75000000  1
  Rh  Rh63  1  0.00000000  0.67796900  0.75000000  1
  Rh  Rh64  1  0.01130233  0.34463567  0.91666667  1
  Rh  Rh65  1  0.65536433  0.66666667  0.91666667  1
