# generated using pymatgen
data_YbAu4
_symmetry_space_group_name_H-M   'P 1'
_cell_length_a   6.69199200
_cell_length_b   6.69199200
_cell_length_c   4.33915600
_cell_angle_alpha   90.00000000
_cell_angle_beta   90.00000000
_cell_angle_gamma   90.00000000
_symmetry_Int_Tables_number   1
_chemical_formula_structural   YbAu4
_chemical_formula_sum   'Yb2 Au8'
_cell_volume   194.31936842
_cell_formula_units_Z   2
loop_
 _symmetry_equiv_pos_site_id
 _symmetry_equiv_pos_as_xyz
  1  'x, y, z'
loop_
 _atom_site_type_symbol
 _atom_site_label
 _atom_site_symmetry_multiplicity
 _atom_site_fract_x
 _atom_site_fract_y
 _atom_site_fract_z
 _atom_site_occupancy
  Yb  Yb0  1  0.00000000  0.00000000  0.00000000  1
  Yb  Yb1  1  0.50000000  0.50000000  0.50000000  1
  Au  Au2  1  0.59329700  0.80032800  0.00000000  1
  Au  Au3  1  0.40670300  0.19967200  0.00000000  1
  Au  Au4  1  0.30032800  0.90670300  0.50000000  1
  Au  Au5  1  0.69967200  0.09329700  0.50000000  1
  Au  Au6  1  0.09329700  0.30032800  0.50000000  1
  Au  Au7  1  0.90670300  0.69967200  0.50000000  1
  Au  Au8  1  0.80032800  0.40670300  0.00000000  1
  Au  Au9  1  0.19967200  0.59329700  0.00000000  1
