# generated using pymatgen
data_Gd3OsO7
_symmetry_space_group_name_H-M   'P 1'
_cell_length_a   7.43418786
_cell_length_b   10.72701519
_cell_length_c   7.44682300
_cell_angle_alpha   90.00000000
_cell_angle_beta   90.00000000
_cell_angle_gamma   90.00000000
_symmetry_Int_Tables_number   1
_chemical_formula_structural   Gd3OsO7
_chemical_formula_sum   'Gd12 Os4 O28'
_cell_volume   593.85915832
_cell_formula_units_Z   4
loop_
 _symmetry_equiv_pos_site_id
 _symmetry_equiv_pos_as_xyz
  1  'x, y, z'
loop_
 _atom_site_type_symbol
 _atom_site_label
 _atom_site_symmetry_multiplicity
 _atom_site_fract_x
 _atom_site_fract_y
 _atom_site_fract_z
 _atom_site_occupancy
  Gd  Gd0  1  0.29468500  0.77183700  0.25000000  1
  Gd  Gd1  1  0.70531500  0.22816300  0.75000000  1
  Gd  Gd2  1  0.29468500  0.22816300  0.25000000  1
  Gd  Gd3  1  0.00000000  0.00000000  0.00000000  1
  Gd  Gd4  1  0.70531500  0.77183700  0.75000000  1
  Gd  Gd5  1  0.00000000  0.00000000  0.50000000  1
  Gd  Gd6  1  0.79468500  0.27183700  0.25000000  1
  Gd  Gd7  1  0.20531500  0.72816300  0.75000000  1
  Gd  Gd8  1  0.79468500  0.72816300  0.25000000  1
  Gd  Gd9  1  0.50000000  0.50000000  0.00000000  1
  Gd  Gd10  1  0.20531500  0.27183700  0.75000000  1
  Gd  Gd11  1  0.50000000  0.50000000  0.50000000  1
  Os  Os12  1  0.50000000  0.00000000  0.50000000  1
  Os  Os13  1  0.50000000  0.00000000  0.00000000  1
  Os  Os14  1  0.00000000  0.50000000  0.50000000  1
  Os  Os15  1  0.00000000  0.50000000  0.00000000  1
  O  O16  1  0.69093100  0.87258200  0.03719400  1
  O  O17  1  0.30906900  0.12741800  0.96280600  1
  O  O18  1  0.57587300  0.00000000  0.75000000  1
  O  O19  1  0.69093100  0.87258200  0.46280600  1
  O  O20  1  0.30906900  0.87258200  0.96280600  1
  O  O21  1  0.42412700  0.00000000  0.25000000  1
  O  O22  1  0.47533150  0.36772450  0.75000000  1
  O  O23  1  0.69093100  0.12741800  0.03719400  1
  O  O24  1  0.52466850  0.36772450  0.25000000  1
  O  O25  1  0.47533150  0.63227550  0.75000000  1
  O  O26  1  0.30906900  0.12741800  0.53719400  1
  O  O27  1  0.30906900  0.87258200  0.53719400  1
  O  O28  1  0.69093100  0.12741800  0.46280600  1
  O  O29  1  0.52466850  0.63227550  0.25000000  1
  O  O30  1  0.19093100  0.37258200  0.03719400  1
  O  O31  1  0.80906900  0.62741800  0.96280600  1
  O  O32  1  0.07587300  0.50000000  0.75000000  1
  O  O33  1  0.19093100  0.37258200  0.46280600  1
  O  O34  1  0.80906900  0.37258200  0.96280600  1
  O  O35  1  0.92412700  0.50000000  0.25000000  1
  O  O36  1  0.97533150  0.86772450  0.75000000  1
  O  O37  1  0.19093100  0.62741800  0.03719400  1
  O  O38  1  0.02466850  0.86772450  0.25000000  1
  O  O39  1  0.97533150  0.13227550  0.75000000  1
  O  O40  1  0.80906900  0.62741800  0.53719400  1
  O  O41  1  0.80906900  0.37258200  0.53719400  1
  O  O42  1  0.19093100  0.62741800  0.46280600  1
  O  O43  1  0.02466850  0.13227550  0.25000000  1
