# generated using pymatgen
data_Ba2Mn3(SbO)2
_symmetry_space_group_name_H-M   'P 1'
_cell_length_a   4.43449637
_cell_length_b   4.43449637
_cell_length_c   21.30477374
_cell_angle_alpha   90.00000000
_cell_angle_beta   90.00000000
_cell_angle_gamma   90.00000000
_symmetry_Int_Tables_number   1
_chemical_formula_structural   Ba2Mn3(SbO)2
_chemical_formula_sum   'Ba4 Mn6 Sb4 O4'
_cell_volume   418.95322166
_cell_formula_units_Z   2
loop_
 _symmetry_equiv_pos_site_id
 _symmetry_equiv_pos_as_xyz
  1  'x, y, z'
loop_
 _atom_site_type_symbol
 _atom_site_label
 _atom_site_symmetry_multiplicity
 _atom_site_fract_x
 _atom_site_fract_y
 _atom_site_fract_z
 _atom_site_occupancy
  Ba  Ba0  1  0.00000000  0.00000000  0.58174850  1
  Ba  Ba1  1  0.50000000  0.50000000  0.91825150  1
  Ba  Ba2  1  0.50000000  0.50000000  0.08174850  1
  Ba  Ba3  1  0.00000000  0.00000000  0.41825150  1
  Mn  Mn4  1  0.00000000  0.00000000  0.00000000  1
  Mn  Mn5  1  0.50000000  0.00000000  0.75000000  1
  Mn  Mn6  1  0.00000000  0.50000000  0.75000000  1
  Mn  Mn7  1  0.50000000  0.50000000  0.50000000  1
  Mn  Mn8  1  0.00000000  0.50000000  0.25000000  1
  Mn  Mn9  1  0.50000000  0.00000000  0.25000000  1
  Sb  Sb10  1  0.50000000  0.50000000  0.66773600  1
  Sb  Sb11  1  0.00000000  0.00000000  0.83226400  1
  Sb  Sb12  1  0.00000000  0.00000000  0.16773600  1
  Sb  Sb13  1  0.50000000  0.50000000  0.33226400  1
  O  O14  1  0.50000000  0.00000000  0.50000000  1
  O  O15  1  0.00000000  0.50000000  0.50000000  1
  O  O16  1  0.00000000  0.50000000  0.00000000  1
  O  O17  1  0.50000000  0.00000000  0.00000000  1
