# generated using pymatgen
data_TmFeGe2O7
_symmetry_space_group_name_H-M   'P 1'
_cell_length_a   10.79670600
_cell_length_b   8.72284400
_cell_length_c   6.63327428
_cell_angle_alpha   90.00000000
_cell_angle_beta   116.29875967
_cell_angle_gamma   90.00000000
_symmetry_Int_Tables_number   1
_chemical_formula_structural   TmFeGe2O7
_chemical_formula_sum   'Tm4 Fe4 Ge8 O28'
_cell_volume   560.04858317
_cell_formula_units_Z   4
loop_
 _symmetry_equiv_pos_site_id
 _symmetry_equiv_pos_as_xyz
  1  'x, y, z'
loop_
 _atom_site_type_symbol
 _atom_site_label
 _atom_site_symmetry_multiplicity
 _atom_site_fract_x
 _atom_site_fract_y
 _atom_site_fract_z
 _atom_site_occupancy
  Tm  Tm0  1  0.00000000  0.79907800  0.00000000  1
  Tm  Tm1  1  0.00000000  0.20092200  0.00000000  1
  Tm  Tm2  1  0.50000000  0.29907800  0.00000000  1
  Tm  Tm3  1  0.50000000  0.70092200  0.00000000  1
  Fe  Fe4  1  0.00000000  0.69640000  0.50000000  1
  Fe  Fe5  1  0.00000000  0.30360000  0.50000000  1
  Fe  Fe6  1  0.50000000  0.19640000  0.50000000  1
  Fe  Fe7  1  0.50000000  0.80360000  0.50000000  1
  Ge  Ge8  1  0.71637500  0.50000000  0.51176200  1
  Ge  Ge9  1  0.28362500  0.50000000  0.48823800  1
  Ge  Ge10  1  0.80463700  0.50000000  0.07836700  1
  Ge  Ge11  1  0.19536300  0.50000000  0.92163300  1
  Ge  Ge12  1  0.21637500  0.00000000  0.51176200  1
  Ge  Ge13  1  0.78362500  0.00000000  0.48823800  1
  Ge  Ge14  1  0.30463700  0.00000000  0.07836700  1
  Ge  Ge15  1  0.69536300  0.00000000  0.92163300  1
  O  O16  1  0.89033450  0.83609950  0.60270500  1
  O  O17  1  0.10966550  0.83609950  0.39729500  1
  O  O18  1  0.10966550  0.16390050  0.39729500  1
  O  O19  1  0.89033450  0.16390050  0.60270500  1
  O  O20  1  0.13624300  0.50000000  0.54858400  1
  O  O21  1  0.86375700  0.50000000  0.45141600  1
  O  O22  1  0.36842300  0.50000000  0.96754200  1
  O  O23  1  0.63157700  0.50000000  0.03245800  1
  O  O24  1  0.10593050  0.32340150  0.83269800  1
  O  O25  1  0.89406950  0.32340150  0.16730200  1
  O  O26  1  0.10593050  0.67659850  0.83269800  1
  O  O27  1  0.89406950  0.67659850  0.16730200  1
  O  O28  1  0.18903800  0.50000000  0.19199700  1
  O  O29  1  0.81096200  0.50000000  0.80800300  1
  O  O30  1  0.39033450  0.33609950  0.60270500  1
  O  O31  1  0.60966550  0.33609950  0.39729500  1
  O  O32  1  0.60966550  0.66390050  0.39729500  1
  O  O33  1  0.39033450  0.66390050  0.60270500  1
  O  O34  1  0.63624300  0.00000000  0.54858400  1
  O  O35  1  0.36375700  0.00000000  0.45141600  1
  O  O36  1  0.86842300  0.00000000  0.96754200  1
  O  O37  1  0.13157700  0.00000000  0.03245800  1
  O  O38  1  0.60593050  0.82340150  0.83269800  1
  O  O39  1  0.39406950  0.82340150  0.16730200  1
  O  O40  1  0.60593050  0.17659850  0.83269800  1
  O  O41  1  0.39406950  0.17659850  0.16730200  1
  O  O42  1  0.68903800  0.00000000  0.19199700  1
  O  O43  1  0.31096200  0.00000000  0.80800300  1
