# generated using pymatgen
data_K3Na(WO4)2
_symmetry_space_group_name_H-M   'P 1'
_cell_length_a   10.78463400
_cell_length_b   6.17365400
_cell_length_c   15.62695708
_cell_angle_alpha   90.00000000
_cell_angle_beta   90.30819768
_cell_angle_gamma   90.00000000
_symmetry_Int_Tables_number   1
_chemical_formula_structural   K3Na(WO4)2
_chemical_formula_sum   'K12 Na4 W8 O32'
_cell_volume   1040.43710778
_cell_formula_units_Z   4
loop_
 _symmetry_equiv_pos_site_id
 _symmetry_equiv_pos_as_xyz
  1  'x, y, z'
loop_
 _atom_site_type_symbol
 _atom_site_label
 _atom_site_symmetry_multiplicity
 _atom_site_fract_x
 _atom_site_fract_y
 _atom_site_fract_z
 _atom_site_occupancy
  K  K0  1  0.00000000  0.06153100  0.25000000  1
  K  K1  1  0.00000000  0.93846900  0.75000000  1
  K  K2  1  0.67138950  0.02345550  0.08876900  1
  K  K3  1  0.82861050  0.52345550  0.41123100  1
  K  K4  1  0.82861050  0.47654450  0.91123100  1
  K  K5  1  0.67138950  0.97654450  0.58876900  1
  K  K6  1  0.50000000  0.56153100  0.25000000  1
  K  K7  1  0.50000000  0.43846900  0.75000000  1
  K  K8  1  0.17138950  0.52345550  0.08876900  1
  K  K9  1  0.32861050  0.02345550  0.41123100  1
  K  K10  1  0.32861050  0.97654450  0.91123100  1
  K  K11  1  0.17138950  0.47654450  0.58876900  1
  Na  Na12  1  0.00000000  0.00000000  0.50000000  1
  Na  Na13  1  0.00000000  0.00000000  0.00000000  1
  Na  Na14  1  0.50000000  0.50000000  0.50000000  1
  Na  Na15  1  0.50000000  0.50000000  0.00000000  1
  W  W16  1  0.66069500  0.02271000  0.36374900  1
  W  W17  1  0.83930500  0.52271000  0.13625100  1
  W  W18  1  0.83930500  0.47729000  0.63625100  1
  W  W19  1  0.66069500  0.97729000  0.86374900  1
  W  W20  1  0.16069500  0.52271000  0.36374900  1
  W  W21  1  0.33930500  0.02271000  0.13625100  1
  W  W22  1  0.33930500  0.97729000  0.63625100  1
  W  W23  1  0.16069500  0.47729000  0.86374900  1
  O  O24  1  0.81378450  0.04443150  0.41057000  1
  O  O25  1  0.68621550  0.54443150  0.08943000  1
  O  O26  1  0.68621550  0.45556850  0.58943000  1
  O  O27  1  0.81378450  0.95556850  0.91057000  1
  O  O28  1  0.57953850  0.27624950  0.37717600  1
  O  O29  1  0.92046150  0.77624950  0.12282400  1
  O  O30  1  0.92046150  0.22375050  0.62282400  1
  O  O31  1  0.57953850  0.72375050  0.87717600  1
  O  O32  1  0.57956350  0.81641050  0.42338700  1
  O  O33  1  0.92043650  0.31641050  0.07661300  1
  O  O34  1  0.92043650  0.68358950  0.57661300  1
  O  O35  1  0.57956350  0.18358950  0.92338700  1
  O  O36  1  0.66825400  0.06200900  0.75402200  1
  O  O37  1  0.83174600  0.56200900  0.74597800  1
  O  O38  1  0.83174600  0.43799100  0.24597800  1
  O  O39  1  0.66825400  0.93799100  0.25402200  1
  O  O40  1  0.31378450  0.54443150  0.41057000  1
  O  O41  1  0.18621550  0.04443150  0.08943000  1
  O  O42  1  0.18621550  0.95556850  0.58943000  1
  O  O43  1  0.31378450  0.45556850  0.91057000  1
  O  O44  1  0.07953850  0.77624950  0.37717600  1
  O  O45  1  0.42046150  0.27624950  0.12282400  1
  O  O46  1  0.42046150  0.72375050  0.62282400  1
  O  O47  1  0.07953850  0.22375050  0.87717600  1
  O  O48  1  0.07956350  0.31641050  0.42338700  1
  O  O49  1  0.42043650  0.81641050  0.07661300  1
  O  O50  1  0.42043650  0.18358950  0.57661300  1
  O  O51  1  0.07956350  0.68358950  0.92338700  1
  O  O52  1  0.16825400  0.56200900  0.75402200  1
  O  O53  1  0.33174600  0.06200900  0.74597800  1
  O  O54  1  0.33174600  0.93799100  0.24597800  1
  O  O55  1  0.16825400  0.43799100  0.25402200  1
