# generated using pymatgen
data_Er(FeO2)2
_symmetry_space_group_name_H-M   'P 1'
_cell_length_a   3.48491006
_cell_length_b   3.48491006
_cell_length_c   25.38648319
_cell_angle_alpha   90.00000000
_cell_angle_beta   90.00000000
_cell_angle_gamma   120.00000000
_symmetry_Int_Tables_number   1
_chemical_formula_structural   Er(FeO2)2
_chemical_formula_sum   'Er3 Fe6 O12'
_cell_volume   267.00311073
_cell_formula_units_Z   3
loop_
 _symmetry_equiv_pos_site_id
 _symmetry_equiv_pos_as_xyz
  1  'x, y, z'
loop_
 _atom_site_type_symbol
 _atom_site_label
 _atom_site_symmetry_multiplicity
 _atom_site_fract_x
 _atom_site_fract_y
 _atom_site_fract_z
 _atom_site_occupancy
  Er  Er0  1  0.00000000  0.00000000  0.00000000  1
  Er  Er1  1  0.66666667  0.33333333  0.33333333  1
  Er  Er2  1  0.33333333  0.66666667  0.66666667  1
  Fe  Fe3  1  0.00000000  0.00000000  0.21364500  1
  Fe  Fe4  1  0.66666667  0.33333333  0.11968833  1
  Fe  Fe5  1  0.66666667  0.33333333  0.54697833  1
  Fe  Fe6  1  0.33333333  0.66666667  0.45302167  1
  Fe  Fe7  1  0.33333333  0.66666667  0.88031167  1
  Fe  Fe8  1  0.00000000  0.00000000  0.78635500  1
  O  O9  1  0.00000000  0.00000000  0.12853300  1
  O  O10  1  0.66666667  0.33333333  0.20480033  1
  O  O11  1  0.00000000  0.00000000  0.29203400  1
  O  O12  1  0.66666667  0.33333333  0.04129933  1
  O  O13  1  0.66666667  0.33333333  0.46186633  1
  O  O14  1  0.33333333  0.66666667  0.53813367  1
  O  O15  1  0.66666667  0.33333333  0.62536733  1
  O  O16  1  0.33333333  0.66666667  0.37463267  1
  O  O17  1  0.33333333  0.66666667  0.79519967  1
  O  O18  1  0.00000000  0.00000000  0.87146700  1
  O  O19  1  0.33333333  0.66666667  0.95870067  1
  O  O20  1  0.00000000  0.00000000  0.70796600  1
