# generated using pymatgen
data_Al3Au8
_symmetry_space_group_name_H-M   'P 1'
_cell_length_a   7.84360637
_cell_length_b   7.84360637
_cell_length_c   42.89415110
_cell_angle_alpha   90.00000000
_cell_angle_beta   90.00000000
_cell_angle_gamma   120.00000000
_symmetry_Int_Tables_number   1
_chemical_formula_structural   Al3Au8
_chemical_formula_sum   'Al36 Au96'
_cell_volume   2285.38983016
_cell_formula_units_Z   12
loop_
 _symmetry_equiv_pos_site_id
 _symmetry_equiv_pos_as_xyz
  1  'x, y, z'
loop_
 _atom_site_type_symbol
 _atom_site_label
 _atom_site_symmetry_multiplicity
 _atom_site_fract_x
 _atom_site_fract_y
 _atom_site_fract_z
 _atom_site_occupancy
  Al  Al0  1  0.00000000  0.00000000  0.00000000  1
  Al  Al1  1  0.33333333  0.66666667  0.16666667  1
  Al  Al2  1  0.00000000  0.00000000  0.15626700  1
  Al  Al3  1  0.33333333  0.66666667  0.01039967  1
  Al  Al4  1  0.66666667  0.33333333  0.17706633  1
  Al  Al5  1  0.33333333  0.66666667  0.32293367  1
  Al  Al6  1  0.66666667  0.64960733  0.08333333  1
  Al  Al7  1  0.35039267  0.01705933  0.08333333  1
  Al  Al8  1  0.98294067  0.33333333  0.08333333  1
  Al  Al9  1  0.00000000  0.68372600  0.25000000  1
  Al  Al10  1  0.31627400  0.31627400  0.25000000  1
  Al  Al11  1  0.68372600  0.00000000  0.25000000  1
  Al  Al12  1  0.66666667  0.33333333  0.33333333  1
  Al  Al13  1  0.00000000  0.00000000  0.50000000  1
  Al  Al14  1  0.66666667  0.33333333  0.48960033  1
  Al  Al15  1  0.00000000  0.00000000  0.34373300  1
  Al  Al16  1  0.33333333  0.66666667  0.51039967  1
  Al  Al17  1  0.00000000  0.00000000  0.65626700  1
  Al  Al18  1  0.33333333  0.98294067  0.41666667  1
  Al  Al19  1  0.01705933  0.35039267  0.41666667  1
  Al  Al20  1  0.64960733  0.66666667  0.41666667  1
  Al  Al21  1  0.66666667  0.01705933  0.58333333  1
  Al  Al22  1  0.98294067  0.64960733  0.58333333  1
  Al  Al23  1  0.35039267  0.33333333  0.58333333  1
  Al  Al24  1  0.33333333  0.66666667  0.66666667  1
  Al  Al25  1  0.66666667  0.33333333  0.83333333  1
  Al  Al26  1  0.33333333  0.66666667  0.82293367  1
  Al  Al27  1  0.66666667  0.33333333  0.67706633  1
  Al  Al28  1  0.00000000  0.00000000  0.84373300  1
  Al  Al29  1  0.66666667  0.33333333  0.98960033  1
  Al  Al30  1  0.00000000  0.31627400  0.75000000  1
  Al  Al31  1  0.68372600  0.68372600  0.75000000  1
  Al  Al32  1  0.31627400  0.00000000  0.75000000  1
  Al  Al33  1  0.33333333  0.35039267  0.91666667  1
  Al  Al34  1  0.64960733  0.98294067  0.91666667  1
  Al  Al35  1  0.01705933  0.66666667  0.91666667  1
  Au  Au36  1  0.00000000  0.00000000  0.21750900  1
  Au  Au37  1  0.00000000  0.00000000  0.28249100  1
  Au  Au38  1  0.66666667  0.33333333  0.11582433  1
  Au  Au39  1  0.66666667  0.33333333  0.05084233  1
  Au  Au40  1  0.66666667  0.33333333  0.27047533  1
  Au  Au41  1  0.33333333  0.66666667  0.22952467  1
  Au  Au42  1  0.00000000  0.00000000  0.06285800  1
  Au  Au43  1  0.33333333  0.66666667  0.10380867  1
  Au  Au44  1  0.68752200  0.02018300  0.31627300  1
  Au  Au45  1  0.97981700  0.66733900  0.31627300  1
  Au  Au46  1  0.33266100  0.31247800  0.31627300  1
  Au  Au47  1  0.31247800  0.33266100  0.18372700  1
  Au  Au48  1  0.66733900  0.97981700  0.18372700  1
  Au  Au49  1  0.02018300  0.68752200  0.18372700  1
  Au  Au50  1  0.97914467  0.31315033  0.01706033  1
  Au  Au51  1  0.68684967  0.66599433  0.01706033  1
  Au  Au52  1  0.33400567  0.02085533  0.01706033  1
  Au  Au53  1  0.35418867  0.00067233  0.14960633  1
  Au  Au54  1  0.99932767  0.35351633  0.14960633  1
  Au  Au55  1  0.64648367  0.64581133  0.14960633  1
  Au  Au56  1  0.07181500  0.40596200  0.28095600  1
  Au  Au57  1  0.59403800  0.66585300  0.28095600  1
  Au  Au58  1  0.33414700  0.92818500  0.28095600  1
  Au  Au59  1  0.92818500  0.33414700  0.21904400  1
  Au  Au60  1  0.66585300  0.59403800  0.21904400  1
  Au  Au61  1  0.40596200  0.07181500  0.21904400  1
  Au  Au62  1  0.59485167  0.92737133  0.05237733  1
  Au  Au63  1  0.07262867  0.66748033  0.05237733  1
  Au  Au64  1  0.33251967  0.40514833  0.05237733  1
  Au  Au65  1  0.73848167  0.99918633  0.11428933  1
  Au  Au66  1  0.00081367  0.73929533  0.11428933  1
  Au  Au67  1  0.26070467  0.26151833  0.11428933  1
  Au  Au68  1  0.66666667  0.33333333  0.55084233  1
  Au  Au69  1  0.66666667  0.33333333  0.61582433  1
  Au  Au70  1  0.33333333  0.66666667  0.44915767  1
  Au  Au71  1  0.33333333  0.66666667  0.38417567  1
  Au  Au72  1  0.33333333  0.66666667  0.60380867  1
  Au  Au73  1  0.00000000  0.00000000  0.56285800  1
  Au  Au74  1  0.66666667  0.33333333  0.39619133  1
  Au  Au75  1  0.00000000  0.00000000  0.43714200  1
  Au  Au76  1  0.35418867  0.35351633  0.64960633  1
  Au  Au77  1  0.64648367  0.00067233  0.64960633  1
  Au  Au78  1  0.99932767  0.64581133  0.64960633  1
  Au  Au79  1  0.97914467  0.66599433  0.51706033  1
  Au  Au80  1  0.33400567  0.31315033  0.51706033  1
  Au  Au81  1  0.68684967  0.02085533  0.51706033  1
  Au  Au82  1  0.64581133  0.64648367  0.35039367  1
  Au  Au83  1  0.35351633  0.99932767  0.35039367  1
  Au  Au84  1  0.00067233  0.35418867  0.35039367  1
  Au  Au85  1  0.02085533  0.33400567  0.48293967  1
  Au  Au86  1  0.66599433  0.68684967  0.48293967  1
  Au  Au87  1  0.31315033  0.97914467  0.48293967  1
  Au  Au88  1  0.73848167  0.73929533  0.61428933  1
  Au  Au89  1  0.26070467  0.99918633  0.61428933  1
  Au  Au90  1  0.00081367  0.26151833  0.61428933  1
  Au  Au91  1  0.59485167  0.66748033  0.55237733  1
  Au  Au92  1  0.33251967  0.92737133  0.55237733  1
  Au  Au93  1  0.07262867  0.40514833  0.55237733  1
  Au  Au94  1  0.26151833  0.26070467  0.38571067  1
  Au  Au95  1  0.73929533  0.00081367  0.38571067  1
  Au  Au96  1  0.99918633  0.73848167  0.38571067  1
  Au  Au97  1  0.40514833  0.33251967  0.44762267  1
  Au  Au98  1  0.66748033  0.07262867  0.44762267  1
  Au  Au99  1  0.92737133  0.59485167  0.44762267  1
  Au  Au100  1  0.33333333  0.66666667  0.88417567  1
  Au  Au101  1  0.33333333  0.66666667  0.94915767  1
  Au  Au102  1  0.00000000  0.00000000  0.78249100  1
  Au  Au103  1  0.00000000  0.00000000  0.71750900  1
  Au  Au104  1  0.00000000  0.00000000  0.93714200  1
  Au  Au105  1  0.66666667  0.33333333  0.89619133  1
  Au  Au106  1  0.33333333  0.66666667  0.72952467  1
  Au  Au107  1  0.66666667  0.33333333  0.77047533  1
  Au  Au108  1  0.02085533  0.68684967  0.98293967  1
  Au  Au109  1  0.31315033  0.33400567  0.98293967  1
  Au  Au110  1  0.66599433  0.97914467  0.98293967  1
  Au  Au111  1  0.64581133  0.99932767  0.85039367  1
  Au  Au112  1  0.00067233  0.64648367  0.85039367  1
  Au  Au113  1  0.35351633  0.35418867  0.85039367  1
  Au  Au114  1  0.31247800  0.97981700  0.68372700  1
  Au  Au115  1  0.02018300  0.33266100  0.68372700  1
  Au  Au116  1  0.66733900  0.68752200  0.68372700  1
  Au  Au117  1  0.68752200  0.66733900  0.81627300  1
  Au  Au118  1  0.33266100  0.02018300  0.81627300  1
  Au  Au119  1  0.97981700  0.31247800  0.81627300  1
  Au  Au120  1  0.40514833  0.07262867  0.94762267  1
  Au  Au121  1  0.92737133  0.33251967  0.94762267  1
  Au  Au122  1  0.66748033  0.59485167  0.94762267  1
  Au  Au123  1  0.26151833  0.00081367  0.88571067  1
  Au  Au124  1  0.99918633  0.26070467  0.88571067  1
  Au  Au125  1  0.73929533  0.73848167  0.88571067  1
  Au  Au126  1  0.92818500  0.59403800  0.71904400  1
  Au  Au127  1  0.40596200  0.33414700  0.71904400  1
  Au  Au128  1  0.66585300  0.07181500  0.71904400  1
  Au  Au129  1  0.07181500  0.66585300  0.78095600  1
  Au  Au130  1  0.33414700  0.40596200  0.78095600  1
  Au  Au131  1  0.59403800  0.92818500  0.78095600  1
