# generated using pymatgen
data_LiTi(SiO3)2
_symmetry_space_group_name_H-M   'P 1'
_cell_length_a   9.98555200
_cell_length_b   8.67474600
_cell_length_c   5.32000770
_cell_angle_alpha   90.00000000
_cell_angle_beta   109.75776380
_cell_angle_gamma   90.00000000
_symmetry_Int_Tables_number   1
_chemical_formula_structural   LiTi(SiO3)2
_chemical_formula_sum   'Li4 Ti4 Si8 O24'
_cell_volume   433.70139926
_cell_formula_units_Z   4
loop_
 _symmetry_equiv_pos_site_id
 _symmetry_equiv_pos_as_xyz
  1  'x, y, z'
loop_
 _atom_site_type_symbol
 _atom_site_label
 _atom_site_symmetry_multiplicity
 _atom_site_fract_x
 _atom_site_fract_y
 _atom_site_fract_z
 _atom_site_occupancy
  Li  Li0  1  0.00000000  0.27088100  0.75000000  1
  Li  Li1  1  0.00000000  0.72911900  0.25000000  1
  Li  Li2  1  0.50000000  0.77088100  0.75000000  1
  Li  Li3  1  0.50000000  0.22911900  0.25000000  1
  Ti  Ti4  1  0.00000000  0.08804800  0.25000000  1
  Ti  Ti5  1  0.00000000  0.91195200  0.75000000  1
  Ti  Ti6  1  0.50000000  0.58804800  0.25000000  1
  Ti  Ti7  1  0.50000000  0.41195200  0.75000000  1
  Si  Si8  1  0.20308350  0.40709950  0.22155900  1
  Si  Si9  1  0.79691650  0.40709950  0.27844100  1
  Si  Si10  1  0.79691650  0.59290050  0.77844100  1
  Si  Si11  1  0.20308350  0.59290050  0.72155900  1
  Si  Si12  1  0.70308350  0.90709950  0.22155900  1
  Si  Si13  1  0.29691650  0.90709950  0.27844100  1
  Si  Si14  1  0.29691650  0.09290050  0.77844100  1
  Si  Si15  1  0.70308350  0.09290050  0.72155900  1
  O  O16  1  0.85338050  0.48731450  0.57711500  1
  O  O17  1  0.14661950  0.48731450  0.92288500  1
  O  O18  1  0.12676750  0.24052150  0.17323400  1
  O  O19  1  0.87323250  0.24052150  0.32676600  1
  O  O20  1  0.14661950  0.51268550  0.42288500  1
  O  O21  1  0.85338050  0.51268550  0.07711500  1
  O  O22  1  0.37861650  0.59356950  0.83630000  1
  O  O23  1  0.62138350  0.59356950  0.66370000  1
  O  O24  1  0.62138350  0.40643050  0.16370000  1
  O  O25  1  0.37861650  0.40643050  0.33630000  1
  O  O26  1  0.12676750  0.75947850  0.67323400  1
  O  O27  1  0.87323250  0.75947850  0.82676600  1
  O  O28  1  0.35338050  0.98731450  0.57711500  1
  O  O29  1  0.64661950  0.98731450  0.92288500  1
  O  O30  1  0.62676750  0.74052150  0.17323400  1
  O  O31  1  0.37323250  0.74052150  0.32676600  1
  O  O32  1  0.64661950  0.01268550  0.42288500  1
  O  O33  1  0.35338050  0.01268550  0.07711500  1
  O  O34  1  0.87861650  0.09356950  0.83630000  1
  O  O35  1  0.12138350  0.09356950  0.66370000  1
  O  O36  1  0.12138350  0.90643050  0.16370000  1
  O  O37  1  0.87861650  0.90643050  0.33630000  1
  O  O38  1  0.62676750  0.25947850  0.67323400  1
  O  O39  1  0.37323250  0.25947850  0.82676600  1
