# generated using pymatgen
data_LiFe(WO4)2
_symmetry_space_group_name_H-M   'P 1'
_cell_length_a   9.43240200
_cell_length_b   11.55416400
_cell_length_c   5.01793886
_cell_angle_alpha   90.00000000
_cell_angle_beta   91.14894103
_cell_angle_gamma   90.00000000
_symmetry_Int_Tables_number   1
_chemical_formula_structural   LiFe(WO4)2
_chemical_formula_sum   'Li4 Fe4 W8 O32'
_cell_volume   546.76268910
_cell_formula_units_Z   4
loop_
 _symmetry_equiv_pos_site_id
 _symmetry_equiv_pos_as_xyz
  1  'x, y, z'
loop_
 _atom_site_type_symbol
 _atom_site_label
 _atom_site_symmetry_multiplicity
 _atom_site_fract_x
 _atom_site_fract_y
 _atom_site_fract_z
 _atom_site_occupancy
  Li  Li0  1  0.50000000  0.65823500  0.25000000  1
  Li  Li1  1  0.50000000  0.34176500  0.75000000  1
  Li  Li2  1  0.00000000  0.15823500  0.25000000  1
  Li  Li3  1  0.00000000  0.84176500  0.75000000  1
  Fe  Fe4  1  0.50000000  0.82917500  0.75000000  1
  Fe  Fe5  1  0.50000000  0.17082500  0.25000000  1
  Fe  Fe6  1  0.00000000  0.32917500  0.75000000  1
  Fe  Fe7  1  0.00000000  0.67082500  0.25000000  1
  W  W8  1  0.24874400  0.91182200  0.24410100  1
  W  W9  1  0.75125600  0.91182200  0.25589900  1
  W  W10  1  0.75125600  0.08817800  0.75589900  1
  W  W11  1  0.24874400  0.08817800  0.74410100  1
  W  W12  1  0.74874400  0.41182200  0.24410100  1
  W  W13  1  0.25125600  0.41182200  0.25589900  1
  W  W14  1  0.25125600  0.58817800  0.75589900  1
  W  W15  1  0.74874400  0.58817800  0.74410100  1
  O  O16  1  0.36286750  0.94035750  0.92269500  1
  O  O17  1  0.63713250  0.94035750  0.57730500  1
  O  O18  1  0.63713250  0.05964250  0.07730500  1
  O  O19  1  0.36286750  0.05964250  0.42269500  1
  O  O20  1  0.38149400  0.81902800  0.41348400  1
  O  O21  1  0.61850600  0.81902800  0.08651600  1
  O  O22  1  0.61850600  0.18097200  0.58651600  1
  O  O23  1  0.38149400  0.18097200  0.91348400  1
  O  O24  1  0.14518650  0.95130650  0.55612200  1
  O  O25  1  0.85481350  0.95130650  0.94387800  1
  O  O26  1  0.85481350  0.04869350  0.44387800  1
  O  O27  1  0.14518650  0.04869350  0.05612200  1
  O  O28  1  0.62233250  0.30589950  0.10887400  1
  O  O29  1  0.37766750  0.30589950  0.39112600  1
  O  O30  1  0.37766750  0.69410050  0.89112600  1
  O  O31  1  0.62233250  0.69410050  0.60887400  1
  O  O32  1  0.86286750  0.44035750  0.92269500  1
  O  O33  1  0.13713250  0.44035750  0.57730500  1
  O  O34  1  0.13713250  0.55964250  0.07730500  1
  O  O35  1  0.86286750  0.55964250  0.42269500  1
  O  O36  1  0.88149400  0.31902800  0.41348400  1
  O  O37  1  0.11850600  0.31902800  0.08651600  1
  O  O38  1  0.11850600  0.68097200  0.58651600  1
  O  O39  1  0.88149400  0.68097200  0.91348400  1
  O  O40  1  0.64518650  0.45130650  0.55612200  1
  O  O41  1  0.35481350  0.45130650  0.94387800  1
  O  O42  1  0.35481350  0.54869350  0.44387800  1
  O  O43  1  0.64518650  0.54869350  0.05612200  1
  O  O44  1  0.12233250  0.80589950  0.10887400  1
  O  O45  1  0.87766750  0.80589950  0.39112600  1
  O  O46  1  0.87766750  0.19410050  0.89112600  1
  O  O47  1  0.12233250  0.19410050  0.60887400  1
