# generated using pymatgen
data_Y5Mg24
_symmetry_space_group_name_H-M   'P 1'
_cell_length_a   11.27748200
_cell_length_b   11.27748200
_cell_length_c   11.27748200
_cell_angle_alpha   90.00000000
_cell_angle_beta   90.00000000
_cell_angle_gamma   90.00000000
_symmetry_Int_Tables_number   1
_chemical_formula_structural   Y5Mg24
_chemical_formula_sum   'Y10 Mg48'
_cell_volume   1434.28820767
_cell_formula_units_Z   2
loop_
 _symmetry_equiv_pos_site_id
 _symmetry_equiv_pos_as_xyz
  1  'x, y, z'
loop_
 _atom_site_type_symbol
 _atom_site_label
 _atom_site_symmetry_multiplicity
 _atom_site_fract_x
 _atom_site_fract_y
 _atom_site_fract_z
 _atom_site_occupancy
  Y  Y0  1  0.18806000  0.81194000  0.18806000  1
  Y  Y1  1  0.81194000  0.18806000  0.18806000  1
  Y  Y2  1  0.18806000  0.18806000  0.81194000  1
  Y  Y3  1  0.31194000  0.31194000  0.31194000  1
  Y  Y4  1  0.00000000  0.00000000  0.00000000  1
  Y  Y5  1  0.68806000  0.31194000  0.68806000  1
  Y  Y6  1  0.31194000  0.68806000  0.68806000  1
  Y  Y7  1  0.68806000  0.68806000  0.31194000  1
  Y  Y8  1  0.81194000  0.81194000  0.81194000  1
  Y  Y9  1  0.50000000  0.50000000  0.50000000  1
  Mg  Mg10  1  0.41002400  0.78084400  0.41002400  1
  Mg  Mg11  1  0.28084400  0.08997600  0.08997600  1
  Mg  Mg12  1  0.08997600  0.08997600  0.28084400  1
  Mg  Mg13  1  0.08997600  0.91002400  0.71915600  1
  Mg  Mg14  1  0.71915600  0.91002400  0.08997600  1
  Mg  Mg15  1  0.35616150  0.03194150  0.35616150  1
  Mg  Mg16  1  0.14383850  0.46805850  0.85616150  1
  Mg  Mg17  1  0.85616150  0.46805850  0.14383850  1
  Mg  Mg18  1  0.14383850  0.85616150  0.46805850  1
  Mg  Mg19  1  0.14383850  0.14383850  0.53194150  1
  Mg  Mg20  1  0.53194150  0.14383850  0.14383850  1
  Mg  Mg21  1  0.46805850  0.85616150  0.14383850  1
  Mg  Mg22  1  0.46805850  0.14383850  0.85616150  1
  Mg  Mg23  1  0.85616150  0.14383850  0.46805850  1
  Mg  Mg24  1  0.35616150  0.35616150  0.03194150  1
  Mg  Mg25  1  0.03194150  0.35616150  0.35616150  1
  Mg  Mg26  1  0.14383850  0.53194150  0.14383850  1
  Mg  Mg27  1  0.08997600  0.28084400  0.08997600  1
  Mg  Mg28  1  0.91002400  0.71915600  0.08997600  1
  Mg  Mg29  1  0.08997600  0.71915600  0.91002400  1
  Mg  Mg30  1  0.91002400  0.08997600  0.71915600  1
  Mg  Mg31  1  0.41002400  0.41002400  0.78084400  1
  Mg  Mg32  1  0.78084400  0.41002400  0.41002400  1
  Mg  Mg33  1  0.71915600  0.08997600  0.91002400  1
  Mg  Mg34  1  0.91002400  0.28084400  0.91002400  1
  Mg  Mg35  1  0.78084400  0.58997600  0.58997600  1
  Mg  Mg36  1  0.58997600  0.58997600  0.78084400  1
  Mg  Mg37  1  0.58997600  0.41002400  0.21915600  1
  Mg  Mg38  1  0.21915600  0.41002400  0.58997600  1
  Mg  Mg39  1  0.85616150  0.53194150  0.85616150  1
  Mg  Mg40  1  0.64383850  0.96805850  0.35616150  1
  Mg  Mg41  1  0.35616150  0.96805850  0.64383850  1
  Mg  Mg42  1  0.64383850  0.35616150  0.96805850  1
  Mg  Mg43  1  0.64383850  0.64383850  0.03194150  1
  Mg  Mg44  1  0.03194150  0.64383850  0.64383850  1
  Mg  Mg45  1  0.96805850  0.35616150  0.64383850  1
  Mg  Mg46  1  0.96805850  0.64383850  0.35616150  1
  Mg  Mg47  1  0.35616150  0.64383850  0.96805850  1
  Mg  Mg48  1  0.85616150  0.85616150  0.53194150  1
  Mg  Mg49  1  0.53194150  0.85616150  0.85616150  1
  Mg  Mg50  1  0.64383850  0.03194150  0.64383850  1
  Mg  Mg51  1  0.58997600  0.78084400  0.58997600  1
  Mg  Mg52  1  0.41002400  0.21915600  0.58997600  1
  Mg  Mg53  1  0.58997600  0.21915600  0.41002400  1
  Mg  Mg54  1  0.41002400  0.58997600  0.21915600  1
  Mg  Mg55  1  0.91002400  0.91002400  0.28084400  1
  Mg  Mg56  1  0.28084400  0.91002400  0.91002400  1
  Mg  Mg57  1  0.21915600  0.58997600  0.41002400  1
