# generated using pymatgen
data_Ba4Ti12O27
_symmetry_space_group_name_H-M   'P 1'
_cell_length_a   20.05304400
_cell_length_b   11.54385200
_cell_length_c   10.03618554
_cell_angle_alpha   90.00000000
_cell_angle_beta   108.97009468
_cell_angle_gamma   90.00000000
_symmetry_Int_Tables_number   1
_chemical_formula_structural   Ba4Ti12O27
_chemical_formula_sum   'Ba16 Ti48 O108'
_cell_volume   2197.08970536
_cell_formula_units_Z   4
loop_
 _symmetry_equiv_pos_site_id
 _symmetry_equiv_pos_as_xyz
  1  'x, y, z'
loop_
 _atom_site_type_symbol
 _atom_site_label
 _atom_site_symmetry_multiplicity
 _atom_site_fract_x
 _atom_site_fract_y
 _atom_site_fract_z
 _atom_site_occupancy
  Ba  Ba0  1  0.29539900  0.50000000  0.87364700  1
  Ba  Ba1  1  0.20460100  0.00000000  0.12635300  1
  Ba  Ba2  1  0.42376300  0.50000000  0.28889900  1
  Ba  Ba3  1  0.07623700  0.00000000  0.71110100  1
  Ba  Ba4  1  0.06481850  0.72536650  0.21542700  1
  Ba  Ba5  1  0.43518150  0.22536650  0.78457300  1
  Ba  Ba6  1  0.43518150  0.77463350  0.78457300  1
  Ba  Ba7  1  0.06481850  0.27463350  0.21542700  1
  Ba  Ba8  1  0.79539900  0.00000000  0.87364700  1
  Ba  Ba9  1  0.70460100  0.50000000  0.12635300  1
  Ba  Ba10  1  0.92376300  0.00000000  0.28889900  1
  Ba  Ba11  1  0.57623700  0.50000000  0.71110100  1
  Ba  Ba12  1  0.56481850  0.22536650  0.21542700  1
  Ba  Ba13  1  0.93518150  0.72536650  0.78457300  1
  Ba  Ba14  1  0.93518150  0.27463350  0.78457300  1
  Ba  Ba15  1  0.56481850  0.77463350  0.21542700  1
  Ti  Ti16  1  0.00000000  0.00000000  0.00000000  1
  Ti  Ti17  1  0.00000000  0.50000000  0.50000000  1
  Ti  Ti18  1  0.25000000  0.75000000  0.50000000  1
  Ti  Ti19  1  0.25000000  0.25000000  0.50000000  1
  Ti  Ti20  1  0.00000000  0.76976300  0.50000000  1
  Ti  Ti21  1  0.00000000  0.23023700  0.50000000  1
  Ti  Ti22  1  0.11332400  0.50000000  0.92168900  1
  Ti  Ti23  1  0.38667600  0.00000000  0.07831100  1
  Ti  Ti24  1  0.23647100  0.50000000  0.48330000  1
  Ti  Ti25  1  0.26352900  0.00000000  0.51670000  1
  Ti  Ti26  1  0.38888700  0.50000000  0.61058900  1
  Ti  Ti27  1  0.11111300  0.00000000  0.38941100  1
  Ti  Ti28  1  0.37814900  0.74147100  0.07784300  1
  Ti  Ti29  1  0.12185100  0.24147100  0.92215700  1
  Ti  Ti30  1  0.12185100  0.75852900  0.92215700  1
  Ti  Ti31  1  0.37814900  0.25852900  0.07784300  1
  Ti  Ti32  1  0.36939600  0.13967400  0.34146500  1
  Ti  Ti33  1  0.13060400  0.63967400  0.65853500  1
  Ti  Ti34  1  0.13060400  0.36032600  0.65853500  1
  Ti  Ti35  1  0.36939600  0.86032600  0.34146500  1
  Ti  Ti36  1  0.24606050  0.36654350  0.21437600  1
  Ti  Ti37  1  0.25393950  0.86654350  0.78562400  1
  Ti  Ti38  1  0.25393950  0.13345650  0.78562400  1
  Ti  Ti39  1  0.24606050  0.63345650  0.21437600  1
  Ti  Ti40  1  0.50000000  0.50000000  0.00000000  1
  Ti  Ti41  1  0.50000000  0.00000000  0.50000000  1
  Ti  Ti42  1  0.75000000  0.25000000  0.50000000  1
  Ti  Ti43  1  0.75000000  0.75000000  0.50000000  1
  Ti  Ti44  1  0.50000000  0.26976300  0.50000000  1
  Ti  Ti45  1  0.50000000  0.73023700  0.50000000  1
  Ti  Ti46  1  0.61332400  0.00000000  0.92168900  1
  Ti  Ti47  1  0.88667600  0.50000000  0.07831100  1
  Ti  Ti48  1  0.73647100  0.00000000  0.48330000  1
  Ti  Ti49  1  0.76352900  0.50000000  0.51670000  1
  Ti  Ti50  1  0.88888700  0.00000000  0.61058900  1
  Ti  Ti51  1  0.61111300  0.50000000  0.38941100  1
  Ti  Ti52  1  0.87814900  0.24147100  0.07784300  1
  Ti  Ti53  1  0.62185100  0.74147100  0.92215700  1
  Ti  Ti54  1  0.62185100  0.25852900  0.92215700  1
  Ti  Ti55  1  0.87814900  0.75852900  0.07784300  1
  Ti  Ti56  1  0.86939600  0.63967400  0.34146500  1
  Ti  Ti57  1  0.63060400  0.13967400  0.65853500  1
  Ti  Ti58  1  0.63060400  0.86032600  0.65853500  1
  Ti  Ti59  1  0.86939600  0.36032600  0.34146500  1
  Ti  Ti60  1  0.74606050  0.86654350  0.21437600  1
  Ti  Ti61  1  0.75393950  0.36654350  0.78562400  1
  Ti  Ti62  1  0.75393950  0.63345650  0.78562400  1
  Ti  Ti63  1  0.74606050  0.13345650  0.21437600  1
  O  O64  1  0.06715200  0.50000000  0.69385400  1
  O  O65  1  0.43284800  0.00000000  0.30614600  1
  O  O66  1  0.18628800  0.50000000  0.11101600  1
  O  O67  1  0.31371200  0.00000000  0.88898400  1
  O  O68  1  0.18372000  0.50000000  0.61497100  1
  O  O69  1  0.31628000  0.00000000  0.38502900  1
  O  O70  1  0.29463500  0.50000000  0.34390300  1
  O  O71  1  0.20536500  0.00000000  0.65609700  1
  O  O72  1  0.43125500  0.50000000  0.80043700  1
  O  O73  1  0.06874500  0.00000000  0.19956300  1
  O  O74  1  0.43987800  0.62512600  0.05172800  1
  O  O75  1  0.06012200  0.12512600  0.94827200  1
  O  O76  1  0.06012200  0.87487400  0.94827200  1
  O  O77  1  0.43987800  0.37487400  0.05172800  1
  O  O78  1  0.43381000  0.74665500  0.30147600  1
  O  O79  1  0.06619000  0.24665500  0.69852400  1
  O  O80  1  0.06619000  0.75334500  0.69852400  1
  O  O81  1  0.43381000  0.25334500  0.30147600  1
  O  O82  1  0.43853400  0.87181700  0.05681100  1
  O  O83  1  0.06146600  0.37181700  0.94318900  1
  O  O84  1  0.06146600  0.62818300  0.94318900  1
  O  O85  1  0.43853400  0.12818300  0.05681100  1
  O  O86  1  0.32838400  0.87842400  0.14187800  1
  O  O87  1  0.17161600  0.37842400  0.85812200  1
  O  O88  1  0.17161600  0.62157600  0.85812200  1
  O  O89  1  0.32838400  0.12157600  0.14187800  1
  O  O90  1  0.31236700  0.63443800  0.12374900  1
  O  O91  1  0.18763300  0.13443800  0.87625100  1
  O  O92  1  0.18763300  0.86556200  0.87625100  1
  O  O93  1  0.31236700  0.36556200  0.12374900  1
  O  O94  1  0.30158600  0.24606600  0.36068200  1
  O  O95  1  0.19841400  0.74606600  0.63931800  1
  O  O96  1  0.05521500  0.11853200  0.44040000  1
  O  O97  1  0.44478500  0.61853200  0.55960000  1
  O  O98  1  0.44478500  0.38146800  0.55960000  1
  O  O99  1  0.05521500  0.88146800  0.44040000  1
  O  O100  1  0.05889300  0.63046300  0.46913300  1
  O  O101  1  0.44110700  0.13046300  0.53086700  1
  O  O102  1  0.44110700  0.86953700  0.53086700  1
  O  O103  1  0.05889300  0.36953700  0.46913300  1
  O  O104  1  0.17837550  0.25491050  0.11302200  1
  O  O105  1  0.32162450  0.75491050  0.88697800  1
  O  O106  1  0.32162450  0.24508950  0.88697800  1
  O  O107  1  0.17837550  0.74508950  0.11302200  1
  O  O108  1  0.19051950  0.11431050  0.40423600  1
  O  O109  1  0.30948050  0.61431050  0.59576400  1
  O  O110  1  0.30948050  0.38568950  0.59576400  1
  O  O111  1  0.19051950  0.88568950  0.40423600  1
  O  O112  1  0.19132400  0.63206800  0.36936700  1
  O  O113  1  0.30867600  0.13206800  0.63063300  1
  O  O114  1  0.30867600  0.86793200  0.63063300  1
  O  O115  1  0.19132400  0.36793200  0.36936700  1
  O  O116  1  0.30158600  0.75393400  0.36068200  1
  O  O117  1  0.19841400  0.25393400  0.63931800  1
  O  O118  1  0.56715200  0.00000000  0.69385400  1
  O  O119  1  0.93284800  0.50000000  0.30614600  1
  O  O120  1  0.68628800  0.00000000  0.11101600  1
  O  O121  1  0.81371200  0.50000000  0.88898400  1
  O  O122  1  0.68372000  0.00000000  0.61497100  1
  O  O123  1  0.81628000  0.50000000  0.38502900  1
  O  O124  1  0.79463500  0.00000000  0.34390300  1
  O  O125  1  0.70536500  0.50000000  0.65609700  1
  O  O126  1  0.93125500  0.00000000  0.80043700  1
  O  O127  1  0.56874500  0.50000000  0.19956300  1
  O  O128  1  0.93987800  0.12512600  0.05172800  1
  O  O129  1  0.56012200  0.62512600  0.94827200  1
  O  O130  1  0.56012200  0.37487400  0.94827200  1
  O  O131  1  0.93987800  0.87487400  0.05172800  1
  O  O132  1  0.93381000  0.24665500  0.30147600  1
  O  O133  1  0.56619000  0.74665500  0.69852400  1
  O  O134  1  0.56619000  0.25334500  0.69852400  1
  O  O135  1  0.93381000  0.75334500  0.30147600  1
  O  O136  1  0.93853400  0.37181700  0.05681100  1
  O  O137  1  0.56146600  0.87181700  0.94318900  1
  O  O138  1  0.56146600  0.12818300  0.94318900  1
  O  O139  1  0.93853400  0.62818300  0.05681100  1
  O  O140  1  0.82838400  0.37842400  0.14187800  1
  O  O141  1  0.67161600  0.87842400  0.85812200  1
  O  O142  1  0.67161600  0.12157600  0.85812200  1
  O  O143  1  0.82838400  0.62157600  0.14187800  1
  O  O144  1  0.81236700  0.13443800  0.12374900  1
  O  O145  1  0.68763300  0.63443800  0.87625100  1
  O  O146  1  0.68763300  0.36556200  0.87625100  1
  O  O147  1  0.81236700  0.86556200  0.12374900  1
  O  O148  1  0.80158600  0.74606600  0.36068200  1
  O  O149  1  0.69841400  0.24606600  0.63931800  1
  O  O150  1  0.55521500  0.61853200  0.44040000  1
  O  O151  1  0.94478500  0.11853200  0.55960000  1
  O  O152  1  0.94478500  0.88146800  0.55960000  1
  O  O153  1  0.55521500  0.38146800  0.44040000  1
  O  O154  1  0.55889300  0.13046300  0.46913300  1
  O  O155  1  0.94110700  0.63046300  0.53086700  1
  O  O156  1  0.94110700  0.36953700  0.53086700  1
  O  O157  1  0.55889300  0.86953700  0.46913300  1
  O  O158  1  0.67837550  0.75491050  0.11302200  1
  O  O159  1  0.82162450  0.25491050  0.88697800  1
  O  O160  1  0.82162450  0.74508950  0.88697800  1
  O  O161  1  0.67837550  0.24508950  0.11302200  1
  O  O162  1  0.69051950  0.61431050  0.40423600  1
  O  O163  1  0.80948050  0.11431050  0.59576400  1
  O  O164  1  0.80948050  0.88568950  0.59576400  1
  O  O165  1  0.69051950  0.38568950  0.40423600  1
  O  O166  1  0.69132400  0.13206800  0.36936700  1
  O  O167  1  0.80867600  0.63206800  0.63063300  1
  O  O168  1  0.80867600  0.36793200  0.63063300  1
  O  O169  1  0.69132400  0.86793200  0.36936700  1
  O  O170  1  0.80158600  0.25393400  0.36068200  1
  O  O171  1  0.69841400  0.75393400  0.63931800  1
