# generated using pymatgen
data_NdGa2Ni
_symmetry_space_group_name_H-M   'P 1'
_cell_length_a   4.20764000
_cell_length_b   17.54691800
_cell_length_c   4.17576600
_cell_angle_alpha   90.00000000
_cell_angle_beta   90.00000000
_cell_angle_gamma   90.00000000
_symmetry_Int_Tables_number   1
_chemical_formula_structural   NdGa2Ni
_chemical_formula_sum   'Nd4 Ga8 Ni4'
_cell_volume   308.30145581
_cell_formula_units_Z   4
loop_
 _symmetry_equiv_pos_site_id
 _symmetry_equiv_pos_as_xyz
  1  'x, y, z'
loop_
 _atom_site_type_symbol
 _atom_site_label
 _atom_site_symmetry_multiplicity
 _atom_site_fract_x
 _atom_site_fract_y
 _atom_site_fract_z
 _atom_site_occupancy
  Nd  Nd0  1  0.50000000  0.35826500  0.00000000  1
  Nd  Nd1  1  0.00000000  0.14173500  0.00000000  1
  Nd  Nd2  1  0.00000000  0.85826500  0.00000000  1
  Nd  Nd3  1  0.50000000  0.64173500  0.00000000  1
  Ga  Ga4  1  0.00000000  0.00000000  0.50000000  1
  Ga  Ga5  1  0.50000000  0.20914700  0.50000000  1
  Ga  Ga6  1  0.50000000  0.00000000  0.00000000  1
  Ga  Ga7  1  0.00000000  0.29085300  0.50000000  1
  Ga  Ga8  1  0.50000000  0.50000000  0.50000000  1
  Ga  Ga9  1  0.00000000  0.70914700  0.50000000  1
  Ga  Ga10  1  0.00000000  0.50000000  0.00000000  1
  Ga  Ga11  1  0.50000000  0.79085300  0.50000000  1
  Ni  Ni12  1  0.50000000  0.07309500  0.50000000  1
  Ni  Ni13  1  0.00000000  0.42690500  0.50000000  1
  Ni  Ni14  1  0.00000000  0.57309500  0.50000000  1
  Ni  Ni15  1  0.50000000  0.92690500  0.50000000  1
