# generated using pymatgen
data_Li6Ca12W4N16O3
_symmetry_space_group_name_H-M   'P 1'
_cell_length_a   13.17238602
_cell_length_b   13.17238602
_cell_length_c   13.17238602
_cell_angle_alpha   90.00000000
_cell_angle_beta   90.00000000
_cell_angle_gamma   90.00000000
_symmetry_Int_Tables_number   1
_chemical_formula_structural   Li6Ca12W4N16O3
_chemical_formula_sum   'Li24 Ca48 W16 N64 O12'
_cell_volume   2285.56379586
_cell_formula_units_Z   4
loop_
 _symmetry_equiv_pos_site_id
 _symmetry_equiv_pos_as_xyz
  1  'x, y, z'
loop_
 _atom_site_type_symbol
 _atom_site_label
 _atom_site_symmetry_multiplicity
 _atom_site_fract_x
 _atom_site_fract_y
 _atom_site_fract_z
 _atom_site_occupancy
  Li  Li0  1  0.00000000  0.25000000  0.02397416  1
  Li  Li1  1  0.50000000  0.75000000  0.22602584  1
  Li  Li2  1  0.77397416  0.00000000  0.75000000  1
  Li  Li3  1  0.75000000  0.77397416  0.00000000  1
  Li  Li4  1  0.72602584  0.00000000  0.25000000  1
  Li  Li5  1  0.75000000  0.22602584  0.50000000  1
  Li  Li6  1  0.00000000  0.75000000  0.47602584  1
  Li  Li7  1  0.75000000  0.47602584  0.00000000  1
  Li  Li8  1  0.75000000  0.52397416  0.50000000  1
  Li  Li9  1  0.52397416  0.50000000  0.75000000  1
  Li  Li10  1  0.97602584  0.50000000  0.25000000  1
  Li  Li11  1  0.50000000  0.25000000  0.27397416  1
  Li  Li12  1  0.50000000  0.75000000  0.52397416  1
  Li  Li13  1  0.00000000  0.25000000  0.72602584  1
  Li  Li14  1  0.27397416  0.50000000  0.25000000  1
  Li  Li15  1  0.25000000  0.27397416  0.50000000  1
  Li  Li16  1  0.22602584  0.50000000  0.75000000  1
  Li  Li17  1  0.25000000  0.72602584  0.00000000  1
  Li  Li18  1  0.50000000  0.25000000  0.97602584  1
  Li  Li19  1  0.25000000  0.97602584  0.50000000  1
  Li  Li20  1  0.25000000  0.02397416  0.00000000  1
  Li  Li21  1  0.02397416  0.00000000  0.25000000  1
  Li  Li22  1  0.47602584  0.00000000  0.75000000  1
  Li  Li23  1  0.00000000  0.75000000  0.77397416  1
  Ca  Ca24  1  0.63197179  0.96139756  0.57608405  1
  Ca  Ca25  1  0.03860244  0.92391595  0.63197179  1
  Ca  Ca26  1  0.42391595  0.86802821  0.96139756  1
  Ca  Ca27  1  0.86802821  0.03860244  0.07608405  1
  Ca  Ca28  1  0.53860244  0.57608405  0.36802821  1
  Ca  Ca29  1  0.57608405  0.36802821  0.53860244  1
  Ca  Ca30  1  0.71139756  0.38197179  0.32608405  1
  Ca  Ca31  1  0.28860244  0.88197179  0.17391595  1
  Ca  Ca32  1  0.71139756  0.61802821  0.17391595  1
  Ca  Ca33  1  0.11802821  0.32608405  0.28860244  1
  Ca  Ca34  1  0.82608405  0.78860244  0.61802821  1
  Ca  Ca35  1  0.82608405  0.21139756  0.88197179  1
  Ca  Ca36  1  0.38197179  0.67391595  0.78860244  1
  Ca  Ca37  1  0.17391595  0.71139756  0.61802821  1
  Ca  Ca38  1  0.88197179  0.82608405  0.21139756  1
  Ca  Ca39  1  0.67391595  0.78860244  0.38197179  1
  Ca  Ca40  1  0.11802821  0.67391595  0.21139756  1
  Ca  Ca41  1  0.13197179  0.53860244  0.42391595  1
  Ca  Ca42  1  0.86802821  0.96139756  0.42391595  1
  Ca  Ca43  1  0.46139756  0.92391595  0.36802821  1
  Ca  Ca44  1  0.46139756  0.07608405  0.13197179  1
  Ca  Ca45  1  0.57608405  0.63197179  0.96139756  1
  Ca  Ca46  1  0.92391595  0.63197179  0.03860244  1
  Ca  Ca47  1  0.78860244  0.61802821  0.82608405  1
  Ca  Ca48  1  0.13197179  0.46139756  0.07608405  1
  Ca  Ca49  1  0.53860244  0.42391595  0.13197179  1
  Ca  Ca50  1  0.92391595  0.36802821  0.46139756  1
  Ca  Ca51  1  0.36802821  0.53860244  0.57608405  1
  Ca  Ca52  1  0.03860244  0.07608405  0.86802821  1
  Ca  Ca53  1  0.07608405  0.86802821  0.03860244  1
  Ca  Ca54  1  0.21139756  0.88197179  0.82608405  1
  Ca  Ca55  1  0.78860244  0.38197179  0.67391595  1
  Ca  Ca56  1  0.21139756  0.11802821  0.67391595  1
  Ca  Ca57  1  0.61802821  0.82608405  0.78860244  1
  Ca  Ca58  1  0.32608405  0.28860244  0.11802821  1
  Ca  Ca59  1  0.32608405  0.71139756  0.38197179  1
  Ca  Ca60  1  0.88197179  0.17391595  0.28860244  1
  Ca  Ca61  1  0.67391595  0.21139756  0.11802821  1
  Ca  Ca62  1  0.38197179  0.32608405  0.71139756  1
  Ca  Ca63  1  0.17391595  0.28860244  0.88197179  1
  Ca  Ca64  1  0.61802821  0.17391595  0.71139756  1
  Ca  Ca65  1  0.63197179  0.03860244  0.92391595  1
  Ca  Ca66  1  0.36802821  0.46139756  0.92391595  1
  Ca  Ca67  1  0.96139756  0.42391595  0.86802821  1
  Ca  Ca68  1  0.96139756  0.57608405  0.63197179  1
  Ca  Ca69  1  0.07608405  0.13197179  0.46139756  1
  Ca  Ca70  1  0.42391595  0.13197179  0.53860244  1
  Ca  Ca71  1  0.28860244  0.11802821  0.32608405  1
  W  W72  1  0.63780045  0.63780045  0.63780045  1
  W  W73  1  0.61219955  0.11219955  0.38780045  1
  W  W74  1  0.61219955  0.88780045  0.11219955  1
  W  W75  1  0.88780045  0.11219955  0.61219955  1
  W  W76  1  0.86219955  0.63780045  0.36219955  1
  W  W77  1  0.13780045  0.86219955  0.36219955  1
  W  W78  1  0.86219955  0.36219955  0.13780045  1
  W  W79  1  0.88780045  0.88780045  0.88780045  1
  W  W80  1  0.13780045  0.13780045  0.13780045  1
  W  W81  1  0.11219955  0.61219955  0.88780045  1
  W  W82  1  0.11219955  0.38780045  0.61219955  1
  W  W83  1  0.38780045  0.61219955  0.11219955  1
  W  W84  1  0.36219955  0.13780045  0.86219955  1
  W  W85  1  0.63780045  0.36219955  0.86219955  1
  W  W86  1  0.36219955  0.86219955  0.63780045  1
  W  W87  1  0.38780045  0.38780045  0.38780045  1
  N  N88  1  0.55461123  0.55461123  0.55461123  1
  N  N89  1  0.69538877  0.19538877  0.30461123  1
  N  N90  1  0.69538877  0.80461123  0.19538877  1
  N  N91  1  0.80461123  0.19538877  0.69538877  1
  N  N92  1  0.94538877  0.55461123  0.44538877  1
  N  N93  1  0.05461123  0.94538877  0.44538877  1
  N  N94  1  0.94538877  0.44538877  0.05461123  1
  N  N95  1  0.80461123  0.80461123  0.80461123  1
  N  N96  1  0.64296195  0.77562685  0.59111656  1
  N  N97  1  0.72437315  0.40888344  0.14296195  1
  N  N98  1  0.90888344  0.35703805  0.27562685  1
  N  N99  1  0.85703805  0.22437315  0.09111656  1
  N  N100  1  0.72437315  0.59111656  0.35703805  1
  N  N101  1  0.09111656  0.85703805  0.22437315  1
  N  N102  1  0.02562685  0.89296195  0.84111656  1
  N  N103  1  0.47437315  0.89296195  0.15888344  1
  N  N104  1  0.52562685  0.60703805  0.15888344  1
  N  N105  1  0.60703805  0.84111656  0.97437315  1
  N  N106  1  0.84111656  0.97437315  0.60703805  1
  N  N107  1  0.34111656  0.52562685  0.39296195  1
  N  N108  1  0.39296195  0.65888344  0.97437315  1
  N  N109  1  0.65888344  0.02562685  0.10703805  1
  N  N110  1  0.89296195  0.84111656  0.02562685  1
  N  N111  1  0.65888344  0.97437315  0.39296195  1
  N  N112  1  0.60703805  0.15888344  0.52562685  1
  N  N113  1  0.14296195  0.72437315  0.40888344  1
  N  N114  1  0.85703805  0.77562685  0.40888344  1
  N  N115  1  0.77562685  0.40888344  0.85703805  1
  N  N116  1  0.27562685  0.09111656  0.14296195  1
  N  N117  1  0.59111656  0.64296195  0.77562685  1
  N  N118  1  0.90888344  0.64296195  0.22437315  1
  N  N119  1  0.47437315  0.10703805  0.34111656  1
  N  N120  1  0.05461123  0.05461123  0.05461123  1
  N  N121  1  0.19538877  0.69538877  0.80461123  1
  N  N122  1  0.19538877  0.30461123  0.69538877  1
  N  N123  1  0.30461123  0.69538877  0.19538877  1
  N  N124  1  0.44538877  0.05461123  0.94538877  1
  N  N125  1  0.55461123  0.44538877  0.94538877  1
  N  N126  1  0.44538877  0.94538877  0.55461123  1
  N  N127  1  0.30461123  0.30461123  0.30461123  1
  N  N128  1  0.14296195  0.27562685  0.09111656  1
  N  N129  1  0.22437315  0.90888344  0.64296195  1
  N  N130  1  0.40888344  0.85703805  0.77562685  1
  N  N131  1  0.35703805  0.72437315  0.59111656  1
  N  N132  1  0.22437315  0.09111656  0.85703805  1
  N  N133  1  0.59111656  0.35703805  0.72437315  1
  N  N134  1  0.52562685  0.39296195  0.34111656  1
  N  N135  1  0.97437315  0.39296195  0.65888344  1
  N  N136  1  0.02562685  0.10703805  0.65888344  1
  N  N137  1  0.10703805  0.34111656  0.47437315  1
  N  N138  1  0.34111656  0.47437315  0.10703805  1
  N  N139  1  0.84111656  0.02562685  0.89296195  1
  N  N140  1  0.89296195  0.15888344  0.47437315  1
  N  N141  1  0.15888344  0.52562685  0.60703805  1
  N  N142  1  0.39296195  0.34111656  0.52562685  1
  N  N143  1  0.15888344  0.47437315  0.89296195  1
  N  N144  1  0.10703805  0.65888344  0.02562685  1
  N  N145  1  0.64296195  0.22437315  0.90888344  1
  N  N146  1  0.35703805  0.27562685  0.90888344  1
  N  N147  1  0.27562685  0.90888344  0.35703805  1
  N  N148  1  0.77562685  0.59111656  0.64296195  1
  N  N149  1  0.09111656  0.14296195  0.27562685  1
  N  N150  1  0.40888344  0.14296195  0.72437315  1
  N  N151  1  0.97437315  0.60703805  0.84111656  1
  O  O152  1  0.25000000  0.87500000  0.00000000  1
  O  O153  1  0.12500000  0.50000000  0.25000000  1
  O  O154  1  0.87500000  0.00000000  0.25000000  1
  O  O155  1  0.50000000  0.75000000  0.37500000  1
  O  O156  1  0.00000000  0.75000000  0.62500000  1
  O  O157  1  0.75000000  0.62500000  0.00000000  1
  O  O158  1  0.75000000  0.37500000  0.50000000  1
  O  O159  1  0.62500000  0.00000000  0.75000000  1
  O  O160  1  0.37500000  0.50000000  0.75000000  1
  O  O161  1  0.00000000  0.25000000  0.87500000  1
  O  O162  1  0.50000000  0.25000000  0.12500000  1
  O  O163  1  0.25000000  0.12500000  0.50000000  1
