# generated using pymatgen
data_YGa
_symmetry_space_group_name_H-M   'P 1'
_cell_length_a   4.33835400
_cell_length_b   10.92514600
_cell_length_c   4.08742500
_cell_angle_alpha   90.00000000
_cell_angle_beta   90.00000000
_cell_angle_gamma   90.00000000
_symmetry_Int_Tables_number   1
_chemical_formula_structural   YGa
_chemical_formula_sum   'Y4 Ga4'
_cell_volume   193.73229931
_cell_formula_units_Z   4
loop_
 _symmetry_equiv_pos_site_id
 _symmetry_equiv_pos_as_xyz
  1  'x, y, z'
loop_
 _atom_site_type_symbol
 _atom_site_label
 _atom_site_symmetry_multiplicity
 _atom_site_fract_x
 _atom_site_fract_y
 _atom_site_fract_z
 _atom_site_occupancy
  Y  Y0  1  0.00000000  0.13935600  0.25000000  1
  Y  Y1  1  0.50000000  0.36064400  0.75000000  1
  Y  Y2  1  0.50000000  0.63935600  0.25000000  1
  Y  Y3  1  0.00000000  0.86064400  0.75000000  1
  Ga  Ga4  1  0.00000000  0.42392000  0.25000000  1
  Ga  Ga5  1  0.50000000  0.07608000  0.75000000  1
  Ga  Ga6  1  0.50000000  0.92392000  0.25000000  1
  Ga  Ga7  1  0.00000000  0.57608000  0.75000000  1
