# generated using pymatgen
data_Ho2(Ga3Co)3
_symmetry_space_group_name_H-M   'P 1'
_cell_length_a   7.38367800
_cell_length_b   12.72069000
_cell_length_c   9.42056000
_cell_angle_alpha   90.00000000
_cell_angle_beta   90.00000000
_cell_angle_gamma   90.00000000
_symmetry_Int_Tables_number   1
_chemical_formula_structural   Ho2(Ga3Co)3
_chemical_formula_sum   'Ho8 Ga36 Co12'
_cell_volume   884.83060949
_cell_formula_units_Z   4
loop_
 _symmetry_equiv_pos_site_id
 _symmetry_equiv_pos_as_xyz
  1  'x, y, z'
loop_
 _atom_site_type_symbol
 _atom_site_label
 _atom_site_symmetry_multiplicity
 _atom_site_fract_x
 _atom_site_fract_y
 _atom_site_fract_z
 _atom_site_occupancy
  Ho  Ho0  1  0.16714650  0.16425250  0.75000000  1
  Ho  Ho1  1  0.16714650  0.83574750  0.75000000  1
  Ho  Ho2  1  0.83285350  0.83574750  0.25000000  1
  Ho  Ho3  1  0.83285350  0.16425250  0.25000000  1
  Ho  Ho4  1  0.66714650  0.66425250  0.75000000  1
  Ho  Ho5  1  0.66714650  0.33574750  0.75000000  1
  Ho  Ho6  1  0.33285350  0.33574750  0.25000000  1
  Ho  Ho7  1  0.33285350  0.66425250  0.25000000  1
  Ga  Ga8  1  0.33290700  0.33278400  0.92810600  1
  Ga  Ga9  1  0.66709300  0.66721600  0.42810600  1
  Ga  Ga10  1  0.66709300  0.33278400  0.42810600  1
  Ga  Ga11  1  0.66709300  0.66721600  0.07189400  1
  Ga  Ga12  1  0.33290700  0.66721600  0.92810600  1
  Ga  Ga13  1  0.66709300  0.33278400  0.07189400  1
  Ga  Ga14  1  0.33343900  0.00000000  0.55827900  1
  Ga  Ga15  1  0.33343900  0.00000000  0.94172100  1
  Ga  Ga16  1  0.66656100  0.00000000  0.05827900  1
  Ga  Ga17  1  0.66656100  0.00000000  0.44172100  1
  Ga  Ga18  1  0.87896600  0.00000000  0.75000000  1
  Ga  Ga19  1  0.12103400  0.00000000  0.25000000  1
  Ga  Ga20  1  0.44345450  0.89295350  0.25000000  1
  Ga  Ga21  1  0.44345450  0.10704650  0.25000000  1
  Ga  Ga22  1  0.55654550  0.10704650  0.75000000  1
  Ga  Ga23  1  0.55654550  0.89295350  0.75000000  1
  Ga  Ga24  1  0.33290700  0.33278400  0.57189400  1
  Ga  Ga25  1  0.33290700  0.66721600  0.57189400  1
  Ga  Ga26  1  0.83290700  0.83278400  0.92810600  1
  Ga  Ga27  1  0.16709300  0.16721600  0.42810600  1
  Ga  Ga28  1  0.16709300  0.83278400  0.42810600  1
  Ga  Ga29  1  0.16709300  0.16721600  0.07189400  1
  Ga  Ga30  1  0.83290700  0.16721600  0.92810600  1
  Ga  Ga31  1  0.16709300  0.83278400  0.07189400  1
  Ga  Ga32  1  0.83343900  0.50000000  0.55827900  1
  Ga  Ga33  1  0.83343900  0.50000000  0.94172100  1
  Ga  Ga34  1  0.16656100  0.50000000  0.05827900  1
  Ga  Ga35  1  0.16656100  0.50000000  0.44172100  1
  Ga  Ga36  1  0.37896600  0.50000000  0.75000000  1
  Ga  Ga37  1  0.62103400  0.50000000  0.25000000  1
  Ga  Ga38  1  0.94345450  0.39295350  0.25000000  1
  Ga  Ga39  1  0.94345450  0.60704650  0.25000000  1
  Ga  Ga40  1  0.05654550  0.60704650  0.75000000  1
  Ga  Ga41  1  0.05654550  0.39295350  0.75000000  1
  Ga  Ga42  1  0.83290700  0.83278400  0.57189400  1
  Ga  Ga43  1  0.83290700  0.16721600  0.57189400  1
  Co  Co44  1  0.50000000  0.82921500  0.00000000  1
  Co  Co45  1  0.50000000  0.17078500  0.50000000  1
  Co  Co46  1  0.50000000  0.17078500  0.00000000  1
  Co  Co47  1  0.50000000  0.82921500  0.50000000  1
  Co  Co48  1  0.00000000  0.00000000  0.00000000  1
  Co  Co49  1  0.00000000  0.00000000  0.50000000  1
  Co  Co50  1  0.00000000  0.32921500  0.00000000  1
  Co  Co51  1  0.00000000  0.67078500  0.50000000  1
  Co  Co52  1  0.00000000  0.67078500  0.00000000  1
  Co  Co53  1  0.00000000  0.32921500  0.50000000  1
  Co  Co54  1  0.50000000  0.50000000  0.00000000  1
  Co  Co55  1  0.50000000  0.50000000  0.50000000  1
