# generated using pymatgen
data_Nd2Fe17
_symmetry_space_group_name_H-M   'P 1'
_cell_length_a   8.58292945
_cell_length_b   8.58292945
_cell_length_c   12.47043925
_cell_angle_alpha   90.00000000
_cell_angle_beta   90.00000000
_cell_angle_gamma   120.00000000
_symmetry_Int_Tables_number   1
_chemical_formula_structural   Nd2Fe17
_chemical_formula_sum   'Nd6 Fe51'
_cell_volume   795.57928743
_cell_formula_units_Z   3
loop_
 _symmetry_equiv_pos_site_id
 _symmetry_equiv_pos_as_xyz
  1  'x, y, z'
loop_
 _atom_site_type_symbol
 _atom_site_label
 _atom_site_symmetry_multiplicity
 _atom_site_fract_x
 _atom_site_fract_y
 _atom_site_fract_z
 _atom_site_occupancy
  Nd  Nd0  1  0.33333333  0.66666667  0.32475667  1
  Nd  Nd1  1  0.33333333  0.66666667  0.00857667  1
  Nd  Nd2  1  0.00000000  0.00000000  0.65809000  1
  Nd  Nd3  1  0.00000000  0.00000000  0.34191000  1
  Nd  Nd4  1  0.66666667  0.33333333  0.99142333  1
  Nd  Nd5  1  0.66666667  0.33333333  0.67524333  1
  Fe  Fe6  1  0.16666667  0.83333333  0.83333333  1
  Fe  Fe7  1  0.83333333  0.66666667  0.16666667  1
  Fe  Fe8  1  0.33333333  0.16666667  0.16666667  1
  Fe  Fe9  1  0.95611167  0.62277833  0.33333333  1
  Fe  Fe10  1  0.71055500  1.00000000  0.00000000  1
  Fe  Fe11  1  0.00000000  0.71055500  0.00000000  1
  Fe  Fe12  1  0.28944500  1.00000000  0.00000000  1
  Fe  Fe13  1  0.00000000  0.28944500  0.00000000  1
  Fe  Fe14  1  0.37722167  0.04388833  0.33333333  1
  Fe  Fe15  1  0.16509167  0.83490833  0.17627233  1
  Fe  Fe16  1  0.16509167  0.33018333  0.17627233  1
  Fe  Fe17  1  0.66981667  0.83490833  0.17627233  1
  Fe  Fe18  1  0.50157500  0.49842500  0.15706100  1
  Fe  Fe19  1  0.50157500  0.00315000  0.15706100  1
  Fe  Fe20  1  0.99685000  0.49842500  0.15706100  1
  Fe  Fe21  1  0.33333333  0.66666667  0.56966267  1
  Fe  Fe22  1  0.33333333  0.66666667  0.76367067  1
  Fe  Fe23  1  0.83333333  0.16666667  0.16666667  1
  Fe  Fe24  1  0.50000000  0.00000000  0.50000000  1
  Fe  Fe25  1  0.00000000  0.50000000  0.50000000  1
  Fe  Fe26  1  0.62277833  0.95611167  0.66666667  1
  Fe  Fe27  1  0.37722167  0.33333333  0.33333333  1
  Fe  Fe28  1  0.66666667  0.04388833  0.33333333  1
  Fe  Fe29  1  0.95611167  0.33333333  0.33333333  1
  Fe  Fe30  1  0.66666667  0.62277833  0.33333333  1
  Fe  Fe31  1  0.04388833  0.37722167  0.66666667  1
  Fe  Fe32  1  0.83175833  0.16824167  0.50960567  1
  Fe  Fe33  1  0.83175833  0.66351667  0.50960567  1
  Fe  Fe34  1  0.33648333  0.16824167  0.50960567  1
  Fe  Fe35  1  0.16824167  0.83175833  0.49039433  1
  Fe  Fe36  1  0.16824167  0.33648333  0.49039433  1
  Fe  Fe37  1  0.66351667  0.83175833  0.49039433  1
  Fe  Fe38  1  0.00000000  0.00000000  0.90299600  1
  Fe  Fe39  1  0.00000000  0.00000000  0.09700400  1
  Fe  Fe40  1  0.50000000  0.50000000  0.50000000  1
  Fe  Fe41  1  0.16666667  0.33333333  0.83333333  1
  Fe  Fe42  1  0.66666667  0.83333333  0.83333333  1
  Fe  Fe43  1  0.28944500  0.28944500  0.00000000  1
  Fe  Fe44  1  0.04388833  0.66666667  0.66666667  1
  Fe  Fe45  1  0.33333333  0.37722167  0.66666667  1
  Fe  Fe46  1  0.62277833  0.66666667  0.66666667  1
  Fe  Fe47  1  0.33333333  0.95611167  0.66666667  1
  Fe  Fe48  1  0.71055500  0.71055500  0.00000000  1
  Fe  Fe49  1  0.49842500  0.50157500  0.84293900  1
  Fe  Fe50  1  0.49842500  0.99685000  0.84293900  1
  Fe  Fe51  1  0.00315000  0.50157500  0.84293900  1
  Fe  Fe52  1  0.83490833  0.16509167  0.82372767  1
  Fe  Fe53  1  0.83490833  0.66981667  0.82372767  1
  Fe  Fe54  1  0.33018333  0.16509167  0.82372767  1
  Fe  Fe55  1  0.66666667  0.33333333  0.23632933  1
  Fe  Fe56  1  0.66666667  0.33333333  0.43033733  1
