# generated using pymatgen
data_MnGeRh
_symmetry_space_group_name_H-M   'P 1'
_cell_length_a   6.61707000
_cell_length_b   7.13515200
_cell_length_c   11.33484200
_cell_angle_alpha   90.00000000
_cell_angle_beta   90.00000000
_cell_angle_gamma   90.00000000
_symmetry_Int_Tables_number   1
_chemical_formula_structural   MnGeRh
_chemical_formula_sum   'Mn12 Ge12 Rh12'
_cell_volume   535.16096599
_cell_formula_units_Z   12
loop_
 _symmetry_equiv_pos_site_id
 _symmetry_equiv_pos_as_xyz
  1  'x, y, z'
loop_
 _atom_site_type_symbol
 _atom_site_label
 _atom_site_symmetry_multiplicity
 _atom_site_fract_x
 _atom_site_fract_y
 _atom_site_fract_z
 _atom_site_occupancy
  Mn  Mn0  1  0.70357600  0.25000000  0.30721450  1
  Mn  Mn1  1  0.20357600  0.25000000  0.19278550  1
  Mn  Mn2  1  0.22359250  0.75000000  0.21719300  1
  Mn  Mn3  1  0.72359250  0.75000000  0.28280700  1
  Mn  Mn4  1  0.59397150  0.75000000  0.00852800  1
  Mn  Mn5  1  0.09397150  0.75000000  0.49147200  1
  Mn  Mn6  1  0.20357600  0.75000000  0.80721450  1
  Mn  Mn7  1  0.70357600  0.75000000  0.69278550  1
  Mn  Mn8  1  0.72359250  0.25000000  0.71719300  1
  Mn  Mn9  1  0.22359250  0.25000000  0.78280700  1
  Mn  Mn10  1  0.09397150  0.25000000  0.50852800  1
  Mn  Mn11  1  0.59397150  0.25000000  0.99147200  1
  Ge  Ge12  1  0.99901800  0.75000000  0.02763650  1
  Ge  Ge13  1  0.50345700  0.00733900  0.16705850  1
  Ge  Ge14  1  0.00345700  0.49266100  0.33294150  1
  Ge  Ge15  1  0.49901800  0.75000000  0.47236350  1
  Ge  Ge16  1  0.50345700  0.49266100  0.16705850  1
  Ge  Ge17  1  0.00345700  0.00733900  0.33294150  1
  Ge  Ge18  1  0.49901800  0.25000000  0.52763650  1
  Ge  Ge19  1  0.00345700  0.50733900  0.66705850  1
  Ge  Ge20  1  0.50345700  0.99266100  0.83294150  1
  Ge  Ge21  1  0.99901800  0.25000000  0.97236350  1
  Ge  Ge22  1  0.00345700  0.99266100  0.66705850  1
  Ge  Ge23  1  0.50345700  0.50733900  0.83294150  1
  Rh  Rh24  1  0.26022000  0.00000000  0.00000000  1
  Rh  Rh25  1  0.26022000  0.50000000  0.00000000  1
  Rh  Rh26  1  0.87080400  0.46631700  0.12886850  1
  Rh  Rh27  1  0.37080400  0.46631700  0.37113150  1
  Rh  Rh28  1  0.87080400  0.03368300  0.12886850  1
  Rh  Rh29  1  0.37080400  0.03368300  0.37113150  1
  Rh  Rh30  1  0.76022000  0.50000000  0.50000000  1
  Rh  Rh31  1  0.76022000  0.00000000  0.50000000  1
  Rh  Rh32  1  0.37080400  0.96631700  0.62886850  1
  Rh  Rh33  1  0.87080400  0.96631700  0.87113150  1
  Rh  Rh34  1  0.37080400  0.53368300  0.62886850  1
  Rh  Rh35  1  0.87080400  0.53368300  0.87113150  1
