# generated using pymatgen
data_SrIrO3
_symmetry_space_group_name_H-M   'P 1'
_cell_length_a   5.69126800
_cell_length_b   9.52035600
_cell_length_c   14.48567400
_cell_angle_alpha   90.00000000
_cell_angle_beta   90.00000000
_cell_angle_gamma   90.00000000
_symmetry_Int_Tables_number   1
_chemical_formula_structural   SrIrO3
_chemical_formula_sum   'Sr12 Ir12 O36'
_cell_volume   784.87578886
_cell_formula_units_Z   12
loop_
 _symmetry_equiv_pos_site_id
 _symmetry_equiv_pos_as_xyz
  1  'x, y, z'
loop_
 _atom_site_type_symbol
 _atom_site_label
 _atom_site_symmetry_multiplicity
 _atom_site_fract_x
 _atom_site_fract_y
 _atom_site_fract_z
 _atom_site_occupancy
  Sr  Sr0  1  0.50000000  0.50825900  0.75000000  1
  Sr  Sr1  1  0.50000000  0.49174100  0.25000000  1
  Sr  Sr2  1  0.50000000  0.17656800  0.89190700  1
  Sr  Sr3  1  0.50000000  0.17656800  0.60809300  1
  Sr  Sr4  1  0.50000000  0.82343200  0.10809300  1
  Sr  Sr5  1  0.50000000  0.82343200  0.39190700  1
  Sr  Sr6  1  0.00000000  0.00825900  0.75000000  1
  Sr  Sr7  1  0.00000000  0.99174100  0.25000000  1
  Sr  Sr8  1  0.00000000  0.67656800  0.89190700  1
  Sr  Sr9  1  0.00000000  0.67656800  0.60809300  1
  Sr  Sr10  1  0.00000000  0.32343200  0.10809300  1
  Sr  Sr11  1  0.00000000  0.32343200  0.39190700  1
  Ir  Ir12  1  0.00000000  0.00000000  0.00000000  1
  Ir  Ir13  1  0.00000000  0.00000000  0.50000000  1
  Ir  Ir14  1  0.50000000  0.16095500  0.15199700  1
  Ir  Ir15  1  0.50000000  0.16095500  0.34800300  1
  Ir  Ir16  1  0.50000000  0.83904500  0.84800300  1
  Ir  Ir17  1  0.50000000  0.83904500  0.65199700  1
  Ir  Ir18  1  0.50000000  0.50000000  0.00000000  1
  Ir  Ir19  1  0.50000000  0.50000000  0.50000000  1
  Ir  Ir20  1  0.00000000  0.66095500  0.15199700  1
  Ir  Ir21  1  0.00000000  0.66095500  0.34800300  1
  Ir  Ir22  1  0.00000000  0.33904500  0.84800300  1
  Ir  Ir23  1  0.00000000  0.33904500  0.65199700  1
  O  O24  1  0.23957800  0.03931500  0.40155300  1
  O  O25  1  0.76042200  0.03931500  0.09844700  1
  O  O26  1  0.76042200  0.96068500  0.59844700  1
  O  O27  1  0.23957800  0.96068500  0.90155300  1
  O  O28  1  0.50000000  0.29818500  0.04288600  1
  O  O29  1  0.50000000  0.29818500  0.45711400  1
  O  O30  1  0.50000000  0.70181500  0.95711400  1
  O  O31  1  0.50000000  0.70181500  0.54288600  1
  O  O32  1  0.76042200  0.03931500  0.40155300  1
  O  O33  1  0.23957800  0.03931500  0.09844700  1
  O  O34  1  0.23957800  0.96068500  0.59844700  1
  O  O35  1  0.76042200  0.96068500  0.90155300  1
  O  O36  1  0.50000000  0.98715700  0.75000000  1
  O  O37  1  0.50000000  0.01284300  0.25000000  1
  O  O38  1  0.27150150  0.75285650  0.75000000  1
  O  O39  1  0.72849850  0.75285650  0.75000000  1
  O  O40  1  0.72849850  0.24714350  0.25000000  1
  O  O41  1  0.27150150  0.24714350  0.25000000  1
  O  O42  1  0.73957800  0.53931500  0.40155300  1
  O  O43  1  0.26042200  0.53931500  0.09844700  1
  O  O44  1  0.26042200  0.46068500  0.59844700  1
  O  O45  1  0.73957800  0.46068500  0.90155300  1
  O  O46  1  0.00000000  0.79818500  0.04288600  1
  O  O47  1  0.00000000  0.79818500  0.45711400  1
  O  O48  1  0.00000000  0.20181500  0.95711400  1
  O  O49  1  0.00000000  0.20181500  0.54288600  1
  O  O50  1  0.26042200  0.53931500  0.40155300  1
  O  O51  1  0.73957800  0.53931500  0.09844700  1
  O  O52  1  0.73957800  0.46068500  0.59844700  1
  O  O53  1  0.26042200  0.46068500  0.90155300  1
  O  O54  1  0.00000000  0.48715700  0.75000000  1
  O  O55  1  0.00000000  0.51284300  0.25000000  1
  O  O56  1  0.77150150  0.25285650  0.75000000  1
  O  O57  1  0.22849850  0.25285650  0.75000000  1
  O  O58  1  0.22849850  0.74714350  0.25000000  1
  O  O59  1  0.77150150  0.74714350  0.25000000  1
