# generated using pymatgen
data_ZrZn16
_symmetry_space_group_name_H-M   'P 1'
_cell_length_a   7.77677400
_cell_length_b   11.59978600
_cell_length_c   11.82697000
_cell_angle_alpha   90.00000000
_cell_angle_beta   90.00000000
_cell_angle_gamma   90.00000000
_symmetry_Int_Tables_number   1
_chemical_formula_structural   ZrZn16
_chemical_formula_sum   'Zr4 Zn64'
_cell_volume   1066.89812163
_cell_formula_units_Z   4
loop_
 _symmetry_equiv_pos_site_id
 _symmetry_equiv_pos_as_xyz
  1  'x, y, z'
loop_
 _atom_site_type_symbol
 _atom_site_label
 _atom_site_symmetry_multiplicity
 _atom_site_fract_x
 _atom_site_fract_y
 _atom_site_fract_z
 _atom_site_occupancy
  Zr  Zr0  1  0.50000000  0.45259800  0.75000000  1
  Zr  Zr1  1  0.50000000  0.54740200  0.25000000  1
  Zr  Zr2  1  0.00000000  0.95259800  0.75000000  1
  Zr  Zr3  1  0.00000000  0.04740200  0.25000000  1
  Zn  Zn4  1  0.66897250  0.31390950  0.93127900  1
  Zn  Zn5  1  0.33102750  0.68609050  0.43127900  1
  Zn  Zn6  1  0.66897250  0.68609050  0.06872100  1
  Zn  Zn7  1  0.33102750  0.31390950  0.56872100  1
  Zn  Zn8  1  0.33102750  0.68609050  0.06872100  1
  Zn  Zn9  1  0.66897250  0.31390950  0.56872100  1
  Zn  Zn10  1  0.33102750  0.31390950  0.93127900  1
  Zn  Zn11  1  0.66897250  0.68609050  0.43127900  1
  Zn  Zn12  1  0.70210500  0.05378100  0.86596800  1
  Zn  Zn13  1  0.29789500  0.94621900  0.36596800  1
  Zn  Zn14  1  0.70210500  0.94621900  0.13403200  1
  Zn  Zn15  1  0.29789500  0.05378100  0.63403200  1
  Zn  Zn16  1  0.29789500  0.94621900  0.13403200  1
  Zn  Zn17  1  0.70210500  0.05378100  0.63403200  1
  Zn  Zn18  1  0.29789500  0.05378100  0.86596800  1
  Zn  Zn19  1  0.70210500  0.94621900  0.36596800  1
  Zn  Zn20  1  0.33776250  0.85690850  0.75000000  1
  Zn  Zn21  1  0.66223750  0.14309150  0.25000000  1
  Zn  Zn22  1  0.33776250  0.14309150  0.25000000  1
  Zn  Zn23  1  0.66223750  0.85690850  0.75000000  1
  Zn  Zn24  1  0.50000000  0.32174800  0.36042100  1
  Zn  Zn25  1  0.50000000  0.67825200  0.86042100  1
  Zn  Zn26  1  0.50000000  0.67825200  0.63957900  1
  Zn  Zn27  1  0.50000000  0.32174800  0.13957900  1
  Zn  Zn28  1  0.50000000  0.87901100  0.96945000  1
  Zn  Zn29  1  0.50000000  0.12098900  0.46945000  1
  Zn  Zn30  1  0.50000000  0.12098900  0.03055000  1
  Zn  Zn31  1  0.50000000  0.87901100  0.53055000  1
  Zn  Zn32  1  0.50000000  0.20784300  0.75000000  1
  Zn  Zn33  1  0.50000000  0.79215700  0.25000000  1
  Zn  Zn34  1  0.00000000  0.00000000  0.00000000  1
  Zn  Zn35  1  0.00000000  0.00000000  0.50000000  1
  Zn  Zn36  1  0.16897250  0.81390950  0.93127900  1
  Zn  Zn37  1  0.83102750  0.18609050  0.43127900  1
  Zn  Zn38  1  0.16897250  0.18609050  0.06872100  1
  Zn  Zn39  1  0.83102750  0.81390950  0.56872100  1
  Zn  Zn40  1  0.83102750  0.18609050  0.06872100  1
  Zn  Zn41  1  0.16897250  0.81390950  0.56872100  1
  Zn  Zn42  1  0.83102750  0.81390950  0.93127900  1
  Zn  Zn43  1  0.16897250  0.18609050  0.43127900  1
  Zn  Zn44  1  0.20210500  0.55378100  0.86596800  1
  Zn  Zn45  1  0.79789500  0.44621900  0.36596800  1
  Zn  Zn46  1  0.20210500  0.44621900  0.13403200  1
  Zn  Zn47  1  0.79789500  0.55378100  0.63403200  1
  Zn  Zn48  1  0.79789500  0.44621900  0.13403200  1
  Zn  Zn49  1  0.20210500  0.55378100  0.63403200  1
  Zn  Zn50  1  0.79789500  0.55378100  0.86596800  1
  Zn  Zn51  1  0.20210500  0.44621900  0.36596800  1
  Zn  Zn52  1  0.83776250  0.35690850  0.75000000  1
  Zn  Zn53  1  0.16223750  0.64309150  0.25000000  1
  Zn  Zn54  1  0.83776250  0.64309150  0.25000000  1
  Zn  Zn55  1  0.16223750  0.35690850  0.75000000  1
  Zn  Zn56  1  0.00000000  0.82174800  0.36042100  1
  Zn  Zn57  1  0.00000000  0.17825200  0.86042100  1
  Zn  Zn58  1  0.00000000  0.17825200  0.63957900  1
  Zn  Zn59  1  0.00000000  0.82174800  0.13957900  1
  Zn  Zn60  1  0.00000000  0.37901100  0.96945000  1
  Zn  Zn61  1  0.00000000  0.62098900  0.46945000  1
  Zn  Zn62  1  0.00000000  0.62098900  0.03055000  1
  Zn  Zn63  1  0.00000000  0.37901100  0.53055000  1
  Zn  Zn64  1  0.00000000  0.70784300  0.75000000  1
  Zn  Zn65  1  0.00000000  0.29215700  0.25000000  1
  Zn  Zn66  1  0.50000000  0.50000000  0.00000000  1
  Zn  Zn67  1  0.50000000  0.50000000  0.50000000  1
