# generated using pymatgen
data_LaGa
_symmetry_space_group_name_H-M   'P 1'
_cell_length_a   4.56916000
_cell_length_b   11.62549800
_cell_length_c   4.24850100
_cell_angle_alpha   90.00000000
_cell_angle_beta   90.00000000
_cell_angle_gamma   90.00000000
_symmetry_Int_Tables_number   1
_chemical_formula_structural   LaGa
_chemical_formula_sum   'La4 Ga4'
_cell_volume   225.67510686
_cell_formula_units_Z   4
loop_
 _symmetry_equiv_pos_site_id
 _symmetry_equiv_pos_as_xyz
  1  'x, y, z'
loop_
 _atom_site_type_symbol
 _atom_site_label
 _atom_site_symmetry_multiplicity
 _atom_site_fract_x
 _atom_site_fract_y
 _atom_site_fract_z
 _atom_site_occupancy
  La  La0  1  0.00000000  0.13956500  0.25000000  1
  La  La1  1  0.50000000  0.36043500  0.75000000  1
  La  La2  1  0.50000000  0.63956500  0.25000000  1
  La  La3  1  0.00000000  0.86043500  0.75000000  1
  Ga  Ga4  1  0.00000000  0.43256200  0.25000000  1
  Ga  Ga5  1  0.50000000  0.06743800  0.75000000  1
  Ga  Ga6  1  0.50000000  0.93256200  0.25000000  1
  Ga  Ga7  1  0.00000000  0.56743800  0.75000000  1
