# generated using pymatgen
data_HoAl4Ni
_symmetry_space_group_name_H-M   'P 1'
_cell_length_a   4.04763400
_cell_length_b   15.36202600
_cell_length_c   6.62939900
_cell_angle_alpha   90.00000000
_cell_angle_beta   90.00000000
_cell_angle_gamma   90.00000000
_symmetry_Int_Tables_number   1
_chemical_formula_structural   HoAl4Ni
_chemical_formula_sum   'Ho4 Al16 Ni4'
_cell_volume   412.21509339
_cell_formula_units_Z   4
loop_
 _symmetry_equiv_pos_site_id
 _symmetry_equiv_pos_as_xyz
  1  'x, y, z'
loop_
 _atom_site_type_symbol
 _atom_site_label
 _atom_site_symmetry_multiplicity
 _atom_site_fract_x
 _atom_site_fract_y
 _atom_site_fract_z
 _atom_site_occupancy
  Ho  Ho0  1  0.50000000  0.61800000  0.25000000  1
  Ho  Ho1  1  0.00000000  0.88200000  0.75000000  1
  Ho  Ho2  1  0.00000000  0.11800000  0.25000000  1
  Ho  Ho3  1  0.50000000  0.38200000  0.75000000  1
  Al  Al4  1  0.50000000  0.00000000  0.00000000  1
  Al  Al5  1  0.50000000  0.00000000  0.50000000  1
  Al  Al6  1  0.50000000  0.57601100  0.75000000  1
  Al  Al7  1  0.00000000  0.92398900  0.25000000  1
  Al  Al8  1  0.00000000  0.68824700  0.94701400  1
  Al  Al9  1  0.50000000  0.81175300  0.05298600  1
  Al  Al10  1  0.50000000  0.81175300  0.44701400  1
  Al  Al11  1  0.00000000  0.68824700  0.55298600  1
  Al  Al12  1  0.00000000  0.50000000  0.00000000  1
  Al  Al13  1  0.00000000  0.50000000  0.50000000  1
  Al  Al14  1  0.00000000  0.07601100  0.75000000  1
  Al  Al15  1  0.50000000  0.42398900  0.25000000  1
  Al  Al16  1  0.50000000  0.18824700  0.94701400  1
  Al  Al17  1  0.00000000  0.31175300  0.05298600  1
  Al  Al18  1  0.00000000  0.31175300  0.44701400  1
  Al  Al19  1  0.50000000  0.18824700  0.55298600  1
  Ni  Ni20  1  0.00000000  0.77301300  0.25000000  1
  Ni  Ni21  1  0.50000000  0.72698700  0.75000000  1
  Ni  Ni22  1  0.50000000  0.27301300  0.25000000  1
  Ni  Ni23  1  0.00000000  0.22698700  0.75000000  1
