# generated using pymatgen
data_Rb2Mo9S11
_symmetry_space_group_name_H-M   'P 1'
_cell_length_a   9.49610372
_cell_length_b   9.49610372
_cell_length_c   36.18501305
_cell_angle_alpha   90.00000000
_cell_angle_beta   90.00000000
_cell_angle_gamma   120.00000000
_symmetry_Int_Tables_number   1
_chemical_formula_structural   Rb2Mo9S11
_chemical_formula_sum   'Rb12 Mo54 S66'
_cell_volume   2825.85754189
_cell_formula_units_Z   6
loop_
 _symmetry_equiv_pos_site_id
 _symmetry_equiv_pos_as_xyz
  1  'x, y, z'
loop_
 _atom_site_type_symbol
 _atom_site_label
 _atom_site_symmetry_multiplicity
 _atom_site_fract_x
 _atom_site_fract_y
 _atom_site_fract_z
 _atom_site_occupancy
  Rb  Rb0  1  0.66666667  0.33333333  0.28201133  1
  Rb  Rb1  1  0.00000000  0.00000000  0.05132200  1
  Rb  Rb2  1  0.33333333  0.66666667  0.21798867  1
  Rb  Rb3  1  0.33333333  0.66666667  0.11534467  1
  Rb  Rb4  1  0.33333333  0.66666667  0.61534467  1
  Rb  Rb5  1  0.66666667  0.33333333  0.38465533  1
  Rb  Rb6  1  0.00000000  0.00000000  0.55132200  1
  Rb  Rb7  1  0.00000000  0.00000000  0.44867800  1
  Rb  Rb8  1  0.00000000  0.00000000  0.94867800  1
  Rb  Rb9  1  0.33333333  0.66666667  0.71798867  1
  Rb  Rb10  1  0.66666667  0.33333333  0.88465533  1
  Rb  Rb11  1  0.66666667  0.33333333  0.78201133  1
  Mo  Mo12  1  0.83358367  0.49114933  0.02033333  1
  Mo  Mo13  1  0.50885067  0.34243433  0.02033333  1
  Mo  Mo14  1  0.65756567  0.16641633  0.02033333  1
  Mo  Mo15  1  0.67576767  0.17551733  0.14633333  1
  Mo  Mo16  1  0.82448267  0.50025033  0.14633333  1
  Mo  Mo17  1  0.49974967  0.32423233  0.14633333  1
  Mo  Mo18  1  0.83308300  0.84218400  0.31300000  1
  Mo  Mo19  1  0.15781600  0.99089900  0.31300000  1
  Mo  Mo20  1  0.00910100  0.16691700  0.31300000  1
  Mo  Mo21  1  0.99089900  0.15781600  0.18700000  1
  Mo  Mo22  1  0.84218400  0.83308300  0.18700000  1
  Mo  Mo23  1  0.16691700  0.00910100  0.18700000  1
  Mo  Mo24  1  0.50040167  0.16706833  0.08333333  1
  Mo  Mo25  1  0.83293167  0.33333333  0.08333333  1
  Mo  Mo26  1  0.66666667  0.49959833  0.08333333  1
  Mo  Mo27  1  0.16626500  0.16626500  0.25000000  1
  Mo  Mo28  1  0.83373500  0.00000000  0.25000000  1
  Mo  Mo29  1  0.00000000  0.83373500  0.25000000  1
  Mo  Mo30  1  0.50025033  0.82448267  0.35366667  1
  Mo  Mo31  1  0.17551733  0.67576767  0.35366667  1
  Mo  Mo32  1  0.32423233  0.49974967  0.35366667  1
  Mo  Mo33  1  0.34243433  0.50885067  0.47966667  1
  Mo  Mo34  1  0.49114933  0.83358367  0.47966667  1
  Mo  Mo35  1  0.16641633  0.65756567  0.47966667  1
  Mo  Mo36  1  0.49974967  0.17551733  0.64633333  1
  Mo  Mo37  1  0.82448267  0.32423233  0.64633333  1
  Mo  Mo38  1  0.67576767  0.50025033  0.64633333  1
  Mo  Mo39  1  0.65756567  0.49114933  0.52033333  1
  Mo  Mo40  1  0.50885067  0.16641633  0.52033333  1
  Mo  Mo41  1  0.83358367  0.34243433  0.52033333  1
  Mo  Mo42  1  0.16706833  0.50040167  0.41666667  1
  Mo  Mo43  1  0.49959833  0.66666667  0.41666667  1
  Mo  Mo44  1  0.33333333  0.83293167  0.41666667  1
  Mo  Mo45  1  0.83293167  0.49959833  0.58333333  1
  Mo  Mo46  1  0.50040167  0.33333333  0.58333333  1
  Mo  Mo47  1  0.66666667  0.16706833  0.58333333  1
  Mo  Mo48  1  0.16691700  0.15781600  0.68700000  1
  Mo  Mo49  1  0.84218400  0.00910100  0.68700000  1
  Mo  Mo50  1  0.99089900  0.83308300  0.68700000  1
  Mo  Mo51  1  0.00910100  0.84218400  0.81300000  1
  Mo  Mo52  1  0.15781600  0.16691700  0.81300000  1
  Mo  Mo53  1  0.83308300  0.99089900  0.81300000  1
  Mo  Mo54  1  0.16641633  0.50885067  0.97966667  1
  Mo  Mo55  1  0.49114933  0.65756567  0.97966667  1
  Mo  Mo56  1  0.34243433  0.83358367  0.97966667  1
  Mo  Mo57  1  0.32423233  0.82448267  0.85366667  1
  Mo  Mo58  1  0.17551733  0.49974967  0.85366667  1
  Mo  Mo59  1  0.50025033  0.67576767  0.85366667  1
  Mo  Mo60  1  0.83373500  0.83373500  0.75000000  1
  Mo  Mo61  1  0.16626500  0.00000000  0.75000000  1
  Mo  Mo62  1  0.00000000  0.16626500  0.75000000  1
  Mo  Mo63  1  0.49959833  0.83293167  0.91666667  1
  Mo  Mo64  1  0.16706833  0.66666667  0.91666667  1
  Mo  Mo65  1  0.33333333  0.50040167  0.91666667  1
  S  S66  1  0.96696467  0.63363133  0.08333333  1
  S  S67  1  0.70984033  0.01874767  0.30813867  1
  S  S68  1  0.66666667  0.03303533  0.08333333  1
  S  S69  1  0.30890733  0.29015967  0.30813867  1
  S  S70  1  0.66666667  0.33333333  0.19704233  1
  S  S71  1  0.33333333  0.66666667  0.30295767  1
  S  S72  1  0.00000000  0.00000000  0.13629100  1
  S  S73  1  0.33333333  0.66666667  0.03037567  1
  S  S74  1  0.37650700  0.02442600  0.14147200  1
  S  S75  1  0.97557400  0.35208100  0.14147200  1
  S  S76  1  0.64791900  0.62349300  0.14147200  1
  S  S77  1  0.68541433  0.64224067  0.02519467  1
  S  S78  1  0.35775933  0.04317367  0.02519467  1
  S  S79  1  0.95682633  0.31458567  0.02519467  1
  S  S80  1  0.29015967  0.30890733  0.19186133  1
  S  S81  1  0.69109267  0.98125233  0.19186133  1
  S  S82  1  0.01874767  0.70984033  0.19186133  1
  S  S83  1  0.98125233  0.69109267  0.30813867  1
  S  S84  1  0.30029800  1.00000000  0.25000000  1
  S  S85  1  0.69970200  0.69970200  0.25000000  1
  S  S86  1  0.00000000  0.30029800  0.25000000  1
  S  S87  1  0.36636867  0.33333333  0.08333333  1
  S  S88  1  0.63363133  0.96696467  0.41666667  1
  S  S89  1  0.37650700  0.35208100  0.64147200  1
  S  S90  1  0.33333333  0.36636867  0.41666667  1
  S  S91  1  0.97557400  0.62349300  0.64147200  1
  S  S92  1  0.33333333  0.66666667  0.53037567  1
  S  S93  1  0.00000000  0.00000000  0.63629100  1
  S  S94  1  0.66666667  0.33333333  0.46962433  1
  S  S95  1  0.00000000  0.00000000  0.36370900  1
  S  S96  1  0.04317367  0.35775933  0.47480533  1
  S  S97  1  0.64224067  0.68541433  0.47480533  1
  S  S98  1  0.31458567  0.95682633  0.47480533  1
  S  S99  1  0.35208100  0.97557400  0.35852800  1
  S  S100  1  0.02442600  0.37650700  0.35852800  1
  S  S101  1  0.62349300  0.64791900  0.35852800  1
  S  S102  1  0.95682633  0.64224067  0.52519467  1
  S  S103  1  0.35775933  0.31458567  0.52519467  1
  S  S104  1  0.68541433  0.04317367  0.52519467  1
  S  S105  1  0.64791900  0.02442600  0.64147200  1
  S  S106  1  0.96696467  0.33333333  0.58333333  1
  S  S107  1  0.36636867  0.03303533  0.58333333  1
  S  S108  1  0.66666667  0.63363133  0.58333333  1
  S  S109  1  0.03303533  0.66666667  0.41666667  1
  S  S110  1  0.30029800  0.30029800  0.75000000  1
  S  S111  1  0.04317367  0.68541433  0.97480533  1
  S  S112  1  0.00000000  0.69970200  0.75000000  1
  S  S113  1  0.64224067  0.95682633  0.97480533  1
  S  S114  1  0.00000000  0.00000000  0.86370900  1
  S  S115  1  0.66666667  0.33333333  0.96962433  1
  S  S116  1  0.33333333  0.66666667  0.80295767  1
  S  S117  1  0.66666667  0.33333333  0.69704233  1
  S  S118  1  0.70984033  0.69109267  0.80813867  1
  S  S119  1  0.30890733  0.01874767  0.80813867  1
  S  S120  1  0.98125233  0.29015967  0.80813867  1
  S  S121  1  0.01874767  0.30890733  0.69186133  1
  S  S122  1  0.69109267  0.70984033  0.69186133  1
  S  S123  1  0.29015967  0.98125233  0.69186133  1
  S  S124  1  0.62349300  0.97557400  0.85852800  1
  S  S125  1  0.02442600  0.64791900  0.85852800  1
  S  S126  1  0.35208100  0.37650700  0.85852800  1
  S  S127  1  0.31458567  0.35775933  0.97480533  1
  S  S128  1  0.63363133  0.66666667  0.91666667  1
  S  S129  1  0.03303533  0.36636867  0.91666667  1
  S  S130  1  0.33333333  0.96696467  0.91666667  1
  S  S131  1  0.69970200  0.00000000  0.75000000  1
