# generated using pymatgen
data_Sr3Mn2O7
_symmetry_space_group_name_H-M   'P 1'
_cell_length_a   3.88005246
_cell_length_b   3.88005246
_cell_length_c   20.27852242
_cell_angle_alpha   90.00000000
_cell_angle_beta   90.00000000
_cell_angle_gamma   90.00000000
_symmetry_Int_Tables_number   1
_chemical_formula_structural   Sr3Mn2O7
_chemical_formula_sum   'Sr6 Mn4 O14'
_cell_volume   305.28924304
_cell_formula_units_Z   2
loop_
 _symmetry_equiv_pos_site_id
 _symmetry_equiv_pos_as_xyz
  1  'x, y, z'
loop_
 _atom_site_type_symbol
 _atom_site_label
 _atom_site_symmetry_multiplicity
 _atom_site_fract_x
 _atom_site_fract_y
 _atom_site_fract_z
 _atom_site_occupancy
  Sr  Sr0  1  0.50000000  0.50000000  0.00000000  1
  Sr  Sr1  1  0.50000000  0.50000000  0.81703103  1
  Sr  Sr2  1  0.00000000  0.00000000  0.68296897  1
  Sr  Sr3  1  0.00000000  0.00000000  0.50000000  1
  Sr  Sr4  1  0.00000000  0.00000000  0.31703103  1
  Sr  Sr5  1  0.50000000  0.50000000  0.18296897  1
  Mn  Mn6  1  0.50000000  0.50000000  0.59730752  1
  Mn  Mn7  1  0.00000000  0.00000000  0.90269248  1
  Mn  Mn8  1  0.00000000  0.00000000  0.09730752  1
  Mn  Mn9  1  0.50000000  0.50000000  0.40269248  1
  O  O10  1  0.00000000  0.50000000  0.90423007  1
  O  O11  1  0.50000000  0.00000000  0.90423007  1
  O  O12  1  0.50000000  0.00000000  0.59576993  1
  O  O13  1  0.00000000  0.50000000  0.59576993  1
  O  O14  1  0.00000000  0.00000000  0.80738015  1
  O  O15  1  0.00000000  0.00000000  0.00000000  1
  O  O16  1  0.50000000  0.50000000  0.69261985  1
  O  O17  1  0.50000000  0.00000000  0.40423008  1
  O  O18  1  0.00000000  0.50000000  0.40423008  1
  O  O19  1  0.00000000  0.50000000  0.09576992  1
  O  O20  1  0.50000000  0.00000000  0.09576992  1
  O  O21  1  0.50000000  0.50000000  0.30738015  1
  O  O22  1  0.50000000  0.50000000  0.50000000  1
  O  O23  1  0.00000000  0.00000000  0.19261985  1
