# generated using pymatgen
data_Hf9BMo4
_symmetry_space_group_name_H-M   'P 1'
_cell_length_a   8.55942161
_cell_length_b   8.55942161
_cell_length_c   8.51252300
_cell_angle_alpha   90.00000000
_cell_angle_beta   90.00000000
_cell_angle_gamma   120.00000000
_symmetry_Int_Tables_number   1
_chemical_formula_structural   Hf9BMo4
_chemical_formula_sum   'Hf18 B2 Mo8'
_cell_volume   540.10446565
_cell_formula_units_Z   2
loop_
 _symmetry_equiv_pos_site_id
 _symmetry_equiv_pos_as_xyz
  1  'x, y, z'
loop_
 _atom_site_type_symbol
 _atom_site_label
 _atom_site_symmetry_multiplicity
 _atom_site_fract_x
 _atom_site_fract_y
 _atom_site_fract_z
 _atom_site_occupancy
  Hf  Hf0  1  0.40739600  0.20369800  0.94460000  1
  Hf  Hf1  1  0.79630200  0.59260400  0.94460000  1
  Hf  Hf2  1  0.08091000  0.54045500  0.75000000  1
  Hf  Hf3  1  0.54045500  0.08091000  0.25000000  1
  Hf  Hf4  1  0.54045500  0.45954500  0.25000000  1
  Hf  Hf5  1  0.45954500  0.54045500  0.75000000  1
  Hf  Hf6  1  0.45954500  0.91909000  0.75000000  1
  Hf  Hf7  1  0.91909000  0.45954500  0.25000000  1
  Hf  Hf8  1  0.79630200  0.20369800  0.94460000  1
  Hf  Hf9  1  0.20369800  0.79630200  0.44460000  1
  Hf  Hf10  1  0.59260400  0.79630200  0.05540000  1
  Hf  Hf11  1  0.20369800  0.40739600  0.44460000  1
  Hf  Hf12  1  0.59260400  0.79630200  0.44460000  1
  Hf  Hf13  1  0.79630200  0.59260400  0.55540000  1
  Hf  Hf14  1  0.79630200  0.20369800  0.55540000  1
  Hf  Hf15  1  0.20369800  0.79630200  0.05540000  1
  Hf  Hf16  1  0.20369800  0.40739600  0.05540000  1
  Hf  Hf17  1  0.40739600  0.20369800  0.55540000  1
  B  B18  1  0.33333333  0.66666667  0.25000000  1
  B  B19  1  0.66666667  0.33333333  0.75000000  1
  Mo  Mo20  1  0.00000000  0.00000000  0.00000000  1
  Mo  Mo21  1  0.00000000  0.00000000  0.50000000  1
  Mo  Mo22  1  0.22239900  0.11119950  0.25000000  1
  Mo  Mo23  1  0.11119950  0.22239900  0.75000000  1
  Mo  Mo24  1  0.11119950  0.88880050  0.75000000  1
  Mo  Mo25  1  0.88880050  0.11119950  0.25000000  1
  Mo  Mo26  1  0.88880050  0.77760100  0.25000000  1
  Mo  Mo27  1  0.77760100  0.88880050  0.75000000  1
