# generated using pymatgen
data_Ca5Ge3
_symmetry_space_group_name_H-M   'P 1'
_cell_length_a   7.73183200
_cell_length_b   7.73183200
_cell_length_c   14.87801200
_cell_angle_alpha   90.00000000
_cell_angle_beta   90.00000000
_cell_angle_gamma   90.00000000
_symmetry_Int_Tables_number   1
_chemical_formula_structural   Ca5Ge3
_chemical_formula_sum   'Ca20 Ge12'
_cell_volume   889.42579894
_cell_formula_units_Z   4
loop_
 _symmetry_equiv_pos_site_id
 _symmetry_equiv_pos_as_xyz
  1  'x, y, z'
loop_
 _atom_site_type_symbol
 _atom_site_label
 _atom_site_symmetry_multiplicity
 _atom_site_fract_x
 _atom_site_fract_y
 _atom_site_fract_z
 _atom_site_occupancy
  Ca  Ca0  1  0.50000000  0.50000000  0.00000000  1
  Ca  Ca1  1  0.00000000  0.00000000  0.00000000  1
  Ca  Ca2  1  0.67818450  0.17818450  0.13997350  1
  Ca  Ca3  1  0.82181550  0.67818450  0.13997350  1
  Ca  Ca4  1  0.17818450  0.32181550  0.13997350  1
  Ca  Ca5  1  0.67818450  0.82181550  0.36002650  1
  Ca  Ca6  1  0.32181550  0.17818450  0.36002650  1
  Ca  Ca7  1  0.17818450  0.67818450  0.36002650  1
  Ca  Ca8  1  0.82181550  0.32181550  0.36002650  1
  Ca  Ca9  1  0.32181550  0.82181550  0.13997350  1
  Ca  Ca10  1  0.00000000  0.00000000  0.50000000  1
  Ca  Ca11  1  0.50000000  0.50000000  0.50000000  1
  Ca  Ca12  1  0.17818450  0.67818450  0.63997350  1
  Ca  Ca13  1  0.32181550  0.17818450  0.63997350  1
  Ca  Ca14  1  0.67818450  0.82181550  0.63997350  1
  Ca  Ca15  1  0.17818450  0.32181550  0.86002650  1
  Ca  Ca16  1  0.82181550  0.67818450  0.86002650  1
  Ca  Ca17  1  0.67818450  0.17818450  0.86002650  1
  Ca  Ca18  1  0.32181550  0.82181550  0.86002650  1
  Ca  Ca19  1  0.82181550  0.32181550  0.63997350  1
  Ge  Ge20  1  0.50000000  0.50000000  0.25000000  1
  Ge  Ge21  1  0.00000000  0.00000000  0.25000000  1
  Ge  Ge22  1  0.88155600  0.38155600  0.00000000  1
  Ge  Ge23  1  0.61844400  0.88155600  0.00000000  1
  Ge  Ge24  1  0.38155600  0.11844400  0.00000000  1
  Ge  Ge25  1  0.11844400  0.61844400  0.00000000  1
  Ge  Ge26  1  0.00000000  0.00000000  0.75000000  1
  Ge  Ge27  1  0.50000000  0.50000000  0.75000000  1
  Ge  Ge28  1  0.38155600  0.88155600  0.50000000  1
  Ge  Ge29  1  0.11844400  0.38155600  0.50000000  1
  Ge  Ge30  1  0.88155600  0.61844400  0.50000000  1
  Ge  Ge31  1  0.61844400  0.11844400  0.50000000  1
