# generated using pymatgen
data_Hf2Si4Ni3
_symmetry_space_group_name_H-M   'P 1'
_cell_length_a   5.18472800
_cell_length_b   13.67225400
_cell_length_c   6.87986500
_cell_angle_alpha   90.00000000
_cell_angle_beta   90.00000000
_cell_angle_gamma   90.00000000
_symmetry_Int_Tables_number   1
_chemical_formula_structural   Hf2Si4Ni3
_chemical_formula_sum   'Hf8 Si16 Ni12'
_cell_volume   487.69242705
_cell_formula_units_Z   4
loop_
 _symmetry_equiv_pos_site_id
 _symmetry_equiv_pos_as_xyz
  1  'x, y, z'
loop_
 _atom_site_type_symbol
 _atom_site_label
 _atom_site_symmetry_multiplicity
 _atom_site_fract_x
 _atom_site_fract_y
 _atom_site_fract_z
 _atom_site_occupancy
  Hf  Hf0  1  0.50000000  0.89610000  0.09764700  1
  Hf  Hf1  1  0.00000000  0.60390000  0.90235300  1
  Hf  Hf2  1  0.50000000  0.60390000  0.59764700  1
  Hf  Hf3  1  0.00000000  0.89610000  0.40235300  1
  Hf  Hf4  1  0.00000000  0.39610000  0.09764700  1
  Hf  Hf5  1  0.50000000  0.10390000  0.90235300  1
  Hf  Hf6  1  0.00000000  0.10390000  0.59764700  1
  Hf  Hf7  1  0.50000000  0.39610000  0.40235300  1
  Si  Si8  1  0.50000000  0.81876700  0.47721800  1
  Si  Si9  1  0.00000000  0.68123300  0.52278200  1
  Si  Si10  1  0.50000000  0.68123300  0.97721800  1
  Si  Si11  1  0.00000000  0.81876700  0.02278200  1
  Si  Si12  1  0.75000000  0.56144600  0.25000000  1
  Si  Si13  1  0.25000000  0.93855400  0.75000000  1
  Si  Si14  1  0.25000000  0.56144600  0.25000000  1
  Si  Si15  1  0.75000000  0.93855400  0.75000000  1
  Si  Si16  1  0.00000000  0.31876700  0.47721800  1
  Si  Si17  1  0.50000000  0.18123300  0.52278200  1
  Si  Si18  1  0.00000000  0.18123300  0.97721800  1
  Si  Si19  1  0.50000000  0.31876700  0.02278200  1
  Si  Si20  1  0.25000000  0.06144600  0.25000000  1
  Si  Si21  1  0.75000000  0.43855400  0.75000000  1
  Si  Si22  1  0.75000000  0.06144600  0.25000000  1
  Si  Si23  1  0.25000000  0.43855400  0.75000000  1
  Ni  Ni24  1  0.25000000  0.72916200  0.25000000  1
  Ni  Ni25  1  0.75000000  0.77083800  0.75000000  1
  Ni  Ni26  1  0.50000000  0.00000000  0.50000000  1
  Ni  Ni27  1  0.00000000  0.00000000  0.00000000  1
  Ni  Ni28  1  0.25000000  0.77083800  0.75000000  1
  Ni  Ni29  1  0.75000000  0.72916200  0.25000000  1
  Ni  Ni30  1  0.75000000  0.22916200  0.25000000  1
  Ni  Ni31  1  0.25000000  0.27083800  0.75000000  1
  Ni  Ni32  1  0.00000000  0.50000000  0.50000000  1
  Ni  Ni33  1  0.50000000  0.50000000  0.00000000  1
  Ni  Ni34  1  0.75000000  0.27083800  0.75000000  1
  Ni  Ni35  1  0.25000000  0.22916200  0.25000000  1
