# generated using pymatgen
data_Cu(RhSe2)2
_symmetry_space_group_name_H-M   'P 1'
_cell_length_a   10.40231600
_cell_length_b   10.40231600
_cell_length_c   10.40231600
_cell_angle_alpha   90.00000000
_cell_angle_beta   90.00000000
_cell_angle_gamma   90.00000000
_symmetry_Int_Tables_number   1
_chemical_formula_structural   Cu(RhSe2)2
_chemical_formula_sum   'Cu8 Rh16 Se32'
_cell_volume   1125.61566304
_cell_formula_units_Z   8
loop_
 _symmetry_equiv_pos_site_id
 _symmetry_equiv_pos_as_xyz
  1  'x, y, z'
loop_
 _atom_site_type_symbol
 _atom_site_label
 _atom_site_symmetry_multiplicity
 _atom_site_fract_x
 _atom_site_fract_y
 _atom_site_fract_z
 _atom_site_occupancy
  Cu  Cu0  1  0.50000000  0.00000000  0.50000000  1
  Cu  Cu1  1  0.25000000  0.25000000  0.25000000  1
  Cu  Cu2  1  0.50000000  0.50000000  0.00000000  1
  Cu  Cu3  1  0.25000000  0.75000000  0.75000000  1
  Cu  Cu4  1  0.00000000  0.00000000  0.00000000  1
  Cu  Cu5  1  0.75000000  0.25000000  0.75000000  1
  Cu  Cu6  1  0.00000000  0.50000000  0.50000000  1
  Cu  Cu7  1  0.75000000  0.75000000  0.25000000  1
  Rh  Rh8  1  0.12500000  0.62500000  0.12500000  1
  Rh  Rh9  1  0.37500000  0.87500000  0.12500000  1
  Rh  Rh10  1  0.37500000  0.62500000  0.37500000  1
  Rh  Rh11  1  0.12500000  0.87500000  0.37500000  1
  Rh  Rh12  1  0.12500000  0.12500000  0.62500000  1
  Rh  Rh13  1  0.37500000  0.37500000  0.62500000  1
  Rh  Rh14  1  0.37500000  0.12500000  0.87500000  1
  Rh  Rh15  1  0.12500000  0.37500000  0.87500000  1
  Rh  Rh16  1  0.62500000  0.62500000  0.62500000  1
  Rh  Rh17  1  0.87500000  0.87500000  0.62500000  1
  Rh  Rh18  1  0.87500000  0.62500000  0.87500000  1
  Rh  Rh19  1  0.62500000  0.87500000  0.87500000  1
  Rh  Rh20  1  0.62500000  0.12500000  0.12500000  1
  Rh  Rh21  1  0.87500000  0.37500000  0.12500000  1
  Rh  Rh22  1  0.87500000  0.12500000  0.37500000  1
  Rh  Rh23  1  0.62500000  0.37500000  0.37500000  1
  Se  Se24  1  0.38449567  0.11550433  0.11550433  1
  Se  Se25  1  0.36550433  0.86550433  0.36550433  1
  Se  Se26  1  0.86550433  0.13449567  0.13449567  1
  Se  Se27  1  0.11550433  0.11550433  0.38449567  1
  Se  Se28  1  0.38449567  0.38449567  0.38449567  1
  Se  Se29  1  0.13449567  0.86550433  0.13449567  1
  Se  Se30  1  0.63449567  0.13449567  0.36550433  1
  Se  Se31  1  0.11550433  0.38449567  0.11550433  1
  Se  Se32  1  0.38449567  0.61550433  0.61550433  1
  Se  Se33  1  0.36550433  0.36550433  0.86550433  1
  Se  Se34  1  0.86550433  0.63449567  0.63449567  1
  Se  Se35  1  0.11550433  0.61550433  0.88449567  1
  Se  Se36  1  0.38449567  0.88449567  0.88449567  1
  Se  Se37  1  0.13449567  0.36550433  0.63449567  1
  Se  Se38  1  0.63449567  0.63449567  0.86550433  1
  Se  Se39  1  0.11550433  0.88449567  0.61550433  1
  Se  Se40  1  0.88449567  0.11550433  0.61550433  1
  Se  Se41  1  0.86550433  0.86550433  0.86550433  1
  Se  Se42  1  0.36550433  0.13449567  0.63449567  1
  Se  Se43  1  0.61550433  0.11550433  0.88449567  1
  Se  Se44  1  0.88449567  0.38449567  0.88449567  1
  Se  Se45  1  0.63449567  0.86550433  0.63449567  1
  Se  Se46  1  0.13449567  0.13449567  0.86550433  1
  Se  Se47  1  0.61550433  0.38449567  0.61550433  1
  Se  Se48  1  0.88449567  0.61550433  0.11550433  1
  Se  Se49  1  0.86550433  0.36550433  0.36550433  1
  Se  Se50  1  0.36550433  0.63449567  0.13449567  1
  Se  Se51  1  0.61550433  0.61550433  0.38449567  1
  Se  Se52  1  0.88449567  0.88449567  0.38449567  1
  Se  Se53  1  0.63449567  0.36550433  0.13449567  1
  Se  Se54  1  0.13449567  0.63449567  0.36550433  1
  Se  Se55  1  0.61550433  0.88449567  0.11550433  1
