# generated using pymatgen
data_Mn7SiO12
_symmetry_space_group_name_H-M   'P 1'
_cell_length_a   9.59646800
_cell_length_b   9.59646800
_cell_length_c   19.04343600
_cell_angle_alpha   90.00000000
_cell_angle_beta   90.00000000
_cell_angle_gamma   90.00000000
_symmetry_Int_Tables_number   1
_chemical_formula_structural   Mn7SiO12
_chemical_formula_sum   'Mn56 Si8 O96'
_cell_volume   1753.75188014
_cell_formula_units_Z   8
loop_
 _symmetry_equiv_pos_site_id
 _symmetry_equiv_pos_as_xyz
  1  'x, y, z'
loop_
 _atom_site_type_symbol
 _atom_site_label
 _atom_site_symmetry_multiplicity
 _atom_site_fract_x
 _atom_site_fract_y
 _atom_site_fract_z
 _atom_site_occupancy
  Mn  Mn0  1  0.96668000  0.75000000  0.37500000  1
  Mn  Mn1  1  0.53332000  0.25000000  0.37500000  1
  Mn  Mn2  1  0.46668000  0.75000000  0.37500000  1
  Mn  Mn3  1  0.75000000  0.96668000  0.12500000  1
  Mn  Mn4  1  0.25000000  0.50000000  0.37500000  1
  Mn  Mn5  1  0.75000000  0.50000000  0.37500000  1
  Mn  Mn6  1  0.25000000  0.00000000  0.37500000  1
  Mn  Mn7  1  0.00000000  0.25000000  0.12500000  1
  Mn  Mn8  1  0.00000000  0.75000000  0.12500000  1
  Mn  Mn9  1  0.50000000  0.25000000  0.12500000  1
  Mn  Mn10  1  0.50000000  0.75000000  0.12500000  1
  Mn  Mn11  1  0.75000000  0.00000000  0.37500000  1
  Mn  Mn12  1  0.73316750  0.23316750  0.00000000  1
  Mn  Mn13  1  0.23316750  0.26683250  0.00000000  1
  Mn  Mn14  1  0.76683250  0.73316750  0.00000000  1
  Mn  Mn15  1  0.76683250  0.26683250  0.50000000  1
  Mn  Mn16  1  0.26683250  0.26683250  0.25000000  1
  Mn  Mn17  1  0.76683250  0.23316750  0.25000000  1
  Mn  Mn18  1  0.23316750  0.76683250  0.25000000  1
  Mn  Mn19  1  0.73316750  0.73316750  0.25000000  1
  Mn  Mn20  1  0.25000000  0.53332000  0.12500000  1
  Mn  Mn21  1  0.03332000  0.25000000  0.37500000  1
  Mn  Mn22  1  0.25000000  0.03332000  0.12500000  1
  Mn  Mn23  1  0.75000000  0.46668000  0.12500000  1
  Mn  Mn24  1  0.00000000  0.00000000  0.25000000  1
  Mn  Mn25  1  0.50000000  0.50000000  0.25000000  1
  Mn  Mn26  1  0.50000000  0.00000000  0.00000000  1
  Mn  Mn27  1  0.00000000  0.50000000  0.00000000  1
  Mn  Mn28  1  0.46668000  0.25000000  0.87500000  1
  Mn  Mn29  1  0.03332000  0.75000000  0.87500000  1
  Mn  Mn30  1  0.96668000  0.25000000  0.87500000  1
  Mn  Mn31  1  0.25000000  0.46668000  0.62500000  1
  Mn  Mn32  1  0.75000000  0.00000000  0.87500000  1
  Mn  Mn33  1  0.25000000  0.00000000  0.87500000  1
  Mn  Mn34  1  0.75000000  0.50000000  0.87500000  1
  Mn  Mn35  1  0.50000000  0.75000000  0.62500000  1
  Mn  Mn36  1  0.50000000  0.25000000  0.62500000  1
  Mn  Mn37  1  0.00000000  0.75000000  0.62500000  1
  Mn  Mn38  1  0.00000000  0.25000000  0.62500000  1
  Mn  Mn39  1  0.25000000  0.50000000  0.87500000  1
  Mn  Mn40  1  0.23316750  0.73316750  0.50000000  1
  Mn  Mn41  1  0.73316750  0.76683250  0.50000000  1
  Mn  Mn42  1  0.26683250  0.23316750  0.50000000  1
  Mn  Mn43  1  0.26683250  0.76683250  0.00000000  1
  Mn  Mn44  1  0.76683250  0.76683250  0.75000000  1
  Mn  Mn45  1  0.26683250  0.73316750  0.75000000  1
  Mn  Mn46  1  0.73316750  0.26683250  0.75000000  1
  Mn  Mn47  1  0.23316750  0.23316750  0.75000000  1
  Mn  Mn48  1  0.75000000  0.03332000  0.62500000  1
  Mn  Mn49  1  0.53332000  0.75000000  0.87500000  1
  Mn  Mn50  1  0.75000000  0.53332000  0.62500000  1
  Mn  Mn51  1  0.25000000  0.96668000  0.62500000  1
  Mn  Mn52  1  0.50000000  0.50000000  0.75000000  1
  Mn  Mn53  1  0.00000000  0.00000000  0.75000000  1
  Mn  Mn54  1  0.00000000  0.50000000  0.50000000  1
  Mn  Mn55  1  0.50000000  0.00000000  0.50000000  1
  Si  Si56  1  0.50000000  0.50000000  0.00000000  1
  Si  Si57  1  0.50000000  0.00000000  0.25000000  1
  Si  Si58  1  0.00000000  0.50000000  0.25000000  1
  Si  Si59  1  0.00000000  0.00000000  0.00000000  1
  Si  Si60  1  0.00000000  0.00000000  0.50000000  1
  Si  Si61  1  0.00000000  0.50000000  0.75000000  1
  Si  Si62  1  0.50000000  0.00000000  0.75000000  1
  Si  Si63  1  0.50000000  0.50000000  0.50000000  1
  O  O64  1  0.10698250  0.64560950  0.42931850  1
  O  O65  1  0.89301750  0.35439050  0.42931850  1
  O  O66  1  0.39301750  0.14560950  0.42931850  1
  O  O67  1  0.14560950  0.39301750  0.07068150  1
  O  O68  1  0.85439050  0.60698250  0.07068150  1
  O  O69  1  0.64560950  0.10698250  0.07068150  1
  O  O70  1  0.35439050  0.89301750  0.07068150  1
  O  O71  1  0.60698250  0.85439050  0.42931850  1
  O  O72  1  0.10698250  0.85439050  0.32068150  1
  O  O73  1  0.89301750  0.14560950  0.32068150  1
  O  O74  1  0.39301750  0.35439050  0.32068150  1
  O  O75  1  0.35439050  0.39301750  0.17931850  1
  O  O76  1  0.64560950  0.60698250  0.17931850  1
  O  O77  1  0.85439050  0.10698250  0.17931850  1
  O  O78  1  0.14560950  0.89301750  0.17931850  1
  O  O79  1  0.60698250  0.64560950  0.32068150  1
  O  O80  1  0.11267300  0.08209500  0.45044700  1
  O  O81  1  0.88732700  0.91790500  0.45044700  1
  O  O82  1  0.38732700  0.58209500  0.45044700  1
  O  O83  1  0.17393550  0.14273350  0.31754750  1
  O  O84  1  0.58209500  0.38732700  0.04955300  1
  O  O85  1  0.08209500  0.11267300  0.04955300  1
  O  O86  1  0.91790500  0.88732700  0.04955300  1
  O  O87  1  0.61267300  0.41790500  0.45044700  1
  O  O88  1  0.17393550  0.35726650  0.43245250  1
  O  O89  1  0.82606450  0.64273350  0.43245250  1
  O  O90  1  0.32606450  0.85726650  0.43245250  1
  O  O91  1  0.85726650  0.32606450  0.06754750  1
  O  O92  1  0.14273350  0.67393550  0.06754750  1
  O  O93  1  0.35726650  0.17393550  0.06754750  1
  O  O94  1  0.64273350  0.82606450  0.06754750  1
  O  O95  1  0.67393550  0.14273350  0.43245250  1
  O  O96  1  0.61267300  0.08209500  0.29955300  1
  O  O97  1  0.58209500  0.88732700  0.20044700  1
  O  O98  1  0.41790500  0.11267300  0.20044700  1
  O  O99  1  0.08209500  0.61267300  0.20044700  1
  O  O100  1  0.91790500  0.38732700  0.20044700  1
  O  O101  1  0.38732700  0.91790500  0.29955300  1
  O  O102  1  0.88732700  0.58209500  0.29955300  1
  O  O103  1  0.11267300  0.41790500  0.29955300  1
  O  O104  1  0.67393550  0.35726650  0.31754750  1
  O  O105  1  0.85726650  0.82606450  0.18245250  1
  O  O106  1  0.14273350  0.17393550  0.18245250  1
  O  O107  1  0.35726650  0.67393550  0.18245250  1
  O  O108  1  0.64273350  0.32606450  0.18245250  1
  O  O109  1  0.32606450  0.64273350  0.31754750  1
  O  O110  1  0.82606450  0.85726650  0.31754750  1
  O  O111  1  0.41790500  0.61267300  0.04955300  1
  O  O112  1  0.60698250  0.14560950  0.92931850  1
  O  O113  1  0.39301750  0.85439050  0.92931850  1
  O  O114  1  0.89301750  0.64560950  0.92931850  1
  O  O115  1  0.64560950  0.89301750  0.57068150  1
  O  O116  1  0.35439050  0.10698250  0.57068150  1
  O  O117  1  0.14560950  0.60698250  0.57068150  1
  O  O118  1  0.85439050  0.39301750  0.57068150  1
  O  O119  1  0.10698250  0.35439050  0.92931850  1
  O  O120  1  0.60698250  0.35439050  0.82068150  1
  O  O121  1  0.39301750  0.64560950  0.82068150  1
  O  O122  1  0.89301750  0.85439050  0.82068150  1
  O  O123  1  0.85439050  0.89301750  0.67931850  1
  O  O124  1  0.14560950  0.10698250  0.67931850  1
  O  O125  1  0.35439050  0.60698250  0.67931850  1
  O  O126  1  0.64560950  0.39301750  0.67931850  1
  O  O127  1  0.10698250  0.14560950  0.82068150  1
  O  O128  1  0.61267300  0.58209500  0.95044700  1
  O  O129  1  0.38732700  0.41790500  0.95044700  1
  O  O130  1  0.88732700  0.08209500  0.95044700  1
  O  O131  1  0.67393550  0.64273350  0.81754750  1
  O  O132  1  0.08209500  0.88732700  0.54955300  1
  O  O133  1  0.58209500  0.61267300  0.54955300  1
  O  O134  1  0.41790500  0.38732700  0.54955300  1
  O  O135  1  0.11267300  0.91790500  0.95044700  1
  O  O136  1  0.67393550  0.85726650  0.93245250  1
  O  O137  1  0.32606450  0.14273350  0.93245250  1
  O  O138  1  0.82606450  0.35726650  0.93245250  1
  O  O139  1  0.35726650  0.82606450  0.56754750  1
  O  O140  1  0.64273350  0.17393550  0.56754750  1
  O  O141  1  0.85726650  0.67393550  0.56754750  1
  O  O142  1  0.14273350  0.32606450  0.56754750  1
  O  O143  1  0.17393550  0.64273350  0.93245250  1
  O  O144  1  0.11267300  0.58209500  0.79955300  1
  O  O145  1  0.08209500  0.38732700  0.70044700  1
  O  O146  1  0.91790500  0.61267300  0.70044700  1
  O  O147  1  0.58209500  0.11267300  0.70044700  1
  O  O148  1  0.41790500  0.88732700  0.70044700  1
  O  O149  1  0.88732700  0.41790500  0.79955300  1
  O  O150  1  0.38732700  0.08209500  0.79955300  1
  O  O151  1  0.61267300  0.91790500  0.79955300  1
  O  O152  1  0.17393550  0.85726650  0.81754750  1
  O  O153  1  0.35726650  0.32606450  0.68245250  1
  O  O154  1  0.64273350  0.67393550  0.68245250  1
  O  O155  1  0.85726650  0.17393550  0.68245250  1
  O  O156  1  0.14273350  0.82606450  0.68245250  1
  O  O157  1  0.82606450  0.14273350  0.81754750  1
  O  O158  1  0.32606450  0.35726650  0.81754750  1
  O  O159  1  0.91790500  0.11267300  0.54955300  1
