# generated using pymatgen
data_Tm8S11
_symmetry_space_group_name_H-M   'P 1'
_cell_length_a   3.75284600
_cell_length_b   12.68453600
_cell_length_c   35.08501300
_cell_angle_alpha   90.00000000
_cell_angle_beta   90.00000000
_cell_angle_gamma   90.00000000
_symmetry_Int_Tables_number   1
_chemical_formula_structural   Tm8S11
_chemical_formula_sum   'Tm32 S44'
_cell_volume   1670.15573984
_cell_formula_units_Z   4
loop_
 _symmetry_equiv_pos_site_id
 _symmetry_equiv_pos_as_xyz
  1  'x, y, z'
loop_
 _atom_site_type_symbol
 _atom_site_label
 _atom_site_symmetry_multiplicity
 _atom_site_fract_x
 _atom_site_fract_y
 _atom_site_fract_z
 _atom_site_occupancy
  Tm  Tm0  1  0.00000000  0.01902600  0.13283400  1
  Tm  Tm1  1  0.50000000  0.48097400  0.86716600  1
  Tm  Tm2  1  0.50000000  0.48097400  0.63283400  1
  Tm  Tm3  1  0.00000000  0.01902600  0.36716600  1
  Tm  Tm4  1  0.00000000  0.24017400  0.68295400  1
  Tm  Tm5  1  0.50000000  0.25982600  0.31704600  1
  Tm  Tm6  1  0.50000000  0.25982600  0.18295400  1
  Tm  Tm7  1  0.00000000  0.24017400  0.81704600  1
  Tm  Tm8  1  0.00000000  0.25705300  0.05796800  1
  Tm  Tm9  1  0.50000000  0.24294700  0.94203200  1
  Tm  Tm10  1  0.50000000  0.24294700  0.55796800  1
  Tm  Tm11  1  0.00000000  0.25705300  0.44203200  1
  Tm  Tm12  1  0.00000000  0.48942200  0.75000000  1
  Tm  Tm13  1  0.50000000  0.01057800  0.25000000  1
  Tm  Tm14  1  0.00000000  0.00000000  0.00000000  1
  Tm  Tm15  1  0.00000000  0.00000000  0.50000000  1
  Tm  Tm16  1  0.50000000  0.51902600  0.13283400  1
  Tm  Tm17  1  0.00000000  0.98097400  0.86716600  1
  Tm  Tm18  1  0.00000000  0.98097400  0.63283400  1
  Tm  Tm19  1  0.50000000  0.51902600  0.36716600  1
  Tm  Tm20  1  0.50000000  0.74017400  0.68295400  1
  Tm  Tm21  1  0.00000000  0.75982600  0.31704600  1
  Tm  Tm22  1  0.00000000  0.75982600  0.18295400  1
  Tm  Tm23  1  0.50000000  0.74017400  0.81704600  1
  Tm  Tm24  1  0.50000000  0.75705300  0.05796800  1
  Tm  Tm25  1  0.00000000  0.74294700  0.94203200  1
  Tm  Tm26  1  0.00000000  0.74294700  0.55796800  1
  Tm  Tm27  1  0.50000000  0.75705300  0.44203200  1
  Tm  Tm28  1  0.50000000  0.98942200  0.75000000  1
  Tm  Tm29  1  0.00000000  0.51057800  0.25000000  1
  Tm  Tm30  1  0.50000000  0.50000000  0.00000000  1
  Tm  Tm31  1  0.50000000  0.50000000  0.50000000  1
  S  S32  1  0.00000000  0.39688900  0.33710900  1
  S  S33  1  0.50000000  0.10311100  0.66289100  1
  S  S34  1  0.50000000  0.10311100  0.83710900  1
  S  S35  1  0.00000000  0.39688900  0.16289100  1
  S  S36  1  0.00000000  0.33500900  0.61162900  1
  S  S37  1  0.50000000  0.16499100  0.38837100  1
  S  S38  1  0.50000000  0.16499100  0.11162900  1
  S  S39  1  0.00000000  0.33500900  0.88837100  1
  S  S40  1  0.00000000  0.35310500  0.51604700  1
  S  S41  1  0.50000000  0.14689500  0.48395300  1
  S  S42  1  0.50000000  0.14689500  0.01604700  1
  S  S43  1  0.00000000  0.35310500  0.98395300  1
  S  S44  1  0.00000000  0.11461300  0.29666400  1
  S  S45  1  0.50000000  0.38538700  0.70333600  1
  S  S46  1  0.50000000  0.38538700  0.79666400  1
  S  S47  1  0.00000000  0.11461300  0.20333600  1
  S  S48  1  0.50000000  0.35746100  0.25000000  1
  S  S49  1  0.00000000  0.14253900  0.75000000  1
  S  S50  1  0.00000000  0.09018000  0.93157600  1
  S  S51  1  0.50000000  0.40982000  0.06842400  1
  S  S52  1  0.50000000  0.40982000  0.43157600  1
  S  S53  1  0.00000000  0.09018000  0.56842400  1
  S  S54  1  0.50000000  0.89688900  0.33710900  1
  S  S55  1  0.00000000  0.60311100  0.66289100  1
  S  S56  1  0.00000000  0.60311100  0.83710900  1
  S  S57  1  0.50000000  0.89688900  0.16289100  1
  S  S58  1  0.50000000  0.83500900  0.61162900  1
  S  S59  1  0.00000000  0.66499100  0.38837100  1
  S  S60  1  0.00000000  0.66499100  0.11162900  1
  S  S61  1  0.50000000  0.83500900  0.88837100  1
  S  S62  1  0.50000000  0.85310500  0.51604700  1
  S  S63  1  0.00000000  0.64689500  0.48395300  1
  S  S64  1  0.00000000  0.64689500  0.01604700  1
  S  S65  1  0.50000000  0.85310500  0.98395300  1
  S  S66  1  0.50000000  0.61461300  0.29666400  1
  S  S67  1  0.00000000  0.88538700  0.70333600  1
  S  S68  1  0.00000000  0.88538700  0.79666400  1
  S  S69  1  0.50000000  0.61461300  0.20333600  1
  S  S70  1  0.00000000  0.85746100  0.25000000  1
  S  S71  1  0.50000000  0.64253900  0.75000000  1
  S  S72  1  0.50000000  0.59018000  0.93157600  1
  S  S73  1  0.00000000  0.90982000  0.06842400  1
  S  S74  1  0.00000000  0.90982000  0.43157600  1
  S  S75  1  0.50000000  0.59018000  0.56842400  1
