# generated using pymatgen
data_Zr2CuGe4
_symmetry_space_group_name_H-M   'P 1'
_cell_length_a   3.83685800
_cell_length_b   33.55885400
_cell_length_c   3.81197300
_cell_angle_alpha   90.00000000
_cell_angle_beta   90.00000000
_cell_angle_gamma   90.00000000
_symmetry_Int_Tables_number   1
_chemical_formula_structural   Zr2CuGe4
_chemical_formula_sum   'Zr8 Cu4 Ge16'
_cell_volume   490.83176843
_cell_formula_units_Z   4
loop_
 _symmetry_equiv_pos_site_id
 _symmetry_equiv_pos_as_xyz
  1  'x, y, z'
loop_
 _atom_site_type_symbol
 _atom_site_label
 _atom_site_symmetry_multiplicity
 _atom_site_fract_x
 _atom_site_fract_y
 _atom_site_fract_z
 _atom_site_occupancy
  Zr  Zr0  1  0.50000000  0.17761000  0.75000000  1
  Zr  Zr1  1  0.00000000  0.32239000  0.25000000  1
  Zr  Zr2  1  0.50000000  0.45279700  0.75000000  1
  Zr  Zr3  1  0.00000000  0.04720300  0.25000000  1
  Zr  Zr4  1  0.00000000  0.67761000  0.75000000  1
  Zr  Zr5  1  0.50000000  0.82239000  0.25000000  1
  Zr  Zr6  1  0.00000000  0.95279700  0.75000000  1
  Zr  Zr7  1  0.50000000  0.54720300  0.25000000  1
  Cu  Cu8  1  0.50000000  0.24990600  0.25000000  1
  Cu  Cu9  1  0.00000000  0.25009400  0.75000000  1
  Cu  Cu10  1  0.00000000  0.74990600  0.25000000  1
  Cu  Cu11  1  0.50000000  0.75009400  0.75000000  1
  Ge  Ge12  1  0.00000000  0.11319900  0.75000000  1
  Ge  Ge13  1  0.50000000  0.38680100  0.25000000  1
  Ge  Ge14  1  0.50000000  0.29756000  0.75000000  1
  Ge  Ge15  1  0.00000000  0.20244000  0.25000000  1
  Ge  Ge16  1  0.00000000  0.47282400  0.25000000  1
  Ge  Ge17  1  0.50000000  0.02717600  0.75000000  1
  Ge  Ge18  1  0.50000000  0.11285200  0.25000000  1
  Ge  Ge19  1  0.00000000  0.38714800  0.75000000  1
  Ge  Ge20  1  0.50000000  0.61319900  0.75000000  1
  Ge  Ge21  1  0.00000000  0.88680100  0.25000000  1
  Ge  Ge22  1  0.00000000  0.79756000  0.75000000  1
  Ge  Ge23  1  0.50000000  0.70244000  0.25000000  1
  Ge  Ge24  1  0.50000000  0.97282400  0.25000000  1
  Ge  Ge25  1  0.00000000  0.52717600  0.75000000  1
  Ge  Ge26  1  0.00000000  0.61285200  0.25000000  1
  Ge  Ge27  1  0.50000000  0.88714800  0.75000000  1
