# generated using pymatgen
data_Sm5Si3O13
_symmetry_space_group_name_H-M   'P 1'
_cell_length_a   9.61256373
_cell_length_b   9.61256373
_cell_length_c   6.99588900
_cell_angle_alpha   90.00000000
_cell_angle_beta   90.00000000
_cell_angle_gamma   120.00000000
_symmetry_Int_Tables_number   1
_chemical_formula_structural   Sm5Si3O13
_chemical_formula_sum   'Sm10 Si6 O26'
_cell_volume   559.82463584
_cell_formula_units_Z   2
loop_
 _symmetry_equiv_pos_site_id
 _symmetry_equiv_pos_as_xyz
  1  'x, y, z'
loop_
 _atom_site_type_symbol
 _atom_site_label
 _atom_site_symmetry_multiplicity
 _atom_site_fract_x
 _atom_site_fract_y
 _atom_site_fract_z
 _atom_site_occupancy
  Sm  Sm0  1  0.66666667  0.33333333  0.00208300  1
  Sm  Sm1  1  0.33333333  0.66666667  0.50208300  1
  Sm  Sm2  1  0.33333333  0.66666667  0.99791700  1
  Sm  Sm3  1  0.66666667  0.33333333  0.49791700  1
  Sm  Sm4  1  0.76787200  0.00685000  0.25000000  1
  Sm  Sm5  1  0.76102200  0.76787200  0.75000000  1
  Sm  Sm6  1  0.00685000  0.23897800  0.75000000  1
  Sm  Sm7  1  0.99315000  0.76102200  0.25000000  1
  Sm  Sm8  1  0.23897800  0.23212800  0.25000000  1
  Sm  Sm9  1  0.23212800  0.99315000  0.75000000  1
  Si  Si10  1  0.60230100  0.63009500  0.25000000  1
  Si  Si11  1  0.97220600  0.60230100  0.75000000  1
  Si  Si12  1  0.63009500  0.02779400  0.75000000  1
  Si  Si13  1  0.36990500  0.97220600  0.25000000  1
  Si  Si14  1  0.02779400  0.39769900  0.25000000  1
  Si  Si15  1  0.39769900  0.36990500  0.75000000  1
  O  O16  1  0.00000000  0.00000000  0.25000000  1
  O  O17  1  0.00000000  0.00000000  0.75000000  1
  O  O18  1  0.83185700  0.31493000  0.25000000  1
  O  O19  1  0.51692700  0.83185700  0.75000000  1
  O  O20  1  0.31493000  0.48307300  0.75000000  1
  O  O21  1  0.68507000  0.51692700  0.25000000  1
  O  O22  1  0.48307300  0.16814300  0.25000000  1
  O  O23  1  0.16814300  0.68507000  0.75000000  1
  O  O24  1  0.40431600  0.52720100  0.25000000  1
  O  O25  1  0.87711500  0.40431600  0.75000000  1
  O  O26  1  0.52720100  0.12288500  0.75000000  1
  O  O27  1  0.47279900  0.87711500  0.25000000  1
  O  O28  1  0.12288500  0.59568400  0.25000000  1
  O  O29  1  0.59568400  0.47279900  0.75000000  1
  O  O30  1  0.34112900  0.24900200  0.93647700  1
  O  O31  1  0.09212700  0.34112900  0.43647700  1
  O  O32  1  0.34112900  0.24900200  0.56352300  1
  O  O33  1  0.09212700  0.34112900  0.06352300  1
  O  O34  1  0.24900200  0.90787300  0.06352300  1
  O  O35  1  0.75099800  0.09212700  0.56352300  1
  O  O36  1  0.90787300  0.65887100  0.56352300  1
  O  O37  1  0.65887100  0.75099800  0.06352300  1
  O  O38  1  0.65887100  0.75099800  0.43647700  1
  O  O39  1  0.90787300  0.65887100  0.93647700  1
  O  O40  1  0.75099800  0.09212700  0.93647700  1
  O  O41  1  0.24900200  0.90787300  0.43647700  1
