# generated using pymatgen
data_LaNi5P3
_symmetry_space_group_name_H-M   'P 1'
_cell_length_a   3.63261800
_cell_length_b   11.69566400
_cell_length_c   11.50333500
_cell_angle_alpha   90.00000000
_cell_angle_beta   90.00000000
_cell_angle_gamma   90.00000000
_symmetry_Int_Tables_number   1
_chemical_formula_structural   LaNi5P3
_chemical_formula_sum   'La4 Ni20 P12'
_cell_volume   488.72930544
_cell_formula_units_Z   4
loop_
 _symmetry_equiv_pos_site_id
 _symmetry_equiv_pos_as_xyz
  1  'x, y, z'
loop_
 _atom_site_type_symbol
 _atom_site_label
 _atom_site_symmetry_multiplicity
 _atom_site_fract_x
 _atom_site_fract_y
 _atom_site_fract_z
 _atom_site_occupancy
  La  La0  1  0.50000000  0.16188700  0.75000000  1
  La  La1  1  0.00000000  0.33811300  0.25000000  1
  La  La2  1  0.00000000  0.66188700  0.75000000  1
  La  La3  1  0.50000000  0.83811300  0.25000000  1
  Ni  Ni4  1  0.50000000  0.44870800  0.64538900  1
  Ni  Ni5  1  0.50000000  0.44870800  0.85461100  1
  Ni  Ni6  1  0.00000000  0.30121900  0.93147000  1
  Ni  Ni7  1  0.50000000  0.19878100  0.06853000  1
  Ni  Ni8  1  0.50000000  0.19878100  0.43147000  1
  Ni  Ni9  1  0.00000000  0.30121900  0.56853000  1
  Ni  Ni10  1  0.50000000  0.00000000  0.00000000  1
  Ni  Ni11  1  0.50000000  0.00000000  0.50000000  1
  Ni  Ni12  1  0.00000000  0.05129200  0.14538900  1
  Ni  Ni13  1  0.00000000  0.05129200  0.35461100  1
  Ni  Ni14  1  0.00000000  0.94870800  0.64538900  1
  Ni  Ni15  1  0.00000000  0.94870800  0.85461100  1
  Ni  Ni16  1  0.50000000  0.80121900  0.93147000  1
  Ni  Ni17  1  0.00000000  0.69878100  0.06853000  1
  Ni  Ni18  1  0.00000000  0.69878100  0.43147000  1
  Ni  Ni19  1  0.50000000  0.80121900  0.56853000  1
  Ni  Ni20  1  0.00000000  0.50000000  0.00000000  1
  Ni  Ni21  1  0.00000000  0.50000000  0.50000000  1
  Ni  Ni22  1  0.50000000  0.55129200  0.14538900  1
  Ni  Ni23  1  0.50000000  0.55129200  0.35461100  1
  P  P24  1  0.00000000  0.38322500  0.75000000  1
  P  P25  1  0.50000000  0.11677500  0.25000000  1
  P  P26  1  0.50000000  0.38217300  0.03890000  1
  P  P27  1  0.00000000  0.11782700  0.96110000  1
  P  P28  1  0.00000000  0.11782700  0.53890000  1
  P  P29  1  0.50000000  0.38217300  0.46110000  1
  P  P30  1  0.50000000  0.88322500  0.75000000  1
  P  P31  1  0.00000000  0.61677500  0.25000000  1
  P  P32  1  0.00000000  0.88217300  0.03890000  1
  P  P33  1  0.50000000  0.61782700  0.96110000  1
  P  P34  1  0.50000000  0.61782700  0.53890000  1
  P  P35  1  0.00000000  0.88217300  0.46110000  1
