# generated using pymatgen
data_CeAl7Au3
_symmetry_space_group_name_H-M   'P 1'
_cell_length_a   8.16909397
_cell_length_b   8.16909397
_cell_length_c   21.19262879
_cell_angle_alpha   90.00000000
_cell_angle_beta   90.00000000
_cell_angle_gamma   120.00000000
_symmetry_Int_Tables_number   1
_chemical_formula_structural   CeAl7Au3
_chemical_formula_sum   'Ce6 Al42 Au18'
_cell_volume   1224.79455446
_cell_formula_units_Z   6
loop_
 _symmetry_equiv_pos_site_id
 _symmetry_equiv_pos_as_xyz
  1  'x, y, z'
loop_
 _atom_site_type_symbol
 _atom_site_label
 _atom_site_symmetry_multiplicity
 _atom_site_fract_x
 _atom_site_fract_y
 _atom_site_fract_z
 _atom_site_occupancy
  Ce  Ce0  1  0.33333333  0.66666667  0.16666667  1
  Ce  Ce1  1  0.00000000  0.00000000  0.00000000  1
  Ce  Ce2  1  1.00000000  0.00000000  0.50000000  1
  Ce  Ce3  1  0.66666667  0.33333333  0.33333333  1
  Ce  Ce4  1  0.66666667  0.33333333  0.83333333  1
  Ce  Ce5  1  0.33333333  0.66666667  0.66666667  1
  Al  Al6  1  0.34437733  0.87207167  0.30302767  1
  Al  Al7  1  0.12792833  0.47230567  0.30302767  1
  Al  Al8  1  0.52769433  0.65562267  0.30302767  1
  Al  Al9  1  0.47230567  0.12792833  0.19697233  1
  Al  Al10  1  0.87207167  0.34437733  0.19697233  1
  Al  Al11  1  0.65562267  0.52769433  0.19697233  1
  Al  Al12  1  0.32228933  0.46126167  0.03030567  1
  Al  Al13  1  0.53873833  0.86102767  0.03030567  1
  Al  Al14  1  0.00000000  0.00000000  0.25000000  1
  Al  Al15  1  0.66666667  0.33333333  0.08333333  1
  Al  Al16  1  0.01104400  0.80563900  0.13636100  1
  Al  Al17  1  0.79459500  0.98895600  0.13636100  1
  Al  Al18  1  0.19436100  0.20540500  0.13636100  1
  Al  Al19  1  0.13897233  0.67771067  0.03030567  1
  Al  Al20  1  0.01104400  0.20540500  0.63636100  1
  Al  Al21  1  0.79459500  0.80563900  0.63636100  1
  Al  Al22  1  0.19436100  0.98895600  0.63636100  1
  Al  Al23  1  0.13897233  0.46126167  0.53030567  1
  Al  Al24  1  0.53873833  0.67771067  0.53030567  1
  Al  Al25  1  0.32228933  0.86102767  0.53030567  1
  Al  Al26  1  0.98895600  0.79459500  0.36363900  1
  Al  Al27  1  0.20540500  0.19436100  0.36363900  1
  Al  Al28  1  0.66666667  0.33333333  0.58333333  1
  Al  Al29  1  0.33333333  0.66666667  0.41666667  1
  Al  Al30  1  0.67771067  0.13897233  0.46969433  1
  Al  Al31  1  0.46126167  0.32228933  0.46969433  1
  Al  Al32  1  0.86102767  0.53873833  0.46969433  1
  Al  Al33  1  0.80563900  0.01104400  0.36363900  1
  Al  Al34  1  0.67771067  0.53873833  0.96969433  1
  Al  Al35  1  0.46126167  0.13897233  0.96969433  1
  Al  Al36  1  0.86102767  0.32228933  0.96969433  1
  Al  Al37  1  0.80563900  0.79459500  0.86363900  1
  Al  Al38  1  0.20540500  0.01104400  0.86363900  1
  Al  Al39  1  0.98895600  0.19436100  0.86363900  1
  Al  Al40  1  0.65562267  0.12792833  0.69697233  1
  Al  Al41  1  0.87207167  0.52769433  0.69697233  1
  Al  Al42  1  0.33333333  0.66666667  0.91666667  1
  Al  Al43  1  0.00000000  0.00000000  0.75000000  1
  Al  Al44  1  0.34437733  0.47230567  0.80302767  1
  Al  Al45  1  0.12792833  0.65562267  0.80302767  1
  Al  Al46  1  0.52769433  0.87207167  0.80302767  1
  Al  Al47  1  0.47230567  0.34437733  0.69697233  1
  Au  Au48  1  0.98696167  0.33333333  0.08333333  1
  Au  Au49  1  0.66666667  0.65362833  0.08333333  1
  Au  Au50  1  0.34637167  0.01303833  0.08333333  1
  Au  Au51  1  0.67970500  0.00000000  0.25000000  1
  Au  Au52  1  0.00000000  0.67970500  0.25000000  1
  Au  Au53  1  0.32029500  0.32029500  0.25000000  1
  Au  Au54  1  0.65362833  0.66666667  0.41666667  1
  Au  Au55  1  0.33333333  0.98696167  0.41666667  1
  Au  Au56  1  0.01303833  0.34637167  0.41666667  1
  Au  Au57  1  0.34637167  0.33333333  0.58333333  1
  Au  Au58  1  0.66666667  0.01303833  0.58333333  1
  Au  Au59  1  0.98696167  0.65362833  0.58333333  1
  Au  Au60  1  0.32029500  0.00000000  0.75000000  1
  Au  Au61  1  0.00000000  0.32029500  0.75000000  1
  Au  Au62  1  0.67970500  0.67970500  0.75000000  1
  Au  Au63  1  0.01303833  0.66666667  0.91666667  1
  Au  Au64  1  0.33333333  0.34637167  0.91666667  1
  Au  Au65  1  0.65362833  0.98696167  0.91666667  1
