# generated using pymatgen
data_Yb4As3
_symmetry_space_group_name_H-M   'P 1'
_cell_length_a   8.88171400
_cell_length_b   8.88171400
_cell_length_c   8.88171400
_cell_angle_alpha   90.00000000
_cell_angle_beta   90.00000000
_cell_angle_gamma   90.00000000
_symmetry_Int_Tables_number   1
_chemical_formula_structural   Yb4As3
_chemical_formula_sum   'Yb16 As12'
_cell_volume   700.63261959
_cell_formula_units_Z   4
loop_
 _symmetry_equiv_pos_site_id
 _symmetry_equiv_pos_as_xyz
  1  'x, y, z'
loop_
 _atom_site_type_symbol
 _atom_site_label
 _atom_site_symmetry_multiplicity
 _atom_site_fract_x
 _atom_site_fract_y
 _atom_site_fract_z
 _atom_site_occupancy
  Yb  Yb0  1  0.17810050  0.82189950  0.32189950  1
  Yb  Yb1  1  0.07189950  0.57189950  0.92810050  1
  Yb  Yb2  1  0.17810050  0.17810050  0.17810050  1
  Yb  Yb3  1  0.32189950  0.17810050  0.82189950  1
  Yb  Yb4  1  0.42810050  0.42810050  0.42810050  1
  Yb  Yb5  1  0.57189950  0.92810050  0.07189950  1
  Yb  Yb6  1  0.92810050  0.07189950  0.57189950  1
  Yb  Yb7  1  0.82189950  0.32189950  0.17810050  1
  Yb  Yb8  1  0.67810050  0.32189950  0.82189950  1
  Yb  Yb9  1  0.57189950  0.07189950  0.42810050  1
  Yb  Yb10  1  0.67810050  0.67810050  0.67810050  1
  Yb  Yb11  1  0.82189950  0.67810050  0.32189950  1
  Yb  Yb12  1  0.92810050  0.92810050  0.92810050  1
  Yb  Yb13  1  0.07189950  0.42810050  0.57189950  1
  Yb  Yb14  1  0.42810050  0.57189950  0.07189950  1
  Yb  Yb15  1  0.32189950  0.82189950  0.67810050  1
  As  As16  1  0.75000000  0.37500000  0.50000000  1
  As  As17  1  0.50000000  0.75000000  0.37500000  1
  As  As18  1  0.50000000  0.25000000  0.12500000  1
  As  As19  1  0.37500000  0.50000000  0.75000000  1
  As  As20  1  0.12500000  0.50000000  0.25000000  1
  As  As21  1  0.25000000  0.12500000  0.50000000  1
  As  As22  1  0.25000000  0.87500000  0.00000000  1
  As  As23  1  0.00000000  0.25000000  0.87500000  1
  As  As24  1  0.00000000  0.75000000  0.62500000  1
  As  As25  1  0.87500000  0.00000000  0.25000000  1
  As  As26  1  0.62500000  0.00000000  0.75000000  1
  As  As27  1  0.75000000  0.62500000  0.00000000  1
