# generated using pymatgen
data_Ho2Ge6Pd
_symmetry_space_group_name_H-M   'P 1'
_cell_length_a   4.02878000
_cell_length_b   22.01665400
_cell_length_c   4.09596600
_cell_angle_alpha   90.00000000
_cell_angle_beta   90.00000000
_cell_angle_gamma   90.00000000
_symmetry_Int_Tables_number   1
_chemical_formula_structural   Ho2Ge6Pd
_chemical_formula_sum   'Ho4 Ge12 Pd2'
_cell_volume   363.31322991
_cell_formula_units_Z   2
loop_
 _symmetry_equiv_pos_site_id
 _symmetry_equiv_pos_as_xyz
  1  'x, y, z'
loop_
 _atom_site_type_symbol
 _atom_site_label
 _atom_site_symmetry_multiplicity
 _atom_site_fract_x
 _atom_site_fract_y
 _atom_site_fract_z
 _atom_site_occupancy
  Ho  Ho0  1  0.00000000  0.66179900  0.00000000  1
  Ho  Ho1  1  0.50000000  0.50187400  0.00000000  1
  Ho  Ho2  1  0.50000000  0.16179900  0.00000000  1
  Ho  Ho3  1  0.00000000  0.00187400  0.00000000  1
  Ge  Ge4  1  0.00000000  0.78780600  0.50000000  1
  Ge  Ge5  1  0.00000000  0.90181900  0.50000000  1
  Ge  Ge6  1  0.50000000  0.61006200  0.50000000  1
  Ge  Ge7  1  0.50000000  0.78633500  0.00000000  1
  Ge  Ge8  1  0.50000000  0.90014800  0.00000000  1
  Ge  Ge9  1  0.00000000  0.53767500  0.50000000  1
  Ge  Ge10  1  0.50000000  0.28780600  0.50000000  1
  Ge  Ge11  1  0.50000000  0.40181900  0.50000000  1
  Ge  Ge12  1  0.00000000  0.11006200  0.50000000  1
  Ge  Ge13  1  0.00000000  0.28633500  0.00000000  1
  Ge  Ge14  1  0.00000000  0.40014800  0.00000000  1
  Ge  Ge15  1  0.50000000  0.03767500  0.50000000  1
  Pd  Pd16  1  0.50000000  0.72048200  0.50000000  1
  Pd  Pd17  1  0.00000000  0.22048200  0.50000000  1
