# generated using pymatgen
data_Nd3Fe29
_symmetry_space_group_name_H-M   'P 1'
_cell_length_a   9.70984581
_cell_length_b   8.58183672
_cell_length_c   10.50996188
_cell_angle_alpha   90.00000000
_cell_angle_beta   96.14581788
_cell_angle_gamma   90.00000000
_symmetry_Int_Tables_number   1
_chemical_formula_structural   Nd3Fe29
_chemical_formula_sum   'Nd6 Fe58'
_cell_volume   870.74397651
_cell_formula_units_Z   2
loop_
 _symmetry_equiv_pos_site_id
 _symmetry_equiv_pos_as_xyz
  1  'x, y, z'
loop_
 _atom_site_type_symbol
 _atom_site_label
 _atom_site_symmetry_multiplicity
 _atom_site_fract_x
 _atom_site_fract_y
 _atom_site_fract_z
 _atom_site_occupancy
  Nd  Nd0  1  0.31335900  0.50000000  0.40074200  1
  Nd  Nd1  1  0.68664100  0.50000000  0.59925800  1
  Nd  Nd2  1  0.00000000  0.00000000  0.00000000  1
  Nd  Nd3  1  0.81335900  0.00000000  0.40074200  1
  Nd  Nd4  1  0.18664100  0.00000000  0.59925800  1
  Nd  Nd5  1  0.50000000  0.50000000  0.00000000  1
  Fe  Fe6  1  0.75000000  0.25000000  0.00000000  1
  Fe  Fe7  1  0.25000000  0.25000000  0.00000000  1
  Fe  Fe8  1  0.06363000  0.25253500  0.40375100  1
  Fe  Fe9  1  0.00000000  0.50000000  0.50000000  1
  Fe  Fe10  1  0.79184200  0.50000000  0.14003900  1
  Fe  Fe11  1  0.20815800  0.50000000  0.85996100  1
  Fe  Fe12  1  0.02097600  0.50000000  0.25281600  1
  Fe  Fe13  1  0.97902400  0.50000000  0.74718400  1
  Fe  Fe14  1  0.09098700  0.77472200  0.80390700  1
  Fe  Fe15  1  0.90901300  0.77472200  0.19609300  1
  Fe  Fe16  1  0.90901300  0.22527800  0.19609300  1
  Fe  Fe17  1  0.09098700  0.22527800  0.80390700  1
  Fe  Fe18  1  0.18509600  0.64535100  0.62490800  1
  Fe  Fe19  1  0.81490400  0.64535100  0.37509200  1
  Fe  Fe20  1  0.81490400  0.35464900  0.37509200  1
  Fe  Fe21  1  0.18509600  0.35464900  0.62490800  1
  Fe  Fe22  1  0.00000000  0.36007400  0.00000000  1
  Fe  Fe23  1  0.00000000  0.63992600  0.00000000  1
  Fe  Fe24  1  0.78021300  0.50000000  0.89373900  1
  Fe  Fe25  1  0.21978700  0.50000000  0.10626100  1
  Fe  Fe26  1  0.84411950  0.74700150  0.80235300  1
  Fe  Fe27  1  0.15588050  0.74700150  0.19764700  1
  Fe  Fe28  1  0.15588050  0.25299850  0.19764700  1
  Fe  Fe29  1  0.84411950  0.25299850  0.80235300  1
  Fe  Fe30  1  0.40447000  0.50000000  0.70904000  1
  Fe  Fe31  1  0.59553000  0.50000000  0.29096000  1
  Fe  Fe32  1  0.06363000  0.74746500  0.40375100  1
  Fe  Fe33  1  0.93637000  0.74746500  0.59624900  1
  Fe  Fe34  1  0.93637000  0.25253500  0.59624900  1
  Fe  Fe35  1  0.25000000  0.75000000  0.00000000  1
  Fe  Fe36  1  0.75000000  0.75000000  0.00000000  1
  Fe  Fe37  1  0.56363000  0.75253500  0.40375100  1
  Fe  Fe38  1  0.50000000  0.00000000  0.50000000  1
  Fe  Fe39  1  0.29184200  0.00000000  0.14003900  1
  Fe  Fe40  1  0.70815800  0.00000000  0.85996100  1
  Fe  Fe41  1  0.52097600  0.00000000  0.25281600  1
  Fe  Fe42  1  0.47902400  0.00000000  0.74718400  1
  Fe  Fe43  1  0.59098700  0.27472200  0.80390700  1
  Fe  Fe44  1  0.40901300  0.27472200  0.19609300  1
  Fe  Fe45  1  0.40901300  0.72527800  0.19609300  1
  Fe  Fe46  1  0.59098700  0.72527800  0.80390700  1
  Fe  Fe47  1  0.68509600  0.14535100  0.62490800  1
  Fe  Fe48  1  0.31490400  0.14535100  0.37509200  1
  Fe  Fe49  1  0.31490400  0.85464900  0.37509200  1
  Fe  Fe50  1  0.68509600  0.85464900  0.62490800  1
  Fe  Fe51  1  0.50000000  0.86007400  0.00000000  1
  Fe  Fe52  1  0.50000000  0.13992600  0.00000000  1
  Fe  Fe53  1  0.28021300  0.00000000  0.89373900  1
  Fe  Fe54  1  0.71978700  0.00000000  0.10626100  1
  Fe  Fe55  1  0.34411950  0.24700150  0.80235300  1
  Fe  Fe56  1  0.65588050  0.24700150  0.19764700  1
  Fe  Fe57  1  0.65588050  0.75299850  0.19764700  1
  Fe  Fe58  1  0.34411950  0.75299850  0.80235300  1
  Fe  Fe59  1  0.90447000  0.00000000  0.70904000  1
  Fe  Fe60  1  0.09553000  0.00000000  0.29096000  1
  Fe  Fe61  1  0.56363000  0.24746500  0.40375100  1
  Fe  Fe62  1  0.43637000  0.24746500  0.59624900  1
  Fe  Fe63  1  0.43637000  0.75253500  0.59624900  1
