# generated using pymatgen
data_Mn2CdO4
_symmetry_space_group_name_H-M   'P 1'
_cell_length_a   5.92959041
_cell_length_b   5.92959041
_cell_length_c   9.97365526
_cell_angle_alpha   90.00000000
_cell_angle_beta   90.00000000
_cell_angle_gamma   90.00000000
_symmetry_Int_Tables_number   1
_chemical_formula_structural   Mn2CdO4
_chemical_formula_sum   'Mn8 Cd4 O16'
_cell_volume   350.67414215
_cell_formula_units_Z   4
loop_
 _symmetry_equiv_pos_site_id
 _symmetry_equiv_pos_as_xyz
  1  'x, y, z'
loop_
 _atom_site_type_symbol
 _atom_site_label
 _atom_site_symmetry_multiplicity
 _atom_site_fract_x
 _atom_site_fract_y
 _atom_site_fract_z
 _atom_site_occupancy
  Mn  Mn0  1  0.00000000  0.25000000  0.12500000  1
  Mn  Mn1  1  0.75000000  0.00000000  0.87500000  1
  Mn  Mn2  1  0.25000000  0.00000000  0.87500000  1
  Mn  Mn3  1  0.50000000  0.25000000  0.62500000  1
  Mn  Mn4  1  0.50000000  0.75000000  0.62500000  1
  Mn  Mn5  1  0.25000000  0.50000000  0.37500000  1
  Mn  Mn6  1  0.75000000  0.50000000  0.37500000  1
  Mn  Mn7  1  0.00000000  0.75000000  0.12500000  1
  Cd  Cd8  1  0.00000000  0.50000000  0.75000000  1
  Cd  Cd9  1  0.50000000  0.50000000  0.00000000  1
  Cd  Cd10  1  0.50000000  0.00000000  0.25000000  1
  Cd  Cd11  1  0.00000000  0.00000000  0.50000000  1
  O  O12  1  0.28302200  0.00000000  0.64138000  1
  O  O13  1  0.00000000  0.21697800  0.89138000  1
  O  O14  1  0.71697800  0.00000000  0.64138000  1
  O  O15  1  0.21697800  0.00000000  0.10862000  1
  O  O16  1  0.50000000  0.78302200  0.85862000  1
  O  O17  1  0.50000000  0.21697800  0.85862000  1
  O  O18  1  0.00000000  0.78302200  0.89138000  1
  O  O19  1  0.78302200  0.00000000  0.10862000  1
  O  O20  1  0.78302200  0.50000000  0.14138000  1
  O  O21  1  0.50000000  0.71697800  0.39138000  1
  O  O22  1  0.21697800  0.50000000  0.14138000  1
  O  O23  1  0.71697800  0.50000000  0.60862000  1
  O  O24  1  0.00000000  0.28302200  0.35862000  1
  O  O25  1  0.00000000  0.71697800  0.35862000  1
  O  O26  1  0.50000000  0.28302200  0.39138000  1
  O  O27  1  0.28302200  0.50000000  0.60862000  1
