# generated using pymatgen
data_La4Ni3O10
_symmetry_space_group_name_H-M   'P 1'
_cell_length_a   3.87299892
_cell_length_b   3.87299892
_cell_length_c   28.00587943
_cell_angle_alpha   90.00000000
_cell_angle_beta   90.00000000
_cell_angle_gamma   90.00000000
_symmetry_Int_Tables_number   1
_chemical_formula_structural   La4Ni3O10
_chemical_formula_sum   'La8 Ni6 O20'
_cell_volume   420.09157001
_cell_formula_units_Z   2
loop_
 _symmetry_equiv_pos_site_id
 _symmetry_equiv_pos_as_xyz
  1  'x, y, z'
loop_
 _atom_site_type_symbol
 _atom_site_label
 _atom_site_symmetry_multiplicity
 _atom_site_fract_x
 _atom_site_fract_y
 _atom_site_fract_z
 _atom_site_occupancy
  La  La0  1  0.00000000  0.00000000  0.30143113  1
  La  La1  1  0.50000000  0.50000000  0.19856887  1
  La  La2  1  0.00000000  0.00000000  0.43275860  1
  La  La3  1  0.50000000  0.50000000  0.06724140  1
  La  La4  1  0.50000000  0.50000000  0.80143113  1
  La  La5  1  0.00000000  0.00000000  0.69856887  1
  La  La6  1  0.50000000  0.50000000  0.93275860  1
  La  La7  1  0.00000000  0.00000000  0.56724140  1
  Ni  Ni8  1  0.00000000  0.00000000  0.14030728  1
  Ni  Ni9  1  0.50000000  0.50000000  0.35969272  1
  Ni  Ni10  1  0.50000000  0.50000000  0.50000000  1
  Ni  Ni11  1  0.50000000  0.50000000  0.64030728  1
  Ni  Ni12  1  0.00000000  0.00000000  0.85969272  1
  Ni  Ni13  1  0.00000000  0.00000000  0.00000000  1
  O  O14  1  0.00000000  0.00000000  0.21714247  1
  O  O15  1  0.50000000  0.50000000  0.28285753  1
  O  O16  1  0.50000000  0.00000000  0.36020250  1
  O  O17  1  0.50000000  0.00000000  0.13979750  1
  O  O18  1  0.00000000  0.50000000  0.13979750  1
  O  O19  1  0.00000000  0.50000000  0.36020250  1
  O  O20  1  0.00000000  0.00000000  0.06857419  1
  O  O21  1  0.00000000  0.50000000  0.50000000  1
  O  O22  1  0.50000000  0.50000000  0.43142581  1
  O  O23  1  0.50000000  0.00000000  0.50000000  1
  O  O24  1  0.50000000  0.50000000  0.71714247  1
  O  O25  1  0.00000000  0.00000000  0.78285753  1
  O  O26  1  0.00000000  0.50000000  0.86020250  1
  O  O27  1  0.00000000  0.50000000  0.63979750  1
  O  O28  1  0.50000000  0.00000000  0.63979750  1
  O  O29  1  0.50000000  0.00000000  0.86020250  1
  O  O30  1  0.50000000  0.50000000  0.56857419  1
  O  O31  1  0.50000000  0.00000000  0.00000000  1
  O  O32  1  0.00000000  0.00000000  0.93142581  1
  O  O33  1  0.00000000  0.50000000  0.00000000  1
