# generated using pymatgen
data_CoCu2SiS4
_symmetry_space_group_name_H-M   'P 1'
_cell_length_a   5.20164200
_cell_length_b   5.20164200
_cell_length_c   10.47386000
_cell_angle_alpha   90.00000000
_cell_angle_beta   90.00000000
_cell_angle_gamma   90.00000000
_symmetry_Int_Tables_number   1
_chemical_formula_structural   CoCu2SiS4
_chemical_formula_sum   'Co2 Cu4 Si2 S8'
_cell_volume   283.39206265
_cell_formula_units_Z   2
loop_
 _symmetry_equiv_pos_site_id
 _symmetry_equiv_pos_as_xyz
  1  'x, y, z'
loop_
 _atom_site_type_symbol
 _atom_site_label
 _atom_site_symmetry_multiplicity
 _atom_site_fract_x
 _atom_site_fract_y
 _atom_site_fract_z
 _atom_site_occupancy
  Co  Co0  1  0.00000000  0.00000000  0.00000000  1
  Co  Co1  1  0.50000000  0.50000000  0.50000000  1
  Cu  Cu2  1  0.50000000  0.00000000  0.25000000  1
  Cu  Cu3  1  0.00000000  0.50000000  0.25000000  1
  Cu  Cu4  1  0.00000000  0.50000000  0.75000000  1
  Cu  Cu5  1  0.50000000  0.00000000  0.75000000  1
  Si  Si6  1  0.50000000  0.50000000  0.00000000  1
  Si  Si7  1  0.00000000  0.00000000  0.50000000  1
  S  S8  1  0.75904400  0.24095600  0.37977400  1
  S  S9  1  0.24095600  0.75904400  0.37977400  1
  S  S10  1  0.74095600  0.74095600  0.12022600  1
  S  S11  1  0.25904400  0.25904400  0.12022600  1
  S  S12  1  0.25904400  0.74095600  0.87977400  1
  S  S13  1  0.74095600  0.25904400  0.87977400  1
  S  S14  1  0.24095600  0.24095600  0.62022600  1
  S  S15  1  0.75904400  0.75904400  0.62022600  1
