# generated using pymatgen
data_Sr2LiSi3
_symmetry_space_group_name_H-M   'P 1'
_cell_length_a   8.53427200
_cell_length_b   14.83365200
_cell_length_c   18.25561800
_cell_angle_alpha   90.00000000
_cell_angle_beta   90.00000000
_cell_angle_gamma   90.00000000
_symmetry_Int_Tables_number   1
_chemical_formula_structural   Sr2LiSi3
_chemical_formula_sum   'Sr32 Li16 Si48'
_cell_volume   2311.05938927
_cell_formula_units_Z   16
loop_
 _symmetry_equiv_pos_site_id
 _symmetry_equiv_pos_as_xyz
  1  'x, y, z'
loop_
 _atom_site_type_symbol
 _atom_site_label
 _atom_site_symmetry_multiplicity
 _atom_site_fract_x
 _atom_site_fract_y
 _atom_site_fract_z
 _atom_site_occupancy
  Sr  Sr0  1  0.50000000  0.00000000  0.62408600  1
  Sr  Sr1  1  0.00000000  0.00000000  0.87591400  1
  Sr  Sr2  1  0.25000000  0.75000000  0.62591400  1
  Sr  Sr3  1  0.25000000  0.75000000  0.87408600  1
  Sr  Sr4  1  0.00000000  0.00000000  0.62432850  1
  Sr  Sr5  1  0.50000000  0.00000000  0.87567150  1
  Sr  Sr6  1  0.75000000  0.75000000  0.62567150  1
  Sr  Sr7  1  0.75000000  0.75000000  0.87432850  1
  Sr  Sr8  1  0.50000000  0.50000000  0.12408600  1
  Sr  Sr9  1  0.00000000  0.50000000  0.37591400  1
  Sr  Sr10  1  0.25000000  0.25000000  0.12591400  1
  Sr  Sr11  1  0.25000000  0.25000000  0.37408600  1
  Sr  Sr12  1  0.00000000  0.50000000  0.12432850  1
  Sr  Sr13  1  0.50000000  0.50000000  0.37567150  1
  Sr  Sr14  1  0.75000000  0.25000000  0.12567150  1
  Sr  Sr15  1  0.75000000  0.25000000  0.37432850  1
  Sr  Sr16  1  0.00000000  0.00000000  0.12408600  1
  Sr  Sr17  1  0.50000000  0.00000000  0.37591400  1
  Sr  Sr18  1  0.75000000  0.75000000  0.12591400  1
  Sr  Sr19  1  0.75000000  0.75000000  0.37408600  1
  Sr  Sr20  1  0.50000000  0.00000000  0.12432850  1
  Sr  Sr21  1  0.00000000  0.00000000  0.37567150  1
  Sr  Sr22  1  0.25000000  0.75000000  0.12567150  1
  Sr  Sr23  1  0.25000000  0.75000000  0.37432850  1
  Sr  Sr24  1  0.00000000  0.50000000  0.62408600  1
  Sr  Sr25  1  0.50000000  0.50000000  0.87591400  1
  Sr  Sr26  1  0.75000000  0.25000000  0.62591400  1
  Sr  Sr27  1  0.75000000  0.25000000  0.87408600  1
  Sr  Sr28  1  0.50000000  0.50000000  0.62432850  1
  Sr  Sr29  1  0.00000000  0.50000000  0.87567150  1
  Sr  Sr30  1  0.25000000  0.25000000  0.62567150  1
  Sr  Sr31  1  0.25000000  0.25000000  0.87432850  1
  Li  Li32  1  0.25000000  0.58277400  0.75000000  1
  Li  Li33  1  0.00000000  0.83277400  0.00000000  1
  Li  Li34  1  0.50000000  0.66722600  0.00000000  1
  Li  Li35  1  0.25000000  0.91722600  0.75000000  1
  Li  Li36  1  0.25000000  0.08277400  0.25000000  1
  Li  Li37  1  0.00000000  0.33277400  0.50000000  1
  Li  Li38  1  0.50000000  0.16722600  0.50000000  1
  Li  Li39  1  0.25000000  0.41722600  0.25000000  1
  Li  Li40  1  0.75000000  0.58277400  0.25000000  1
  Li  Li41  1  0.50000000  0.83277400  0.50000000  1
  Li  Li42  1  0.00000000  0.66722600  0.50000000  1
  Li  Li43  1  0.75000000  0.91722600  0.25000000  1
  Li  Li44  1  0.75000000  0.08277400  0.75000000  1
  Li  Li45  1  0.50000000  0.33277400  0.00000000  1
  Li  Li46  1  0.00000000  0.16722600  0.00000000  1
  Li  Li47  1  0.75000000  0.41722600  0.75000000  1
  Si  Si48  1  0.50884650  0.66960100  0.75283450  1
  Si  Si49  1  0.50884650  0.83039900  0.74716550  1
  Si  Si50  1  0.99115350  0.66960100  0.74716550  1
  Si  Si51  1  0.99115350  0.83039900  0.75283450  1
  Si  Si52  1  0.24115350  0.58039900  0.99716550  1
  Si  Si53  1  0.25884650  0.91960100  0.99716550  1
  Si  Si54  1  0.25884650  0.58039900  0.50283450  1
  Si  Si55  1  0.24115350  0.91960100  0.50283450  1
  Si  Si56  1  0.75000000  0.91126550  0.75000000  1
  Si  Si57  1  0.75000000  0.58873450  0.75000000  1
  Si  Si58  1  0.00000000  0.83873450  0.50000000  1
  Si  Si59  1  0.00000000  0.66126550  0.00000000  1
  Si  Si60  1  0.50884650  0.16960100  0.25283450  1
  Si  Si61  1  0.50884650  0.33039900  0.24716550  1
  Si  Si62  1  0.99115350  0.16960100  0.24716550  1
  Si  Si63  1  0.99115350  0.33039900  0.25283450  1
  Si  Si64  1  0.24115350  0.08039900  0.49716550  1
  Si  Si65  1  0.25884650  0.41960100  0.49716550  1
  Si  Si66  1  0.25884650  0.08039900  0.00283450  1
  Si  Si67  1  0.24115350  0.41960100  0.00283450  1
  Si  Si68  1  0.75000000  0.41126550  0.25000000  1
  Si  Si69  1  0.75000000  0.08873450  0.25000000  1
  Si  Si70  1  0.00000000  0.33873450  0.00000000  1
  Si  Si71  1  0.00000000  0.16126550  0.50000000  1
  Si  Si72  1  0.00884650  0.66960100  0.25283450  1
  Si  Si73  1  0.00884650  0.83039900  0.24716550  1
  Si  Si74  1  0.49115350  0.66960100  0.24716550  1
  Si  Si75  1  0.49115350  0.83039900  0.25283450  1
  Si  Si76  1  0.74115350  0.58039900  0.49716550  1
  Si  Si77  1  0.75884650  0.91960100  0.49716550  1
  Si  Si78  1  0.75884650  0.58039900  0.00283450  1
  Si  Si79  1  0.74115350  0.91960100  0.00283450  1
  Si  Si80  1  0.25000000  0.91126550  0.25000000  1
  Si  Si81  1  0.25000000  0.58873450  0.25000000  1
  Si  Si82  1  0.50000000  0.83873450  0.00000000  1
  Si  Si83  1  0.50000000  0.66126550  0.50000000  1
  Si  Si84  1  0.00884650  0.16960100  0.75283450  1
  Si  Si85  1  0.00884650  0.33039900  0.74716550  1
  Si  Si86  1  0.49115350  0.16960100  0.74716550  1
  Si  Si87  1  0.49115350  0.33039900  0.75283450  1
  Si  Si88  1  0.74115350  0.08039900  0.99716550  1
  Si  Si89  1  0.75884650  0.41960100  0.99716550  1
  Si  Si90  1  0.75884650  0.08039900  0.50283450  1
  Si  Si91  1  0.74115350  0.41960100  0.50283450  1
  Si  Si92  1  0.25000000  0.41126550  0.75000000  1
  Si  Si93  1  0.25000000  0.08873450  0.75000000  1
  Si  Si94  1  0.50000000  0.33873450  0.50000000  1
  Si  Si95  1  0.50000000  0.16126550  0.00000000  1
