# generated using pymatgen
data_CsTe7Mo6
_symmetry_space_group_name_H-M   'P 1'
_cell_length_a   10.51525388
_cell_length_b   10.51525388
_cell_length_c   25.62143062
_cell_angle_alpha   90.00000000
_cell_angle_beta   90.00000000
_cell_angle_gamma   120.00000000
_symmetry_Int_Tables_number   1
_chemical_formula_structural   CsTe7Mo6
_chemical_formula_sum   'Cs6 Te42 Mo36'
_cell_volume   2453.42921798
_cell_formula_units_Z   6
loop_
 _symmetry_equiv_pos_site_id
 _symmetry_equiv_pos_as_xyz
  1  'x, y, z'
loop_
 _atom_site_type_symbol
 _atom_site_label
 _atom_site_symmetry_multiplicity
 _atom_site_fract_x
 _atom_site_fract_y
 _atom_site_fract_z
 _atom_site_occupancy
  Cs  Cs0  1  0.33333333  0.66666667  0.28667467  1
  Cs  Cs1  1  0.33333333  0.66666667  0.04665867  1
  Cs  Cs2  1  0.00000000  0.00000000  0.62000800  1
  Cs  Cs3  1  0.00000000  0.00000000  0.37999200  1
  Cs  Cs4  1  0.66666667  0.33333333  0.95334133  1
  Cs  Cs5  1  0.66666667  0.33333333  0.71332533  1
  Te  Te6  1  0.29379833  0.96711467  0.13075367  1
  Te  Te7  1  0.03288533  0.32668367  0.13075367  1
  Te  Te8  1  0.67331633  0.70620167  0.13075367  1
  Te  Te9  1  0.37286833  0.36621867  0.20257967  1
  Te  Te10  1  0.63378133  0.00664967  0.20257967  1
  Te  Te11  1  0.99335033  0.62713167  0.20257967  1
  Te  Te12  1  0.34601833  0.04084467  0.28610167  1
  Te  Te13  1  0.95915533  0.30517367  0.28610167  1
  Te  Te14  1  0.69482633  0.65398167  0.28610167  1
  Te  Te15  1  0.32064833  0.29248867  0.04723167  1
  Te  Te16  1  0.70751133  0.02815967  0.04723167  1
  Te  Te17  1  0.97184033  0.67935167  0.04723167  1
  Te  Te18  1  0.33333333  0.66666667  0.44217767  1
  Te  Te19  1  0.33333333  0.66666667  0.89115567  1
  Te  Te20  1  0.96046500  0.30044800  0.46408700  1
  Te  Te21  1  0.69955200  0.66001700  0.46408700  1
  Te  Te22  1  0.33998300  0.03953500  0.46408700  1
  Te  Te23  1  0.03953500  0.69955200  0.53591300  1
  Te  Te24  1  0.30044800  0.33998300  0.53591300  1
  Te  Te25  1  0.66001700  0.96046500  0.53591300  1
  Te  Te26  1  0.01268500  0.37417800  0.61943500  1
  Te  Te27  1  0.62582200  0.63850700  0.61943500  1
  Te  Te28  1  0.36149300  0.98731500  0.61943500  1
  Te  Te29  1  0.98731500  0.62582200  0.38056500  1
  Te  Te30  1  0.37417800  0.36149300  0.38056500  1
  Te  Te31  1  0.63850700  0.01268500  0.38056500  1
  Te  Te32  1  0.00000000  0.00000000  0.77551100  1
  Te  Te33  1  0.00000000  0.00000000  0.22448900  1
  Te  Te34  1  0.62713167  0.63378133  0.79742033  1
  Te  Te35  1  0.36621867  0.99335033  0.79742033  1
  Te  Te36  1  0.00664967  0.37286833  0.79742033  1
  Te  Te37  1  0.70620167  0.03288533  0.86924633  1
  Te  Te38  1  0.96711467  0.67331633  0.86924633  1
  Te  Te39  1  0.32668367  0.29379833  0.86924633  1
  Te  Te40  1  0.67935167  0.70751133  0.95276833  1
  Te  Te41  1  0.29248867  0.97184033  0.95276833  1
  Te  Te42  1  0.02815967  0.32064833  0.95276833  1
  Te  Te43  1  0.65398167  0.95915533  0.71389833  1
  Te  Te44  1  0.04084467  0.69482633  0.71389833  1
  Te  Te45  1  0.30517367  0.34601833  0.71389833  1
  Te  Te46  1  0.66666667  0.33333333  0.10884433  1
  Te  Te47  1  0.66666667  0.33333333  0.55782233  1
  Mo  Mo48  1  0.51333833  0.19703467  0.19753567  1
  Mo  Mo49  1  0.80296533  0.31630367  0.19753567  1
  Mo  Mo50  1  0.68369633  0.48666167  0.19753567  1
  Mo  Mo51  1  0.15332833  0.13629867  0.13579767  1
  Mo  Mo52  1  0.86370133  0.01702967  0.13579767  1
  Mo  Mo53  1  0.98297033  0.84667167  0.13579767  1
  Mo  Mo54  1  0.65489800  0.17969800  0.28896700  1
  Mo  Mo55  1  0.82030200  0.47520000  0.28896700  1
  Mo  Mo56  1  0.52480000  0.34510200  0.28896700  1
  Mo  Mo57  1  0.01176867  0.15363533  0.04436633  1
  Mo  Mo58  1  0.84636467  0.85813333  0.04436633  1
  Mo  Mo59  1  0.14186667  0.98823133  0.04436633  1
  Mo  Mo60  1  0.18000500  0.53036800  0.53086900  1
  Mo  Mo61  1  0.46963200  0.64963700  0.53086900  1
  Mo  Mo62  1  0.35036300  0.81999500  0.53086900  1
  Mo  Mo63  1  0.81999500  0.46963200  0.46913100  1
  Mo  Mo64  1  0.53036800  0.35036300  0.46913100  1
  Mo  Mo65  1  0.64963700  0.18000500  0.46913100  1
  Mo  Mo66  1  0.32156467  0.51303133  0.62230033  1
  Mo  Mo67  1  0.48696867  0.80853333  0.62230033  1
  Mo  Mo68  1  0.19146667  0.67843533  0.62230033  1
  Mo  Mo69  1  0.67843533  0.48696867  0.37769967  1
  Mo  Mo70  1  0.51303133  0.19146667  0.37769967  1
  Mo  Mo71  1  0.80853333  0.32156467  0.37769967  1
  Mo  Mo72  1  0.84667167  0.86370133  0.86420233  1
  Mo  Mo73  1  0.13629867  0.98297033  0.86420233  1
  Mo  Mo74  1  0.01702967  0.15332833  0.86420233  1
  Mo  Mo75  1  0.48666167  0.80296533  0.80246433  1
  Mo  Mo76  1  0.19703467  0.68369633  0.80246433  1
  Mo  Mo77  1  0.31630367  0.51333833  0.80246433  1
  Mo  Mo78  1  0.98823133  0.84636467  0.95563367  1
  Mo  Mo79  1  0.15363533  0.14186667  0.95563367  1
  Mo  Mo80  1  0.85813333  0.01176867  0.95563367  1
  Mo  Mo81  1  0.34510200  0.82030200  0.71103300  1
  Mo  Mo82  1  0.17969800  0.52480000  0.71103300  1
  Mo  Mo83  1  0.47520000  0.65489800  0.71103300  1
