# generated using pymatgen
data_Yb3Cu6Sn5
_symmetry_space_group_name_H-M   'P 1'
_cell_length_a   4.38937400
_cell_length_b   9.89506200
_cell_length_c   12.75213800
_cell_angle_alpha   90.00000000
_cell_angle_beta   90.00000000
_cell_angle_gamma   90.00000000
_symmetry_Int_Tables_number   1
_chemical_formula_structural   Yb3Cu6Sn5
_chemical_formula_sum   'Yb6 Cu12 Sn10'
_cell_volume   553.86524039
_cell_formula_units_Z   2
loop_
 _symmetry_equiv_pos_site_id
 _symmetry_equiv_pos_as_xyz
  1  'x, y, z'
loop_
 _atom_site_type_symbol
 _atom_site_label
 _atom_site_symmetry_multiplicity
 _atom_site_fract_x
 _atom_site_fract_y
 _atom_site_fract_z
 _atom_site_occupancy
  Yb  Yb0  1  0.00000000  0.00000000  0.00000000  1
  Yb  Yb1  1  0.50000000  0.50000000  0.18707000  1
  Yb  Yb2  1  0.50000000  0.50000000  0.81293000  1
  Yb  Yb3  1  0.50000000  0.50000000  0.50000000  1
  Yb  Yb4  1  0.00000000  0.00000000  0.68707000  1
  Yb  Yb5  1  0.00000000  0.00000000  0.31293000  1
  Cu  Cu6  1  0.50000000  0.30575800  0.00000000  1
  Cu  Cu7  1  0.50000000  0.69424200  0.00000000  1
  Cu  Cu8  1  0.00000000  0.28022950  0.11681750  1
  Cu  Cu9  1  0.00000000  0.71977050  0.11681750  1
  Cu  Cu10  1  0.00000000  0.28022950  0.88318250  1
  Cu  Cu11  1  0.00000000  0.71977050  0.88318250  1
  Cu  Cu12  1  0.00000000  0.80575800  0.50000000  1
  Cu  Cu13  1  0.00000000  0.19424200  0.50000000  1
  Cu  Cu14  1  0.50000000  0.78022950  0.61681750  1
  Cu  Cu15  1  0.50000000  0.21977050  0.61681750  1
  Cu  Cu16  1  0.50000000  0.78022950  0.38318250  1
  Cu  Cu17  1  0.50000000  0.21977050  0.38318250  1
  Sn  Sn18  1  0.00000000  0.65340000  0.67316600  1
  Sn  Sn19  1  0.00000000  0.50000000  0.00000000  1
  Sn  Sn20  1  0.00000000  0.34660000  0.32683400  1
  Sn  Sn21  1  0.00000000  0.65340000  0.32683400  1
  Sn  Sn22  1  0.00000000  0.34660000  0.67316600  1
  Sn  Sn23  1  0.50000000  0.15340000  0.17316600  1
  Sn  Sn24  1  0.50000000  0.00000000  0.50000000  1
  Sn  Sn25  1  0.50000000  0.84660000  0.82683400  1
  Sn  Sn26  1  0.50000000  0.15340000  0.82683400  1
  Sn  Sn27  1  0.50000000  0.84660000  0.17316600  1
