# generated using pymatgen
data_Sn4As3
_symmetry_space_group_name_H-M   'P 1'
_cell_length_a   4.15803591
_cell_length_b   4.15803591
_cell_length_c   36.62085159
_cell_angle_alpha   90.00000000
_cell_angle_beta   90.00000000
_cell_angle_gamma   120.00000000
_symmetry_Int_Tables_number   1
_chemical_formula_structural   Sn4As3
_chemical_formula_sum   'Sn12 As9'
_cell_volume   548.32183858
_cell_formula_units_Z   3
loop_
 _symmetry_equiv_pos_site_id
 _symmetry_equiv_pos_as_xyz
  1  'x, y, z'
loop_
 _atom_site_type_symbol
 _atom_site_label
 _atom_site_symmetry_multiplicity
 _atom_site_fract_x
 _atom_site_fract_y
 _atom_site_fract_z
 _atom_site_occupancy
  Sn  Sn0  1  0.33333333  0.66666667  0.03163767  1
  Sn  Sn1  1  0.33333333  0.66666667  0.30169567  1
  Sn  Sn2  1  0.00000000  0.00000000  0.21056200  1
  Sn  Sn3  1  0.66666667  0.33333333  0.12277133  1
  Sn  Sn4  1  0.00000000  0.00000000  0.36497100  1
  Sn  Sn5  1  0.00000000  0.00000000  0.63502900  1
  Sn  Sn6  1  0.66666667  0.33333333  0.54389533  1
  Sn  Sn7  1  0.33333333  0.66666667  0.45610467  1
  Sn  Sn8  1  0.66666667  0.33333333  0.69830433  1
  Sn  Sn9  1  0.66666667  0.33333333  0.96836233  1
  Sn  Sn10  1  0.33333333  0.66666667  0.87722867  1
  Sn  Sn11  1  0.00000000  0.00000000  0.78943800  1
  As  As12  1  0.66666667  0.33333333  0.26304933  1
  As  As13  1  0.33333333  0.66666667  0.16666667  1
  As  As14  1  0.00000000  0.00000000  0.07028400  1
  As  As15  1  0.33333333  0.66666667  0.59638267  1
  As  As16  1  1.00000000  1.00000000  0.50000000  1
  As  As17  1  0.66666667  0.33333333  0.40361733  1
  As  As18  1  0.00000000  0.00000000  0.92971600  1
  As  As19  1  0.66666667  0.33333333  0.83333333  1
  As  As20  1  0.33333333  0.66666667  0.73695067  1
