# generated using pymatgen
data_CeSi3Ru
_symmetry_space_group_name_H-M   'P 1'
_cell_length_a   4.18689600
_cell_length_b   4.18689600
_cell_length_c   9.99552400
_cell_angle_alpha   90.00000000
_cell_angle_beta   90.00000000
_cell_angle_gamma   90.00000000
_symmetry_Int_Tables_number   1
_chemical_formula_structural   CeSi3Ru
_chemical_formula_sum   'Ce2 Si6 Ru2'
_cell_volume   175.22251643
_cell_formula_units_Z   2
loop_
 _symmetry_equiv_pos_site_id
 _symmetry_equiv_pos_as_xyz
  1  'x, y, z'
loop_
 _atom_site_type_symbol
 _atom_site_label
 _atom_site_symmetry_multiplicity
 _atom_site_fract_x
 _atom_site_fract_y
 _atom_site_fract_z
 _atom_site_occupancy
  Ce  Ce0  1  0.00000000  0.00000000  0.42599600  1
  Ce  Ce1  1  0.50000000  0.50000000  0.92599600  1
  Si  Si2  1  0.50000000  0.00000000  0.15654200  1
  Si  Si3  1  0.00000000  0.50000000  0.15654200  1
  Si  Si4  1  0.00000000  0.00000000  0.00016100  1
  Si  Si5  1  0.00000000  0.50000000  0.65654200  1
  Si  Si6  1  0.50000000  0.00000000  0.65654200  1
  Si  Si7  1  0.50000000  0.50000000  0.50016100  1
  Ru  Ru8  1  0.50000000  0.50000000  0.26569900  1
  Ru  Ru9  1  0.00000000  0.00000000  0.76569900  1
