# generated using pymatgen
data_Zn3SiNi2
_symmetry_space_group_name_H-M   'P 1'
_cell_length_a   10.70631400
_cell_length_b   10.70631400
_cell_length_c   10.70631400
_cell_angle_alpha   90.00000000
_cell_angle_beta   90.00000000
_cell_angle_gamma   90.00000000
_symmetry_Int_Tables_number   1
_chemical_formula_structural   Zn3SiNi2
_chemical_formula_sum   'Zn48 Si16 Ni32'
_cell_volume   1227.21294955
_cell_formula_units_Z   16
loop_
 _symmetry_equiv_pos_site_id
 _symmetry_equiv_pos_as_xyz
  1  'x, y, z'
loop_
 _atom_site_type_symbol
 _atom_site_label
 _atom_site_symmetry_multiplicity
 _atom_site_fract_x
 _atom_site_fract_y
 _atom_site_fract_z
 _atom_site_occupancy
  Zn  Zn0  1  0.00000000  0.00000000  0.31283300  1
  Zn  Zn1  1  0.50000000  0.00000000  0.18716700  1
  Zn  Zn2  1  0.50000000  0.31283300  0.50000000  1
  Zn  Zn3  1  0.50000000  0.68716700  0.50000000  1
  Zn  Zn4  1  0.81283300  0.00000000  0.50000000  1
  Zn  Zn5  1  0.18716700  0.00000000  0.50000000  1
  Zn  Zn6  1  0.25000000  0.75000000  0.43716700  1
  Zn  Zn7  1  0.25000000  0.75000000  0.06283300  1
  Zn  Zn8  1  0.25000000  0.93716700  0.25000000  1
  Zn  Zn9  1  0.25000000  0.56283300  0.25000000  1
  Zn  Zn10  1  0.43716700  0.75000000  0.25000000  1
  Zn  Zn11  1  0.06283300  0.75000000  0.25000000  1
  Zn  Zn12  1  0.00000000  0.50000000  0.81283300  1
  Zn  Zn13  1  0.50000000  0.50000000  0.68716700  1
  Zn  Zn14  1  0.50000000  0.81283300  0.00000000  1
  Zn  Zn15  1  0.50000000  0.18716700  0.00000000  1
  Zn  Zn16  1  0.81283300  0.50000000  0.00000000  1
  Zn  Zn17  1  0.18716700  0.50000000  0.00000000  1
  Zn  Zn18  1  0.25000000  0.25000000  0.93716700  1
  Zn  Zn19  1  0.25000000  0.25000000  0.56283300  1
  Zn  Zn20  1  0.25000000  0.43716700  0.75000000  1
  Zn  Zn21  1  0.25000000  0.06283300  0.75000000  1
  Zn  Zn22  1  0.43716700  0.25000000  0.75000000  1
  Zn  Zn23  1  0.06283300  0.25000000  0.75000000  1
  Zn  Zn24  1  0.50000000  0.00000000  0.81283300  1
  Zn  Zn25  1  0.00000000  0.00000000  0.68716700  1
  Zn  Zn26  1  0.00000000  0.31283300  0.00000000  1
  Zn  Zn27  1  0.00000000  0.68716700  0.00000000  1
  Zn  Zn28  1  0.31283300  0.00000000  0.00000000  1
  Zn  Zn29  1  0.68716700  0.00000000  0.00000000  1
  Zn  Zn30  1  0.75000000  0.75000000  0.93716700  1
  Zn  Zn31  1  0.75000000  0.75000000  0.56283300  1
  Zn  Zn32  1  0.75000000  0.93716700  0.75000000  1
  Zn  Zn33  1  0.75000000  0.56283300  0.75000000  1
  Zn  Zn34  1  0.93716700  0.75000000  0.75000000  1
  Zn  Zn35  1  0.56283300  0.75000000  0.75000000  1
  Zn  Zn36  1  0.50000000  0.50000000  0.31283300  1
  Zn  Zn37  1  0.00000000  0.50000000  0.18716700  1
  Zn  Zn38  1  0.00000000  0.81283300  0.50000000  1
  Zn  Zn39  1  0.00000000  0.18716700  0.50000000  1
  Zn  Zn40  1  0.31283300  0.50000000  0.50000000  1
  Zn  Zn41  1  0.68716700  0.50000000  0.50000000  1
  Zn  Zn42  1  0.75000000  0.25000000  0.43716700  1
  Zn  Zn43  1  0.75000000  0.25000000  0.06283300  1
  Zn  Zn44  1  0.75000000  0.43716700  0.25000000  1
  Zn  Zn45  1  0.75000000  0.06283300  0.25000000  1
  Zn  Zn46  1  0.93716700  0.25000000  0.25000000  1
  Zn  Zn47  1  0.56283300  0.25000000  0.25000000  1
  Si  Si48  1  0.62500000  0.87500000  0.37500000  1
  Si  Si49  1  0.37500000  0.12500000  0.37500000  1
  Si  Si50  1  0.87500000  0.87500000  0.12500000  1
  Si  Si51  1  0.12500000  0.12500000  0.12500000  1
  Si  Si52  1  0.62500000  0.37500000  0.87500000  1
  Si  Si53  1  0.37500000  0.62500000  0.87500000  1
  Si  Si54  1  0.87500000  0.37500000  0.62500000  1
  Si  Si55  1  0.12500000  0.62500000  0.62500000  1
  Si  Si56  1  0.12500000  0.87500000  0.87500000  1
  Si  Si57  1  0.87500000  0.12500000  0.87500000  1
  Si  Si58  1  0.37500000  0.87500000  0.62500000  1
  Si  Si59  1  0.62500000  0.12500000  0.62500000  1
  Si  Si60  1  0.12500000  0.37500000  0.37500000  1
  Si  Si61  1  0.87500000  0.62500000  0.37500000  1
  Si  Si62  1  0.37500000  0.37500000  0.12500000  1
  Si  Si63  1  0.62500000  0.62500000  0.12500000  1
  Ni  Ni64  1  0.91436500  0.08563500  0.08563500  1
  Ni  Ni65  1  0.08563500  0.91436500  0.08563500  1
  Ni  Ni66  1  0.58563500  0.08563500  0.41436500  1
  Ni  Ni67  1  0.41436500  0.91436500  0.41436500  1
  Ni  Ni68  1  0.33563500  0.16436500  0.16436500  1
  Ni  Ni69  1  0.16436500  0.33563500  0.16436500  1
  Ni  Ni70  1  0.16436500  0.16436500  0.33563500  1
  Ni  Ni71  1  0.33563500  0.33563500  0.33563500  1
  Ni  Ni72  1  0.91436500  0.58563500  0.58563500  1
  Ni  Ni73  1  0.08563500  0.41436500  0.58563500  1
  Ni  Ni74  1  0.58563500  0.58563500  0.91436500  1
  Ni  Ni75  1  0.41436500  0.41436500  0.91436500  1
  Ni  Ni76  1  0.33563500  0.66436500  0.66436500  1
  Ni  Ni77  1  0.16436500  0.83563500  0.66436500  1
  Ni  Ni78  1  0.16436500  0.66436500  0.83563500  1
  Ni  Ni79  1  0.33563500  0.83563500  0.83563500  1
  Ni  Ni80  1  0.41436500  0.08563500  0.58563500  1
  Ni  Ni81  1  0.58563500  0.91436500  0.58563500  1
  Ni  Ni82  1  0.08563500  0.08563500  0.91436500  1
  Ni  Ni83  1  0.91436500  0.91436500  0.91436500  1
  Ni  Ni84  1  0.83563500  0.16436500  0.66436500  1
  Ni  Ni85  1  0.66436500  0.33563500  0.66436500  1
  Ni  Ni86  1  0.66436500  0.16436500  0.83563500  1
  Ni  Ni87  1  0.83563500  0.33563500  0.83563500  1
  Ni  Ni88  1  0.41436500  0.58563500  0.08563500  1
  Ni  Ni89  1  0.58563500  0.41436500  0.08563500  1
  Ni  Ni90  1  0.08563500  0.58563500  0.41436500  1
  Ni  Ni91  1  0.91436500  0.41436500  0.41436500  1
  Ni  Ni92  1  0.83563500  0.66436500  0.16436500  1
  Ni  Ni93  1  0.66436500  0.83563500  0.16436500  1
  Ni  Ni94  1  0.66436500  0.66436500  0.33563500  1
  Ni  Ni95  1  0.83563500  0.83563500  0.33563500  1
