# generated using pymatgen
data_Nd2(ZnGe2)3
_symmetry_space_group_name_H-M   'P 1'
_cell_length_a   5.96021800
_cell_length_b   24.82425200
_cell_length_c   5.95625200
_cell_angle_alpha   90.00000000
_cell_angle_beta   90.00000000
_cell_angle_gamma   90.00000000
_symmetry_Int_Tables_number   1
_chemical_formula_structural   Nd2(ZnGe2)3
_chemical_formula_sum   'Nd8 Zn12 Ge24'
_cell_volume   881.27485709
_cell_formula_units_Z   4
loop_
 _symmetry_equiv_pos_site_id
 _symmetry_equiv_pos_as_xyz
  1  'x, y, z'
loop_
 _atom_site_type_symbol
 _atom_site_label
 _atom_site_symmetry_multiplicity
 _atom_site_fract_x
 _atom_site_fract_y
 _atom_site_fract_z
 _atom_site_occupancy
  Nd  Nd0  1  0.00000000  0.10647400  0.25000000  1
  Nd  Nd1  1  0.50000000  0.10659100  0.75000000  1
  Nd  Nd2  1  0.00000000  0.39340900  0.25000000  1
  Nd  Nd3  1  0.50000000  0.39352600  0.75000000  1
  Nd  Nd4  1  0.50000000  0.60647400  0.25000000  1
  Nd  Nd5  1  0.00000000  0.60659100  0.75000000  1
  Nd  Nd6  1  0.50000000  0.89340900  0.25000000  1
  Nd  Nd7  1  0.00000000  0.89352600  0.75000000  1
  Zn  Zn8  1  0.50000000  0.33942600  0.25000000  1
  Zn  Zn9  1  0.26328300  0.00000000  0.00000000  1
  Zn  Zn10  1  0.26328300  0.00000000  0.50000000  1
  Zn  Zn11  1  0.73671700  0.00000000  0.50000000  1
  Zn  Zn12  1  0.00000000  0.16057400  0.75000000  1
  Zn  Zn13  1  0.73671700  0.00000000  0.00000000  1
  Zn  Zn14  1  0.00000000  0.83942600  0.25000000  1
  Zn  Zn15  1  0.76328300  0.50000000  0.00000000  1
  Zn  Zn16  1  0.76328300  0.50000000  0.50000000  1
  Zn  Zn17  1  0.23671700  0.50000000  0.50000000  1
  Zn  Zn18  1  0.50000000  0.66057400  0.75000000  1
  Zn  Zn19  1  0.23671700  0.50000000  0.00000000  1
  Ge  Ge20  1  0.00000000  0.05899000  0.75000000  1
  Ge  Ge21  1  0.78440650  0.29893750  0.53467800  1
  Ge  Ge22  1  0.50000000  0.44101000  0.25000000  1
  Ge  Ge23  1  0.50000000  0.06974500  0.25000000  1
  Ge  Ge24  1  0.71559350  0.20106250  0.03467800  1
  Ge  Ge25  1  0.21559350  0.29893750  0.53467800  1
  Ge  Ge26  1  0.21559350  0.29893750  0.96532200  1
  Ge  Ge27  1  0.71559350  0.20106250  0.46532200  1
  Ge  Ge28  1  0.78440650  0.29893750  0.96532200  1
  Ge  Ge29  1  0.28440650  0.20106250  0.03467800  1
  Ge  Ge30  1  0.00000000  0.43025500  0.75000000  1
  Ge  Ge31  1  0.28440650  0.20106250  0.46532200  1
  Ge  Ge32  1  0.50000000  0.55899000  0.75000000  1
  Ge  Ge33  1  0.28440650  0.79893750  0.53467800  1
  Ge  Ge34  1  0.00000000  0.94101000  0.25000000  1
  Ge  Ge35  1  0.00000000  0.56974500  0.25000000  1
  Ge  Ge36  1  0.21559350  0.70106250  0.03467800  1
  Ge  Ge37  1  0.71559350  0.79893750  0.53467800  1
  Ge  Ge38  1  0.71559350  0.79893750  0.96532200  1
  Ge  Ge39  1  0.21559350  0.70106250  0.46532200  1
  Ge  Ge40  1  0.28440650  0.79893750  0.96532200  1
  Ge  Ge41  1  0.78440650  0.70106250  0.03467800  1
  Ge  Ge42  1  0.50000000  0.93025500  0.75000000  1
  Ge  Ge43  1  0.78440650  0.70106250  0.46532200  1
