# generated using pymatgen
data_V2Zn3O8
_symmetry_space_group_name_H-M   'P 1'
_cell_length_a   6.18011200
_cell_length_b   11.75946600
_cell_length_c   8.38138200
_cell_angle_alpha   90.00000000
_cell_angle_beta   90.00000000
_cell_angle_gamma   90.00000000
_symmetry_Int_Tables_number   1
_chemical_formula_structural   V2Zn3O8
_chemical_formula_sum   'V8 Zn12 O32'
_cell_volume   609.11540256
_cell_formula_units_Z   4
loop_
 _symmetry_equiv_pos_site_id
 _symmetry_equiv_pos_as_xyz
  1  'x, y, z'
loop_
 _atom_site_type_symbol
 _atom_site_label
 _atom_site_symmetry_multiplicity
 _atom_site_fract_x
 _atom_site_fract_y
 _atom_site_fract_z
 _atom_site_occupancy
  V  V0  1  0.50000000  0.87824900  0.12008400  1
  V  V1  1  0.00000000  0.62175100  0.87991600  1
  V  V2  1  0.50000000  0.62175100  0.62008400  1
  V  V3  1  0.00000000  0.87824900  0.37991600  1
  V  V4  1  0.00000000  0.37824900  0.12008400  1
  V  V5  1  0.50000000  0.12175100  0.87991600  1
  V  V6  1  0.00000000  0.12175100  0.62008400  1
  V  V7  1  0.50000000  0.37824900  0.37991600  1
  Zn  Zn8  1  0.25000000  0.63679500  0.25000000  1
  Zn  Zn9  1  0.75000000  0.86320500  0.75000000  1
  Zn  Zn10  1  0.25000000  0.86320500  0.75000000  1
  Zn  Zn11  1  0.75000000  0.63679500  0.25000000  1
  Zn  Zn12  1  0.50000000  0.50000000  0.00000000  1
  Zn  Zn13  1  0.00000000  0.50000000  0.50000000  1
  Zn  Zn14  1  0.75000000  0.13679500  0.25000000  1
  Zn  Zn15  1  0.25000000  0.36320500  0.75000000  1
  Zn  Zn16  1  0.75000000  0.36320500  0.75000000  1
  Zn  Zn17  1  0.25000000  0.13679500  0.25000000  1
  Zn  Zn18  1  0.00000000  0.00000000  0.00000000  1
  Zn  Zn19  1  0.50000000  0.00000000  0.50000000  1
  O  O20  1  0.77216400  0.61759400  0.99967500  1
  O  O21  1  0.27216400  0.88240600  0.00032500  1
  O  O22  1  0.22783600  0.88240600  0.49967500  1
  O  O23  1  0.72783600  0.61759400  0.50032500  1
  O  O24  1  0.72783600  0.88240600  0.00032500  1
  O  O25  1  0.22783600  0.61759400  0.99967500  1
  O  O26  1  0.27216400  0.61759400  0.50032500  1
  O  O27  1  0.77216400  0.88240600  0.49967500  1
  O  O28  1  0.00000000  0.99957300  0.24417500  1
  O  O29  1  0.50000000  0.50042700  0.75582500  1
  O  O30  1  0.00000000  0.74962300  0.27362800  1
  O  O31  1  0.50000000  0.75037700  0.72637200  1
  O  O32  1  0.00000000  0.75037700  0.77362800  1
  O  O33  1  0.50000000  0.74962300  0.22637200  1
  O  O34  1  0.50000000  0.99957300  0.25582500  1
  O  O35  1  0.00000000  0.50042700  0.74417500  1
  O  O36  1  0.27216400  0.11759400  0.99967500  1
  O  O37  1  0.77216400  0.38240600  0.00032500  1
  O  O38  1  0.72783600  0.38240600  0.49967500  1
  O  O39  1  0.22783600  0.11759400  0.50032500  1
  O  O40  1  0.22783600  0.38240600  0.00032500  1
  O  O41  1  0.72783600  0.11759400  0.99967500  1
  O  O42  1  0.77216400  0.11759400  0.50032500  1
  O  O43  1  0.27216400  0.38240600  0.49967500  1
  O  O44  1  0.50000000  0.49957300  0.24417500  1
  O  O45  1  0.00000000  0.00042700  0.75582500  1
  O  O46  1  0.50000000  0.24962300  0.27362800  1
  O  O47  1  0.00000000  0.25037700  0.72637200  1
  O  O48  1  0.50000000  0.25037700  0.77362800  1
  O  O49  1  0.00000000  0.24962300  0.22637200  1
  O  O50  1  0.00000000  0.49957300  0.25582500  1
  O  O51  1  0.50000000  0.00042700  0.74417500  1
