# generated using pymatgen
data_ScSi7Ir3
_symmetry_space_group_name_H-M   'P 1'
_cell_length_a   7.56292822
_cell_length_b   7.56292822
_cell_length_c   20.06064374
_cell_angle_alpha   90.00000000
_cell_angle_beta   90.00000000
_cell_angle_gamma   120.00000000
_symmetry_Int_Tables_number   1
_chemical_formula_structural   ScSi7Ir3
_chemical_formula_sum   'Sc6 Si42 Ir18'
_cell_volume   993.70037566
_cell_formula_units_Z   6
loop_
 _symmetry_equiv_pos_site_id
 _symmetry_equiv_pos_as_xyz
  1  'x, y, z'
loop_
 _atom_site_type_symbol
 _atom_site_label
 _atom_site_symmetry_multiplicity
 _atom_site_fract_x
 _atom_site_fract_y
 _atom_site_fract_z
 _atom_site_occupancy
  Sc  Sc0  1  0.00000000  0.00000000  0.00000000  1
  Sc  Sc1  1  0.33333333  0.66666667  0.16666667  1
  Sc  Sc2  1  0.66666667  0.33333333  0.33333333  1
  Sc  Sc3  1  0.00000000  0.00000000  0.50000000  1
  Sc  Sc4  1  0.33333333  0.66666667  0.66666667  1
  Sc  Sc5  1  0.66666667  0.33333333  0.83333333  1
  Si  Si6  1  0.00000000  0.00000000  0.25000000  1
  Si  Si7  1  0.66666667  0.33333333  0.08333333  1
  Si  Si8  1  0.19027333  0.98780867  0.13737067  1
  Si  Si9  1  0.79753533  0.80972667  0.13737067  1
  Si  Si10  1  0.01219133  0.20246467  0.13737067  1
  Si  Si11  1  0.53579800  0.67885800  0.02929600  1
  Si  Si12  1  0.14306000  0.46420200  0.02929600  1
  Si  Si13  1  0.32114200  0.85694000  0.02929600  1
  Si  Si14  1  0.34552467  0.47639333  0.30403733  1
  Si  Si15  1  0.52360667  0.86913133  0.30403733  1
  Si  Si16  1  0.13086867  0.65447533  0.30403733  1
  Si  Si17  1  0.65447533  0.13086867  0.19596267  1
  Si  Si18  1  0.86913133  0.52360667  0.19596267  1
  Si  Si19  1  0.47639333  0.34552467  0.19596267  1
  Si  Si20  1  0.66666667  0.33333333  0.58333333  1
  Si  Si21  1  0.33333333  0.66666667  0.41666667  1
  Si  Si22  1  0.85694000  0.32114200  0.47070400  1
  Si  Si23  1  0.46420200  0.14306000  0.47070400  1
  Si  Si24  1  0.67885800  0.53579800  0.47070400  1
  Si  Si25  1  0.20246467  0.01219133  0.36262933  1
  Si  Si26  1  0.80972667  0.79753533  0.36262933  1
  Si  Si27  1  0.98780867  0.19027333  0.36262933  1
  Si  Si28  1  0.01219133  0.80972667  0.63737067  1
  Si  Si29  1  0.19027333  0.20246467  0.63737067  1
  Si  Si30  1  0.79753533  0.98780867  0.63737067  1
  Si  Si31  1  0.32114200  0.46420200  0.52929600  1
  Si  Si32  1  0.53579800  0.85694000  0.52929600  1
  Si  Si33  1  0.14306000  0.67885800  0.52929600  1
  Si  Si34  1  0.33333333  0.66666667  0.91666667  1
  Si  Si35  1  0.00000000  0.00000000  0.75000000  1
  Si  Si36  1  0.52360667  0.65447533  0.80403733  1
  Si  Si37  1  0.13086867  0.47639333  0.80403733  1
  Si  Si38  1  0.34552467  0.86913133  0.80403733  1
  Si  Si39  1  0.86913133  0.34552467  0.69596267  1
  Si  Si40  1  0.47639333  0.13086867  0.69596267  1
  Si  Si41  1  0.65447533  0.52360667  0.69596267  1
  Si  Si42  1  0.67885800  0.14306000  0.97070400  1
  Si  Si43  1  0.85694000  0.53579800  0.97070400  1
  Si  Si44  1  0.46420200  0.32114200  0.97070400  1
  Si  Si45  1  0.98780867  0.79753533  0.86262933  1
  Si  Si46  1  0.20246467  0.19027333  0.86262933  1
  Si  Si47  1  0.80972667  0.01219133  0.86262933  1
  Ir  Ir48  1  0.00000000  0.32299000  0.25000000  1
  Ir  Ir49  1  0.34367667  0.33333333  0.08333333  1
  Ir  Ir50  1  0.98965667  0.65632333  0.08333333  1
  Ir  Ir51  1  0.66666667  0.01034333  0.08333333  1
  Ir  Ir52  1  0.67701000  0.67701000  0.25000000  1
  Ir  Ir53  1  0.32299000  0.00000000  0.25000000  1
  Ir  Ir54  1  0.66666667  0.65632333  0.58333333  1
  Ir  Ir55  1  0.01034333  0.66666667  0.41666667  1
  Ir  Ir56  1  0.65632333  0.98965667  0.41666667  1
  Ir  Ir57  1  0.33333333  0.34367667  0.41666667  1
  Ir  Ir58  1  0.34367667  0.01034333  0.58333333  1
  Ir  Ir59  1  0.98965667  0.33333333  0.58333333  1
  Ir  Ir60  1  0.33333333  0.98965667  0.91666667  1
  Ir  Ir61  1  0.67701000  0.00000000  0.75000000  1
  Ir  Ir62  1  0.32299000  0.32299000  0.75000000  1
  Ir  Ir63  1  0.00000000  0.67701000  0.75000000  1
  Ir  Ir64  1  0.01034333  0.34367667  0.91666667  1
  Ir  Ir65  1  0.65632333  0.66666667  0.91666667  1
