# generated using pymatgen
data_Y2Si5Ni3
_symmetry_space_group_name_H-M   'P 1'
_cell_length_a   5.65899600
_cell_length_b   9.58812400
_cell_length_c   11.13921600
_cell_angle_alpha   90.00000000
_cell_angle_beta   90.00000000
_cell_angle_gamma   90.00000000
_symmetry_Int_Tables_number   1
_chemical_formula_structural   Y2Si5Ni3
_chemical_formula_sum   'Y8 Si20 Ni12'
_cell_volume   604.40445157
_cell_formula_units_Z   4
loop_
 _symmetry_equiv_pos_site_id
 _symmetry_equiv_pos_as_xyz
  1  'x, y, z'
loop_
 _atom_site_type_symbol
 _atom_site_label
 _atom_site_symmetry_multiplicity
 _atom_site_fract_x
 _atom_site_fract_y
 _atom_site_fract_z
 _atom_site_occupancy
  Y  Y0  1  0.00000000  0.73684200  0.63108300  1
  Y  Y1  1  0.00000000  0.26315800  0.36891700  1
  Y  Y2  1  0.50000000  0.73684200  0.36891700  1
  Y  Y3  1  0.50000000  0.26315800  0.63108300  1
  Y  Y4  1  0.50000000  0.23684200  0.13108300  1
  Y  Y5  1  0.50000000  0.76315800  0.86891700  1
  Y  Y6  1  0.00000000  0.23684200  0.86891700  1
  Y  Y7  1  0.00000000  0.76315800  0.13108300  1
  Si  Si8  1  0.75000000  0.00000000  0.00000000  1
  Si  Si9  1  0.25000000  0.00000000  0.00000000  1
  Si  Si10  1  0.75000000  0.00000000  0.73351500  1
  Si  Si11  1  0.75000000  0.00000000  0.26648500  1
  Si  Si12  1  0.25000000  0.00000000  0.26648500  1
  Si  Si13  1  0.25000000  0.00000000  0.73351500  1
  Si  Si14  1  0.00000000  0.84757950  0.39248850  1
  Si  Si15  1  0.00000000  0.15242050  0.60751150  1
  Si  Si16  1  0.50000000  0.15242050  0.39248850  1
  Si  Si17  1  0.50000000  0.84757950  0.60751150  1
  Si  Si18  1  0.25000000  0.50000000  0.50000000  1
  Si  Si19  1  0.75000000  0.50000000  0.50000000  1
  Si  Si20  1  0.25000000  0.50000000  0.23351500  1
  Si  Si21  1  0.25000000  0.50000000  0.76648500  1
  Si  Si22  1  0.75000000  0.50000000  0.76648500  1
  Si  Si23  1  0.75000000  0.50000000  0.23351500  1
  Si  Si24  1  0.50000000  0.34757950  0.89248850  1
  Si  Si25  1  0.50000000  0.65242050  0.10751150  1
  Si  Si26  1  0.00000000  0.65242050  0.89248850  1
  Si  Si27  1  0.00000000  0.34757950  0.10751150  1
  Ni  Ni28  1  0.50000000  0.88799200  0.13416000  1
  Ni  Ni29  1  0.00000000  0.11200800  0.13416000  1
  Ni  Ni30  1  0.25000000  0.00000000  0.50000000  1
  Ni  Ni31  1  0.75000000  0.00000000  0.50000000  1
  Ni  Ni32  1  0.50000000  0.11200800  0.86584000  1
  Ni  Ni33  1  0.00000000  0.88799200  0.86584000  1
  Ni  Ni34  1  0.00000000  0.38799200  0.63416000  1
  Ni  Ni35  1  0.50000000  0.61200800  0.63416000  1
  Ni  Ni36  1  0.75000000  0.50000000  0.00000000  1
  Ni  Ni37  1  0.25000000  0.50000000  0.00000000  1
  Ni  Ni38  1  0.00000000  0.61200800  0.36584000  1
  Ni  Ni39  1  0.50000000  0.38799200  0.36584000  1
