# generated using pymatgen
data_LaMnO3
_symmetry_space_group_name_H-M   'P 1'
_cell_length_a   9.58642430
_cell_length_b   5.71343583
_cell_length_c   5.53913627
_cell_angle_alpha   90.00000000
_cell_angle_beta   124.50458688
_cell_angle_gamma   90.00000000
_symmetry_Int_Tables_number   1
_chemical_formula_structural   LaMnO3
_chemical_formula_sum   'La4 Mn4 O12'
_cell_volume   250.01488658
_cell_formula_units_Z   4
loop_
 _symmetry_equiv_pos_site_id
 _symmetry_equiv_pos_as_xyz
  1  'x, y, z'
loop_
 _atom_site_type_symbol
 _atom_site_label
 _atom_site_symmetry_multiplicity
 _atom_site_fract_x
 _atom_site_fract_y
 _atom_site_fract_z
 _atom_site_occupancy
  La  La0  1  0.00000000  0.75663000  0.25000000  1
  La  La1  1  0.50000000  0.74337000  0.75000000  1
  La  La2  1  0.50000000  0.25663000  0.25000000  1
  La  La3  1  0.00000000  0.24337000  0.75000000  1
  Mn  Mn4  1  0.75000000  0.75000000  0.50000000  1
  Mn  Mn5  1  0.75000000  0.25000000  0.00000000  1
  Mn  Mn6  1  0.25000000  0.25000000  0.50000000  1
  Mn  Mn7  1  0.25000000  0.75000000  0.00000000  1
  O  O8  1  0.71924400  0.94763500  0.17987100  1
  O  O9  1  0.78075600  0.44763500  0.32012900  1
  O  O10  1  0.78075600  0.55236500  0.82012900  1
  O  O11  1  0.71924400  0.05236500  0.67987100  1
  O  O12  1  0.00000000  0.81887600  0.75000000  1
  O  O13  1  0.50000000  0.68112400  0.25000000  1
  O  O14  1  0.21924400  0.44763500  0.17987100  1
  O  O15  1  0.28075600  0.94763500  0.32012900  1
  O  O16  1  0.28075600  0.05236500  0.82012900  1
  O  O17  1  0.21924400  0.55236500  0.67987100  1
  O  O18  1  0.50000000  0.31887600  0.75000000  1
  O  O19  1  0.00000000  0.18112400  0.25000000  1
