# generated using pymatgen
data_Na(FeSb3)4
_symmetry_space_group_name_H-M   'P 1'
_cell_length_a   9.20272000
_cell_length_b   9.20272000
_cell_length_c   9.20272000
_cell_angle_alpha   90.00000000
_cell_angle_beta   90.00000000
_cell_angle_gamma   90.00000000
_symmetry_Int_Tables_number   1
_chemical_formula_structural   Na(FeSb3)4
_chemical_formula_sum   'Na2 Fe8 Sb24'
_cell_volume   779.37886662
_cell_formula_units_Z   2
loop_
 _symmetry_equiv_pos_site_id
 _symmetry_equiv_pos_as_xyz
  1  'x, y, z'
loop_
 _atom_site_type_symbol
 _atom_site_label
 _atom_site_symmetry_multiplicity
 _atom_site_fract_x
 _atom_site_fract_y
 _atom_site_fract_z
 _atom_site_occupancy
  Na  Na0  1  0.00000000  0.00000000  0.00000000  1
  Na  Na1  1  0.50000000  0.50000000  0.50000000  1
  Fe  Fe2  1  0.25000000  0.25000000  0.75000000  1
  Fe  Fe3  1  0.25000000  0.75000000  0.25000000  1
  Fe  Fe4  1  0.25000000  0.25000000  0.25000000  1
  Fe  Fe5  1  0.75000000  0.25000000  0.25000000  1
  Fe  Fe6  1  0.75000000  0.75000000  0.25000000  1
  Fe  Fe7  1  0.75000000  0.25000000  0.75000000  1
  Fe  Fe8  1  0.75000000  0.75000000  0.75000000  1
  Fe  Fe9  1  0.25000000  0.75000000  0.75000000  1
  Sb  Sb10  1  0.16112600  0.00000000  0.66608600  1
  Sb  Sb11  1  0.83391400  0.33887400  0.50000000  1
  Sb  Sb12  1  0.50000000  0.16608600  0.33887400  1
  Sb  Sb13  1  0.16608600  0.33887400  0.50000000  1
  Sb  Sb14  1  0.00000000  0.33391400  0.16112600  1
  Sb  Sb15  1  0.66608600  0.16112600  0.00000000  1
  Sb  Sb16  1  0.00000000  0.66608600  0.16112600  1
  Sb  Sb17  1  0.50000000  0.83391400  0.33887400  1
  Sb  Sb18  1  0.33391400  0.16112600  0.00000000  1
  Sb  Sb19  1  0.33887400  0.50000000  0.16608600  1
  Sb  Sb20  1  0.16112600  0.00000000  0.33391400  1
  Sb  Sb21  1  0.33887400  0.50000000  0.83391400  1
  Sb  Sb22  1  0.66112600  0.50000000  0.16608600  1
  Sb  Sb23  1  0.33391400  0.83887400  0.00000000  1
  Sb  Sb24  1  0.00000000  0.66608600  0.83887400  1
  Sb  Sb25  1  0.66608600  0.83887400  0.00000000  1
  Sb  Sb26  1  0.50000000  0.83391400  0.66112600  1
  Sb  Sb27  1  0.16608600  0.66112600  0.50000000  1
  Sb  Sb28  1  0.50000000  0.16608600  0.66112600  1
  Sb  Sb29  1  0.00000000  0.33391400  0.83887400  1
  Sb  Sb30  1  0.83391400  0.66112600  0.50000000  1
  Sb  Sb31  1  0.83887400  0.00000000  0.66608600  1
  Sb  Sb32  1  0.66112600  0.50000000  0.83391400  1
  Sb  Sb33  1  0.83887400  0.00000000  0.33391400  1
