# generated using pymatgen
data_V6O13
_symmetry_space_group_name_H-M   'P 1'
_cell_length_a   12.17131297
_cell_length_b   3.74202700
_cell_length_c   10.29310307
_cell_angle_alpha   90.00000000
_cell_angle_beta   100.93459222
_cell_angle_gamma   90.00000000
_symmetry_Int_Tables_number   1
_chemical_formula_structural   V6O13
_chemical_formula_sum   'V12 O26'
_cell_volume   460.29188817
_cell_formula_units_Z   2
loop_
 _symmetry_equiv_pos_site_id
 _symmetry_equiv_pos_as_xyz
  1  'x, y, z'
loop_
 _atom_site_type_symbol
 _atom_site_label
 _atom_site_symmetry_multiplicity
 _atom_site_fract_x
 _atom_site_fract_y
 _atom_site_fract_z
 _atom_site_occupancy
  V  V0  1  0.65908900  0.00000000  0.36775900  1
  V  V1  1  0.33340600  0.50000000  0.64000500  1
  V  V2  1  0.45976600  0.50000000  0.36912400  1
  V  V3  1  0.53266600  0.00000000  0.63876600  1
  V  V4  1  0.39096300  0.50000000  0.00525900  1
  V  V5  1  0.59306500  0.00000000  0.00181400  1
  V  V6  1  0.15908900  0.50000000  0.36775900  1
  V  V7  1  0.83340600  0.00000000  0.64000500  1
  V  V8  1  0.95976600  0.00000000  0.36912400  1
  V  V9  1  0.03266600  0.50000000  0.63876600  1
  V  V10  1  0.89096300  0.00000000  0.00525900  1
  V  V11  1  0.09306500  0.50000000  0.00181400  1
  O  O12  1  0.30632700  0.50000000  0.41347200  1
  O  O13  1  0.36155500  0.50000000  0.80651800  1
  O  O14  1  0.56837300  0.50000000  0.00416800  1
  O  O15  1  0.42415600  0.50000000  0.20169300  1
  O  O16  1  0.68638200  0.00000000  0.59576500  1
  O  O17  1  0.62599300  0.50000000  0.38846600  1
  O  O18  1  0.63381600  0.00000000  0.20196100  1
  O  O19  1  0.57033200  0.00000000  0.80600900  1
  O  O20  1  0.36592200  0.00000000  0.61937600  1
  O  O21  1  0.49966900  0.00000000  0.41442500  1
  O  O22  1  0.49264000  0.50000000  0.59334800  1
  O  O23  1  0.25085600  0.50000000  0.00340200  1
  O  O24  1  0.42857600  0.00000000  0.00391900  1
  O  O25  1  0.80632700  0.00000000  0.41347200  1
  O  O26  1  0.86155500  0.00000000  0.80651800  1
  O  O27  1  0.06837300  0.00000000  0.00416800  1
  O  O28  1  0.92415600  0.00000000  0.20169300  1
  O  O29  1  0.18638200  0.50000000  0.59576500  1
  O  O30  1  0.12599300  0.00000000  0.38846600  1
  O  O31  1  0.13381600  0.50000000  0.20196100  1
  O  O32  1  0.07033200  0.50000000  0.80600900  1
  O  O33  1  0.86592200  0.50000000  0.61937600  1
  O  O34  1  0.99966900  0.50000000  0.41442500  1
  O  O35  1  0.99264000  0.00000000  0.59334800  1
  O  O36  1  0.75085600  0.00000000  0.00340200  1
  O  O37  1  0.92857600  0.50000000  0.00391900  1
