# generated using pymatgen
data_CePd
_symmetry_space_group_name_H-M   'P 1'
_cell_length_a   3.83072600
_cell_length_b   11.06094000
_cell_length_c   4.51624100
_cell_angle_alpha   90.00000000
_cell_angle_beta   90.00000000
_cell_angle_gamma   90.00000000
_symmetry_Int_Tables_number   1
_chemical_formula_structural   CePd
_chemical_formula_sum   'Ce4 Pd4'
_cell_volume   191.35959139
_cell_formula_units_Z   4
loop_
 _symmetry_equiv_pos_site_id
 _symmetry_equiv_pos_as_xyz
  1  'x, y, z'
loop_
 _atom_site_type_symbol
 _atom_site_label
 _atom_site_symmetry_multiplicity
 _atom_site_fract_x
 _atom_site_fract_y
 _atom_site_fract_z
 _atom_site_occupancy
  Ce  Ce0  1  0.50000000  0.63691500  0.75000000  1
  Ce  Ce1  1  0.00000000  0.86308500  0.25000000  1
  Ce  Ce2  1  0.00000000  0.13691500  0.75000000  1
  Ce  Ce3  1  0.50000000  0.36308500  0.25000000  1
  Pd  Pd4  1  0.50000000  0.91045300  0.75000000  1
  Pd  Pd5  1  0.00000000  0.58954700  0.25000000  1
  Pd  Pd6  1  0.00000000  0.41045300  0.75000000  1
  Pd  Pd7  1  0.50000000  0.08954700  0.25000000  1
