# generated using pymatgen
data_Si(NiO2)2
_symmetry_space_group_name_H-M   'P 1'
_cell_length_a   4.77344200
_cell_length_b   5.97455300
_cell_length_c   10.25577700
_cell_angle_alpha   90.00000000
_cell_angle_beta   90.00000000
_cell_angle_gamma   90.00000000
_symmetry_Int_Tables_number   1
_chemical_formula_structural   Si(NiO2)2
_chemical_formula_sum   'Si4 Ni8 O16'
_cell_volume   292.48637309
_cell_formula_units_Z   4
loop_
 _symmetry_equiv_pos_site_id
 _symmetry_equiv_pos_as_xyz
  1  'x, y, z'
loop_
 _atom_site_type_symbol
 _atom_site_label
 _atom_site_symmetry_multiplicity
 _atom_site_fract_x
 _atom_site_fract_y
 _atom_site_fract_z
 _atom_site_occupancy
  Si  Si0  1  0.42704100  0.75000000  0.59402100  1
  Si  Si1  1  0.92704100  0.25000000  0.90597900  1
  Si  Si2  1  0.57295900  0.25000000  0.40597900  1
  Si  Si3  1  0.07295900  0.75000000  0.09402100  1
  Ni  Ni4  1  0.00000000  0.50000000  0.50000000  1
  Ni  Ni5  1  0.50000000  0.50000000  0.00000000  1
  Ni  Ni6  1  0.00000000  0.00000000  0.50000000  1
  Ni  Ni7  1  0.50000000  0.00000000  0.00000000  1
  Ni  Ni8  1  0.99356600  0.75000000  0.77359400  1
  Ni  Ni9  1  0.50643400  0.75000000  0.27359400  1
  Ni  Ni10  1  0.00643400  0.25000000  0.22640600  1
  Ni  Ni11  1  0.49356600  0.25000000  0.72640600  1
  O  O12  1  0.21743900  0.75000000  0.94500600  1
  O  O13  1  0.71743900  0.25000000  0.55499400  1
  O  O14  1  0.78256100  0.25000000  0.05499400  1
  O  O15  1  0.28256100  0.75000000  0.44500600  1
  O  O16  1  0.73077500  0.75000000  0.09373600  1
  O  O17  1  0.23077500  0.25000000  0.40626400  1
  O  O18  1  0.76922500  0.75000000  0.59373600  1
  O  O19  1  0.26922500  0.25000000  0.90626400  1
  O  O20  1  0.72536400  0.47013600  0.33703000  1
  O  O21  1  0.22536400  0.52986400  0.16297000  1
  O  O22  1  0.27463600  0.97013600  0.66297000  1
  O  O23  1  0.77463600  0.02986400  0.83703000  1
  O  O24  1  0.27463600  0.52986400  0.66297000  1
  O  O25  1  0.77463600  0.47013600  0.83703000  1
  O  O26  1  0.72536400  0.02986400  0.33703000  1
  O  O27  1  0.22536400  0.97013600  0.16297000  1
