# generated using pymatgen
data_YbSn2Pd
_symmetry_space_group_name_H-M   'P 1'
_cell_length_a   4.44160600
_cell_length_b   11.10797200
_cell_length_c   7.55748300
_cell_angle_alpha   90.00000000
_cell_angle_beta   90.00000000
_cell_angle_gamma   90.00000000
_symmetry_Int_Tables_number   1
_chemical_formula_structural   YbSn2Pd
_chemical_formula_sum   'Yb4 Sn8 Pd4'
_cell_volume   372.86531541
_cell_formula_units_Z   4
loop_
 _symmetry_equiv_pos_site_id
 _symmetry_equiv_pos_as_xyz
  1  'x, y, z'
loop_
 _atom_site_type_symbol
 _atom_site_label
 _atom_site_symmetry_multiplicity
 _atom_site_fract_x
 _atom_site_fract_y
 _atom_site_fract_z
 _atom_site_occupancy
  Yb  Yb0  1  0.50000000  0.07111900  0.75000000  1
  Yb  Yb1  1  0.00000000  0.42888100  0.25000000  1
  Yb  Yb2  1  0.00000000  0.57111900  0.75000000  1
  Yb  Yb3  1  0.50000000  0.92888100  0.25000000  1
  Sn  Sn4  1  0.00000000  0.14002200  0.04361300  1
  Sn  Sn5  1  0.50000000  0.35997800  0.95638700  1
  Sn  Sn6  1  0.00000000  0.14002200  0.45638700  1
  Sn  Sn7  1  0.50000000  0.35997800  0.54361300  1
  Sn  Sn8  1  0.50000000  0.64002200  0.04361300  1
  Sn  Sn9  1  0.00000000  0.85997800  0.95638700  1
  Sn  Sn10  1  0.50000000  0.64002200  0.45638700  1
  Sn  Sn11  1  0.00000000  0.85997800  0.54361300  1
  Pd  Pd12  1  0.50000000  0.20253500  0.25000000  1
  Pd  Pd13  1  0.00000000  0.29746500  0.75000000  1
  Pd  Pd14  1  0.00000000  0.70253500  0.25000000  1
  Pd  Pd15  1  0.50000000  0.79746500  0.75000000  1
