# generated using pymatgen
data_Li2Ca3N6
_symmetry_space_group_name_H-M   'P 1'
_cell_length_a   8.07305400
_cell_length_b   14.22210600
_cell_length_c   4.85958600
_cell_angle_alpha   90.00000000
_cell_angle_beta   90.00000000
_cell_angle_gamma   90.00000000
_symmetry_Int_Tables_number   1
_chemical_formula_structural   Li2Ca3N6
_chemical_formula_sum   'Li8 Ca12 N24'
_cell_volume   557.95739874
_cell_formula_units_Z   4
loop_
 _symmetry_equiv_pos_site_id
 _symmetry_equiv_pos_as_xyz
  1  'x, y, z'
loop_
 _atom_site_type_symbol
 _atom_site_label
 _atom_site_symmetry_multiplicity
 _atom_site_fract_x
 _atom_site_fract_y
 _atom_site_fract_z
 _atom_site_occupancy
  Li  Li0  1  0.50000000  0.16067200  0.50000000  1
  Li  Li1  1  0.50000000  0.16067200  0.00000000  1
  Li  Li2  1  0.00000000  0.33932800  0.50000000  1
  Li  Li3  1  0.00000000  0.33932800  0.00000000  1
  Li  Li4  1  0.00000000  0.66067200  0.50000000  1
  Li  Li5  1  0.00000000  0.66067200  0.00000000  1
  Li  Li6  1  0.50000000  0.83932800  0.50000000  1
  Li  Li7  1  0.50000000  0.83932800  0.00000000  1
  Ca  Ca8  1  0.68162200  0.00000000  0.75000000  1
  Ca  Ca9  1  0.31837800  0.00000000  0.25000000  1
  Ca  Ca10  1  0.65900650  0.33765250  0.75000000  1
  Ca  Ca11  1  0.34099350  0.33765250  0.25000000  1
  Ca  Ca12  1  0.84099350  0.16234750  0.25000000  1
  Ca  Ca13  1  0.15900650  0.16234750  0.75000000  1
  Ca  Ca14  1  0.18162200  0.50000000  0.75000000  1
  Ca  Ca15  1  0.81837800  0.50000000  0.25000000  1
  Ca  Ca16  1  0.15900650  0.83765250  0.75000000  1
  Ca  Ca17  1  0.84099350  0.83765250  0.25000000  1
  Ca  Ca18  1  0.34099350  0.66234750  0.25000000  1
  Ca  Ca19  1  0.65900650  0.66234750  0.75000000  1
  N  N20  1  0.21259700  0.32630300  0.75000000  1
  N  N21  1  0.78740300  0.32630300  0.25000000  1
  N  N22  1  0.28740300  0.17369700  0.25000000  1
  N  N23  1  0.71259700  0.17369700  0.75000000  1
  N  N24  1  0.86680750  0.20163550  0.75000000  1
  N  N25  1  0.13319250  0.20163550  0.25000000  1
  N  N26  1  0.63319250  0.29836450  0.25000000  1
  N  N27  1  0.36680750  0.29836450  0.75000000  1
  N  N28  1  0.88832950  0.45367950  0.75000000  1
  N  N29  1  0.11167050  0.45367950  0.25000000  1
  N  N30  1  0.61167050  0.04632050  0.25000000  1
  N  N31  1  0.38832950  0.04632050  0.75000000  1
  N  N32  1  0.71259700  0.82630300  0.75000000  1
  N  N33  1  0.28740300  0.82630300  0.25000000  1
  N  N34  1  0.78740300  0.67369700  0.25000000  1
  N  N35  1  0.21259700  0.67369700  0.75000000  1
  N  N36  1  0.36680750  0.70163550  0.75000000  1
  N  N37  1  0.63319250  0.70163550  0.25000000  1
  N  N38  1  0.13319250  0.79836450  0.25000000  1
  N  N39  1  0.86680750  0.79836450  0.75000000  1
  N  N40  1  0.38832950  0.95367950  0.75000000  1
  N  N41  1  0.61167050  0.95367950  0.25000000  1
  N  N42  1  0.11167050  0.54632050  0.25000000  1
  N  N43  1  0.88832950  0.54632050  0.75000000  1
