# generated using pymatgen
data_ThRu
_symmetry_space_group_name_H-M   'P 1'
_cell_length_a   3.88832800
_cell_length_b   11.60104000
_cell_length_c   4.00964500
_cell_angle_alpha   90.00000000
_cell_angle_beta   90.00000000
_cell_angle_gamma   90.00000000
_symmetry_Int_Tables_number   1
_chemical_formula_structural   ThRu
_chemical_formula_sum   'Th4 Ru4'
_cell_volume   180.86966756
_cell_formula_units_Z   4
loop_
 _symmetry_equiv_pos_site_id
 _symmetry_equiv_pos_as_xyz
  1  'x, y, z'
loop_
 _atom_site_type_symbol
 _atom_site_label
 _atom_site_symmetry_multiplicity
 _atom_site_fract_x
 _atom_site_fract_y
 _atom_site_fract_z
 _atom_site_occupancy
  Th  Th0  1  0.00000000  0.86270900  0.75000000  1
  Th  Th1  1  0.50000000  0.63729100  0.25000000  1
  Th  Th2  1  0.50000000  0.36270900  0.75000000  1
  Th  Th3  1  0.00000000  0.13729100  0.25000000  1
  Ru  Ru4  1  0.00000000  0.59338700  0.75000000  1
  Ru  Ru5  1  0.50000000  0.90661300  0.25000000  1
  Ru  Ru6  1  0.50000000  0.09338700  0.75000000  1
  Ru  Ru7  1  0.00000000  0.40661300  0.25000000  1
