# generated using pymatgen
data_LiRhF6
_symmetry_space_group_name_H-M   'P 1'
_cell_length_a   5.16548777
_cell_length_b   5.16548777
_cell_length_c   13.73075639
_cell_angle_alpha   90.00000000
_cell_angle_beta   90.00000000
_cell_angle_gamma   120.00000000
_symmetry_Int_Tables_number   1
_chemical_formula_structural   LiRhF6
_chemical_formula_sum   'Li3 Rh3 F18'
_cell_volume   317.28370601
_cell_formula_units_Z   3
loop_
 _symmetry_equiv_pos_site_id
 _symmetry_equiv_pos_as_xyz
  1  'x, y, z'
loop_
 _atom_site_type_symbol
 _atom_site_label
 _atom_site_symmetry_multiplicity
 _atom_site_fract_x
 _atom_site_fract_y
 _atom_site_fract_z
 _atom_site_occupancy
  Li  Li0  1  0.33333333  0.66666667  0.16666667  1
  Li  Li1  1  1.00000000  0.00000000  0.50000000  1
  Li  Li2  1  0.66666667  0.33333333  0.83333333  1
  Rh  Rh3  1  0.00000000  0.00000000  0.00000000  1
  Rh  Rh4  1  0.66666667  0.33333333  0.33333333  1
  Rh  Rh5  1  0.33333333  0.66666667  0.66666667  1
  F  F6  1  0.28013533  0.96164567  0.08010767  1
  F  F7  1  0.68151033  0.71986467  0.08010767  1
  F  F8  1  0.62831233  0.01484367  0.25322567  1
  F  F9  1  0.03835433  0.31848967  0.08010767  1
  F  F10  1  0.98515633  0.61346867  0.25322567  1
  F  F11  1  0.38653133  0.37168767  0.25322567  1
  F  F12  1  0.94680200  0.29497900  0.41344100  1
  F  F13  1  0.34817700  0.05319800  0.41344100  1
  F  F14  1  0.29497900  0.34817700  0.58655900  1
  F  F15  1  0.70502100  0.65182300  0.41344100  1
  F  F16  1  0.65182300  0.94680200  0.58655900  1
  F  F17  1  0.05319800  0.70502100  0.58655900  1
  F  F18  1  0.61346867  0.62831233  0.74677433  1
  F  F19  1  0.01484367  0.38653133  0.74677433  1
  F  F20  1  0.96164567  0.68151033  0.91989233  1
  F  F21  1  0.37168767  0.98515633  0.74677433  1
  F  F22  1  0.31848967  0.28013533  0.91989233  1
  F  F23  1  0.71986467  0.03835433  0.91989233  1
