# generated using pymatgen
data_Cu2Te3O8
_symmetry_space_group_name_H-M   'P 1'
_cell_length_a   11.94658600
_cell_length_b   5.37903000
_cell_length_c   12.47033634
_cell_angle_alpha   90.00000000
_cell_angle_beta   100.11162049
_cell_angle_gamma   90.00000000
_symmetry_Int_Tables_number   1
_chemical_formula_structural   Cu2Te3O8
_chemical_formula_sum   'Cu8 Te12 O32'
_cell_volume   788.90983777
_cell_formula_units_Z   4
loop_
 _symmetry_equiv_pos_site_id
 _symmetry_equiv_pos_as_xyz
  1  'x, y, z'
loop_
 _atom_site_type_symbol
 _atom_site_label
 _atom_site_symmetry_multiplicity
 _atom_site_fract_x
 _atom_site_fract_y
 _atom_site_fract_z
 _atom_site_occupancy
  Cu  Cu0  1  0.73322700  0.26804900  0.84172800  1
  Cu  Cu1  1  0.76677300  0.76804900  0.65827200  1
  Cu  Cu2  1  0.76677300  0.23195100  0.15827200  1
  Cu  Cu3  1  0.73322700  0.73195100  0.34172800  1
  Cu  Cu4  1  0.23322700  0.76804900  0.84172800  1
  Cu  Cu5  1  0.26677300  0.26804900  0.65827200  1
  Cu  Cu6  1  0.26677300  0.73195100  0.15827200  1
  Cu  Cu7  1  0.23322700  0.23195100  0.34172800  1
  Te  Te8  1  0.00000000  0.87085300  0.25000000  1
  Te  Te9  1  0.00000000  0.12914700  0.75000000  1
  Te  Te10  1  0.63517350  0.28641850  0.55462900  1
  Te  Te11  1  0.86482650  0.78641850  0.94537100  1
  Te  Te12  1  0.86482650  0.21358150  0.44537100  1
  Te  Te13  1  0.63517350  0.71358150  0.05462900  1
  Te  Te14  1  0.50000000  0.37085300  0.25000000  1
  Te  Te15  1  0.50000000  0.62914700  0.75000000  1
  Te  Te16  1  0.13517350  0.78641850  0.55462900  1
  Te  Te17  1  0.36482650  0.28641850  0.94537100  1
  Te  Te18  1  0.36482650  0.71358150  0.44537100  1
  Te  Te19  1  0.13517350  0.21358150  0.05462900  1
  O  O20  1  0.77764650  0.54100550  0.04807100  1
  O  O21  1  0.72235350  0.04100550  0.45192900  1
  O  O22  1  0.72235350  0.95899450  0.95192900  1
  O  O23  1  0.77764650  0.45899450  0.54807100  1
  O  O24  1  0.68879400  0.90723300  0.18114900  1
  O  O25  1  0.81120600  0.40723300  0.31885100  1
  O  O26  1  0.81120600  0.59276700  0.81885100  1
  O  O27  1  0.68879400  0.09276700  0.68114900  1
  O  O28  1  0.61885350  0.40244950  0.14294300  1
  O  O29  1  0.88114650  0.90244950  0.35705700  1
  O  O30  1  0.58617000  0.40687400  0.85217700  1
  O  O31  1  0.91383000  0.90687400  0.64782300  1
  O  O32  1  0.91383000  0.09312600  0.14782300  1
  O  O33  1  0.58617000  0.59312600  0.35217700  1
  O  O34  1  0.61885350  0.59755050  0.64294300  1
  O  O35  1  0.88114650  0.09755050  0.85705700  1
  O  O36  1  0.27764650  0.04100550  0.04807100  1
  O  O37  1  0.22235350  0.54100550  0.45192900  1
  O  O38  1  0.22235350  0.45899450  0.95192900  1
  O  O39  1  0.27764650  0.95899450  0.54807100  1
  O  O40  1  0.18879400  0.40723300  0.18114900  1
  O  O41  1  0.31120600  0.90723300  0.31885100  1
  O  O42  1  0.31120600  0.09276700  0.81885100  1
  O  O43  1  0.18879400  0.59276700  0.68114900  1
  O  O44  1  0.11885350  0.90244950  0.14294300  1
  O  O45  1  0.38114650  0.40244950  0.35705700  1
  O  O46  1  0.08617000  0.90687400  0.85217700  1
  O  O47  1  0.41383000  0.40687400  0.64782300  1
  O  O48  1  0.41383000  0.59312600  0.14782300  1
  O  O49  1  0.08617000  0.09312600  0.35217700  1
  O  O50  1  0.11885350  0.09755050  0.64294300  1
  O  O51  1  0.38114650  0.59755050  0.85705700  1
