# generated using pymatgen
data_Fe3P
_symmetry_space_group_name_H-M   'P 1'
_cell_length_a   9.04532400
_cell_length_b   9.04532400
_cell_length_c   4.38764000
_cell_angle_alpha   90.00000000
_cell_angle_beta   90.00000000
_cell_angle_gamma   90.00000000
_symmetry_Int_Tables_number   1
_chemical_formula_structural   Fe3P
_chemical_formula_sum   'Fe24 P8'
_cell_volume   358.98743049
_cell_formula_units_Z   8
loop_
 _symmetry_equiv_pos_site_id
 _symmetry_equiv_pos_as_xyz
  1  'x, y, z'
loop_
 _atom_site_type_symbol
 _atom_site_label
 _atom_site_symmetry_multiplicity
 _atom_site_fract_x
 _atom_site_fract_y
 _atom_site_fract_z
 _atom_site_occupancy
  Fe  Fe0  1  0.46894600  0.86231200  0.48980500  1
  Fe  Fe1  1  0.36231200  0.03105400  0.01019500  1
  Fe  Fe2  1  0.63768800  0.96894600  0.01019500  1
  Fe  Fe3  1  0.53105400  0.13768800  0.48980500  1
  Fe  Fe4  1  0.78001850  0.17003350  0.75772250  1
  Fe  Fe5  1  0.67003350  0.71998150  0.74227750  1
  Fe  Fe6  1  0.32996650  0.28001850  0.74227750  1
  Fe  Fe7  1  0.21998150  0.82996650  0.75772250  1
  Fe  Fe8  1  0.10601800  0.92124400  0.23461400  1
  Fe  Fe9  1  0.42124400  0.39398200  0.26538600  1
  Fe  Fe10  1  0.57875600  0.60601800  0.26538600  1
  Fe  Fe11  1  0.89398200  0.07875600  0.23461400  1
  Fe  Fe12  1  0.96894600  0.36231200  0.98980500  1
  Fe  Fe13  1  0.86231200  0.53105400  0.51019500  1
  Fe  Fe14  1  0.13768800  0.46894600  0.51019500  1
  Fe  Fe15  1  0.03105400  0.63768800  0.98980500  1
  Fe  Fe16  1  0.28001850  0.67003350  0.25772250  1
  Fe  Fe17  1  0.17003350  0.21998150  0.24227750  1
  Fe  Fe18  1  0.82996650  0.78001850  0.24227750  1
  Fe  Fe19  1  0.71998150  0.32996650  0.25772250  1
  Fe  Fe20  1  0.60601800  0.42124400  0.73461400  1
  Fe  Fe21  1  0.92124400  0.89398200  0.76538600  1
  Fe  Fe22  1  0.07875600  0.10601800  0.76538600  1
  Fe  Fe23  1  0.39398200  0.57875600  0.73461400  1
  P  P24  1  0.54500950  0.20878250  0.99337350  1
  P  P25  1  0.70878250  0.95499050  0.50662650  1
  P  P26  1  0.29121750  0.04500950  0.50662650  1
  P  P27  1  0.45499050  0.79121750  0.99337350  1
  P  P28  1  0.04500950  0.70878250  0.49337350  1
  P  P29  1  0.20878250  0.45499050  0.00662650  1
  P  P30  1  0.79121750  0.54500950  0.00662650  1
  P  P31  1  0.95499050  0.29121750  0.49337350  1
