# generated using pymatgen
data_YbP5O14
_symmetry_space_group_name_H-M   'P 1'
_cell_length_a   13.20414800
_cell_length_b   13.00289800
_cell_length_c   12.85977938
_cell_angle_alpha   90.00000000
_cell_angle_beta   92.16226303
_cell_angle_gamma   90.00000000
_symmetry_Int_Tables_number   1
_chemical_formula_structural   YbP5O14
_chemical_formula_sum   'Yb8 P40 O112'
_cell_volume   2206.35160086
_cell_formula_units_Z   8
loop_
 _symmetry_equiv_pos_site_id
 _symmetry_equiv_pos_as_xyz
  1  'x, y, z'
loop_
 _atom_site_type_symbol
 _atom_site_label
 _atom_site_symmetry_multiplicity
 _atom_site_fract_x
 _atom_site_fract_y
 _atom_site_fract_z
 _atom_site_occupancy
  Yb  Yb0  1  0.00000000  0.53665500  0.25000000  1
  Yb  Yb1  1  0.00000000  0.46334500  0.75000000  1
  Yb  Yb2  1  0.00000000  0.98201500  0.25000000  1
  Yb  Yb3  1  0.00000000  0.01798500  0.75000000  1
  Yb  Yb4  1  0.50000000  0.03665500  0.25000000  1
  Yb  Yb5  1  0.50000000  0.96334500  0.75000000  1
  Yb  Yb6  1  0.50000000  0.48201500  0.25000000  1
  Yb  Yb7  1  0.50000000  0.51798500  0.75000000  1
  P  P8  1  0.14646900  0.17075700  0.11305600  1
  P  P9  1  0.85353100  0.17075700  0.38694400  1
  P  P10  1  0.85353100  0.82924300  0.88694400  1
  P  P11  1  0.14646900  0.82924300  0.61305600  1
  P  P12  1  0.81757300  0.75552200  0.24423100  1
  P  P13  1  0.18242700  0.75552200  0.25576900  1
  P  P14  1  0.18242700  0.24447800  0.75576900  1
  P  P15  1  0.81757300  0.24447800  0.74423100  1
  P  P16  1  0.02208700  0.34798500  0.03244600  1
  P  P17  1  0.97791300  0.34798500  0.46755400  1
  P  P18  1  0.97791300  0.65201500  0.96755400  1
  P  P19  1  0.02208700  0.65201500  0.53244600  1
  P  P20  1  0.17970100  0.36609500  0.38734000  1
  P  P21  1  0.82029900  0.36609500  0.11266000  1
  P  P22  1  0.82029900  0.63390500  0.61266000  1
  P  P23  1  0.17970100  0.63390500  0.88734000  1
  P  P24  1  0.35189950  0.47197050  0.49116200  1
  P  P25  1  0.64810050  0.47197050  0.00883800  1
  P  P26  1  0.64810050  0.52802950  0.50883800  1
  P  P27  1  0.35189950  0.52802950  0.99116200  1
  P  P28  1  0.64646900  0.67075700  0.11305600  1
  P  P29  1  0.35353100  0.67075700  0.38694400  1
  P  P30  1  0.35353100  0.32924300  0.88694400  1
  P  P31  1  0.64646900  0.32924300  0.61305600  1
  P  P32  1  0.31757300  0.25552200  0.24423100  1
  P  P33  1  0.68242700  0.25552200  0.25576900  1
  P  P34  1  0.68242700  0.74447800  0.75576900  1
  P  P35  1  0.31757300  0.74447800  0.74423100  1
  P  P36  1  0.52208700  0.84798500  0.03244600  1
  P  P37  1  0.47791300  0.84798500  0.46755400  1
  P  P38  1  0.47791300  0.15201500  0.96755400  1
  P  P39  1  0.52208700  0.15201500  0.53244600  1
  P  P40  1  0.67970100  0.86609500  0.38734000  1
  P  P41  1  0.32029900  0.86609500  0.11266000  1
  P  P42  1  0.32029900  0.13390500  0.61266000  1
  P  P43  1  0.67970100  0.13390500  0.88734000  1
  P  P44  1  0.85189950  0.97197050  0.49116200  1
  P  P45  1  0.14810050  0.97197050  0.00883800  1
  P  P46  1  0.14810050  0.02802950  0.50883800  1
  P  P47  1  0.85189950  0.02802950  0.99116200  1
  O  O48  1  0.69355400  0.58671200  0.03901500  1
  O  O49  1  0.30644600  0.58671200  0.46098500  1
  O  O50  1  0.30644600  0.41328800  0.96098500  1
  O  O51  1  0.69355400  0.41328800  0.53901500  1
  O  O52  1  0.09181150  0.13030250  0.20158300  1
  O  O53  1  0.90818850  0.13030250  0.29841700  1
  O  O54  1  0.90818850  0.86969750  0.79841700  1
  O  O55  1  0.09181150  0.86969750  0.70158300  1
  O  O56  1  0.09299350  0.30560550  0.44347000  1
  O  O57  1  0.90700650  0.30560550  0.05653000  1
  O  O58  1  0.90700650  0.69439450  0.55653000  1
  O  O59  1  0.09299350  0.69439450  0.94347000  1
  O  O60  1  0.05923700  0.41328500  0.12153900  1
  O  O61  1  0.94076300  0.41328500  0.37846100  1
  O  O62  1  0.94076300  0.58671500  0.87846100  1
  O  O63  1  0.05923700  0.58671500  0.62153900  1
  O  O64  1  0.42092350  0.43597350  0.40872600  1
  O  O65  1  0.57907650  0.43597350  0.09127400  1
  O  O66  1  0.57907650  0.56402650  0.59127400  1
  O  O67  1  0.97746550  0.61258250  0.07624000  1
  O  O68  1  0.42092350  0.56402650  0.90872600  1
  O  O69  1  0.38995000  0.52863100  0.10149700  1
  O  O70  1  0.38995000  0.47136900  0.60149700  1
  O  O71  1  0.61005000  0.47136900  0.89850300  1
  O  O72  1  0.14827450  0.55114650  0.81519000  1
  O  O73  1  0.85172550  0.55114650  0.68481000  1
  O  O74  1  0.85172550  0.44885350  0.18481000  1
  O  O75  1  0.14827450  0.44885350  0.31519000  1
  O  O76  1  0.24826100  0.59510600  0.98472500  1
  O  O77  1  0.75173900  0.59510600  0.51527500  1
  O  O78  1  0.75173900  0.40489400  0.01527500  1
  O  O79  1  0.24826100  0.40489400  0.48472500  1
  O  O80  1  0.87699200  0.14950300  0.72430200  1
  O  O81  1  0.12300800  0.14950300  0.77569800  1
  O  O82  1  0.12300800  0.85049700  0.27569800  1
  O  O83  1  0.87699200  0.85049700  0.22430200  1
  O  O84  1  0.23996500  0.72634100  0.83912600  1
  O  O85  1  0.76003500  0.72634100  0.66087400  1
  O  O86  1  0.76003500  0.27365900  0.16087400  1
  O  O87  1  0.23996500  0.27365900  0.33912600  1
  O  O88  1  0.08092150  0.76199850  0.53219200  1
  O  O89  1  0.91907850  0.76199850  0.96780800  1
  O  O90  1  0.91907850  0.23800150  0.46780800  1
  O  O91  1  0.08092150  0.23800150  0.03219200  1
  O  O92  1  0.23924050  0.75640150  0.64257000  1
  O  O93  1  0.76075950  0.75640150  0.85743000  1
  O  O94  1  0.76075950  0.24359850  0.35743000  1
  O  O95  1  0.23924050  0.24359850  0.14257000  1
  O  O96  1  0.86828600  0.34437900  0.76720600  1
  O  O97  1  0.13171400  0.34437900  0.73279400  1
  O  O98  1  0.13171400  0.65562100  0.23279400  1
  O  O99  1  0.86828600  0.65562100  0.26720600  1
  O  O100  1  0.97746550  0.38741750  0.57624000  1
  O  O101  1  0.02253450  0.38741750  0.92376000  1
  O  O102  1  0.02253450  0.61258250  0.42376000  1
  O  O103  1  0.61005000  0.52863100  0.39850300  1
  O  O104  1  0.19355400  0.08671200  0.03901500  1
  O  O105  1  0.80644600  0.08671200  0.46098500  1
  O  O106  1  0.80644600  0.91328800  0.96098500  1
  O  O107  1  0.19355400  0.91328800  0.53901500  1
  O  O108  1  0.59181150  0.63030250  0.20158300  1
  O  O109  1  0.40818850  0.63030250  0.29841700  1
  O  O110  1  0.40818850  0.36969750  0.79841700  1
  O  O111  1  0.59181150  0.36969750  0.70158300  1
  O  O112  1  0.59299350  0.80560550  0.44347000  1
  O  O113  1  0.40700650  0.80560550  0.05653000  1
  O  O114  1  0.40700650  0.19439450  0.55653000  1
  O  O115  1  0.59299350  0.19439450  0.94347000  1
  O  O116  1  0.55923700  0.91328500  0.12153900  1
  O  O117  1  0.44076300  0.91328500  0.37846100  1
  O  O118  1  0.44076300  0.08671500  0.87846100  1
  O  O119  1  0.55923700  0.08671500  0.62153900  1
  O  O120  1  0.92092350  0.93597350  0.40872600  1
  O  O121  1  0.07907650  0.93597350  0.09127400  1
  O  O122  1  0.07907650  0.06402650  0.59127400  1
  O  O123  1  0.47746550  0.11258250  0.07624000  1
  O  O124  1  0.92092350  0.06402650  0.90872600  1
  O  O125  1  0.88995000  0.02863100  0.10149700  1
  O  O126  1  0.88995000  0.97136900  0.60149700  1
  O  O127  1  0.11005000  0.97136900  0.89850300  1
  O  O128  1  0.64827450  0.05114650  0.81519000  1
  O  O129  1  0.35172550  0.05114650  0.68481000  1
  O  O130  1  0.35172550  0.94885350  0.18481000  1
  O  O131  1  0.64827450  0.94885350  0.31519000  1
  O  O132  1  0.74826100  0.09510600  0.98472500  1
  O  O133  1  0.25173900  0.09510600  0.51527500  1
  O  O134  1  0.25173900  0.90489400  0.01527500  1
  O  O135  1  0.74826100  0.90489400  0.48472500  1
  O  O136  1  0.37699200  0.64950300  0.72430200  1
  O  O137  1  0.62300800  0.64950300  0.77569800  1
  O  O138  1  0.62300800  0.35049700  0.27569800  1
  O  O139  1  0.37699200  0.35049700  0.22430200  1
  O  O140  1  0.73996500  0.22634100  0.83912600  1
  O  O141  1  0.26003500  0.22634100  0.66087400  1
  O  O142  1  0.26003500  0.77365900  0.16087400  1
  O  O143  1  0.73996500  0.77365900  0.33912600  1
  O  O144  1  0.58092150  0.26199850  0.53219200  1
  O  O145  1  0.41907850  0.26199850  0.96780800  1
  O  O146  1  0.41907850  0.73800150  0.46780800  1
  O  O147  1  0.58092150  0.73800150  0.03219200  1
  O  O148  1  0.73924050  0.25640150  0.64257000  1
  O  O149  1  0.26075950  0.25640150  0.85743000  1
  O  O150  1  0.26075950  0.74359850  0.35743000  1
  O  O151  1  0.73924050  0.74359850  0.14257000  1
  O  O152  1  0.36828600  0.84437900  0.76720600  1
  O  O153  1  0.63171400  0.84437900  0.73279400  1
  O  O154  1  0.63171400  0.15562100  0.23279400  1
  O  O155  1  0.36828600  0.15562100  0.26720600  1
  O  O156  1  0.47746550  0.88741750  0.57624000  1
  O  O157  1  0.52253450  0.88741750  0.92376000  1
  O  O158  1  0.52253450  0.11258250  0.42376000  1
  O  O159  1  0.11005000  0.02863100  0.39850300  1
