# generated using pymatgen
data_La4Co3O10
_symmetry_space_group_name_H-M   'P 1'
_cell_length_a   3.87736200
_cell_length_b   3.87736200
_cell_length_c   28.29072000
_cell_angle_alpha   90.00000000
_cell_angle_beta   90.00000000
_cell_angle_gamma   90.00000000
_symmetry_Int_Tables_number   1
_chemical_formula_structural   La4Co3O10
_chemical_formula_sum   'La8 Co6 O20'
_cell_volume   425.32087611
_cell_formula_units_Z   2
loop_
 _symmetry_equiv_pos_site_id
 _symmetry_equiv_pos_as_xyz
  1  'x, y, z'
loop_
 _atom_site_type_symbol
 _atom_site_label
 _atom_site_symmetry_multiplicity
 _atom_site_fract_x
 _atom_site_fract_y
 _atom_site_fract_z
 _atom_site_occupancy
  La  La0  1  0.50000000  0.50000000  0.06694400  1
  La  La1  1  0.00000000  0.00000000  0.43305600  1
  La  La2  1  0.00000000  0.00000000  0.30129800  1
  La  La3  1  0.50000000  0.50000000  0.19870200  1
  La  La4  1  0.00000000  0.00000000  0.56694400  1
  La  La5  1  0.50000000  0.50000000  0.93305600  1
  La  La6  1  0.50000000  0.50000000  0.80129800  1
  La  La7  1  0.00000000  0.00000000  0.69870200  1
  Co  Co8  1  0.00000000  0.00000000  0.14040500  1
  Co  Co9  1  0.50000000  0.50000000  0.35959500  1
  Co  Co10  1  0.00000000  0.00000000  0.00000000  1
  Co  Co11  1  0.50000000  0.50000000  0.64040500  1
  Co  Co12  1  0.00000000  0.00000000  0.85959500  1
  Co  Co13  1  0.50000000  0.50000000  0.50000000  1
  O  O14  1  0.50000000  0.00000000  0.14039300  1
  O  O15  1  0.00000000  0.00000000  0.06819200  1
  O  O16  1  0.00000000  0.50000000  0.14039300  1
  O  O17  1  0.00000000  0.50000000  0.35960700  1
  O  O18  1  0.50000000  0.00000000  0.35960700  1
  O  O19  1  0.50000000  0.50000000  0.43180800  1
  O  O20  1  0.00000000  0.00000000  0.21906500  1
  O  O21  1  0.50000000  0.50000000  0.28093500  1
  O  O22  1  0.50000000  0.00000000  0.00000000  1
  O  O23  1  0.00000000  0.50000000  0.00000000  1
  O  O24  1  0.00000000  0.50000000  0.64039300  1
  O  O25  1  0.50000000  0.50000000  0.56819200  1
  O  O26  1  0.50000000  0.00000000  0.64039300  1
  O  O27  1  0.50000000  0.00000000  0.85960700  1
  O  O28  1  0.00000000  0.50000000  0.85960700  1
  O  O29  1  0.00000000  0.00000000  0.93180800  1
  O  O30  1  0.50000000  0.50000000  0.71906500  1
  O  O31  1  0.00000000  0.00000000  0.78093500  1
  O  O32  1  0.00000000  0.50000000  0.50000000  1
  O  O33  1  0.50000000  0.00000000  0.50000000  1
