# generated using pymatgen
data_Er4Sb3
_symmetry_space_group_name_H-M   'P 1'
_cell_length_a   9.12912800
_cell_length_b   9.12912800
_cell_length_c   9.12912800
_cell_angle_alpha   90.00000000
_cell_angle_beta   90.00000000
_cell_angle_gamma   90.00000000
_symmetry_Int_Tables_number   1
_chemical_formula_structural   Er4Sb3
_chemical_formula_sum   'Er16 Sb12'
_cell_volume   760.83045618
_cell_formula_units_Z   4
loop_
 _symmetry_equiv_pos_site_id
 _symmetry_equiv_pos_as_xyz
  1  'x, y, z'
loop_
 _atom_site_type_symbol
 _atom_site_label
 _atom_site_symmetry_multiplicity
 _atom_site_fract_x
 _atom_site_fract_y
 _atom_site_fract_z
 _atom_site_occupancy
  Er  Er0  1  0.32149650  0.17850350  0.82149650  1
  Er  Er1  1  0.17850350  0.17850350  0.17850350  1
  Er  Er2  1  0.92850350  0.07149650  0.57149650  1
  Er  Er3  1  0.42850350  0.42850350  0.42850350  1
  Er  Er4  1  0.07149650  0.57149650  0.92850350  1
  Er  Er5  1  0.82149650  0.32149650  0.17850350  1
  Er  Er6  1  0.57149650  0.92850350  0.07149650  1
  Er  Er7  1  0.17850350  0.82149650  0.32149650  1
  Er  Er8  1  0.82149650  0.67850350  0.32149650  1
  Er  Er9  1  0.67850350  0.67850350  0.67850350  1
  Er  Er10  1  0.42850350  0.57149650  0.07149650  1
  Er  Er11  1  0.92850350  0.92850350  0.92850350  1
  Er  Er12  1  0.57149650  0.07149650  0.42850350  1
  Er  Er13  1  0.32149650  0.82149650  0.67850350  1
  Er  Er14  1  0.07149650  0.42850350  0.57149650  1
  Er  Er15  1  0.67850350  0.32149650  0.82149650  1
  Sb  Sb16  1  0.37500000  0.50000000  0.75000000  1
  Sb  Sb17  1  0.50000000  0.75000000  0.37500000  1
  Sb  Sb18  1  0.12500000  0.50000000  0.25000000  1
  Sb  Sb19  1  0.75000000  0.37500000  0.50000000  1
  Sb  Sb20  1  0.25000000  0.12500000  0.50000000  1
  Sb  Sb21  1  0.50000000  0.25000000  0.12500000  1
  Sb  Sb22  1  0.87500000  0.00000000  0.25000000  1
  Sb  Sb23  1  0.00000000  0.25000000  0.87500000  1
  Sb  Sb24  1  0.62500000  0.00000000  0.75000000  1
  Sb  Sb25  1  0.25000000  0.87500000  0.00000000  1
  Sb  Sb26  1  0.75000000  0.62500000  0.00000000  1
  Sb  Sb27  1  0.00000000  0.75000000  0.62500000  1
