# generated using pymatgen
data_SrSi6
_symmetry_space_group_name_H-M   'P 1'
_cell_length_a   4.48902600
_cell_length_b   10.33164000
_cell_length_c   11.70916500
_cell_angle_alpha   90.00000000
_cell_angle_beta   90.00000000
_cell_angle_gamma   90.00000000
_symmetry_Int_Tables_number   1
_chemical_formula_structural   SrSi6
_chemical_formula_sum   'Sr4 Si24'
_cell_volume   543.05937036
_cell_formula_units_Z   4
loop_
 _symmetry_equiv_pos_site_id
 _symmetry_equiv_pos_as_xyz
  1  'x, y, z'
loop_
 _atom_site_type_symbol
 _atom_site_label
 _atom_site_symmetry_multiplicity
 _atom_site_fract_x
 _atom_site_fract_y
 _atom_site_fract_z
 _atom_site_occupancy
  Sr  Sr0  1  0.50000000  0.22437100  0.75000000  1
  Sr  Sr1  1  0.00000000  0.27562900  0.25000000  1
  Sr  Sr2  1  0.00000000  0.72437100  0.75000000  1
  Sr  Sr3  1  0.50000000  0.77562900  0.25000000  1
  Si  Si4  1  0.00000000  0.02247000  0.60070800  1
  Si  Si5  1  0.50000000  0.47753000  0.39929200  1
  Si  Si6  1  0.00000000  0.24606600  0.96224100  1
  Si  Si7  1  0.50000000  0.25393400  0.03775900  1
  Si  Si8  1  0.50000000  0.25393400  0.46224100  1
  Si  Si9  1  0.00000000  0.24606600  0.53775900  1
  Si  Si10  1  0.50000000  0.05939300  0.14732400  1
  Si  Si11  1  0.00000000  0.44060700  0.85267600  1
  Si  Si12  1  0.00000000  0.44060700  0.64732400  1
  Si  Si13  1  0.50000000  0.05939300  0.35267600  1
  Si  Si14  1  0.00000000  0.02247000  0.89929200  1
  Si  Si15  1  0.50000000  0.47753000  0.10070800  1
  Si  Si16  1  0.50000000  0.52247000  0.60070800  1
  Si  Si17  1  0.00000000  0.97753000  0.39929200  1
  Si  Si18  1  0.50000000  0.74606600  0.96224100  1
  Si  Si19  1  0.00000000  0.75393400  0.03775900  1
  Si  Si20  1  0.00000000  0.75393400  0.46224100  1
  Si  Si21  1  0.50000000  0.74606600  0.53775900  1
  Si  Si22  1  0.00000000  0.55939300  0.14732400  1
  Si  Si23  1  0.50000000  0.94060700  0.85267600  1
  Si  Si24  1  0.50000000  0.94060700  0.64732400  1
  Si  Si25  1  0.00000000  0.55939300  0.35267600  1
  Si  Si26  1  0.50000000  0.52247000  0.89929200  1
  Si  Si27  1  0.00000000  0.97753000  0.10070800  1
