# generated using pymatgen
data_Zr5Re24
_symmetry_space_group_name_H-M   'P 1'
_cell_length_a   9.80782000
_cell_length_b   9.80782000
_cell_length_c   9.80782000
_cell_angle_alpha   90.00000000
_cell_angle_beta   90.00000000
_cell_angle_gamma   90.00000000
_symmetry_Int_Tables_number   1
_chemical_formula_structural   Zr5Re24
_chemical_formula_sum   'Zr10 Re48'
_cell_volume   943.44689676
_cell_formula_units_Z   2
loop_
 _symmetry_equiv_pos_site_id
 _symmetry_equiv_pos_as_xyz
  1  'x, y, z'
loop_
 _atom_site_type_symbol
 _atom_site_label
 _atom_site_symmetry_multiplicity
 _atom_site_fract_x
 _atom_site_fract_y
 _atom_site_fract_z
 _atom_site_occupancy
  Zr  Zr0  1  0.00000000  0.00000000  0.00000000  1
  Zr  Zr1  1  0.68524250  0.31475750  0.31475750  1
  Zr  Zr2  1  0.31475750  0.68524250  0.31475750  1
  Zr  Zr3  1  0.31475750  0.31475750  0.68524250  1
  Zr  Zr4  1  0.18524250  0.18524250  0.18524250  1
  Zr  Zr5  1  0.50000000  0.50000000  0.50000000  1
  Zr  Zr6  1  0.18524250  0.81475750  0.81475750  1
  Zr  Zr7  1  0.81475750  0.18524250  0.81475750  1
  Zr  Zr8  1  0.81475750  0.81475750  0.18524250  1
  Zr  Zr9  1  0.68524250  0.68524250  0.68524250  1
  Re  Re10  1  0.14075000  0.85925000  0.53635200  1
  Re  Re11  1  0.96364800  0.35925000  0.35925000  1
  Re  Re12  1  0.14075000  0.53635200  0.85925000  1
  Re  Re13  1  0.85925000  0.14075000  0.53635200  1
  Re  Re14  1  0.53635200  0.14075000  0.85925000  1
  Re  Re15  1  0.35925000  0.96364800  0.35925000  1
  Re  Re16  1  0.35925000  0.35925000  0.96364800  1
  Re  Re17  1  0.53635200  0.85925000  0.14075000  1
  Re  Re18  1  0.85925000  0.53635200  0.14075000  1
  Re  Re19  1  0.14075000  0.14075000  0.46364800  1
  Re  Re20  1  0.46364800  0.14075000  0.14075000  1
  Re  Re21  1  0.14075000  0.46364800  0.14075000  1
  Re  Re22  1  0.90891850  0.09108150  0.28560950  1
  Re  Re23  1  0.71439050  0.09108150  0.09108150  1
  Re  Re24  1  0.90891850  0.28560950  0.09108150  1
  Re  Re25  1  0.09108150  0.90891850  0.28560950  1
  Re  Re26  1  0.28560950  0.90891850  0.09108150  1
  Re  Re27  1  0.09108150  0.71439050  0.09108150  1
  Re  Re28  1  0.09108150  0.09108150  0.71439050  1
  Re  Re29  1  0.28560950  0.09108150  0.90891850  1
  Re  Re30  1  0.09108150  0.28560950  0.90891850  1
  Re  Re31  1  0.40891850  0.40891850  0.21439050  1
  Re  Re32  1  0.21439050  0.40891850  0.40891850  1
  Re  Re33  1  0.40891850  0.21439050  0.40891850  1
  Re  Re34  1  0.64075000  0.35925000  0.03635200  1
  Re  Re35  1  0.46364800  0.85925000  0.85925000  1
  Re  Re36  1  0.64075000  0.03635200  0.35925000  1
  Re  Re37  1  0.35925000  0.64075000  0.03635200  1
  Re  Re38  1  0.03635200  0.64075000  0.35925000  1
  Re  Re39  1  0.85925000  0.46364800  0.85925000  1
  Re  Re40  1  0.85925000  0.85925000  0.46364800  1
  Re  Re41  1  0.03635200  0.35925000  0.64075000  1
  Re  Re42  1  0.35925000  0.03635200  0.64075000  1
  Re  Re43  1  0.64075000  0.64075000  0.96364800  1
  Re  Re44  1  0.96364800  0.64075000  0.64075000  1
  Re  Re45  1  0.64075000  0.96364800  0.64075000  1
  Re  Re46  1  0.40891850  0.59108150  0.78560950  1
  Re  Re47  1  0.21439050  0.59108150  0.59108150  1
  Re  Re48  1  0.40891850  0.78560950  0.59108150  1
  Re  Re49  1  0.59108150  0.40891850  0.78560950  1
  Re  Re50  1  0.78560950  0.40891850  0.59108150  1
  Re  Re51  1  0.59108150  0.21439050  0.59108150  1
  Re  Re52  1  0.59108150  0.59108150  0.21439050  1
  Re  Re53  1  0.78560950  0.59108150  0.40891850  1
  Re  Re54  1  0.59108150  0.78560950  0.40891850  1
  Re  Re55  1  0.90891850  0.90891850  0.71439050  1
  Re  Re56  1  0.71439050  0.90891850  0.90891850  1
  Re  Re57  1  0.90891850  0.71439050  0.90891850  1
