# generated using pymatgen
data_F2
_symmetry_space_group_name_H-M   'P 1'
_cell_length_a   6.10294600
_cell_length_b   3.65548400
_cell_length_c   6.88793804
_cell_angle_alpha   90.00000000
_cell_angle_beta   96.74121907
_cell_angle_gamma   90.00000000
_symmetry_Int_Tables_number   1
_chemical_formula_structural   F2
_chemical_formula_sum   F8
_cell_volume   152.60216909
_cell_formula_units_Z   4
loop_
 _symmetry_equiv_pos_site_id
 _symmetry_equiv_pos_as_xyz
  1  'x, y, z'
loop_
 _atom_site_type_symbol
 _atom_site_label
 _atom_site_symmetry_multiplicity
 _atom_site_fract_x
 _atom_site_fract_y
 _atom_site_fract_z
 _atom_site_occupancy
  F  F0  1  0.74505250  0.16903150  0.90535200  1
  F  F1  1  0.25494750  0.16903150  0.59464800  1
  F  F2  1  0.25494750  0.83096850  0.09464800  1
  F  F3  1  0.74505250  0.83096850  0.40535200  1
  F  F4  1  0.24505250  0.66903150  0.90535200  1
  F  F5  1  0.75494750  0.66903150  0.59464800  1
  F  F6  1  0.75494750  0.33096850  0.09464800  1
  F  F7  1  0.24505250  0.33096850  0.40535200  1
