# generated using pymatgen
data_Sm3Sb4Pt7
_symmetry_space_group_name_H-M   'P 1'
_cell_length_a   16.68396600
_cell_length_b   4.30460600
_cell_length_c   10.55650015
_cell_angle_alpha   90.00000000
_cell_angle_beta   129.02552528
_cell_angle_gamma   90.00000000
_symmetry_Int_Tables_number   1
_chemical_formula_structural   Sm3Sb4Pt7
_chemical_formula_sum   'Sm6 Sb8 Pt14'
_cell_volume   588.97723457
_cell_formula_units_Z   2
loop_
 _symmetry_equiv_pos_site_id
 _symmetry_equiv_pos_as_xyz
  1  'x, y, z'
loop_
 _atom_site_type_symbol
 _atom_site_label
 _atom_site_symmetry_multiplicity
 _atom_site_fract_x
 _atom_site_fract_y
 _atom_site_fract_z
 _atom_site_occupancy
  Sm  Sm0  1  0.00000000  0.50000000  0.00000000  1
  Sm  Sm1  1  0.17171100  0.00000000  0.68528500  1
  Sm  Sm2  1  0.82828900  0.00000000  0.31471500  1
  Sm  Sm3  1  0.50000000  0.00000000  0.00000000  1
  Sm  Sm4  1  0.67171100  0.50000000  0.68528500  1
  Sm  Sm5  1  0.32828900  0.50000000  0.31471500  1
  Sb  Sb6  1  0.85948300  0.50000000  0.59063700  1
  Sb  Sb7  1  0.32861000  0.50000000  0.97526300  1
  Sb  Sb8  1  0.67139000  0.50000000  0.02473700  1
  Sb  Sb9  1  0.14051700  0.50000000  0.40936300  1
  Sb  Sb10  1  0.35948300  0.00000000  0.59063700  1
  Sb  Sb11  1  0.82861000  0.00000000  0.97526300  1
  Sb  Sb12  1  0.17139000  0.00000000  0.02473700  1
  Sb  Sb13  1  0.64051700  0.00000000  0.40936300  1
  Pt  Pt14  1  0.66916400  0.50000000  0.26905300  1
  Pt  Pt15  1  0.87722000  0.50000000  0.15584000  1
  Pt  Pt16  1  0.00000000  0.50000000  0.50000000  1
  Pt  Pt17  1  0.33083600  0.50000000  0.73094700  1
  Pt  Pt18  1  0.01692200  0.00000000  0.32733900  1
  Pt  Pt19  1  0.98307800  0.00000000  0.67266100  1
  Pt  Pt20  1  0.12278000  0.50000000  0.84416000  1
  Pt  Pt21  1  0.16916400  0.00000000  0.26905300  1
  Pt  Pt22  1  0.37722000  0.00000000  0.15584000  1
  Pt  Pt23  1  0.50000000  0.00000000  0.50000000  1
  Pt  Pt24  1  0.83083600  0.00000000  0.73094700  1
  Pt  Pt25  1  0.51692200  0.50000000  0.32733900  1
  Pt  Pt26  1  0.48307800  0.50000000  0.67266100  1
  Pt  Pt27  1  0.62278000  0.00000000  0.84416000  1
