# generated using pymatgen
data_SmCoSi2
_symmetry_space_group_name_H-M   'P 1'
_cell_length_a   4.11061600
_cell_length_b   16.26169600
_cell_length_c   4.04431800
_cell_angle_alpha   90.00000000
_cell_angle_beta   90.00000000
_cell_angle_gamma   90.00000000
_symmetry_Int_Tables_number   1
_chemical_formula_structural   SmCoSi2
_chemical_formula_sum   'Sm4 Co4 Si8'
_cell_volume   270.34481382
_cell_formula_units_Z   4
loop_
 _symmetry_equiv_pos_site_id
 _symmetry_equiv_pos_as_xyz
  1  'x, y, z'
loop_
 _atom_site_type_symbol
 _atom_site_label
 _atom_site_symmetry_multiplicity
 _atom_site_fract_x
 _atom_site_fract_y
 _atom_site_fract_z
 _atom_site_occupancy
  Sm  Sm0  1  0.50000000  0.39325500  0.75000000  1
  Sm  Sm1  1  0.00000000  0.10674500  0.25000000  1
  Sm  Sm2  1  0.00000000  0.89325500  0.75000000  1
  Sm  Sm3  1  0.50000000  0.60674500  0.25000000  1
  Co  Co4  1  0.00000000  0.31881000  0.25000000  1
  Co  Co5  1  0.50000000  0.18119000  0.75000000  1
  Co  Co6  1  0.50000000  0.81881000  0.25000000  1
  Co  Co7  1  0.00000000  0.68119000  0.75000000  1
  Si  Si8  1  0.00000000  0.24978400  0.75000000  1
  Si  Si9  1  0.50000000  0.25021600  0.25000000  1
  Si  Si10  1  0.00000000  0.45686700  0.25000000  1
  Si  Si11  1  0.50000000  0.04313300  0.75000000  1
  Si  Si12  1  0.50000000  0.74978400  0.75000000  1
  Si  Si13  1  0.00000000  0.75021600  0.25000000  1
  Si  Si14  1  0.50000000  0.95686700  0.25000000  1
  Si  Si15  1  0.00000000  0.54313300  0.75000000  1
