# generated using pymatgen
data_Ca4Si3Pd4
_symmetry_space_group_name_H-M   'P 1'
_cell_length_a   21.00451000
_cell_length_b   5.70510000
_cell_length_c   7.87657134
_cell_angle_alpha   90.00000000
_cell_angle_beta   109.14479970
_cell_angle_gamma   90.00000000
_symmetry_Int_Tables_number   1
_chemical_formula_structural   Ca4Si3Pd4
_chemical_formula_sum   'Ca16 Si12 Pd16'
_cell_volume   891.66889807
_cell_formula_units_Z   4
loop_
 _symmetry_equiv_pos_site_id
 _symmetry_equiv_pos_as_xyz
  1  'x, y, z'
loop_
 _atom_site_type_symbol
 _atom_site_label
 _atom_site_symmetry_multiplicity
 _atom_site_fract_x
 _atom_site_fract_y
 _atom_site_fract_z
 _atom_site_occupancy
  Ca  Ca0  1  0.06783650  0.13267850  0.67330500  1
  Ca  Ca1  1  0.43216350  0.36732150  0.32669500  1
  Ca  Ca2  1  0.43216350  0.63267850  0.82669500  1
  Ca  Ca3  1  0.33077550  0.87458650  0.09453000  1
  Ca  Ca4  1  0.16922450  0.37458650  0.40547000  1
  Ca  Ca5  1  0.33077550  0.12541350  0.59453000  1
  Ca  Ca6  1  0.06783650  0.86732150  0.17330500  1
  Ca  Ca7  1  0.16922450  0.62541350  0.90547000  1
  Ca  Ca8  1  0.56783650  0.63267850  0.67330500  1
  Ca  Ca9  1  0.93216350  0.86732150  0.32669500  1
  Ca  Ca10  1  0.93216350  0.13267850  0.82669500  1
  Ca  Ca11  1  0.83077550  0.37458650  0.09453000  1
  Ca  Ca12  1  0.66922450  0.87458650  0.40547000  1
  Ca  Ca13  1  0.83077550  0.62541350  0.59453000  1
  Ca  Ca14  1  0.56783650  0.36732150  0.17330500  1
  Ca  Ca15  1  0.66922450  0.12541350  0.90547000  1
  Si  Si16  1  0.17181500  0.86757400  0.56491700  1
  Si  Si17  1  0.00000000  0.61530900  0.75000000  1
  Si  Si18  1  0.17181500  0.13242600  0.06491700  1
  Si  Si19  1  0.32818500  0.63242600  0.43508300  1
  Si  Si20  1  0.32818500  0.36757400  0.93508300  1
  Si  Si21  1  0.00000000  0.38469100  0.25000000  1
  Si  Si22  1  0.67181500  0.36757400  0.56491700  1
  Si  Si23  1  0.50000000  0.11530900  0.75000000  1
  Si  Si24  1  0.67181500  0.63242600  0.06491700  1
  Si  Si25  1  0.82818500  0.13242600  0.43508300  1
  Si  Si26  1  0.82818500  0.86757400  0.93508300  1
  Si  Si27  1  0.50000000  0.88469100  0.25000000  1
  Pd  Pd28  1  0.43818300  0.86374400  0.47582000  1
  Pd  Pd29  1  0.06181700  0.36374400  0.02418000  1
  Pd  Pd30  1  0.43818300  0.13625600  0.97582000  1
  Pd  Pd31  1  0.06181700  0.63625600  0.52418000  1
  Pd  Pd32  1  0.27805400  0.63621300  0.68110700  1
  Pd  Pd33  1  0.27805400  0.36378700  0.18110700  1
  Pd  Pd34  1  0.22194600  0.86378700  0.31889300  1
  Pd  Pd35  1  0.22194600  0.13621300  0.81889300  1
  Pd  Pd36  1  0.93818300  0.36374400  0.47582000  1
  Pd  Pd37  1  0.56181700  0.86374400  0.02418000  1
  Pd  Pd38  1  0.93818300  0.63625600  0.97582000  1
  Pd  Pd39  1  0.56181700  0.13625600  0.52418000  1
  Pd  Pd40  1  0.77805400  0.13621300  0.68110700  1
  Pd  Pd41  1  0.77805400  0.86378700  0.18110700  1
  Pd  Pd42  1  0.72194600  0.36378700  0.31889300  1
  Pd  Pd43  1  0.72194600  0.63621300  0.81889300  1
