# generated using pymatgen
data_Ba3MnSb2O9
_symmetry_space_group_name_H-M   'P 1'
_cell_length_a   5.99587400
_cell_length_b   10.37026600
_cell_length_c   14.82904064
_cell_angle_alpha   90.00000000
_cell_angle_beta   91.15494685
_cell_angle_gamma   90.00000000
_symmetry_Int_Tables_number   1
_chemical_formula_structural   Ba3MnSb2O9
_chemical_formula_sum   'Ba12 Mn4 Sb8 O36'
_cell_volume   921.86475260
_cell_formula_units_Z   4
loop_
 _symmetry_equiv_pos_site_id
 _symmetry_equiv_pos_as_xyz
  1  'x, y, z'
loop_
 _atom_site_type_symbol
 _atom_site_label
 _atom_site_symmetry_multiplicity
 _atom_site_fract_x
 _atom_site_fract_y
 _atom_site_fract_z
 _atom_site_occupancy
  Ba  Ba0  1  0.50641750  0.16728850  0.08808400  1
  Ba  Ba1  1  0.49358250  0.16728850  0.41191600  1
  Ba  Ba2  1  0.49358250  0.83271150  0.91191600  1
  Ba  Ba3  1  0.50641750  0.83271150  0.58808400  1
  Ba  Ba4  1  0.50000000  0.50267900  0.25000000  1
  Ba  Ba5  1  0.50000000  0.49732100  0.75000000  1
  Ba  Ba6  1  0.00641750  0.66728850  0.08808400  1
  Ba  Ba7  1  0.99358250  0.66728850  0.41191600  1
  Ba  Ba8  1  0.99358250  0.33271150  0.91191600  1
  Ba  Ba9  1  0.00641750  0.33271150  0.58808400  1
  Ba  Ba10  1  0.00000000  0.00267900  0.25000000  1
  Ba  Ba11  1  0.00000000  0.99732100  0.75000000  1
  Mn  Mn12  1  0.00000000  0.00000000  0.50000000  1
  Mn  Mn13  1  0.00000000  0.00000000  0.00000000  1
  Mn  Mn14  1  0.50000000  0.50000000  0.50000000  1
  Mn  Mn15  1  0.50000000  0.50000000  0.00000000  1
  Sb  Sb16  1  0.51175200  0.83384100  0.15280600  1
  Sb  Sb17  1  0.48824800  0.83384100  0.34719400  1
  Sb  Sb18  1  0.51175200  0.16615900  0.65280600  1
  Sb  Sb19  1  0.48824800  0.16615900  0.84719400  1
  Sb  Sb20  1  0.01175200  0.33384100  0.15280600  1
  Sb  Sb21  1  0.98824800  0.33384100  0.34719400  1
  Sb  Sb22  1  0.01175200  0.66615900  0.65280600  1
  Sb  Sb23  1  0.98824800  0.66615900  0.84719400  1
  O  O24  1  0.76862200  0.91422300  0.09490600  1
  O  O25  1  0.23137800  0.91422300  0.40509400  1
  O  O26  1  0.23137800  0.08577700  0.90509400  1
  O  O27  1  0.76862200  0.08577700  0.59490600  1
  O  O28  1  0.28254350  0.91426650  0.07505800  1
  O  O29  1  0.71745650  0.91426650  0.42494200  1
  O  O30  1  0.71745650  0.08573350  0.92494200  1
  O  O31  1  0.28254350  0.08573350  0.57505800  1
  O  O32  1  0.52622350  0.67066750  0.08600700  1
  O  O33  1  0.47377650  0.67066750  0.41399300  1
  O  O34  1  0.47377650  0.32933250  0.91399300  1
  O  O35  1  0.52622350  0.32933250  0.58600700  1
  O  O36  1  0.50000000  0.01843100  0.75000000  1
  O  O37  1  0.50000000  0.98156900  0.25000000  1
  O  O38  1  0.27948600  0.23955400  0.74212300  1
  O  O39  1  0.72051400  0.23955400  0.75787700  1
  O  O40  1  0.72051400  0.76044600  0.25787700  1
  O  O41  1  0.27948600  0.76044600  0.24212300  1
  O  O42  1  0.26862200  0.41422300  0.09490600  1
  O  O43  1  0.73137800  0.41422300  0.40509400  1
  O  O44  1  0.73137800  0.58577700  0.90509400  1
  O  O45  1  0.26862200  0.58577700  0.59490600  1
  O  O46  1  0.78254350  0.41426650  0.07505800  1
  O  O47  1  0.21745650  0.41426650  0.42494200  1
  O  O48  1  0.21745650  0.58573350  0.92494200  1
  O  O49  1  0.78254350  0.58573350  0.57505800  1
  O  O50  1  0.02622350  0.17066750  0.08600700  1
  O  O51  1  0.97377650  0.17066750  0.41399300  1
  O  O52  1  0.97377650  0.82933250  0.91399300  1
  O  O53  1  0.02622350  0.82933250  0.58600700  1
  O  O54  1  0.00000000  0.51843100  0.75000000  1
  O  O55  1  0.00000000  0.48156900  0.25000000  1
  O  O56  1  0.77948600  0.73955400  0.74212300  1
  O  O57  1  0.22051400  0.73955400  0.75787700  1
  O  O58  1  0.22051400  0.26044600  0.25787700  1
  O  O59  1  0.77948600  0.26044600  0.24212300  1
