# generated using pymatgen
data_Sm2Co12P7
_symmetry_space_group_name_H-M   'P 1'
_cell_length_a   9.07440230
_cell_length_b   9.07440230
_cell_length_c   3.62334100
_cell_angle_alpha   90.00000000
_cell_angle_beta   90.00000000
_cell_angle_gamma   120.00000000
_symmetry_Int_Tables_number   1
_chemical_formula_structural   Sm2Co12P7
_chemical_formula_sum   'Sm2 Co12 P7'
_cell_volume   258.39011670
_cell_formula_units_Z   1
loop_
 _symmetry_equiv_pos_site_id
 _symmetry_equiv_pos_as_xyz
  1  'x, y, z'
loop_
 _atom_site_type_symbol
 _atom_site_label
 _atom_site_symmetry_multiplicity
 _atom_site_fract_x
 _atom_site_fract_y
 _atom_site_fract_z
 _atom_site_occupancy
  Sm  Sm0  1  0.00000000  0.00000000  0.50000000  1
  Sm  Sm1  1  0.66666667  0.33333333  0.00000000  1
  Co  Co2  1  0.76611300  0.72524200  0.00000000  1
  Co  Co3  1  0.27475800  0.04087100  0.00000000  1
  Co  Co4  1  0.95912900  0.23388700  0.00000000  1
  Co  Co5  1  0.71515000  0.09976300  0.50000000  1
  Co  Co6  1  0.90023700  0.61538700  0.50000000  1
  Co  Co7  1  0.38461300  0.28485000  0.50000000  1
  Co  Co8  1  0.48491700  0.93759300  0.00000000  1
  Co  Co9  1  0.06240700  0.54732400  0.00000000  1
  Co  Co10  1  0.45267600  0.51508300  0.00000000  1
  Co  Co11  1  0.56555700  0.76946500  0.50000000  1
  Co  Co12  1  0.23053500  0.79609200  0.50000000  1
  Co  Co13  1  0.20390800  0.43444300  0.50000000  1
  P  P14  1  0.44100200  0.06578900  0.50000000  1
  P  P15  1  0.93421100  0.37521300  0.50000000  1
  P  P16  1  0.62478700  0.55899800  0.50000000  1
  P  P17  1  0.33333333  0.66666667  0.00000000  1
  P  P18  1  0.73666800  0.96050600  0.00000000  1
  P  P19  1  0.03949400  0.77616200  0.00000000  1
  P  P20  1  0.22383800  0.26333200  0.00000000  1
