# generated using pymatgen
data_Sr2SmNb(CuO4)2
_symmetry_space_group_name_H-M   'P 1'
_cell_length_a   5.52082400
_cell_length_b   5.52082400
_cell_length_c   23.66159400
_cell_angle_alpha   90.00000000
_cell_angle_beta   90.00000000
_cell_angle_gamma   90.00000000
_symmetry_Int_Tables_number   1
_chemical_formula_structural   Sr2SmNb(CuO4)2
_chemical_formula_sum   'Sr8 Sm4 Nb4 Cu8 O32'
_cell_volume   721.19349846
_cell_formula_units_Z   4
loop_
 _symmetry_equiv_pos_site_id
 _symmetry_equiv_pos_as_xyz
  1  'x, y, z'
loop_
 _atom_site_type_symbol
 _atom_site_label
 _atom_site_symmetry_multiplicity
 _atom_site_fract_x
 _atom_site_fract_y
 _atom_site_fract_z
 _atom_site_occupancy
  Sr  Sr0  1  0.00000000  0.50000000  0.09973500  1
  Sr  Sr1  1  0.50000000  0.00000000  0.40026500  1
  Sr  Sr2  1  0.50000000  0.00000000  0.09973500  1
  Sr  Sr3  1  0.00000000  0.50000000  0.40026500  1
  Sr  Sr4  1  0.50000000  0.00000000  0.59973500  1
  Sr  Sr5  1  0.00000000  0.50000000  0.90026500  1
  Sr  Sr6  1  0.00000000  0.50000000  0.59973500  1
  Sr  Sr7  1  0.50000000  0.00000000  0.90026500  1
  Sm  Sm8  1  0.50000000  0.00000000  0.25000000  1
  Sm  Sm9  1  0.00000000  0.50000000  0.25000000  1
  Sm  Sm10  1  0.00000000  0.50000000  0.75000000  1
  Sm  Sm11  1  0.50000000  0.00000000  0.75000000  1
  Nb  Nb12  1  0.50000000  0.50000000  0.00000000  1
  Nb  Nb13  1  0.00000000  0.00000000  0.00000000  1
  Nb  Nb14  1  0.00000000  0.00000000  0.50000000  1
  Nb  Nb15  1  0.50000000  0.50000000  0.50000000  1
  Cu  Cu16  1  0.50000000  0.50000000  0.17991000  1
  Cu  Cu17  1  0.50000000  0.50000000  0.32009000  1
  Cu  Cu18  1  0.00000000  0.00000000  0.32009000  1
  Cu  Cu19  1  0.00000000  0.00000000  0.17991000  1
  Cu  Cu20  1  0.00000000  0.00000000  0.67991000  1
  Cu  Cu21  1  0.00000000  0.00000000  0.82009000  1
  Cu  Cu22  1  0.50000000  0.50000000  0.82009000  1
  Cu  Cu23  1  0.50000000  0.50000000  0.67991000  1
  O  O24  1  0.81941400  0.68058600  0.00000000  1
  O  O25  1  0.31941400  0.81941400  0.00000000  1
  O  O26  1  0.18058600  0.68058600  0.50000000  1
  O  O27  1  0.18058600  0.31941400  0.00000000  1
  O  O28  1  0.74546950  0.75453050  0.18603350  1
  O  O29  1  0.75453050  0.74546950  0.31396650  1
  O  O30  1  0.24546950  0.25453050  0.31396650  1
  O  O31  1  0.74546950  0.24546950  0.31396650  1
  O  O32  1  0.25453050  0.75453050  0.31396650  1
  O  O33  1  0.24546950  0.74546950  0.18603350  1
  O  O34  1  0.75453050  0.25453050  0.18603350  1
  O  O35  1  0.25453050  0.24546950  0.18603350  1
  O  O36  1  0.00000000  0.00000000  0.08380500  1
  O  O37  1  0.00000000  0.00000000  0.41619500  1
  O  O38  1  0.50000000  0.50000000  0.41619500  1
  O  O39  1  0.50000000  0.50000000  0.08380500  1
  O  O40  1  0.31941400  0.18058600  0.50000000  1
  O  O41  1  0.81941400  0.31941400  0.50000000  1
  O  O42  1  0.68058600  0.18058600  0.00000000  1
  O  O43  1  0.68058600  0.81941400  0.50000000  1
  O  O44  1  0.24546950  0.25453050  0.68603350  1
  O  O45  1  0.25453050  0.24546950  0.81396650  1
  O  O46  1  0.74546950  0.75453050  0.81396650  1
  O  O47  1  0.24546950  0.74546950  0.81396650  1
  O  O48  1  0.75453050  0.25453050  0.81396650  1
  O  O49  1  0.74546950  0.24546950  0.68603350  1
  O  O50  1  0.25453050  0.75453050  0.68603350  1
  O  O51  1  0.75453050  0.74546950  0.68603350  1
  O  O52  1  0.50000000  0.50000000  0.58380500  1
  O  O53  1  0.50000000  0.50000000  0.91619500  1
  O  O54  1  0.00000000  0.00000000  0.91619500  1
  O  O55  1  0.00000000  0.00000000  0.58380500  1
