# generated using pymatgen
data_Cr2(SO4)3
_symmetry_space_group_name_H-M   'P 1'
_cell_length_a   8.28338756
_cell_length_b   8.28338756
_cell_length_c   22.40626373
_cell_angle_alpha   90.00000000
_cell_angle_beta   90.00000000
_cell_angle_gamma   120.00000000
_symmetry_Int_Tables_number   1
_chemical_formula_structural   Cr2(SO4)3
_chemical_formula_sum   'Cr12 S18 O72'
_cell_volume   1331.42294706
_cell_formula_units_Z   6
loop_
 _symmetry_equiv_pos_site_id
 _symmetry_equiv_pos_as_xyz
  1  'x, y, z'
loop_
 _atom_site_type_symbol
 _atom_site_label
 _atom_site_symmetry_multiplicity
 _atom_site_fract_x
 _atom_site_fract_y
 _atom_site_fract_z
 _atom_site_occupancy
  Cr  Cr0  1  0.33333333  0.66666667  0.01506167  1
  Cr  Cr1  1  0.66666667  0.33333333  0.18869633  1
  Cr  Cr2  1  0.33333333  0.66666667  0.31827167  1
  Cr  Cr3  1  0.00000000  0.00000000  0.14463700  1
  Cr  Cr4  1  0.00000000  0.00000000  0.34839500  1
  Cr  Cr5  1  0.33333333  0.66666667  0.52202967  1
  Cr  Cr6  1  0.00000000  0.00000000  0.65160500  1
  Cr  Cr7  1  0.66666667  0.33333333  0.47797033  1
  Cr  Cr8  1  0.66666667  0.33333333  0.68172833  1
  Cr  Cr9  1  0.00000000  0.00000000  0.85536300  1
  Cr  Cr10  1  0.66666667  0.33333333  0.98493833  1
  Cr  Cr11  1  0.33333333  0.66666667  0.81130367  1
  S  S12  1  0.66868267  0.62423233  0.08286533  1
  S  S13  1  0.95554967  0.33131733  0.08286533  1
  S  S14  1  0.37576767  0.04445033  0.08286533  1
  S  S15  1  0.99798400  0.70910100  0.25046800  1
  S  S16  1  0.71111700  0.00201600  0.25046800  1
  S  S17  1  0.29089900  0.28888300  0.25046800  1
  S  S18  1  0.33534933  0.95756567  0.41619867  1
  S  S19  1  0.62221633  0.66465067  0.41619867  1
  S  S20  1  0.04243433  0.37778367  0.41619867  1
  S  S21  1  0.66465067  0.04243433  0.58380133  1
  S  S22  1  0.37778367  0.33534933  0.58380133  1
  S  S23  1  0.95756567  0.62221633  0.58380133  1
  S  S24  1  0.00201600  0.29089900  0.74953200  1
  S  S25  1  0.28888300  0.99798400  0.74953200  1
  S  S26  1  0.70910100  0.71111700  0.74953200  1
  S  S27  1  0.33131733  0.37576767  0.91713467  1
  S  S28  1  0.04445033  0.66868267  0.91713467  1
  S  S29  1  0.62423233  0.95554967  0.91713467  1
  O  O30  1  0.25086333  0.43903467  0.26592567  1
  O  O31  1  0.18817133  0.74913667  0.26592567  1
  O  O32  1  0.56096533  0.81182867  0.26592567  1
  O  O33  1  0.41580333  0.89429867  0.06740767  1
  O  O34  1  0.47849533  0.58419667  0.06740767  1
  O  O35  1  0.10570133  0.52150467  0.06740767  1
  O  O36  1  0.49430367  0.36673733  0.24403633  1
  O  O37  1  0.87243367  0.50569633  0.24403633  1
  O  O38  1  0.63326267  0.12756633  0.24403633  1
  O  O39  1  0.17236300  0.96659600  0.08929700  1
  O  O40  1  0.03340400  0.20576700  0.08929700  1
  O  O41  1  0.79423300  0.82763700  0.08929700  1
  O  O42  1  0.87438900  0.34372300  0.14033600  1
  O  O43  1  0.65627700  0.53066600  0.14033600  1
  O  O44  1  0.46933400  0.12561100  0.14033600  1
  O  O45  1  0.79227767  0.98961033  0.19299733  1
  O  O46  1  0.01038967  0.80266733  0.19299733  1
  O  O47  1  0.19733267  0.20772233  0.19299733  1
  O  O48  1  0.81047200  0.25052500  0.03522800  1
  O  O49  1  0.74947500  0.55994700  0.03522800  1
  O  O50  1  0.44005300  0.18952800  0.03522800  1
  O  O51  1  0.85619467  0.08280833  0.29810533  1
  O  O52  1  0.91719167  0.77338633  0.29810533  1
  O  O53  1  0.22661367  0.14380533  0.29810533  1
  O  O54  1  0.91753000  0.77236800  0.59925900  1
  O  O55  1  0.85483800  0.08247000  0.59925900  1
  O  O56  1  0.22763200  0.14516200  0.59925900  1
  O  O57  1  0.08247000  0.22763200  0.40074100  1
  O  O58  1  0.14516200  0.91753000  0.40074100  1
  O  O59  1  0.77236800  0.85483800  0.40074100  1
  O  O60  1  0.16097033  0.70007067  0.57736967  1
  O  O61  1  0.53910033  0.83902967  0.57736967  1
  O  O62  1  0.29992933  0.46089967  0.57736967  1
  O  O63  1  0.83902967  0.29992933  0.42263033  1
  O  O64  1  0.70007067  0.53910033  0.42263033  1
  O  O65  1  0.46089967  0.16097033  0.42263033  1
  O  O66  1  0.54105567  0.67705633  0.47366933  1
  O  O67  1  0.32294367  0.86399933  0.47366933  1
  O  O68  1  0.13600067  0.45894433  0.47366933  1
  O  O69  1  0.45894433  0.32294367  0.52633067  1
  O  O70  1  0.67705633  0.13600067  0.52633067  1
  O  O71  1  0.86399933  0.54105567  0.52633067  1
  O  O72  1  0.47713867  0.58385833  0.36856133  1
  O  O73  1  0.41614167  0.89328033  0.36856133  1
  O  O74  1  0.10671967  0.52286133  0.36856133  1
  O  O75  1  0.52286133  0.41614167  0.63143867  1
  O  O76  1  0.58385833  0.10671967  0.63143867  1
  O  O77  1  0.89328033  0.47713867  0.63143867  1
  O  O78  1  0.58419667  0.10570133  0.93259233  1
  O  O79  1  0.52150467  0.41580333  0.93259233  1
  O  O80  1  0.89429867  0.47849533  0.93259233  1
  O  O81  1  0.74913667  0.56096533  0.73407433  1
  O  O82  1  0.81182867  0.25086333  0.73407433  1
  O  O83  1  0.43903467  0.18817133  0.73407433  1
  O  O84  1  0.82763700  0.03340400  0.91070300  1
  O  O85  1  0.20576700  0.17236300  0.91070300  1
  O  O86  1  0.96659600  0.79423300  0.91070300  1
  O  O87  1  0.50569633  0.63326267  0.75596367  1
  O  O88  1  0.36673733  0.87243367  0.75596367  1
  O  O89  1  0.12756633  0.49430367  0.75596367  1
  O  O90  1  0.20772233  0.01038967  0.80700267  1
  O  O91  1  0.98961033  0.19733267  0.80700267  1
  O  O92  1  0.80266733  0.79227767  0.80700267  1
  O  O93  1  0.12561100  0.65627700  0.85966400  1
  O  O94  1  0.34372300  0.46933400  0.85966400  1
  O  O95  1  0.53066600  0.87438900  0.85966400  1
  O  O96  1  0.14380533  0.91719167  0.70189467  1
  O  O97  1  0.08280833  0.22661367  0.70189467  1
  O  O98  1  0.77338633  0.85619467  0.70189467  1
  O  O99  1  0.18952800  0.74947500  0.96477200  1
  O  O100  1  0.25052500  0.44005300  0.96477200  1
  O  O101  1  0.55994700  0.81047200  0.96477200  1
