# generated using pymatgen
data_Ba2CuTeO6
_symmetry_space_group_name_H-M   'P 1'
_cell_length_a   5.64837000
_cell_length_b   5.64837000
_cell_length_c   8.92818200
_cell_angle_alpha   90.00000000
_cell_angle_beta   90.00000000
_cell_angle_gamma   90.00000000
_symmetry_Int_Tables_number   1
_chemical_formula_structural   Ba2CuTeO6
_chemical_formula_sum   'Ba4 Cu2 Te2 O12'
_cell_volume   284.84546543
_cell_formula_units_Z   2
loop_
 _symmetry_equiv_pos_site_id
 _symmetry_equiv_pos_as_xyz
  1  'x, y, z'
loop_
 _atom_site_type_symbol
 _atom_site_label
 _atom_site_symmetry_multiplicity
 _atom_site_fract_x
 _atom_site_fract_y
 _atom_site_fract_z
 _atom_site_occupancy
  Ba  Ba0  1  0.50000000  0.00000000  0.25000000  1
  Ba  Ba1  1  0.00000000  0.50000000  0.25000000  1
  Ba  Ba2  1  0.00000000  0.50000000  0.75000000  1
  Ba  Ba3  1  0.50000000  0.00000000  0.75000000  1
  Cu  Cu4  1  0.00000000  0.00000000  0.00000000  1
  Cu  Cu5  1  0.50000000  0.50000000  0.50000000  1
  Te  Te6  1  0.50000000  0.50000000  0.00000000  1
  Te  Te7  1  0.00000000  0.00000000  0.50000000  1
  O  O8  1  0.24210300  0.25906600  0.00000000  1
  O  O9  1  0.25906600  0.75789700  0.00000000  1
  O  O10  1  0.24093400  0.74210300  0.50000000  1
  O  O11  1  0.75789700  0.74093400  0.00000000  1
  O  O12  1  0.50000000  0.50000000  0.21738300  1
  O  O13  1  0.00000000  0.00000000  0.28261700  1
  O  O14  1  0.74210300  0.75906600  0.50000000  1
  O  O15  1  0.75906600  0.25789700  0.50000000  1
  O  O16  1  0.74093400  0.24210300  0.00000000  1
  O  O17  1  0.25789700  0.24093400  0.50000000  1
  O  O18  1  0.00000000  0.00000000  0.71738300  1
  O  O19  1  0.50000000  0.50000000  0.78261700  1
