# generated using pymatgen
data_SmAl4Ni
_symmetry_space_group_name_H-M   'P 1'
_cell_length_a   4.10044200
_cell_length_b   15.67555400
_cell_length_c   6.60899800
_cell_angle_alpha   90.00000000
_cell_angle_beta   90.00000000
_cell_angle_gamma   90.00000000
_symmetry_Int_Tables_number   1
_chemical_formula_structural   SmAl4Ni
_chemical_formula_sum   'Sm4 Al16 Ni4'
_cell_volume   424.80458171
_cell_formula_units_Z   4
loop_
 _symmetry_equiv_pos_site_id
 _symmetry_equiv_pos_as_xyz
  1  'x, y, z'
loop_
 _atom_site_type_symbol
 _atom_site_label
 _atom_site_symmetry_multiplicity
 _atom_site_fract_x
 _atom_site_fract_y
 _atom_site_fract_z
 _atom_site_occupancy
  Sm  Sm0  1  0.00000000  0.61472500  0.75000000  1
  Sm  Sm1  1  0.50000000  0.88527500  0.25000000  1
  Sm  Sm2  1  0.50000000  0.11472500  0.75000000  1
  Sm  Sm3  1  0.00000000  0.38527500  0.25000000  1
  Al  Al4  1  0.00000000  0.00000000  0.50000000  1
  Al  Al5  1  0.00000000  0.00000000  0.00000000  1
  Al  Al6  1  0.50000000  0.92185500  0.75000000  1
  Al  Al7  1  0.00000000  0.57814500  0.25000000  1
  Al  Al8  1  0.50000000  0.69031500  0.05283500  1
  Al  Al9  1  0.00000000  0.80968500  0.94716500  1
  Al  Al10  1  0.00000000  0.80968500  0.55283500  1
  Al  Al11  1  0.50000000  0.69031500  0.44716500  1
  Al  Al12  1  0.50000000  0.50000000  0.50000000  1
  Al  Al13  1  0.50000000  0.50000000  0.00000000  1
  Al  Al14  1  0.00000000  0.42185500  0.75000000  1
  Al  Al15  1  0.50000000  0.07814500  0.25000000  1
  Al  Al16  1  0.00000000  0.19031500  0.05283500  1
  Al  Al17  1  0.50000000  0.30968500  0.94716500  1
  Al  Al18  1  0.50000000  0.30968500  0.55283500  1
  Al  Al19  1  0.00000000  0.19031500  0.44716500  1
  Ni  Ni20  1  0.50000000  0.77452500  0.75000000  1
  Ni  Ni21  1  0.00000000  0.72547500  0.25000000  1
  Ni  Ni22  1  0.00000000  0.27452500  0.75000000  1
  Ni  Ni23  1  0.50000000  0.22547500  0.25000000  1
