# generated using pymatgen
data_PrAl7Au3
_symmetry_space_group_name_H-M   'P 1'
_cell_length_a   8.17427215
_cell_length_b   8.17427215
_cell_length_c   21.30088221
_cell_angle_alpha   90.00000000
_cell_angle_beta   90.00000000
_cell_angle_gamma   120.00000000
_symmetry_Int_Tables_number   1
_chemical_formula_structural   PrAl7Au3
_chemical_formula_sum   'Pr6 Al42 Au18'
_cell_volume   1232.61204860
_cell_formula_units_Z   6
loop_
 _symmetry_equiv_pos_site_id
 _symmetry_equiv_pos_as_xyz
  1  'x, y, z'
loop_
 _atom_site_type_symbol
 _atom_site_label
 _atom_site_symmetry_multiplicity
 _atom_site_fract_x
 _atom_site_fract_y
 _atom_site_fract_z
 _atom_site_occupancy
  Pr  Pr0  1  0.00000000  0.00000000  0.00000000  1
  Pr  Pr1  1  0.33333333  0.66666667  0.16666667  1
  Pr  Pr2  1  0.66666667  0.33333333  0.33333333  1
  Pr  Pr3  1  0.00000000  0.00000000  0.50000000  1
  Pr  Pr4  1  0.33333333  0.66666667  0.66666667  1
  Pr  Pr5  1  0.66666667  0.33333333  0.83333333  1
  Al  Al6  1  0.65610733  0.52825967  0.19664467  1
  Al  Al7  1  0.87215233  0.34389267  0.19664467  1
  Al  Al8  1  0.47174033  0.12784767  0.19664467  1
  Al  Al9  1  0.52825967  0.65610733  0.30335533  1
  Al  Al10  1  0.12784767  0.47174033  0.30335533  1
  Al  Al11  1  0.34389267  0.87215233  0.30335533  1
  Al  Al12  1  0.01055933  0.80507367  0.13668867  1
  Al  Al13  1  0.79451433  0.98944067  0.13668867  1
  Al  Al14  1  0.00000000  0.00000000  0.25000000  1
  Al  Al15  1  0.66666667  0.33333333  0.08333333  1
  Al  Al16  1  0.32277400  0.46118100  0.02997800  1
  Al  Al17  1  0.53881900  0.86159300  0.02997800  1
  Al  Al18  1  0.13840700  0.67722600  0.02997800  1
  Al  Al19  1  0.19492633  0.20548567  0.13668867  1
  Al  Al20  1  0.32277400  0.86159300  0.52997800  1
  Al  Al21  1  0.53881900  0.67722600  0.52997800  1
  Al  Al22  1  0.13840700  0.46118100  0.52997800  1
  Al  Al23  1  0.19492633  0.98944067  0.63668867  1
  Al  Al24  1  0.79451433  0.80507367  0.63668867  1
  Al  Al25  1  0.01055933  0.20548567  0.63668867  1
  Al  Al26  1  0.67722600  0.13840700  0.47002200  1
  Al  Al27  1  0.46118100  0.32277400  0.47002200  1
  Al  Al28  1  0.66666667  0.33333333  0.58333333  1
  Al  Al29  1  0.33333333  0.66666667  0.41666667  1
  Al  Al30  1  0.98944067  0.79451433  0.36331133  1
  Al  Al31  1  0.20548567  0.19492633  0.36331133  1
  Al  Al32  1  0.80507367  0.01055933  0.36331133  1
  Al  Al33  1  0.86159300  0.53881900  0.47002200  1
  Al  Al34  1  0.98944067  0.19492633  0.86331133  1
  Al  Al35  1  0.20548567  0.01055933  0.86331133  1
  Al  Al36  1  0.80507367  0.79451433  0.86331133  1
  Al  Al37  1  0.86159300  0.32277400  0.97002200  1
  Al  Al38  1  0.46118100  0.13840700  0.97002200  1
  Al  Al39  1  0.67722600  0.53881900  0.97002200  1
  Al  Al40  1  0.34389267  0.47174033  0.80335533  1
  Al  Al41  1  0.12784767  0.65610733  0.80335533  1
  Al  Al42  1  0.33333333  0.66666667  0.91666667  1
  Al  Al43  1  0.00000000  0.00000000  0.75000000  1
  Al  Al44  1  0.65610733  0.12784767  0.69664467  1
  Al  Al45  1  0.87215233  0.52825967  0.69664467  1
  Al  Al46  1  0.47174033  0.34389267  0.69664467  1
  Al  Al47  1  0.52825967  0.87215233  0.80335533  1
  Au  Au48  1  0.34616867  0.01283533  0.08333333  1
  Au  Au49  1  0.66666667  0.65383133  0.08333333  1
  Au  Au50  1  0.98716467  0.33333333  0.08333333  1
  Au  Au51  1  0.32049800  0.32049800  0.25000000  1
  Au  Au52  1  0.00000000  0.67950200  0.25000000  1
  Au  Au53  1  0.67950200  1.00000000  0.25000000  1
  Au  Au54  1  0.01283533  0.34616867  0.41666667  1
  Au  Au55  1  0.33333333  0.98716467  0.41666667  1
  Au  Au56  1  0.65383133  0.66666667  0.41666667  1
  Au  Au57  1  0.98716467  0.65383133  0.58333333  1
  Au  Au58  1  0.66666667  0.01283533  0.58333333  1
  Au  Au59  1  0.34616867  0.33333333  0.58333333  1
  Au  Au60  1  0.67950200  0.67950200  0.75000000  1
  Au  Au61  1  0.00000000  0.32049800  0.75000000  1
  Au  Au62  1  0.32049800  0.00000000  0.75000000  1
  Au  Au63  1  0.65383133  0.98716467  0.91666667  1
  Au  Au64  1  0.33333333  0.34616867  0.91666667  1
  Au  Au65  1  0.01283533  0.66666667  0.91666667  1
