# generated using pymatgen
data_EuGe3Pt
_symmetry_space_group_name_H-M   'P 1'
_cell_length_a   4.50318400
_cell_length_b   4.50318400
_cell_length_c   10.16197800
_cell_angle_alpha   90.00000000
_cell_angle_beta   90.00000000
_cell_angle_gamma   90.00000000
_symmetry_Int_Tables_number   1
_chemical_formula_structural   EuGe3Pt
_chemical_formula_sum   'Eu2 Ge6 Pt2'
_cell_volume   206.07135916
_cell_formula_units_Z   2
loop_
 _symmetry_equiv_pos_site_id
 _symmetry_equiv_pos_as_xyz
  1  'x, y, z'
loop_
 _atom_site_type_symbol
 _atom_site_label
 _atom_site_symmetry_multiplicity
 _atom_site_fract_x
 _atom_site_fract_y
 _atom_site_fract_z
 _atom_site_occupancy
  Eu  Eu0  1  0.50000000  0.50000000  0.49886900  1
  Eu  Eu1  1  0.00000000  0.00000000  0.99886900  1
  Ge  Ge2  1  0.50000000  0.00000000  0.25720500  1
  Ge  Ge3  1  0.00000000  0.50000000  0.25720500  1
  Ge  Ge4  1  0.00000000  0.00000000  0.40509700  1
  Ge  Ge5  1  0.00000000  0.50000000  0.75720500  1
  Ge  Ge6  1  0.50000000  0.00000000  0.75720500  1
  Ge  Ge7  1  0.50000000  0.50000000  0.90509700  1
  Pt  Pt8  1  0.50000000  0.50000000  0.14739400  1
  Pt  Pt9  1  0.00000000  0.00000000  0.64739400  1
