# generated using pymatgen
data_U(BRu)4
_symmetry_space_group_name_H-M   'P 1'
_cell_length_a   7.47623400
_cell_length_b   7.47623400
_cell_length_c   15.04952600
_cell_angle_alpha   90.00000000
_cell_angle_beta   90.00000000
_cell_angle_gamma   90.00000000
_symmetry_Int_Tables_number   1
_chemical_formula_structural   U(BRu)4
_chemical_formula_sum   'U8 B32 Ru32'
_cell_volume   841.17933229
_cell_formula_units_Z   8
loop_
 _symmetry_equiv_pos_site_id
 _symmetry_equiv_pos_as_xyz
  1  'x, y, z'
loop_
 _atom_site_type_symbol
 _atom_site_label
 _atom_site_symmetry_multiplicity
 _atom_site_fract_x
 _atom_site_fract_y
 _atom_site_fract_z
 _atom_site_occupancy
  U  U0  1  0.00000000  0.00000000  0.25000000  1
  U  U1  1  0.50000000  0.50000000  0.25000000  1
  U  U2  1  0.00000000  0.50000000  0.00000000  1
  U  U3  1  0.50000000  0.00000000  0.00000000  1
  U  U4  1  0.50000000  0.50000000  0.75000000  1
  U  U5  1  0.00000000  0.00000000  0.75000000  1
  U  U6  1  0.50000000  0.00000000  0.50000000  1
  U  U7  1  0.00000000  0.50000000  0.50000000  1
  B  B8  1  0.83046550  0.14073350  0.08264750  1
  B  B9  1  0.66953450  0.64073350  0.08264750  1
  B  B10  1  0.64073350  0.83046550  0.33264750  1
  B  B11  1  0.85926650  0.33046550  0.33264750  1
  B  B12  1  0.16953450  0.35926650  0.16735250  1
  B  B13  1  0.33046550  0.85926650  0.16735250  1
  B  B14  1  0.85926650  0.16953450  0.41735250  1
  B  B15  1  0.64073350  0.66953450  0.41735250  1
  B  B16  1  0.33046550  0.35926650  0.08264750  1
  B  B17  1  0.16953450  0.85926650  0.08264750  1
  B  B18  1  0.14073350  0.66953450  0.33264750  1
  B  B19  1  0.35926650  0.16953450  0.33264750  1
  B  B20  1  0.66953450  0.14073350  0.16735250  1
  B  B21  1  0.83046550  0.64073350  0.16735250  1
  B  B22  1  0.35926650  0.33046550  0.41735250  1
  B  B23  1  0.14073350  0.83046550  0.41735250  1
  B  B24  1  0.33046550  0.64073350  0.58264750  1
  B  B25  1  0.16953450  0.14073350  0.58264750  1
  B  B26  1  0.14073350  0.33046550  0.83264750  1
  B  B27  1  0.35926650  0.83046550  0.83264750  1
  B  B28  1  0.66953450  0.85926650  0.66735250  1
  B  B29  1  0.83046550  0.35926650  0.66735250  1
  B  B30  1  0.35926650  0.66953450  0.91735250  1
  B  B31  1  0.14073350  0.16953450  0.91735250  1
  B  B32  1  0.83046550  0.85926650  0.58264750  1
  B  B33  1  0.66953450  0.35926650  0.58264750  1
  B  B34  1  0.64073350  0.16953450  0.83264750  1
  B  B35  1  0.85926650  0.66953450  0.83264750  1
  B  B36  1  0.16953450  0.64073350  0.66735250  1
  B  B37  1  0.33046550  0.14073350  0.66735250  1
  B  B38  1  0.85926650  0.83046550  0.91735250  1
  B  B39  1  0.64073350  0.33046550  0.91735250  1
  Ru  Ru40  1  0.88624800  0.34709500  0.18791600  1
  Ru  Ru41  1  0.61375200  0.84709500  0.18791600  1
  Ru  Ru42  1  0.84709500  0.88624800  0.43791600  1
  Ru  Ru43  1  0.65290500  0.38624800  0.43791600  1
  Ru  Ru44  1  0.11375200  0.15290500  0.06208400  1
  Ru  Ru45  1  0.38624800  0.65290500  0.06208400  1
  Ru  Ru46  1  0.65290500  0.11375200  0.31208400  1
  Ru  Ru47  1  0.84709500  0.61375200  0.31208400  1
  Ru  Ru48  1  0.38624800  0.15290500  0.18791600  1
  Ru  Ru49  1  0.11375200  0.65290500  0.18791600  1
  Ru  Ru50  1  0.34709500  0.61375200  0.43791600  1
  Ru  Ru51  1  0.15290500  0.11375200  0.43791600  1
  Ru  Ru52  1  0.61375200  0.34709500  0.06208400  1
  Ru  Ru53  1  0.88624800  0.84709500  0.06208400  1
  Ru  Ru54  1  0.15290500  0.38624800  0.31208400  1
  Ru  Ru55  1  0.34709500  0.88624800  0.31208400  1
  Ru  Ru56  1  0.38624800  0.84709500  0.68791600  1
  Ru  Ru57  1  0.11375200  0.34709500  0.68791600  1
  Ru  Ru58  1  0.34709500  0.38624800  0.93791600  1
  Ru  Ru59  1  0.15290500  0.88624800  0.93791600  1
  Ru  Ru60  1  0.61375200  0.65290500  0.56208400  1
  Ru  Ru61  1  0.88624800  0.15290500  0.56208400  1
  Ru  Ru62  1  0.15290500  0.61375200  0.81208400  1
  Ru  Ru63  1  0.34709500  0.11375200  0.81208400  1
  Ru  Ru64  1  0.88624800  0.65290500  0.68791600  1
  Ru  Ru65  1  0.61375200  0.15290500  0.68791600  1
  Ru  Ru66  1  0.84709500  0.11375200  0.93791600  1
  Ru  Ru67  1  0.65290500  0.61375200  0.93791600  1
  Ru  Ru68  1  0.11375200  0.84709500  0.56208400  1
  Ru  Ru69  1  0.38624800  0.34709500  0.56208400  1
  Ru  Ru70  1  0.65290500  0.88624800  0.81208400  1
  Ru  Ru71  1  0.84709500  0.38624800  0.81208400  1
