# generated using pymatgen
data_Yb4Al23Ni6
_symmetry_space_group_name_H-M   'P 1'
_cell_length_a   15.98301000
_cell_length_b   4.07833400
_cell_length_c   18.28048977
_cell_angle_alpha   90.00000000
_cell_angle_beta   112.62904109
_cell_angle_gamma   90.00000000
_symmetry_Int_Tables_number   1
_chemical_formula_structural   Yb4Al23Ni6
_chemical_formula_sum   'Yb8 Al46 Ni12'
_cell_volume   1099.86173970
_cell_formula_units_Z   2
loop_
 _symmetry_equiv_pos_site_id
 _symmetry_equiv_pos_as_xyz
  1  'x, y, z'
loop_
 _atom_site_type_symbol
 _atom_site_label
 _atom_site_symmetry_multiplicity
 _atom_site_fract_x
 _atom_site_fract_y
 _atom_site_fract_z
 _atom_site_occupancy
  Yb  Yb0  1  0.23840400  0.50000000  0.78446600  1
  Yb  Yb1  1  0.07880200  0.50000000  0.40675500  1
  Yb  Yb2  1  0.92119800  0.50000000  0.59324500  1
  Yb  Yb3  1  0.76159600  0.50000000  0.21553400  1
  Yb  Yb4  1  0.73840400  0.00000000  0.78446600  1
  Yb  Yb5  1  0.57880200  0.00000000  0.40675500  1
  Yb  Yb6  1  0.42119800  0.00000000  0.59324500  1
  Yb  Yb7  1  0.26159600  0.00000000  0.21553400  1
  Al  Al8  1  0.00000000  0.00000000  0.50000000  1
  Al  Al9  1  0.85543500  0.00000000  0.14250200  1
  Al  Al10  1  0.91931500  0.00000000  0.31274500  1
  Al  Al11  1  0.08068500  0.00000000  0.68725500  1
  Al  Al12  1  0.41005200  0.50000000  0.95080500  1
  Al  Al13  1  0.58994800  0.50000000  0.04919500  1
  Al  Al14  1  0.90818900  0.00000000  0.72181000  1
  Al  Al15  1  0.09181100  0.00000000  0.27819000  1
  Al  Al16  1  0.79776500  0.00000000  0.47851100  1
  Al  Al17  1  0.20223500  0.00000000  0.52148900  1
  Al  Al18  1  0.14456500  0.00000000  0.85749800  1
  Al  Al19  1  0.60887900  0.00000000  0.16196900  1
  Al  Al20  1  0.24485200  0.50000000  0.95363000  1
  Al  Al21  1  0.75514800  0.50000000  0.04637000  1
  Al  Al22  1  0.39112100  0.00000000  0.83803100  1
  Al  Al23  1  0.96748300  0.50000000  0.21883900  1
  Al  Al24  1  0.72824400  0.00000000  0.32346800  1
  Al  Al25  1  0.27175600  0.00000000  0.67653200  1
  Al  Al26  1  0.12153700  0.50000000  0.59569100  1
  Al  Al27  1  0.87846300  0.50000000  0.40430900  1
  Al  Al28  1  0.06848500  0.50000000  0.93915300  1
  Al  Al29  1  0.93151500  0.50000000  0.06084700  1
  Al  Al30  1  0.03251700  0.50000000  0.78116100  1
  Al  Al31  1  0.50000000  0.50000000  0.50000000  1
  Al  Al32  1  0.35543500  0.50000000  0.14250200  1
  Al  Al33  1  0.41931500  0.50000000  0.31274500  1
  Al  Al34  1  0.58068500  0.50000000  0.68725500  1
  Al  Al35  1  0.91005200  0.00000000  0.95080500  1
  Al  Al36  1  0.08994800  0.00000000  0.04919500  1
  Al  Al37  1  0.40818900  0.50000000  0.72181000  1
  Al  Al38  1  0.59181100  0.50000000  0.27819000  1
  Al  Al39  1  0.29776500  0.50000000  0.47851100  1
  Al  Al40  1  0.70223500  0.50000000  0.52148900  1
  Al  Al41  1  0.64456500  0.50000000  0.85749800  1
  Al  Al42  1  0.10887900  0.50000000  0.16196900  1
  Al  Al43  1  0.74485200  0.00000000  0.95363000  1
  Al  Al44  1  0.25514800  0.00000000  0.04637000  1
  Al  Al45  1  0.89112100  0.50000000  0.83803100  1
  Al  Al46  1  0.46748300  0.00000000  0.21883900  1
  Al  Al47  1  0.22824400  0.50000000  0.32346800  1
  Al  Al48  1  0.77175600  0.50000000  0.67653200  1
  Al  Al49  1  0.62153700  0.00000000  0.59569100  1
  Al  Al50  1  0.37846300  0.00000000  0.40430900  1
  Al  Al51  1  0.56848500  0.00000000  0.93915300  1
  Al  Al52  1  0.43151500  0.00000000  0.06084700  1
  Al  Al53  1  0.53251700  0.00000000  0.78116100  1
  Ni  Ni54  1  0.99325300  0.00000000  0.86582600  1
  Ni  Ni55  1  0.00674700  0.00000000  0.13417400  1
  Ni  Ni56  1  0.27280500  0.50000000  0.60250000  1
  Ni  Ni57  1  0.68937200  0.00000000  0.06709800  1
  Ni  Ni58  1  0.72719500  0.50000000  0.39750000  1
  Ni  Ni59  1  0.31062800  0.00000000  0.93290200  1
  Ni  Ni60  1  0.49325300  0.50000000  0.86582600  1
  Ni  Ni61  1  0.50674700  0.50000000  0.13417400  1
  Ni  Ni62  1  0.77280500  0.00000000  0.60250000  1
  Ni  Ni63  1  0.18937200  0.50000000  0.06709800  1
  Ni  Ni64  1  0.22719500  0.00000000  0.39750000  1
  Ni  Ni65  1  0.81062800  0.50000000  0.93290200  1
