# generated using pymatgen
data_DyAl7Au3
_symmetry_space_group_name_H-M   'P 1'
_cell_length_a   8.10044124
_cell_length_b   8.10044124
_cell_length_c   21.14310674
_cell_angle_alpha   90.00000000
_cell_angle_beta   90.00000000
_cell_angle_gamma   120.00000000
_symmetry_Int_Tables_number   1
_chemical_formula_structural   DyAl7Au3
_chemical_formula_sum   'Dy6 Al42 Au18'
_cell_volume   1201.48066419
_cell_formula_units_Z   6
loop_
 _symmetry_equiv_pos_site_id
 _symmetry_equiv_pos_as_xyz
  1  'x, y, z'
loop_
 _atom_site_type_symbol
 _atom_site_label
 _atom_site_symmetry_multiplicity
 _atom_site_fract_x
 _atom_site_fract_y
 _atom_site_fract_z
 _atom_site_occupancy
  Dy  Dy0  1  0.33333333  0.66666667  0.16666667  1
  Dy  Dy1  1  0.00000000  0.00000000  0.00000000  1
  Dy  Dy2  1  1.00000000  0.00000000  0.50000000  1
  Dy  Dy3  1  0.66666667  0.33333333  0.33333333  1
  Dy  Dy4  1  0.66666667  0.33333333  0.83333333  1
  Dy  Dy5  1  0.33333333  0.66666667  0.66666667  1
  Al  Al6  1  0.34383000  0.87317100  0.30341900  1
  Al  Al7  1  0.12682900  0.47065900  0.30341900  1
  Al  Al8  1  0.52934100  0.65617000  0.30341900  1
  Al  Al9  1  0.47065900  0.12682900  0.19658100  1
  Al  Al10  1  0.87317100  0.34383000  0.19658100  1
  Al  Al11  1  0.65617000  0.52934100  0.19658100  1
  Al  Al12  1  0.32283667  0.46016233  0.02991433  1
  Al  Al13  1  0.53983767  0.86267433  0.02991433  1
  Al  Al14  1  0.00000000  0.00000000  0.25000000  1
  Al  Al15  1  0.66666667  0.33333333  0.08333333  1
  Al  Al16  1  0.01049667  0.80399233  0.13675233  1
  Al  Al17  1  0.79349567  0.98950333  0.13675233  1
  Al  Al18  1  0.19600767  0.20650433  0.13675233  1
  Al  Al19  1  0.13732567  0.67716333  0.02991433  1
  Al  Al20  1  0.01049667  0.20650433  0.63675233  1
  Al  Al21  1  0.79349567  0.80399233  0.63675233  1
  Al  Al22  1  0.19600767  0.98950333  0.63675233  1
  Al  Al23  1  0.13732567  0.46016233  0.52991433  1
  Al  Al24  1  0.53983767  0.67716333  0.52991433  1
  Al  Al25  1  0.32283667  0.86267433  0.52991433  1
  Al  Al26  1  0.98950333  0.79349567  0.36324767  1
  Al  Al27  1  0.20650433  0.19600767  0.36324767  1
  Al  Al28  1  0.66666667  0.33333333  0.58333333  1
  Al  Al29  1  0.33333333  0.66666667  0.41666667  1
  Al  Al30  1  0.67716333  0.13732567  0.47008567  1
  Al  Al31  1  0.46016233  0.32283667  0.47008567  1
  Al  Al32  1  0.86267433  0.53983767  0.47008567  1
  Al  Al33  1  0.80399233  0.01049667  0.36324767  1
  Al  Al34  1  0.67716333  0.53983767  0.97008567  1
  Al  Al35  1  0.46016233  0.13732567  0.97008567  1
  Al  Al36  1  0.86267433  0.32283667  0.97008567  1
  Al  Al37  1  0.80399233  0.79349567  0.86324767  1
  Al  Al38  1  0.20650433  0.01049667  0.86324767  1
  Al  Al39  1  0.98950333  0.19600767  0.86324767  1
  Al  Al40  1  0.65617000  0.12682900  0.69658100  1
  Al  Al41  1  0.87317100  0.52934100  0.69658100  1
  Al  Al42  1  0.33333333  0.66666667  0.91666667  1
  Al  Al43  1  0.00000000  0.00000000  0.75000000  1
  Al  Al44  1  0.34383000  0.47065900  0.80341900  1
  Al  Al45  1  0.12682900  0.65617000  0.80341900  1
  Al  Al46  1  0.52934100  0.87317100  0.80341900  1
  Al  Al47  1  0.47065900  0.34383000  0.69658100  1
  Au  Au48  1  0.99046967  0.33333333  0.08333333  1
  Au  Au49  1  0.66666667  0.65713633  0.08333333  1
  Au  Au50  1  0.34286367  0.00953033  0.08333333  1
  Au  Au51  1  0.67619700  0.00000000  0.25000000  1
  Au  Au52  1  0.00000000  0.67619700  0.25000000  1
  Au  Au53  1  0.32380300  0.32380300  0.25000000  1
  Au  Au54  1  0.65713633  0.66666667  0.41666667  1
  Au  Au55  1  0.33333333  0.99046967  0.41666667  1
  Au  Au56  1  0.00953033  0.34286367  0.41666667  1
  Au  Au57  1  0.34286367  0.33333333  0.58333333  1
  Au  Au58  1  0.66666667  0.00953033  0.58333333  1
  Au  Au59  1  0.99046967  0.65713633  0.58333333  1
  Au  Au60  1  0.32380300  0.00000000  0.75000000  1
  Au  Au61  1  0.00000000  0.32380300  0.75000000  1
  Au  Au62  1  0.67619700  0.67619700  0.75000000  1
  Au  Au63  1  0.00953033  0.66666667  0.91666667  1
  Au  Au64  1  0.33333333  0.34286367  0.91666667  1
  Au  Au65  1  0.65713633  0.99046967  0.91666667  1
