# generated using pymatgen
data_Sr3CdIrO6
_symmetry_space_group_name_H-M   'P 1'
_cell_length_a   9.71072292
_cell_length_b   9.71072292
_cell_length_c   11.87842994
_cell_angle_alpha   90.00000000
_cell_angle_beta   90.00000000
_cell_angle_gamma   120.00000000
_symmetry_Int_Tables_number   1
_chemical_formula_structural   Sr3CdIrO6
_chemical_formula_sum   'Sr18 Cd6 Ir6 O36'
_cell_volume   970.04704437
_cell_formula_units_Z   6
loop_
 _symmetry_equiv_pos_site_id
 _symmetry_equiv_pos_as_xyz
  1  'x, y, z'
loop_
 _atom_site_type_symbol
 _atom_site_label
 _atom_site_symmetry_multiplicity
 _atom_site_fract_x
 _atom_site_fract_y
 _atom_site_fract_z
 _atom_site_occupancy
  Sr  Sr0  1  0.97152233  0.66666667  0.41666667  1
  Sr  Sr1  1  0.33333333  0.30485567  0.41666667  1
  Sr  Sr2  1  0.02847767  0.33333333  0.58333333  1
  Sr  Sr3  1  0.69514433  0.02847767  0.41666667  1
  Sr  Sr4  1  0.30485567  0.97152233  0.58333333  1
  Sr  Sr5  1  0.66666667  0.69514433  0.58333333  1
  Sr  Sr6  1  0.63818900  0.00000000  0.75000000  1
  Sr  Sr7  1  0.00000000  0.63818900  0.75000000  1
  Sr  Sr8  1  0.69514433  0.66666667  0.91666667  1
  Sr  Sr9  1  0.36181100  0.36181100  0.75000000  1
  Sr  Sr10  1  0.97152233  0.30485567  0.91666667  1
  Sr  Sr11  1  0.33333333  0.02847767  0.91666667  1
  Sr  Sr12  1  0.30485567  0.33333333  0.08333333  1
  Sr  Sr13  1  0.66666667  0.97152233  0.08333333  1
  Sr  Sr14  1  0.36181100  0.00000000  0.25000000  1
  Sr  Sr15  1  0.02847767  0.69514433  0.08333333  1
  Sr  Sr16  1  0.63818900  0.63818900  0.25000000  1
  Sr  Sr17  1  0.00000000  0.36181100  0.25000000  1
  Cd  Cd18  1  0.00000000  0.00000000  0.25000000  1
  Cd  Cd19  1  0.00000000  0.00000000  0.75000000  1
  Cd  Cd20  1  0.66666667  0.33333333  0.58333333  1
  Cd  Cd21  1  0.66666667  0.33333333  0.08333333  1
  Cd  Cd22  1  0.33333333  0.66666667  0.91666667  1
  Cd  Cd23  1  0.33333333  0.66666667  0.41666667  1
  Ir  Ir24  1  0.00000000  0.00000000  0.50000000  1
  Ir  Ir25  1  0.00000000  0.00000000  0.00000000  1
  Ir  Ir26  1  0.66666667  0.33333333  0.83333333  1
  Ir  Ir27  1  0.66666667  0.33333333  0.33333333  1
  Ir  Ir28  1  0.33333333  0.66666667  0.16666667  1
  Ir  Ir29  1  0.33333333  0.66666667  0.66666667  1
  O  O30  1  0.84439467  0.35451433  0.43812233  1
  O  O31  1  0.64548567  0.48988033  0.43812233  1
  O  O32  1  0.51011967  0.15560533  0.43812233  1
  O  O33  1  0.15654700  0.97881900  0.39521100  1
  O  O34  1  0.02118100  0.17772800  0.39521100  1
  O  O35  1  0.82227200  0.84345300  0.39521100  1
  O  O36  1  0.15560533  0.64548567  0.56187767  1
  O  O37  1  0.35451433  0.51011967  0.56187767  1
  O  O38  1  0.48988033  0.84439467  0.56187767  1
  O  O39  1  0.84345300  0.02118100  0.60478900  1
  O  O40  1  0.17772800  0.15654700  0.60478900  1
  O  O41  1  0.97881900  0.82227200  0.60478900  1
  O  O42  1  0.51106133  0.68784767  0.77145567  1
  O  O43  1  0.31215233  0.82321367  0.77145567  1
  O  O44  1  0.17678633  0.48893867  0.77145567  1
  O  O45  1  0.82321367  0.31215233  0.72854433  1
  O  O46  1  0.68784767  0.51106133  0.72854433  1
  O  O47  1  0.48893867  0.17678633  0.72854433  1
  O  O48  1  0.82227200  0.97881900  0.89521100  1
  O  O49  1  0.02118100  0.84345300  0.89521100  1
  O  O50  1  0.15654700  0.17772800  0.89521100  1
  O  O51  1  0.51011967  0.35451433  0.93812233  1
  O  O52  1  0.84439467  0.48988033  0.93812233  1
  O  O53  1  0.64548567  0.15560533  0.93812233  1
  O  O54  1  0.17772800  0.02118100  0.10478900  1
  O  O55  1  0.97881900  0.15654700  0.10478900  1
  O  O56  1  0.84345300  0.82227200  0.10478900  1
  O  O57  1  0.48988033  0.64548567  0.06187767  1
  O  O58  1  0.35451433  0.84439467  0.06187767  1
  O  O59  1  0.15560533  0.51011967  0.06187767  1
  O  O60  1  0.48893867  0.31215233  0.22854433  1
  O  O61  1  0.68784767  0.17678633  0.22854433  1
  O  O62  1  0.82321367  0.51106133  0.22854433  1
  O  O63  1  0.17678633  0.68784767  0.27145567  1
  O  O64  1  0.51106133  0.82321367  0.27145567  1
  O  O65  1  0.31215233  0.48893867  0.27145567  1
