# generated using pymatgen
data_HoGe2Ir
_symmetry_space_group_name_H-M   'P 1'
_cell_length_a   4.26397200
_cell_length_b   8.90516400
_cell_length_c   16.15902600
_cell_angle_alpha   90.00000000
_cell_angle_beta   90.00000000
_cell_angle_gamma   90.00000000
_symmetry_Int_Tables_number   1
_chemical_formula_structural   HoGe2Ir
_chemical_formula_sum   'Ho8 Ge16 Ir8'
_cell_volume   613.58035430
_cell_formula_units_Z   8
loop_
 _symmetry_equiv_pos_site_id
 _symmetry_equiv_pos_as_xyz
  1  'x, y, z'
loop_
 _atom_site_type_symbol
 _atom_site_label
 _atom_site_symmetry_multiplicity
 _atom_site_fract_x
 _atom_site_fract_y
 _atom_site_fract_z
 _atom_site_occupancy
  Ho  Ho0  1  0.50000000  0.00000000  0.70486900  1
  Ho  Ho1  1  0.00000000  0.26268000  0.00000000  1
  Ho  Ho2  1  0.00000000  0.50000000  0.79513100  1
  Ho  Ho3  1  0.00000000  0.73732000  0.00000000  1
  Ho  Ho4  1  0.00000000  0.50000000  0.20486900  1
  Ho  Ho5  1  0.50000000  0.76268000  0.50000000  1
  Ho  Ho6  1  0.50000000  0.00000000  0.29513100  1
  Ho  Ho7  1  0.50000000  0.23732000  0.50000000  1
  Ge  Ge8  1  0.50000000  0.34743750  0.70143050  1
  Ge  Ge9  1  0.00000000  0.15256250  0.79856950  1
  Ge  Ge10  1  0.00000000  0.84743750  0.79856950  1
  Ge  Ge11  1  0.50000000  0.65256250  0.70143050  1
  Ge  Ge12  1  0.00000000  0.00000000  0.57670700  1
  Ge  Ge13  1  0.50000000  0.00000000  0.92224300  1
  Ge  Ge14  1  0.00000000  0.50000000  0.57775700  1
  Ge  Ge15  1  0.50000000  0.50000000  0.92329300  1
  Ge  Ge16  1  0.00000000  0.84743750  0.20143050  1
  Ge  Ge17  1  0.50000000  0.65256250  0.29856950  1
  Ge  Ge18  1  0.50000000  0.34743750  0.29856950  1
  Ge  Ge19  1  0.00000000  0.15256250  0.20143050  1
  Ge  Ge20  1  0.50000000  0.50000000  0.07670700  1
  Ge  Ge21  1  0.00000000  0.50000000  0.42224300  1
  Ge  Ge22  1  0.50000000  0.00000000  0.07775700  1
  Ge  Ge23  1  0.00000000  0.00000000  0.42329300  1
  Ir  Ir24  1  0.50000000  0.75055250  0.85485550  1
  Ir  Ir25  1  0.00000000  0.74944750  0.64514450  1
  Ir  Ir26  1  0.00000000  0.25055250  0.64514450  1
  Ir  Ir27  1  0.50000000  0.24944750  0.85485550  1
  Ir  Ir28  1  0.00000000  0.25055250  0.35485550  1
  Ir  Ir29  1  0.50000000  0.24944750  0.14514450  1
  Ir  Ir30  1  0.50000000  0.75055250  0.14514450  1
  Ir  Ir31  1  0.00000000  0.74944750  0.35485550  1
