# generated using pymatgen
data_PrPt
_symmetry_space_group_name_H-M   'P 1'
_cell_length_a   3.95993400
_cell_length_b   10.99191000
_cell_length_c   4.59203800
_cell_angle_alpha   90.00000000
_cell_angle_beta   90.00000000
_cell_angle_gamma   90.00000000
_symmetry_Int_Tables_number   1
_chemical_formula_structural   PrPt
_chemical_formula_sum   'Pr4 Pt4'
_cell_volume   199.87873155
_cell_formula_units_Z   4
loop_
 _symmetry_equiv_pos_site_id
 _symmetry_equiv_pos_as_xyz
  1  'x, y, z'
loop_
 _atom_site_type_symbol
 _atom_site_label
 _atom_site_symmetry_multiplicity
 _atom_site_fract_x
 _atom_site_fract_y
 _atom_site_fract_z
 _atom_site_occupancy
  Pr  Pr0  1  0.50000000  0.63721500  0.25000000  1
  Pr  Pr1  1  0.00000000  0.86278500  0.75000000  1
  Pr  Pr2  1  0.00000000  0.13721500  0.25000000  1
  Pr  Pr3  1  0.50000000  0.36278500  0.75000000  1
  Pt  Pt4  1  0.50000000  0.91228400  0.25000000  1
  Pt  Pt5  1  0.00000000  0.58771600  0.75000000  1
  Pt  Pt6  1  0.00000000  0.41228400  0.25000000  1
  Pt  Pt7  1  0.50000000  0.08771600  0.75000000  1
