# generated using pymatgen
data_Yb4Sb3
_symmetry_space_group_name_H-M   'P 1'
_cell_length_a   9.44913000
_cell_length_b   9.44913000
_cell_length_c   9.44913000
_cell_angle_alpha   90.00000000
_cell_angle_beta   90.00000000
_cell_angle_gamma   90.00000000
_symmetry_Int_Tables_number   1
_chemical_formula_structural   Yb4Sb3
_chemical_formula_sum   'Yb16 Sb12'
_cell_volume   843.67556693
_cell_formula_units_Z   4
loop_
 _symmetry_equiv_pos_site_id
 _symmetry_equiv_pos_as_xyz
  1  'x, y, z'
loop_
 _atom_site_type_symbol
 _atom_site_label
 _atom_site_symmetry_multiplicity
 _atom_site_fract_x
 _atom_site_fract_y
 _atom_site_fract_z
 _atom_site_occupancy
  Yb  Yb0  1  0.92502000  0.42502000  0.07498000  1
  Yb  Yb1  1  0.32498000  0.32498000  0.32498000  1
  Yb  Yb2  1  0.42502000  0.07498000  0.92502000  1
  Yb  Yb3  1  0.07498000  0.92502000  0.42502000  1
  Yb  Yb4  1  0.67502000  0.82498000  0.17502000  1
  Yb  Yb5  1  0.82498000  0.17502000  0.67502000  1
  Yb  Yb6  1  0.17502000  0.67502000  0.82498000  1
  Yb  Yb7  1  0.07498000  0.07498000  0.07498000  1
  Yb  Yb8  1  0.42502000  0.92502000  0.57498000  1
  Yb  Yb9  1  0.82498000  0.82498000  0.82498000  1
  Yb  Yb10  1  0.92502000  0.57498000  0.42502000  1
  Yb  Yb11  1  0.57498000  0.42502000  0.92502000  1
  Yb  Yb12  1  0.17502000  0.32498000  0.67502000  1
  Yb  Yb13  1  0.32498000  0.67502000  0.17502000  1
  Yb  Yb14  1  0.67502000  0.17502000  0.32498000  1
  Yb  Yb15  1  0.57498000  0.57498000  0.57498000  1
  Sb  Sb16  1  0.00000000  0.75000000  0.12500000  1
  Sb  Sb17  1  0.25000000  0.37500000  0.00000000  1
  Sb  Sb18  1  0.75000000  0.12500000  0.00000000  1
  Sb  Sb19  1  0.12500000  0.00000000  0.75000000  1
  Sb  Sb20  1  0.37500000  0.00000000  0.25000000  1
  Sb  Sb21  1  0.00000000  0.25000000  0.37500000  1
  Sb  Sb22  1  0.50000000  0.25000000  0.62500000  1
  Sb  Sb23  1  0.75000000  0.87500000  0.50000000  1
  Sb  Sb24  1  0.25000000  0.62500000  0.50000000  1
  Sb  Sb25  1  0.62500000  0.50000000  0.25000000  1
  Sb  Sb26  1  0.87500000  0.50000000  0.75000000  1
  Sb  Sb27  1  0.50000000  0.75000000  0.87500000  1
