# generated using pymatgen
data_Ba2Mg17
_symmetry_space_group_name_H-M   'P 1'
_cell_length_a   10.66538295
_cell_length_b   10.66538295
_cell_length_c   15.54102679
_cell_angle_alpha   90.00000000
_cell_angle_beta   90.00000000
_cell_angle_gamma   120.00000000
_symmetry_Int_Tables_number   1
_chemical_formula_structural   Ba2Mg17
_chemical_formula_sum   'Ba6 Mg51'
_cell_volume   1530.95789968
_cell_formula_units_Z   3
loop_
 _symmetry_equiv_pos_site_id
 _symmetry_equiv_pos_as_xyz
  1  'x, y, z'
loop_
 _atom_site_type_symbol
 _atom_site_label
 _atom_site_symmetry_multiplicity
 _atom_site_fract_x
 _atom_site_fract_y
 _atom_site_fract_z
 _atom_site_occupancy
  Ba  Ba0  1  0.33333333  0.66666667  0.00454667  1
  Ba  Ba1  1  0.33333333  0.66666667  0.32878667  1
  Ba  Ba2  1  0.00000000  0.00000000  0.33788000  1
  Ba  Ba3  1  0.00000000  0.00000000  0.66212000  1
  Ba  Ba4  1  0.66666667  0.33333333  0.67121333  1
  Ba  Ba5  1  0.66666667  0.33333333  0.99545333  1
  Mg  Mg6  1  0.36900467  0.03567133  0.33333333  1
  Mg  Mg7  1  0.16699900  0.33399800  0.17403400  1
  Mg  Mg8  1  0.00066467  0.50033233  0.15929933  1
  Mg  Mg9  1  0.33333333  0.66666667  0.76728667  1
  Mg  Mg10  1  0.00000000  0.70233800  0.00000000  1
  Mg  Mg11  1  0.96432867  0.63099533  0.33333333  1
  Mg  Mg12  1  0.16699900  0.83300100  0.17403400  1
  Mg  Mg13  1  0.33333333  0.66666667  0.56604667  1
  Mg  Mg14  1  0.70233800  0.00000000  0.00000000  1
  Mg  Mg15  1  0.16666667  0.83333333  0.83333333  1
  Mg  Mg16  1  0.00000000  0.29766200  0.00000000  1
  Mg  Mg17  1  0.66600200  0.83300100  0.17403400  1
  Mg  Mg18  1  0.49966767  0.99933533  0.15929933  1
  Mg  Mg19  1  0.49966767  0.50033233  0.15929933  1
  Mg  Mg20  1  0.83333333  0.66666667  0.16666667  1
  Mg  Mg21  1  0.29766200  0.00000000  0.00000000  1
  Mg  Mg22  1  0.33333333  0.16666667  0.16666667  1
  Mg  Mg23  1  0.03567133  0.36900467  0.66666667  1
  Mg  Mg24  1  0.83366567  0.66733133  0.50736733  1
  Mg  Mg25  1  0.66733133  0.83366567  0.49263267  1
  Mg  Mg26  1  0.00000000  0.00000000  0.10062000  1
  Mg  Mg27  1  0.66666667  0.03567133  0.33333333  1
  Mg  Mg28  1  0.63099533  0.96432867  0.66666667  1
  Mg  Mg29  1  0.83366567  0.16633433  0.50736733  1
  Mg  Mg30  1  0.00000000  0.00000000  0.89938000  1
  Mg  Mg31  1  0.36900467  0.33333333  0.33333333  1
  Mg  Mg32  1  0.83333333  0.16666667  0.16666667  1
  Mg  Mg33  1  0.66666667  0.63099533  0.33333333  1
  Mg  Mg34  1  0.33266867  0.16633433  0.50736733  1
  Mg  Mg35  1  0.16633433  0.33266867  0.49263267  1
  Mg  Mg36  1  0.16633433  0.83366567  0.49263267  1
  Mg  Mg37  1  0.50000000  0.00000000  0.50000000  1
  Mg  Mg38  1  0.96432867  0.33333333  0.33333333  1
  Mg  Mg39  1  0.00000000  0.50000000  0.50000000  1
  Mg  Mg40  1  0.70233800  0.70233800  0.00000000  1
  Mg  Mg41  1  0.50033233  0.00066467  0.84070067  1
  Mg  Mg42  1  0.33399800  0.16699900  0.82596600  1
  Mg  Mg43  1  0.66666667  0.33333333  0.43395333  1
  Mg  Mg44  1  0.33333333  0.36900467  0.66666667  1
  Mg  Mg45  1  0.29766200  0.29766200  0.00000000  1
  Mg  Mg46  1  0.50033233  0.49966767  0.84070067  1
  Mg  Mg47  1  0.66666667  0.33333333  0.23271333  1
  Mg  Mg48  1  0.03567133  0.66666667  0.66666667  1
  Mg  Mg49  1  0.50000000  0.50000000  0.50000000  1
  Mg  Mg50  1  0.33333333  0.96432867  0.66666667  1
  Mg  Mg51  1  0.99933533  0.49966767  0.84070067  1
  Mg  Mg52  1  0.83300100  0.66600200  0.82596600  1
  Mg  Mg53  1  0.83300100  0.16699900  0.82596600  1
  Mg  Mg54  1  0.16666667  0.33333333  0.83333333  1
  Mg  Mg55  1  0.63099533  0.66666667  0.66666667  1
  Mg  Mg56  1  0.66666667  0.83333333  0.83333333  1
