# generated using pymatgen
data_Sr3NiPtO6
_symmetry_space_group_name_H-M   'P 1'
_cell_length_a   9.68187632
_cell_length_b   9.68187632
_cell_length_c   11.33553046
_cell_angle_alpha   90.00000000
_cell_angle_beta   90.00000000
_cell_angle_gamma   120.00000000
_symmetry_Int_Tables_number   1
_chemical_formula_structural   Sr3NiPtO6
_chemical_formula_sum   'Sr18 Ni6 Pt6 O36'
_cell_volume   920.21973163
_cell_formula_units_Z   6
loop_
 _symmetry_equiv_pos_site_id
 _symmetry_equiv_pos_as_xyz
  1  'x, y, z'
loop_
 _atom_site_type_symbol
 _atom_site_label
 _atom_site_symmetry_multiplicity
 _atom_site_fract_x
 _atom_site_fract_y
 _atom_site_fract_z
 _atom_site_occupancy
  Sr  Sr0  1  0.66666667  0.69745933  0.08333333  1
  Sr  Sr1  1  0.03079267  0.33333333  0.08333333  1
  Sr  Sr2  1  0.69745933  0.03079267  0.91666667  1
  Sr  Sr3  1  0.33333333  0.30254067  0.91666667  1
  Sr  Sr4  1  0.96920733  0.66666667  0.91666667  1
  Sr  Sr5  1  0.30254067  0.96920733  0.08333333  1
  Sr  Sr6  1  0.33333333  0.03079267  0.41666667  1
  Sr  Sr7  1  0.69745933  0.66666667  0.41666667  1
  Sr  Sr8  1  0.36412600  0.36412600  0.25000000  1
  Sr  Sr9  1  0.00000000  0.63587400  0.25000000  1
  Sr  Sr10  1  0.63587400  0.00000000  0.25000000  1
  Sr  Sr11  1  0.96920733  0.30254067  0.41666667  1
  Sr  Sr12  1  0.00000000  0.36412600  0.75000000  1
  Sr  Sr13  1  0.36412600  0.00000000  0.75000000  1
  Sr  Sr14  1  0.03079267  0.69745933  0.58333333  1
  Sr  Sr15  1  0.66666667  0.96920733  0.58333333  1
  Sr  Sr16  1  0.30254067  0.33333333  0.58333333  1
  Sr  Sr17  1  0.63587400  0.63587400  0.75000000  1
  Ni  Ni18  1  0.00000000  0.00000000  0.75000000  1
  Ni  Ni19  1  0.00000000  0.00000000  0.25000000  1
  Ni  Ni20  1  0.66666667  0.33333333  0.08333333  1
  Ni  Ni21  1  0.66666667  0.33333333  0.58333333  1
  Ni  Ni22  1  0.33333333  0.66666667  0.41666667  1
  Ni  Ni23  1  0.33333333  0.66666667  0.91666667  1
  Pt  Pt24  1  0.00000000  0.00000000  0.50000000  1
  Pt  Pt25  1  0.00000000  0.00000000  0.00000000  1
  Pt  Pt26  1  0.66666667  0.33333333  0.83333333  1
  Pt  Pt27  1  0.66666667  0.33333333  0.33333333  1
  Pt  Pt28  1  0.33333333  0.66666667  0.16666667  1
  Pt  Pt29  1  0.33333333  0.66666667  0.66666667  1
  O  O30  1  0.17436167  0.14952733  0.11510933  1
  O  O31  1  0.97516567  0.82563833  0.11510933  1
  O  O32  1  0.85047267  0.02483433  0.11510933  1
  O  O33  1  0.48286067  0.84102833  0.05155733  1
  O  O34  1  0.35816767  0.51713933  0.05155733  1
  O  O35  1  0.15897167  0.64183233  0.05155733  1
  O  O36  1  0.82563833  0.85047267  0.88489067  1
  O  O37  1  0.02483433  0.17436167  0.88489067  1
  O  O38  1  0.14952733  0.97516567  0.88489067  1
  O  O39  1  0.51713933  0.15897167  0.94844267  1
  O  O40  1  0.84102833  0.35816767  0.94844267  1
  O  O41  1  0.64183233  0.48286067  0.94844267  1
  O  O42  1  0.84102833  0.48286067  0.44844267  1
  O  O43  1  0.64183233  0.15897167  0.44844267  1
  O  O44  1  0.51713933  0.35816767  0.44844267  1
  O  O45  1  0.14952733  0.17436167  0.38489067  1
  O  O46  1  0.02483433  0.85047267  0.38489067  1
  O  O47  1  0.82563833  0.97516567  0.38489067  1
  O  O48  1  0.49230500  0.18380600  0.21822400  1
  O  O49  1  0.69150100  0.50769500  0.21822400  1
  O  O50  1  0.81619400  0.30849900  0.21822400  1
  O  O51  1  0.18380600  0.49230500  0.28177600  1
  O  O52  1  0.50769500  0.69150100  0.28177600  1
  O  O53  1  0.30849900  0.81619400  0.28177600  1
  O  O54  1  0.50769500  0.81619400  0.78177600  1
  O  O55  1  0.30849900  0.49230500  0.78177600  1
  O  O56  1  0.18380600  0.69150100  0.78177600  1
  O  O57  1  0.81619400  0.50769500  0.71822400  1
  O  O58  1  0.69150100  0.18380600  0.71822400  1
  O  O59  1  0.49230500  0.30849900  0.71822400  1
  O  O60  1  0.15897167  0.51713933  0.55155733  1
  O  O61  1  0.35816767  0.84102833  0.55155733  1
  O  O62  1  0.48286067  0.64183233  0.55155733  1
  O  O63  1  0.85047267  0.82563833  0.61510933  1
  O  O64  1  0.17436167  0.02483433  0.61510933  1
  O  O65  1  0.97516567  0.14952733  0.61510933  1
