# generated using pymatgen
data_Co(TePd)2
_symmetry_space_group_name_H-M   'P 1'
_cell_length_a   5.25405400
_cell_length_b   6.33001800
_cell_length_c   11.20926800
_cell_angle_alpha   90.00000000
_cell_angle_beta   90.00000000
_cell_angle_gamma   90.00000000
_symmetry_Int_Tables_number   1
_chemical_formula_structural   Co(TePd)2
_chemical_formula_sum   'Co4 Te8 Pd8'
_cell_volume   372.80070912
_cell_formula_units_Z   4
loop_
 _symmetry_equiv_pos_site_id
 _symmetry_equiv_pos_as_xyz
  1  'x, y, z'
loop_
 _atom_site_type_symbol
 _atom_site_label
 _atom_site_symmetry_multiplicity
 _atom_site_fract_x
 _atom_site_fract_y
 _atom_site_fract_z
 _atom_site_occupancy
  Co  Co0  1  0.25000000  0.00000000  0.00000000  1
  Co  Co1  1  0.75000000  0.00000000  0.00000000  1
  Co  Co2  1  0.75000000  0.50000000  0.50000000  1
  Co  Co3  1  0.25000000  0.50000000  0.50000000  1
  Te  Te4  1  0.50000000  0.21493550  0.14394850  1
  Te  Te5  1  0.00000000  0.28506450  0.35605150  1
  Te  Te6  1  0.50000000  0.71493550  0.35605150  1
  Te  Te7  1  0.00000000  0.78506450  0.14394850  1
  Te  Te8  1  0.00000000  0.71493550  0.64394850  1
  Te  Te9  1  0.50000000  0.78506450  0.85605150  1
  Te  Te10  1  0.00000000  0.21493550  0.85605150  1
  Te  Te11  1  0.50000000  0.28506450  0.64394850  1
  Pd  Pd12  1  0.00000000  0.86749500  0.39409900  1
  Pd  Pd13  1  0.00000000  0.36749500  0.10590100  1
  Pd  Pd14  1  0.50000000  0.13250500  0.39409900  1
  Pd  Pd15  1  0.50000000  0.63250500  0.10590100  1
  Pd  Pd16  1  0.50000000  0.36749500  0.89409900  1
  Pd  Pd17  1  0.50000000  0.86749500  0.60590100  1
  Pd  Pd18  1  0.00000000  0.63250500  0.89409900  1
  Pd  Pd19  1  0.00000000  0.13250500  0.60590100  1
