# generated using pymatgen
data_Nd3ReO7
_symmetry_space_group_name_H-M   'P 1'
_cell_length_a   7.52242600
_cell_length_b   10.98248400
_cell_length_c   7.64542500
_cell_angle_alpha   90.00000000
_cell_angle_beta   90.00000000
_cell_angle_gamma   90.00000000
_symmetry_Int_Tables_number   1
_chemical_formula_structural   Nd3ReO7
_chemical_formula_sum   'Nd12 Re4 O28'
_cell_volume   631.62619910
_cell_formula_units_Z   4
loop_
 _symmetry_equiv_pos_site_id
 _symmetry_equiv_pos_as_xyz
  1  'x, y, z'
loop_
 _atom_site_type_symbol
 _atom_site_label
 _atom_site_symmetry_multiplicity
 _atom_site_fract_x
 _atom_site_fract_y
 _atom_site_fract_z
 _atom_site_occupancy
  Nd  Nd0  1  0.30132600  0.72344800  0.25000000  1
  Nd  Nd1  1  0.69867400  0.27655200  0.75000000  1
  Nd  Nd2  1  0.50000000  0.00000000  0.50000000  1
  Nd  Nd3  1  0.50000000  0.00000000  0.00000000  1
  Nd  Nd4  1  0.69867400  0.72344800  0.75000000  1
  Nd  Nd5  1  0.30132600  0.27655200  0.25000000  1
  Nd  Nd6  1  0.80132600  0.22344800  0.25000000  1
  Nd  Nd7  1  0.19867400  0.77655200  0.75000000  1
  Nd  Nd8  1  0.00000000  0.50000000  0.50000000  1
  Nd  Nd9  1  0.00000000  0.50000000  0.00000000  1
  Nd  Nd10  1  0.19867400  0.22344800  0.75000000  1
  Nd  Nd11  1  0.80132600  0.77655200  0.25000000  1
  Re  Re12  1  0.00000000  0.00000000  0.00000000  1
  Re  Re13  1  0.00000000  0.00000000  0.50000000  1
  Re  Re14  1  0.50000000  0.50000000  0.00000000  1
  Re  Re15  1  0.50000000  0.50000000  0.50000000  1
  O  O16  1  0.47572550  0.13154350  0.75000000  1
  O  O17  1  0.52427450  0.86845650  0.25000000  1
  O  O18  1  0.47572550  0.86845650  0.75000000  1
  O  O19  1  0.52427450  0.13154350  0.25000000  1
  O  O20  1  0.18554650  0.12587450  0.03716600  1
  O  O21  1  0.81445350  0.87412550  0.53716600  1
  O  O22  1  0.18554650  0.87412550  0.46283400  1
  O  O23  1  0.81445350  0.12587450  0.96283400  1
  O  O24  1  0.92169300  0.00000000  0.25000000  1
  O  O25  1  0.07830700  0.00000000  0.75000000  1
  O  O26  1  0.18554650  0.87412550  0.03716600  1
  O  O27  1  0.81445350  0.12587450  0.53716600  1
  O  O28  1  0.18554650  0.12587450  0.46283400  1
  O  O29  1  0.81445350  0.87412550  0.96283400  1
  O  O30  1  0.97572550  0.63154350  0.75000000  1
  O  O31  1  0.02427450  0.36845650  0.25000000  1
  O  O32  1  0.97572550  0.36845650  0.75000000  1
  O  O33  1  0.02427450  0.63154350  0.25000000  1
  O  O34  1  0.68554650  0.62587450  0.03716600  1
  O  O35  1  0.31445350  0.37412550  0.53716600  1
  O  O36  1  0.68554650  0.37412550  0.46283400  1
  O  O37  1  0.31445350  0.62587450  0.96283400  1
  O  O38  1  0.42169300  0.50000000  0.25000000  1
  O  O39  1  0.57830700  0.50000000  0.75000000  1
  O  O40  1  0.68554650  0.37412550  0.03716600  1
  O  O41  1  0.31445350  0.62587450  0.53716600  1
  O  O42  1  0.68554650  0.62587450  0.46283400  1
  O  O43  1  0.31445350  0.37412550  0.96283400  1
