# generated using pymatgen
data_Ca11Sb10
_symmetry_space_group_name_H-M   'P 1'
_cell_length_a   12.06552200
_cell_length_b   12.06552200
_cell_length_c   17.37384000
_cell_angle_alpha   90.00000000
_cell_angle_beta   90.00000000
_cell_angle_gamma   90.00000000
_symmetry_Int_Tables_number   1
_chemical_formula_structural   Ca11Sb10
_chemical_formula_sum   'Ca44 Sb40'
_cell_volume   2529.22839806
_cell_formula_units_Z   4
loop_
 _symmetry_equiv_pos_site_id
 _symmetry_equiv_pos_as_xyz
  1  'x, y, z'
loop_
 _atom_site_type_symbol
 _atom_site_label
 _atom_site_symmetry_multiplicity
 _atom_site_fract_x
 _atom_site_fract_y
 _atom_site_fract_z
 _atom_site_occupancy
  Ca  Ca0  1  0.00000000  0.25152000  0.18902400  1
  Ca  Ca1  1  0.74848000  0.00000000  0.18902400  1
  Ca  Ca2  1  0.25152000  0.00000000  0.18902400  1
  Ca  Ca3  1  0.50000000  0.24848000  0.31097600  1
  Ca  Ca4  1  0.50000000  0.75152000  0.31097600  1
  Ca  Ca5  1  0.75152000  0.50000000  0.31097600  1
  Ca  Ca6  1  0.24848000  0.50000000  0.31097600  1
  Ca  Ca7  1  0.00000000  0.74848000  0.18902400  1
  Ca  Ca8  1  0.16445600  0.16445600  0.00000000  1
  Ca  Ca9  1  0.83554400  0.16445600  0.00000000  1
  Ca  Ca10  1  0.16445600  0.83554400  0.00000000  1
  Ca  Ca11  1  0.83554400  0.83554400  0.00000000  1
  Ca  Ca12  1  0.00000000  0.00000000  0.33498300  1
  Ca  Ca13  1  0.50000000  0.50000000  0.16501700  1
  Ca  Ca14  1  0.00000000  0.33933300  0.39662700  1
  Ca  Ca15  1  0.66066700  0.00000000  0.39662700  1
  Ca  Ca16  1  0.33933300  0.00000000  0.39662700  1
  Ca  Ca17  1  0.50000000  0.16066700  0.10337300  1
  Ca  Ca18  1  0.50000000  0.83933300  0.10337300  1
  Ca  Ca19  1  0.83933300  0.50000000  0.10337300  1
  Ca  Ca20  1  0.16066700  0.50000000  0.10337300  1
  Ca  Ca21  1  0.00000000  0.66066700  0.39662700  1
  Ca  Ca22  1  0.50000000  0.75152000  0.68902400  1
  Ca  Ca23  1  0.24848000  0.50000000  0.68902400  1
  Ca  Ca24  1  0.75152000  0.50000000  0.68902400  1
  Ca  Ca25  1  0.00000000  0.74848000  0.81097600  1
  Ca  Ca26  1  0.00000000  0.25152000  0.81097600  1
  Ca  Ca27  1  0.25152000  0.00000000  0.81097600  1
  Ca  Ca28  1  0.74848000  0.00000000  0.81097600  1
  Ca  Ca29  1  0.50000000  0.24848000  0.68902400  1
  Ca  Ca30  1  0.66445600  0.66445600  0.50000000  1
  Ca  Ca31  1  0.33554400  0.66445600  0.50000000  1
  Ca  Ca32  1  0.66445600  0.33554400  0.50000000  1
  Ca  Ca33  1  0.33554400  0.33554400  0.50000000  1
  Ca  Ca34  1  0.50000000  0.50000000  0.83498300  1
  Ca  Ca35  1  0.00000000  0.00000000  0.66501700  1
  Ca  Ca36  1  0.50000000  0.83933300  0.89662700  1
  Ca  Ca37  1  0.16066700  0.50000000  0.89662700  1
  Ca  Ca38  1  0.83933300  0.50000000  0.89662700  1
  Ca  Ca39  1  0.00000000  0.66066700  0.60337300  1
  Ca  Ca40  1  0.00000000  0.33933300  0.60337300  1
  Ca  Ca41  1  0.33933300  0.00000000  0.60337300  1
  Ca  Ca42  1  0.66066700  0.00000000  0.60337300  1
  Ca  Ca43  1  0.50000000  0.16066700  0.89662700  1
  Sb  Sb44  1  0.34832600  0.00000000  0.00000000  1
  Sb  Sb45  1  0.00000000  0.34832600  0.00000000  1
  Sb  Sb46  1  0.00000000  0.65167400  0.00000000  1
  Sb  Sb47  1  0.65167400  0.00000000  0.00000000  1
  Sb  Sb48  1  0.00000000  0.00000000  0.12819400  1
  Sb  Sb49  1  0.50000000  0.50000000  0.37180600  1
  Sb  Sb50  1  0.37356050  0.37356050  0.00000000  1
  Sb  Sb51  1  0.62643950  0.37356050  0.00000000  1
  Sb  Sb52  1  0.37356050  0.62643950  0.00000000  1
  Sb  Sb53  1  0.12643950  0.12643950  0.50000000  1
  Sb  Sb54  1  0.00000000  0.50000000  0.25000000  1
  Sb  Sb55  1  0.50000000  0.00000000  0.25000000  1
  Sb  Sb56  1  0.20623100  0.20623100  0.32470000  1
  Sb  Sb57  1  0.79376900  0.20623100  0.32470000  1
  Sb  Sb58  1  0.20623100  0.79376900  0.32470000  1
  Sb  Sb59  1  0.70623100  0.29376900  0.17530000  1
  Sb  Sb60  1  0.29376900  0.70623100  0.17530000  1
  Sb  Sb61  1  0.70623100  0.70623100  0.17530000  1
  Sb  Sb62  1  0.29376900  0.29376900  0.17530000  1
  Sb  Sb63  1  0.79376900  0.79376900  0.32470000  1
  Sb  Sb64  1  0.84832600  0.50000000  0.50000000  1
  Sb  Sb65  1  0.50000000  0.84832600  0.50000000  1
  Sb  Sb66  1  0.50000000  0.15167400  0.50000000  1
  Sb  Sb67  1  0.15167400  0.50000000  0.50000000  1
  Sb  Sb68  1  0.50000000  0.50000000  0.62819400  1
  Sb  Sb69  1  0.00000000  0.00000000  0.87180600  1
  Sb  Sb70  1  0.87356050  0.87356050  0.50000000  1
  Sb  Sb71  1  0.12643950  0.87356050  0.50000000  1
  Sb  Sb72  1  0.87356050  0.12643950  0.50000000  1
  Sb  Sb73  1  0.62643950  0.62643950  0.00000000  1
  Sb  Sb74  1  0.50000000  0.00000000  0.75000000  1
  Sb  Sb75  1  0.00000000  0.50000000  0.75000000  1
  Sb  Sb76  1  0.70623100  0.70623100  0.82470000  1
  Sb  Sb77  1  0.29376900  0.70623100  0.82470000  1
  Sb  Sb78  1  0.70623100  0.29376900  0.82470000  1
  Sb  Sb79  1  0.20623100  0.79376900  0.67530000  1
  Sb  Sb80  1  0.79376900  0.20623100  0.67530000  1
  Sb  Sb81  1  0.20623100  0.20623100  0.67530000  1
  Sb  Sb82  1  0.79376900  0.79376900  0.67530000  1
  Sb  Sb83  1  0.29376900  0.29376900  0.82470000  1
