# generated using pymatgen
data_Ba(Cu2As)4
_symmetry_space_group_name_H-M   'P 1'
_cell_length_a   10.51952000
_cell_length_b   10.51952000
_cell_length_c   3.95714600
_cell_angle_alpha   90.00000000
_cell_angle_beta   90.00000000
_cell_angle_gamma   90.00000000
_symmetry_Int_Tables_number   1
_chemical_formula_structural   Ba(Cu2As)4
_chemical_formula_sum   'Ba2 Cu16 As8'
_cell_volume   437.89896758
_cell_formula_units_Z   2
loop_
 _symmetry_equiv_pos_site_id
 _symmetry_equiv_pos_as_xyz
  1  'x, y, z'
loop_
 _atom_site_type_symbol
 _atom_site_label
 _atom_site_symmetry_multiplicity
 _atom_site_fract_x
 _atom_site_fract_y
 _atom_site_fract_z
 _atom_site_occupancy
  Ba  Ba0  1  0.00000000  0.00000000  0.00000000  1
  Ba  Ba1  1  0.50000000  0.50000000  0.50000000  1
  Cu  Cu2  1  0.48211100  0.12595400  0.50000000  1
  Cu  Cu3  1  0.32822900  0.21443600  0.00000000  1
  Cu  Cu4  1  0.28556400  0.82822900  0.50000000  1
  Cu  Cu5  1  0.71443600  0.17177100  0.50000000  1
  Cu  Cu6  1  0.67177100  0.78556400  0.00000000  1
  Cu  Cu7  1  0.51788900  0.87404600  0.50000000  1
  Cu  Cu8  1  0.62595400  0.01788900  0.00000000  1
  Cu  Cu9  1  0.37404600  0.98211100  0.00000000  1
  Cu  Cu10  1  0.98211100  0.62595400  0.00000000  1
  Cu  Cu11  1  0.82822900  0.71443600  0.50000000  1
  Cu  Cu12  1  0.78556400  0.32822900  0.00000000  1
  Cu  Cu13  1  0.21443600  0.67177100  0.00000000  1
  Cu  Cu14  1  0.17177100  0.28556400  0.50000000  1
  Cu  Cu15  1  0.01788900  0.37404600  0.00000000  1
  Cu  Cu16  1  0.12595400  0.51788900  0.50000000  1
  Cu  Cu17  1  0.87404600  0.48211100  0.50000000  1
  As  As18  1  0.74325900  0.92901100  0.50000000  1
  As  As19  1  0.57098900  0.24325900  0.00000000  1
  As  As20  1  0.42901100  0.75674100  0.00000000  1
  As  As21  1  0.25674100  0.07098900  0.50000000  1
  As  As22  1  0.24325900  0.42901100  0.00000000  1
  As  As23  1  0.07098900  0.74325900  0.50000000  1
  As  As24  1  0.92901100  0.25674100  0.50000000  1
  As  As25  1  0.75674100  0.57098900  0.00000000  1
