# generated using pymatgen
data_YbGa4
_symmetry_space_group_name_H-M   'P 1'
_cell_length_a   4.34394400
_cell_length_b   4.34394400
_cell_length_c   10.70412400
_cell_angle_alpha   90.00000000
_cell_angle_beta   90.00000000
_cell_angle_gamma   90.00000000
_symmetry_Int_Tables_number   1
_chemical_formula_structural   YbGa4
_chemical_formula_sum   'Yb2 Ga8'
_cell_volume   201.98520864
_cell_formula_units_Z   2
loop_
 _symmetry_equiv_pos_site_id
 _symmetry_equiv_pos_as_xyz
  1  'x, y, z'
loop_
 _atom_site_type_symbol
 _atom_site_label
 _atom_site_symmetry_multiplicity
 _atom_site_fract_x
 _atom_site_fract_y
 _atom_site_fract_z
 _atom_site_occupancy
  Yb  Yb0  1  0.00000000  0.00000000  0.00000000  1
  Yb  Yb1  1  0.50000000  0.50000000  0.50000000  1
  Ga  Ga2  1  0.50000000  0.50000000  0.11435600  1
  Ga  Ga3  1  0.00000000  0.50000000  0.25000000  1
  Ga  Ga4  1  0.50000000  0.00000000  0.25000000  1
  Ga  Ga5  1  0.00000000  0.00000000  0.38564400  1
  Ga  Ga6  1  0.00000000  0.00000000  0.61435600  1
  Ga  Ga7  1  0.50000000  0.00000000  0.75000000  1
  Ga  Ga8  1  0.00000000  0.50000000  0.75000000  1
  Ga  Ga9  1  0.50000000  0.50000000  0.88564400  1
