# generated using pymatgen
data_Nd2Te5
_symmetry_space_group_name_H-M   'P 1'
_cell_length_a   4.43655200
_cell_length_b   45.86938800
_cell_length_c   4.44038800
_cell_angle_alpha   90.00000000
_cell_angle_beta   90.00000000
_cell_angle_gamma   90.00000000
_symmetry_Int_Tables_number   1
_chemical_formula_structural   Nd2Te5
_chemical_formula_sum   'Nd8 Te20'
_cell_volume   903.62750606
_cell_formula_units_Z   4
loop_
 _symmetry_equiv_pos_site_id
 _symmetry_equiv_pos_as_xyz
  1  'x, y, z'
loop_
 _atom_site_type_symbol
 _atom_site_label
 _atom_site_symmetry_multiplicity
 _atom_site_fract_x
 _atom_site_fract_y
 _atom_site_fract_z
 _atom_site_occupancy
  Nd  Nd0  1  0.50000000  0.80596200  0.25000000  1
  Nd  Nd1  1  0.00000000  0.69403800  0.75000000  1
  Nd  Nd2  1  0.50000000  0.60153000  0.25000000  1
  Nd  Nd3  1  0.00000000  0.89847000  0.75000000  1
  Nd  Nd4  1  0.00000000  0.30596200  0.25000000  1
  Nd  Nd5  1  0.50000000  0.19403800  0.75000000  1
  Nd  Nd6  1  0.00000000  0.10153000  0.25000000  1
  Nd  Nd7  1  0.50000000  0.39847000  0.75000000  1
  Te  Te8  1  0.50000000  0.87712900  0.25000000  1
  Te  Te9  1  0.00000000  0.62287100  0.75000000  1
  Te  Te10  1  0.50000000  0.67451600  0.25000000  1
  Te  Te11  1  0.00000000  0.82548400  0.75000000  1
  Te  Te12  1  0.50000000  0.54637300  0.75000000  1
  Te  Te13  1  0.00000000  0.95362700  0.25000000  1
  Te  Te14  1  0.50000000  0.95361800  0.75000000  1
  Te  Te15  1  0.00000000  0.54638200  0.25000000  1
  Te  Te16  1  0.50000000  0.75001700  0.75000000  1
  Te  Te17  1  0.00000000  0.74998300  0.25000000  1
  Te  Te18  1  0.00000000  0.37712900  0.25000000  1
  Te  Te19  1  0.50000000  0.12287100  0.75000000  1
  Te  Te20  1  0.00000000  0.17451600  0.25000000  1
  Te  Te21  1  0.50000000  0.32548400  0.75000000  1
  Te  Te22  1  0.00000000  0.04637300  0.75000000  1
  Te  Te23  1  0.50000000  0.45362700  0.25000000  1
  Te  Te24  1  0.00000000  0.45361800  0.75000000  1
  Te  Te25  1  0.50000000  0.04638200  0.25000000  1
  Te  Te26  1  0.00000000  0.25001700  0.75000000  1
  Te  Te27  1  0.50000000  0.24998300  0.25000000  1
