# generated using pymatgen
data_TmAl7Au3
_symmetry_space_group_name_H-M   'P 1'
_cell_length_a   8.07904411
_cell_length_b   8.07904411
_cell_length_c   21.11335464
_cell_angle_alpha   90.00000000
_cell_angle_beta   90.00000000
_cell_angle_gamma   120.00000000
_symmetry_Int_Tables_number   1
_chemical_formula_structural   TmAl7Au3
_chemical_formula_sum   'Tm6 Al42 Au18'
_cell_volume   1193.45990540
_cell_formula_units_Z   6
loop_
 _symmetry_equiv_pos_site_id
 _symmetry_equiv_pos_as_xyz
  1  'x, y, z'
loop_
 _atom_site_type_symbol
 _atom_site_label
 _atom_site_symmetry_multiplicity
 _atom_site_fract_x
 _atom_site_fract_y
 _atom_site_fract_z
 _atom_site_occupancy
  Tm  Tm0  1  0.00000000  0.00000000  0.00000000  1
  Tm  Tm1  1  0.33333333  0.66666667  0.16666667  1
  Tm  Tm2  1  0.66666667  0.33333333  0.33333333  1
  Tm  Tm3  1  0.00000000  0.00000000  0.50000000  1
  Tm  Tm4  1  0.33333333  0.66666667  0.66666667  1
  Tm  Tm5  1  0.66666667  0.33333333  0.83333333  1
  Al  Al6  1  0.65629200  0.52958900  0.19647900  1
  Al  Al7  1  0.87329700  0.34370800  0.19647900  1
  Al  Al8  1  0.47041100  0.12670300  0.19647900  1
  Al  Al9  1  0.52958900  0.65629200  0.30352100  1
  Al  Al10  1  0.12670300  0.47041100  0.30352100  1
  Al  Al11  1  0.34370800  0.87329700  0.30352100  1
  Al  Al12  1  0.01037467  0.80374433  0.13685433  1
  Al  Al13  1  0.79336967  0.98962533  0.13685433  1
  Al  Al14  1  0.00000000  0.00000000  0.25000000  1
  Al  Al15  1  0.66666667  0.33333333  0.08333333  1
  Al  Al16  1  0.32295867  0.46003633  0.02981233  1
  Al  Al17  1  0.53996367  0.86292233  0.02981233  1
  Al  Al18  1  0.13707767  0.67704133  0.02981233  1
  Al  Al19  1  0.19625567  0.20663033  0.13685433  1
  Al  Al20  1  0.32295867  0.86292233  0.52981233  1
  Al  Al21  1  0.53996367  0.67704133  0.52981233  1
  Al  Al22  1  0.13707767  0.46003633  0.52981233  1
  Al  Al23  1  0.19625567  0.98962533  0.63685433  1
  Al  Al24  1  0.79336967  0.80374433  0.63685433  1
  Al  Al25  1  0.01037467  0.20663033  0.63685433  1
  Al  Al26  1  0.67704133  0.13707767  0.47018767  1
  Al  Al27  1  0.46003633  0.32295867  0.47018767  1
  Al  Al28  1  0.66666667  0.33333333  0.58333333  1
  Al  Al29  1  0.33333333  0.66666667  0.41666667  1
  Al  Al30  1  0.98962533  0.79336967  0.36314567  1
  Al  Al31  1  0.20663033  0.19625567  0.36314567  1
  Al  Al32  1  0.80374433  0.01037467  0.36314567  1
  Al  Al33  1  0.86292233  0.53996367  0.47018767  1
  Al  Al34  1  0.98962533  0.19625567  0.86314567  1
  Al  Al35  1  0.20663033  0.01037467  0.86314567  1
  Al  Al36  1  0.80374433  0.79336967  0.86314567  1
  Al  Al37  1  0.86292233  0.32295867  0.97018767  1
  Al  Al38  1  0.46003633  0.13707767  0.97018767  1
  Al  Al39  1  0.67704133  0.53996367  0.97018767  1
  Al  Al40  1  0.34370800  0.47041100  0.80352100  1
  Al  Al41  1  0.12670300  0.65629200  0.80352100  1
  Al  Al42  1  0.33333333  0.66666667  0.91666667  1
  Al  Al43  1  0.00000000  0.00000000  0.75000000  1
  Al  Al44  1  0.65629200  0.12670300  0.69647900  1
  Al  Al45  1  0.87329700  0.52958900  0.69647900  1
  Al  Al46  1  0.47041100  0.34370800  0.69647900  1
  Al  Al47  1  0.52958900  0.87329700  0.80352100  1
  Au  Au48  1  0.34176567  0.00843233  0.08333333  1
  Au  Au49  1  0.66666667  0.65823433  0.08333333  1
  Au  Au50  1  0.99156767  0.33333333  0.08333333  1
  Au  Au51  1  0.32490100  0.32490100  0.25000000  1
  Au  Au52  1  0.00000000  0.67509900  0.25000000  1
  Au  Au53  1  0.67509900  1.00000000  0.25000000  1
  Au  Au54  1  0.00843233  0.34176567  0.41666667  1
  Au  Au55  1  0.33333333  0.99156767  0.41666667  1
  Au  Au56  1  0.65823433  0.66666667  0.41666667  1
  Au  Au57  1  0.99156767  0.65823433  0.58333333  1
  Au  Au58  1  0.66666667  0.00843233  0.58333333  1
  Au  Au59  1  0.34176567  0.33333333  0.58333333  1
  Au  Au60  1  0.67509900  0.67509900  0.75000000  1
  Au  Au61  1  0.00000000  0.32490100  0.75000000  1
  Au  Au62  1  0.32490100  0.00000000  0.75000000  1
  Au  Au63  1  0.65823433  0.99156767  0.91666667  1
  Au  Au64  1  0.33333333  0.34176567  0.91666667  1
  Au  Au65  1  0.00843233  0.66666667  0.91666667  1
