# generated using pymatgen
data_Nb2Co12P7
_symmetry_space_group_name_H-M   'P 1'
_cell_length_a   8.84164596
_cell_length_b   8.84164596
_cell_length_c   3.52847500
_cell_angle_alpha   90.00000000
_cell_angle_beta   90.00000000
_cell_angle_gamma   120.00000000
_symmetry_Int_Tables_number   1
_chemical_formula_structural   Nb2Co12P7
_chemical_formula_sum   'Nb2 Co12 P7'
_cell_volume   238.88227028
_cell_formula_units_Z   1
loop_
 _symmetry_equiv_pos_site_id
 _symmetry_equiv_pos_as_xyz
  1  'x, y, z'
loop_
 _atom_site_type_symbol
 _atom_site_label
 _atom_site_symmetry_multiplicity
 _atom_site_fract_x
 _atom_site_fract_y
 _atom_site_fract_z
 _atom_site_occupancy
  Nb  Nb0  1  0.66666667  0.33333333  0.50000000  1
  Nb  Nb1  1  0.33333333  0.66666667  0.00000000  1
  Co  Co2  1  0.11742667  0.83533133  0.00000000  1
  Co  Co3  1  0.39032467  0.43988133  0.50000000  1
  Co  Co4  1  0.71790467  0.88257333  0.00000000  1
  Co  Co5  1  0.56011867  0.95044333  0.50000000  1
  Co  Co6  1  0.21226967  0.08705633  0.50000000  1
  Co  Co7  1  0.87478667  0.78773033  0.50000000  1
  Co  Co8  1  0.91294367  0.12521333  0.50000000  1
  Co  Co9  1  0.93543267  0.37522033  0.00000000  1
  Co  Co10  1  0.62477967  0.56021233  0.00000000  1
  Co  Co11  1  0.43978767  0.06456733  0.00000000  1
  Co  Co12  1  0.04955667  0.60967533  0.50000000  1
  Co  Co13  1  0.16466867  0.28209533  0.00000000  1
  P  P14  1  0.00000000  0.00000000  0.00000000  1
  P  P15  1  0.59315767  0.71313833  0.50000000  1
  P  P16  1  0.70923567  0.12120133  0.00000000  1
  P  P17  1  0.87879867  0.58803433  0.00000000  1
  P  P18  1  0.41196567  0.29076433  0.00000000  1
  P  P19  1  0.28686167  0.88001933  0.50000000  1
  P  P20  1  0.11998067  0.40684233  0.50000000  1
