# generated using pymatgen
data_Y3Si3Pd2
_symmetry_space_group_name_H-M   'P 1'
_cell_length_a   4.26819600
_cell_length_b   10.48049800
_cell_length_c   14.15345500
_cell_angle_alpha   90.00000000
_cell_angle_beta   90.00000000
_cell_angle_gamma   90.00000000
_symmetry_Int_Tables_number   1
_chemical_formula_structural   Y3Si3Pd2
_chemical_formula_sum   'Y12 Si12 Pd8'
_cell_volume   633.12394982
_cell_formula_units_Z   4
loop_
 _symmetry_equiv_pos_site_id
 _symmetry_equiv_pos_as_xyz
  1  'x, y, z'
loop_
 _atom_site_type_symbol
 _atom_site_label
 _atom_site_symmetry_multiplicity
 _atom_site_fract_x
 _atom_site_fract_y
 _atom_site_fract_z
 _atom_site_occupancy
  Y  Y0  1  0.50000000  0.08702400  0.88900000  1
  Y  Y1  1  0.00000000  0.41297600  0.11100000  1
  Y  Y2  1  0.00000000  0.13443900  0.25000000  1
  Y  Y3  1  0.50000000  0.36556100  0.75000000  1
  Y  Y4  1  0.50000000  0.08702400  0.61100000  1
  Y  Y5  1  0.00000000  0.41297600  0.38900000  1
  Y  Y6  1  0.00000000  0.58702400  0.88900000  1
  Y  Y7  1  0.50000000  0.91297600  0.11100000  1
  Y  Y8  1  0.50000000  0.63443900  0.25000000  1
  Y  Y9  1  0.00000000  0.86556100  0.75000000  1
  Y  Y10  1  0.00000000  0.58702400  0.61100000  1
  Y  Y11  1  0.50000000  0.91297600  0.38900000  1
  Si  Si12  1  0.00000000  0.16144000  0.75000000  1
  Si  Si13  1  0.50000000  0.33856000  0.25000000  1
  Si  Si14  1  0.00000000  0.10571100  0.03901900  1
  Si  Si15  1  0.50000000  0.39428900  0.96098100  1
  Si  Si16  1  0.50000000  0.39428900  0.53901900  1
  Si  Si17  1  0.00000000  0.10571100  0.46098100  1
  Si  Si18  1  0.50000000  0.66144000  0.75000000  1
  Si  Si19  1  0.00000000  0.83856000  0.25000000  1
  Si  Si20  1  0.50000000  0.60571100  0.03901900  1
  Si  Si21  1  0.00000000  0.89428900  0.96098100  1
  Si  Si22  1  0.00000000  0.89428900  0.53901900  1
  Si  Si23  1  0.50000000  0.60571100  0.46098100  1
  Pd  Pd24  1  0.50000000  0.20474700  0.09454000  1
  Pd  Pd25  1  0.00000000  0.29525300  0.90546000  1
  Pd  Pd26  1  0.00000000  0.29525300  0.59454000  1
  Pd  Pd27  1  0.50000000  0.20474700  0.40546000  1
  Pd  Pd28  1  0.00000000  0.70474700  0.09454000  1
  Pd  Pd29  1  0.50000000  0.79525300  0.90546000  1
  Pd  Pd30  1  0.50000000  0.79525300  0.59454000  1
  Pd  Pd31  1  0.00000000  0.70474700  0.40546000  1
