# generated using pymatgen
data_Co(PdSe)2
_symmetry_space_group_name_H-M   'P 1'
_cell_length_a   5.04260400
_cell_length_b   6.04421400
_cell_length_c   10.64484600
_cell_angle_alpha   90.00000000
_cell_angle_beta   90.00000000
_cell_angle_gamma   90.00000000
_symmetry_Int_Tables_number   1
_chemical_formula_structural   Co(PdSe)2
_chemical_formula_sum   'Co4 Pd8 Se8'
_cell_volume   324.43976584
_cell_formula_units_Z   4
loop_
 _symmetry_equiv_pos_site_id
 _symmetry_equiv_pos_as_xyz
  1  'x, y, z'
loop_
 _atom_site_type_symbol
 _atom_site_label
 _atom_site_symmetry_multiplicity
 _atom_site_fract_x
 _atom_site_fract_y
 _atom_site_fract_z
 _atom_site_occupancy
  Co  Co0  1  0.25000000  0.00000000  0.00000000  1
  Co  Co1  1  0.75000000  0.00000000  0.00000000  1
  Co  Co2  1  0.75000000  0.50000000  0.50000000  1
  Co  Co3  1  0.25000000  0.50000000  0.50000000  1
  Pd  Pd4  1  0.00000000  0.37576100  0.11280400  1
  Pd  Pd5  1  0.50000000  0.12423900  0.38719600  1
  Pd  Pd6  1  0.00000000  0.87576100  0.38719600  1
  Pd  Pd7  1  0.50000000  0.62423900  0.11280400  1
  Pd  Pd8  1  0.50000000  0.87576100  0.61280400  1
  Pd  Pd9  1  0.00000000  0.62423900  0.88719600  1
  Pd  Pd10  1  0.50000000  0.37576100  0.88719600  1
  Pd  Pd11  1  0.00000000  0.12423900  0.61280400  1
  Se  Se12  1  0.00000000  0.29009600  0.35872200  1
  Se  Se13  1  0.50000000  0.20990400  0.14127800  1
  Se  Se14  1  0.50000000  0.70990400  0.35872200  1
  Se  Se15  1  0.00000000  0.79009600  0.14127800  1
  Se  Se16  1  0.50000000  0.79009600  0.85872200  1
  Se  Se17  1  0.00000000  0.70990400  0.64127800  1
  Se  Se18  1  0.00000000  0.20990400  0.85872200  1
  Se  Se19  1  0.50000000  0.29009600  0.64127800  1
