# generated using pymatgen
data_RbUCuS3
_symmetry_space_group_name_H-M   'P 1'
_cell_length_a   3.98051600
_cell_length_b   14.76520400
_cell_length_c   10.30767700
_cell_angle_alpha   90.00000000
_cell_angle_beta   90.00000000
_cell_angle_gamma   90.00000000
_symmetry_Int_Tables_number   1
_chemical_formula_structural   RbUCuS3
_chemical_formula_sum   'Rb4 U4 Cu4 S12'
_cell_volume   605.81444821
_cell_formula_units_Z   4
loop_
 _symmetry_equiv_pos_site_id
 _symmetry_equiv_pos_as_xyz
  1  'x, y, z'
loop_
 _atom_site_type_symbol
 _atom_site_label
 _atom_site_symmetry_multiplicity
 _atom_site_fract_x
 _atom_site_fract_y
 _atom_site_fract_z
 _atom_site_occupancy
  Rb  Rb0  1  0.00000000  0.25818300  0.75000000  1
  Rb  Rb1  1  0.50000000  0.24181700  0.25000000  1
  Rb  Rb2  1  0.50000000  0.75818300  0.75000000  1
  Rb  Rb3  1  0.00000000  0.74181700  0.25000000  1
  U  U4  1  0.00000000  0.00000000  0.00000000  1
  U  U5  1  0.00000000  0.00000000  0.50000000  1
  U  U6  1  0.50000000  0.50000000  0.00000000  1
  U  U7  1  0.50000000  0.50000000  0.50000000  1
  Cu  Cu8  1  0.00000000  0.46668100  0.25000000  1
  Cu  Cu9  1  0.50000000  0.03331900  0.75000000  1
  Cu  Cu10  1  0.50000000  0.96668100  0.25000000  1
  Cu  Cu11  1  0.00000000  0.53331900  0.75000000  1
  S  S12  1  0.00000000  0.38262700  0.06094700  1
  S  S13  1  0.50000000  0.11737300  0.93905300  1
  S  S14  1  0.50000000  0.11737300  0.56094700  1
  S  S15  1  0.00000000  0.05663600  0.25000000  1
  S  S16  1  0.50000000  0.44336400  0.75000000  1
  S  S17  1  0.00000000  0.38262700  0.43905300  1
  S  S18  1  0.50000000  0.88262700  0.06094700  1
  S  S19  1  0.00000000  0.61737300  0.93905300  1
  S  S20  1  0.00000000  0.61737300  0.56094700  1
  S  S21  1  0.50000000  0.55663600  0.25000000  1
  S  S22  1  0.00000000  0.94336400  0.75000000  1
  S  S23  1  0.50000000  0.88262700  0.43905300  1
