# generated using pymatgen
data_Ca16(SiN2)17
_symmetry_space_group_name_H-M   'P 1'
_cell_length_a   15.10082200
_cell_length_b   15.10082200
_cell_length_c   15.10082200
_cell_angle_alpha   90.00000000
_cell_angle_beta   90.00000000
_cell_angle_gamma   90.00000000
_symmetry_Int_Tables_number   1
_chemical_formula_structural   Ca16(SiN2)17
_chemical_formula_sum   'Ca64 Si68 N136'
_cell_volume   3443.51330327
_cell_formula_units_Z   4
loop_
 _symmetry_equiv_pos_site_id
 _symmetry_equiv_pos_as_xyz
  1  'x, y, z'
loop_
 _atom_site_type_symbol
 _atom_site_label
 _atom_site_symmetry_multiplicity
 _atom_site_fract_x
 _atom_site_fract_y
 _atom_site_fract_z
 _atom_site_occupancy
  Ca  Ca0  1  0.50000000  0.00000000  0.21104300  1
  Ca  Ca1  1  0.71104300  0.00000000  0.00000000  1
  Ca  Ca2  1  0.50000000  0.21104300  0.00000000  1
  Ca  Ca3  1  0.50000000  0.00000000  0.78895700  1
  Ca  Ca4  1  0.00000000  0.28895700  0.00000000  1
  Ca  Ca5  1  0.28895700  0.00000000  0.00000000  1
  Ca  Ca6  1  0.25000000  0.49679100  0.25000000  1
  Ca  Ca7  1  0.25000000  0.25000000  0.49679100  1
  Ca  Ca8  1  0.49679100  0.25000000  0.25000000  1
  Ca  Ca9  1  0.25000000  0.00320900  0.25000000  1
  Ca  Ca10  1  0.25000000  0.25000000  0.00320900  1
  Ca  Ca11  1  0.00320900  0.25000000  0.25000000  1
  Ca  Ca12  1  0.07691800  0.42308200  0.57691800  1
  Ca  Ca13  1  0.07691800  0.07691800  0.92308200  1
  Ca  Ca14  1  0.42308200  0.07691800  0.57691800  1
  Ca  Ca15  1  0.42308200  0.42308200  0.92308200  1
  Ca  Ca16  1  0.50000000  0.50000000  0.71104300  1
  Ca  Ca17  1  0.71104300  0.50000000  0.50000000  1
  Ca  Ca18  1  0.50000000  0.71104300  0.50000000  1
  Ca  Ca19  1  0.50000000  0.50000000  0.28895700  1
  Ca  Ca20  1  0.00000000  0.78895700  0.50000000  1
  Ca  Ca21  1  0.28895700  0.50000000  0.50000000  1
  Ca  Ca22  1  0.25000000  0.99679100  0.75000000  1
  Ca  Ca23  1  0.25000000  0.75000000  0.99679100  1
  Ca  Ca24  1  0.49679100  0.75000000  0.75000000  1
  Ca  Ca25  1  0.25000000  0.50320900  0.75000000  1
  Ca  Ca26  1  0.25000000  0.75000000  0.50320900  1
  Ca  Ca27  1  0.00320900  0.75000000  0.75000000  1
  Ca  Ca28  1  0.07691800  0.92308200  0.07691800  1
  Ca  Ca29  1  0.07691800  0.57691800  0.42308200  1
  Ca  Ca30  1  0.42308200  0.57691800  0.07691800  1
  Ca  Ca31  1  0.42308200  0.92308200  0.42308200  1
  Ca  Ca32  1  0.00000000  0.00000000  0.71104300  1
  Ca  Ca33  1  0.21104300  0.00000000  0.50000000  1
  Ca  Ca34  1  0.00000000  0.21104300  0.50000000  1
  Ca  Ca35  1  0.00000000  0.00000000  0.28895700  1
  Ca  Ca36  1  0.50000000  0.28895700  0.50000000  1
  Ca  Ca37  1  0.78895700  0.00000000  0.50000000  1
  Ca  Ca38  1  0.75000000  0.49679100  0.75000000  1
  Ca  Ca39  1  0.75000000  0.25000000  0.99679100  1
  Ca  Ca40  1  0.99679100  0.25000000  0.75000000  1
  Ca  Ca41  1  0.75000000  0.00320900  0.75000000  1
  Ca  Ca42  1  0.75000000  0.25000000  0.50320900  1
  Ca  Ca43  1  0.50320900  0.25000000  0.75000000  1
  Ca  Ca44  1  0.57691800  0.42308200  0.07691800  1
  Ca  Ca45  1  0.57691800  0.07691800  0.42308200  1
  Ca  Ca46  1  0.92308200  0.07691800  0.07691800  1
  Ca  Ca47  1  0.92308200  0.42308200  0.42308200  1
  Ca  Ca48  1  0.00000000  0.50000000  0.21104300  1
  Ca  Ca49  1  0.21104300  0.50000000  0.00000000  1
  Ca  Ca50  1  0.00000000  0.71104300  0.00000000  1
  Ca  Ca51  1  0.00000000  0.50000000  0.78895700  1
  Ca  Ca52  1  0.50000000  0.78895700  0.00000000  1
  Ca  Ca53  1  0.78895700  0.50000000  0.00000000  1
  Ca  Ca54  1  0.75000000  0.99679100  0.25000000  1
  Ca  Ca55  1  0.75000000  0.75000000  0.49679100  1
  Ca  Ca56  1  0.99679100  0.75000000  0.25000000  1
  Ca  Ca57  1  0.75000000  0.50320900  0.25000000  1
  Ca  Ca58  1  0.75000000  0.75000000  0.00320900  1
  Ca  Ca59  1  0.50320900  0.75000000  0.25000000  1
  Ca  Ca60  1  0.57691800  0.92308200  0.57691800  1
  Ca  Ca61  1  0.57691800  0.57691800  0.92308200  1
  Ca  Ca62  1  0.92308200  0.57691800  0.57691800  1
  Ca  Ca63  1  0.92308200  0.92308200  0.92308200  1
  Si  Si64  1  0.50000000  0.00000000  0.00000000  1
  Si  Si65  1  0.63471833  0.13471833  0.13471833  1
  Si  Si66  1  0.13471833  0.36528167  0.86528167  1
  Si  Si67  1  0.86528167  0.36528167  0.13471833  1
  Si  Si68  1  0.36528167  0.13471833  0.86528167  1
  Si  Si69  1  0.31947800  0.18052200  0.68052200  1
  Si  Si70  1  0.18052200  0.31947800  0.68052200  1
  Si  Si71  1  0.18052200  0.18052200  0.81947800  1
  Si  Si72  1  0.31947800  0.31947800  0.81947800  1
  Si  Si73  1  0.13669100  0.36330900  0.36330900  1
  Si  Si74  1  0.36330900  0.13669100  0.36330900  1
  Si  Si75  1  0.36330900  0.36330900  0.13669100  1
  Si  Si76  1  0.13669100  0.13669100  0.13669100  1
  Si  Si77  1  0.32228200  0.32228200  0.32228200  1
  Si  Si78  1  0.32228200  0.17771800  0.17771800  1
  Si  Si79  1  0.17771800  0.17771800  0.32228200  1
  Si  Si80  1  0.17771800  0.32228200  0.17771800  1
  Si  Si81  1  0.50000000  0.50000000  0.50000000  1
  Si  Si82  1  0.63471833  0.63471833  0.63471833  1
  Si  Si83  1  0.13471833  0.86528167  0.36528167  1
  Si  Si84  1  0.86528167  0.86528167  0.63471833  1
  Si  Si85  1  0.36528167  0.63471833  0.36528167  1
  Si  Si86  1  0.31947800  0.68052200  0.18052200  1
  Si  Si87  1  0.18052200  0.81947800  0.18052200  1
  Si  Si88  1  0.18052200  0.68052200  0.31947800  1
  Si  Si89  1  0.31947800  0.81947800  0.31947800  1
  Si  Si90  1  0.13669100  0.86330900  0.86330900  1
  Si  Si91  1  0.36330900  0.63669100  0.86330900  1
  Si  Si92  1  0.36330900  0.86330900  0.63669100  1
  Si  Si93  1  0.13669100  0.63669100  0.63669100  1
  Si  Si94  1  0.32228200  0.82228200  0.82228200  1
  Si  Si95  1  0.32228200  0.67771800  0.67771800  1
  Si  Si96  1  0.17771800  0.67771800  0.82228200  1
  Si  Si97  1  0.17771800  0.82228200  0.67771800  1
  Si  Si98  1  0.00000000  0.00000000  0.50000000  1
  Si  Si99  1  0.13471833  0.13471833  0.63471833  1
  Si  Si100  1  0.63471833  0.36528167  0.36528167  1
  Si  Si101  1  0.36528167  0.36528167  0.63471833  1
  Si  Si102  1  0.86528167  0.13471833  0.36528167  1
  Si  Si103  1  0.81947800  0.18052200  0.18052200  1
  Si  Si104  1  0.68052200  0.31947800  0.18052200  1
  Si  Si105  1  0.68052200  0.18052200  0.31947800  1
  Si  Si106  1  0.81947800  0.31947800  0.31947800  1
  Si  Si107  1  0.63669100  0.36330900  0.86330900  1
  Si  Si108  1  0.86330900  0.13669100  0.86330900  1
  Si  Si109  1  0.86330900  0.36330900  0.63669100  1
  Si  Si110  1  0.63669100  0.13669100  0.63669100  1
  Si  Si111  1  0.82228200  0.32228200  0.82228200  1
  Si  Si112  1  0.82228200  0.17771800  0.67771800  1
  Si  Si113  1  0.67771800  0.17771800  0.82228200  1
  Si  Si114  1  0.67771800  0.32228200  0.67771800  1
  Si  Si115  1  0.00000000  0.50000000  0.00000000  1
  Si  Si116  1  0.13471833  0.63471833  0.13471833  1
  Si  Si117  1  0.63471833  0.86528167  0.86528167  1
  Si  Si118  1  0.36528167  0.86528167  0.13471833  1
  Si  Si119  1  0.86528167  0.63471833  0.86528167  1
  Si  Si120  1  0.81947800  0.68052200  0.68052200  1
  Si  Si121  1  0.68052200  0.81947800  0.68052200  1
  Si  Si122  1  0.68052200  0.68052200  0.81947800  1
  Si  Si123  1  0.81947800  0.81947800  0.81947800  1
  Si  Si124  1  0.63669100  0.86330900  0.36330900  1
  Si  Si125  1  0.86330900  0.63669100  0.36330900  1
  Si  Si126  1  0.86330900  0.86330900  0.13669100  1
  Si  Si127  1  0.63669100  0.63669100  0.13669100  1
  Si  Si128  1  0.82228200  0.82228200  0.32228200  1
  Si  Si129  1  0.82228200  0.67771800  0.17771800  1
  Si  Si130  1  0.67771800  0.67771800  0.32228200  1
  Si  Si131  1  0.67771800  0.82228200  0.17771800  1
  N  N132  1  0.56810200  0.06810200  0.06810200  1
  N  N133  1  0.06810200  0.43189800  0.93189800  1
  N  N134  1  0.93189800  0.43189800  0.06810200  1
  N  N135  1  0.43189800  0.06810200  0.93189800  1
  N  N136  1  0.74937900  0.11595600  0.11595600  1
  N  N137  1  0.61595600  0.24937900  0.11595600  1
  N  N138  1  0.61595600  0.11595600  0.24937900  1
  N  N139  1  0.24937900  0.38404400  0.88404400  1
  N  N140  1  0.11595600  0.25062100  0.88404400  1
  N  N141  1  0.11595600  0.38404400  0.75062100  1
  N  N142  1  0.75062100  0.38404400  0.11595600  1
  N  N143  1  0.88404400  0.25062100  0.11595600  1
  N  N144  1  0.88404400  0.38404400  0.24937900  1
  N  N145  1  0.25062100  0.11595600  0.88404400  1
  N  N146  1  0.38404400  0.24937900  0.88404400  1
  N  N147  1  0.38404400  0.11595600  0.75062100  1
  N  N148  1  0.25000000  0.25000000  0.75000000  1
  N  N149  1  0.25000000  0.25000000  0.25000000  1
  N  N150  1  0.75016250  0.38445325  0.88445325  1
  N  N151  1  0.88445325  0.25016250  0.88445325  1
  N  N152  1  0.88445325  0.38445325  0.75016250  1
  N  N153  1  0.25016250  0.11554675  0.11554675  1
  N  N154  1  0.38445325  0.24983750  0.11554675  1
  N  N155  1  0.38445325  0.11554675  0.24983750  1
  N  N156  1  0.74983750  0.11554675  0.88445325  1
  N  N157  1  0.61554675  0.24983750  0.88445325  1
  N  N158  1  0.61554675  0.11554675  0.75016250  1
  N  N159  1  0.24983750  0.38445325  0.11554675  1
  N  N160  1  0.11554675  0.25016250  0.11554675  1
  N  N161  1  0.11554675  0.38445325  0.24983750  1
  N  N162  1  0.07285633  0.42714367  0.42714367  1
  N  N163  1  0.42714367  0.07285633  0.42714367  1
  N  N164  1  0.42714367  0.42714367  0.07285633  1
  N  N165  1  0.07285633  0.07285633  0.07285633  1
  N  N166  1  0.56810200  0.56810200  0.56810200  1
  N  N167  1  0.06810200  0.93189800  0.43189800  1
  N  N168  1  0.93189800  0.93189800  0.56810200  1
  N  N169  1  0.43189800  0.56810200  0.43189800  1
  N  N170  1  0.74937900  0.61595600  0.61595600  1
  N  N171  1  0.61595600  0.74937900  0.61595600  1
  N  N172  1  0.61595600  0.61595600  0.74937900  1
  N  N173  1  0.24937900  0.88404400  0.38404400  1
  N  N174  1  0.11595600  0.75062100  0.38404400  1
  N  N175  1  0.11595600  0.88404400  0.25062100  1
  N  N176  1  0.75062100  0.88404400  0.61595600  1
  N  N177  1  0.88404400  0.75062100  0.61595600  1
  N  N178  1  0.88404400  0.88404400  0.74937900  1
  N  N179  1  0.25062100  0.61595600  0.38404400  1
  N  N180  1  0.38404400  0.74937900  0.38404400  1
  N  N181  1  0.38404400  0.61595600  0.25062100  1
  N  N182  1  0.25000000  0.75000000  0.25000000  1
  N  N183  1  0.25000000  0.75000000  0.75000000  1
  N  N184  1  0.75016250  0.88445325  0.38445325  1
  N  N185  1  0.88445325  0.75016250  0.38445325  1
  N  N186  1  0.88445325  0.88445325  0.25016250  1
  N  N187  1  0.25016250  0.61554675  0.61554675  1
  N  N188  1  0.38445325  0.74983750  0.61554675  1
  N  N189  1  0.38445325  0.61554675  0.74983750  1
  N  N190  1  0.74983750  0.61554675  0.38445325  1
  N  N191  1  0.61554675  0.74983750  0.38445325  1
  N  N192  1  0.61554675  0.61554675  0.25016250  1
  N  N193  1  0.24983750  0.88445325  0.61554675  1
  N  N194  1  0.11554675  0.75016250  0.61554675  1
  N  N195  1  0.11554675  0.88445325  0.74983750  1
  N  N196  1  0.07285633  0.92714367  0.92714367  1
  N  N197  1  0.42714367  0.57285633  0.92714367  1
  N  N198  1  0.42714367  0.92714367  0.57285633  1
  N  N199  1  0.07285633  0.57285633  0.57285633  1
  N  N200  1  0.06810200  0.06810200  0.56810200  1
  N  N201  1  0.56810200  0.43189800  0.43189800  1
  N  N202  1  0.43189800  0.43189800  0.56810200  1
  N  N203  1  0.93189800  0.06810200  0.43189800  1
  N  N204  1  0.24937900  0.11595600  0.61595600  1
  N  N205  1  0.11595600  0.24937900  0.61595600  1
  N  N206  1  0.11595600  0.11595600  0.74937900  1
  N  N207  1  0.74937900  0.38404400  0.38404400  1
  N  N208  1  0.61595600  0.25062100  0.38404400  1
  N  N209  1  0.61595600  0.38404400  0.25062100  1
  N  N210  1  0.25062100  0.38404400  0.61595600  1
  N  N211  1  0.38404400  0.25062100  0.61595600  1
  N  N212  1  0.38404400  0.38404400  0.74937900  1
  N  N213  1  0.75062100  0.11595600  0.38404400  1
  N  N214  1  0.88404400  0.24937900  0.38404400  1
  N  N215  1  0.88404400  0.11595600  0.25062100  1
  N  N216  1  0.75000000  0.25000000  0.25000000  1
  N  N217  1  0.75000000  0.25000000  0.75000000  1
  N  N218  1  0.25016250  0.38445325  0.38445325  1
  N  N219  1  0.38445325  0.25016250  0.38445325  1
  N  N220  1  0.38445325  0.38445325  0.25016250  1
  N  N221  1  0.75016250  0.11554675  0.61554675  1
  N  N222  1  0.88445325  0.24983750  0.61554675  1
  N  N223  1  0.88445325  0.11554675  0.74983750  1
  N  N224  1  0.24983750  0.11554675  0.38445325  1
  N  N225  1  0.11554675  0.24983750  0.38445325  1
  N  N226  1  0.11554675  0.11554675  0.25016250  1
  N  N227  1  0.74983750  0.38445325  0.61554675  1
  N  N228  1  0.61554675  0.25016250  0.61554675  1
  N  N229  1  0.61554675  0.38445325  0.74983750  1
  N  N230  1  0.57285633  0.42714367  0.92714367  1
  N  N231  1  0.92714367  0.07285633  0.92714367  1
  N  N232  1  0.92714367  0.42714367  0.57285633  1
  N  N233  1  0.57285633  0.07285633  0.57285633  1
  N  N234  1  0.06810200  0.56810200  0.06810200  1
  N  N235  1  0.56810200  0.93189800  0.93189800  1
  N  N236  1  0.43189800  0.93189800  0.06810200  1
  N  N237  1  0.93189800  0.56810200  0.93189800  1
  N  N238  1  0.24937900  0.61595600  0.11595600  1
  N  N239  1  0.11595600  0.74937900  0.11595600  1
  N  N240  1  0.11595600  0.61595600  0.24937900  1
  N  N241  1  0.74937900  0.88404400  0.88404400  1
  N  N242  1  0.61595600  0.75062100  0.88404400  1
  N  N243  1  0.61595600  0.88404400  0.75062100  1
  N  N244  1  0.25062100  0.88404400  0.11595600  1
  N  N245  1  0.38404400  0.75062100  0.11595600  1
  N  N246  1  0.38404400  0.88404400  0.24937900  1
  N  N247  1  0.75062100  0.61595600  0.88404400  1
  N  N248  1  0.88404400  0.74937900  0.88404400  1
  N  N249  1  0.88404400  0.61595600  0.75062100  1
  N  N250  1  0.75000000  0.75000000  0.75000000  1
  N  N251  1  0.75000000  0.75000000  0.25000000  1
  N  N252  1  0.25016250  0.88445325  0.88445325  1
  N  N253  1  0.38445325  0.75016250  0.88445325  1
  N  N254  1  0.38445325  0.88445325  0.75016250  1
  N  N255  1  0.75016250  0.61554675  0.11554675  1
  N  N256  1  0.88445325  0.74983750  0.11554675  1
  N  N257  1  0.88445325  0.61554675  0.24983750  1
  N  N258  1  0.24983750  0.61554675  0.88445325  1
  N  N259  1  0.11554675  0.74983750  0.88445325  1
  N  N260  1  0.11554675  0.61554675  0.75016250  1
  N  N261  1  0.74983750  0.88445325  0.11554675  1
  N  N262  1  0.61554675  0.75016250  0.11554675  1
  N  N263  1  0.61554675  0.88445325  0.24983750  1
  N  N264  1  0.57285633  0.92714367  0.42714367  1
  N  N265  1  0.92714367  0.57285633  0.42714367  1
  N  N266  1  0.92714367  0.92714367  0.07285633  1
  N  N267  1  0.57285633  0.57285633  0.07285633  1
