# generated using pymatgen
data_Ca(NiO2)4
_symmetry_space_group_name_H-M   'P 1'
_cell_length_a   5.71534824
_cell_length_b   5.71534824
_cell_length_c   16.76249953
_cell_angle_alpha   90.00000000
_cell_angle_beta   90.00000000
_cell_angle_gamma   120.00000000
_symmetry_Int_Tables_number   1
_chemical_formula_structural   Ca(NiO2)4
_chemical_formula_sum   'Ca3 Ni12 O24'
_cell_volume   474.19263655
_cell_formula_units_Z   3
loop_
 _symmetry_equiv_pos_site_id
 _symmetry_equiv_pos_as_xyz
  1  'x, y, z'
loop_
 _atom_site_type_symbol
 _atom_site_label
 _atom_site_symmetry_multiplicity
 _atom_site_fract_x
 _atom_site_fract_y
 _atom_site_fract_z
 _atom_site_occupancy
  Ca  Ca0  1  0.66666667  0.33333333  0.83333333  1
  Ca  Ca1  1  0.33333333  0.66666667  0.16666667  1
  Ca  Ca2  1  1.00000000  1.00000000  0.50000000  1
  Ni  Ni3  1  0.33333333  0.66666667  0.66666667  1
  Ni  Ni4  1  0.50000000  0.50000000  0.00000000  1
  Ni  Ni5  1  0.33333333  0.16666667  0.66666667  1
  Ni  Ni6  1  0.83333333  0.66666667  0.66666667  1
  Ni  Ni7  1  1.00000000  1.00000000  0.00000000  1
  Ni  Ni8  1  0.16666667  0.83333333  0.33333333  1
  Ni  Ni9  1  0.00000000  0.50000000  1.00000000  1
  Ni  Ni10  1  0.50000000  0.00000000  1.00000000  1
  Ni  Ni11  1  0.66666667  0.33333333  0.33333333  1
  Ni  Ni12  1  0.83333333  0.16666667  0.66666667  1
  Ni  Ni13  1  0.66666667  0.83333333  0.33333333  1
  Ni  Ni14  1  0.16666667  0.33333333  0.33333333  1
  O  O15  1  0.33333333  0.66666667  0.94283883  1
  O  O16  1  0.00000000  0.00000000  0.72382783  1
  O  O17  1  0.82232875  0.17767125  0.94002450  1
  O  O18  1  0.51100458  0.02200917  0.72664217  1
  O  O19  1  0.51100458  0.48899542  0.72664217  1
  O  O20  1  0.97799083  0.48899542  0.72664217  1
  O  O21  1  0.35534250  0.17767125  0.94002450  1
  O  O22  1  0.82232875  0.64465750  0.94002450  1
  O  O23  1  0.00000000  0.00000000  0.27617217  1
  O  O24  1  0.66666667  0.33333333  0.05716117  1
  O  O25  1  0.48899542  0.51100458  0.27335783  1
  O  O26  1  0.17767125  0.35534250  0.05997550  1
  O  O27  1  0.17767125  0.82232875  0.05997550  1
  O  O28  1  0.64465750  0.82232875  0.05997550  1
  O  O29  1  0.02200917  0.51100458  0.27335783  1
  O  O30  1  0.48899542  0.97799083  0.27335783  1
  O  O31  1  0.66666667  0.33333333  0.60950550  1
  O  O32  1  0.33333333  0.66666667  0.39049450  1
  O  O33  1  0.15566208  0.84433792  0.60669117  1
  O  O34  1  0.84433792  0.68867583  0.39330883  1
  O  O35  1  0.84433792  0.15566208  0.39330883  1
  O  O36  1  0.31132417  0.15566208  0.39330883  1
  O  O37  1  0.68867583  0.84433792  0.60669117  1
  O  O38  1  0.15566208  0.31132417  0.60669117  1
