# generated using pymatgen
data_Sr(Ni2B)6
_symmetry_space_group_name_H-M   'P 1'
_cell_length_a   9.56527772
_cell_length_b   9.56527772
_cell_length_c   7.44491456
_cell_angle_alpha   90.00000000
_cell_angle_beta   90.00000000
_cell_angle_gamma   120.00000000
_symmetry_Int_Tables_number   1
_chemical_formula_structural   Sr(Ni2B)6
_chemical_formula_sum   'Sr3 Ni36 B18'
_cell_volume   589.90967275
_cell_formula_units_Z   3
loop_
 _symmetry_equiv_pos_site_id
 _symmetry_equiv_pos_as_xyz
  1  'x, y, z'
loop_
 _atom_site_type_symbol
 _atom_site_label
 _atom_site_symmetry_multiplicity
 _atom_site_fract_x
 _atom_site_fract_y
 _atom_site_fract_z
 _atom_site_occupancy
  Sr  Sr0  1  0.00000000  0.00000000  0.00000000  1
  Sr  Sr1  1  0.66666667  0.33333333  0.33333333  1
  Sr  Sr2  1  0.33333333  0.66666667  0.66666667  1
  Ni  Ni3  1  0.00000000  0.36862500  0.50000000  1
  Ni  Ni4  1  0.09086067  0.18172133  0.36945433  1
  Ni  Ni5  1  0.36862500  0.00000000  0.50000000  1
  Ni  Ni6  1  0.81827867  0.90913933  0.36945433  1
  Ni  Ni7  1  0.18172133  0.09086067  0.63054567  1
  Ni  Ni8  1  0.90913933  0.81827867  0.63054567  1
  Ni  Ni9  1  0.90913933  0.09086067  0.63054567  1
  Ni  Ni10  1  0.63137500  0.00000000  0.50000000  1
  Ni  Ni11  1  0.00000000  0.63137500  0.50000000  1
  Ni  Ni12  1  0.36862500  0.36862500  0.50000000  1
  Ni  Ni13  1  0.09086067  0.90913933  0.36945433  1
  Ni  Ni14  1  0.63137500  0.63137500  0.50000000  1
  Ni  Ni15  1  0.66666667  0.70195833  0.83333333  1
  Ni  Ni16  1  0.75752733  0.51505467  0.70278767  1
  Ni  Ni17  1  0.03529167  0.33333333  0.83333333  1
  Ni  Ni18  1  0.48494533  0.24247267  0.70278767  1
  Ni  Ni19  1  0.84838800  0.42419400  0.96387900  1
  Ni  Ni20  1  0.57580600  0.15161200  0.96387900  1
  Ni  Ni21  1  0.57580600  0.42419400  0.96387900  1
  Ni  Ni22  1  0.29804167  0.33333333  0.83333333  1
  Ni  Ni23  1  0.66666667  0.96470833  0.83333333  1
  Ni  Ni24  1  0.03529167  0.70195833  0.83333333  1
  Ni  Ni25  1  0.75752733  0.24247267  0.70278767  1
  Ni  Ni26  1  0.29804167  0.96470833  0.83333333  1
  Ni  Ni27  1  0.33333333  0.03529167  0.16666667  1
  Ni  Ni28  1  0.42419400  0.84838800  0.03612100  1
  Ni  Ni29  1  0.70195833  0.66666667  0.16666667  1
  Ni  Ni30  1  0.15161200  0.57580600  0.03612100  1
  Ni  Ni31  1  0.51505467  0.75752733  0.29721233  1
  Ni  Ni32  1  0.24247267  0.48494533  0.29721233  1
  Ni  Ni33  1  0.24247267  0.75752733  0.29721233  1
  Ni  Ni34  1  0.96470833  0.66666667  0.16666667  1
  Ni  Ni35  1  0.33333333  0.29804167  0.16666667  1
  Ni  Ni36  1  0.70195833  0.03529167  0.16666667  1
  Ni  Ni37  1  0.42419400  0.57580600  0.03612100  1
  Ni  Ni38  1  0.96470833  0.29804167  0.16666667  1
  B  B39  1  0.14183867  0.85816133  0.62454833  1
  B  B40  1  0.28367733  0.14183867  0.37545167  1
  B  B41  1  0.85816133  0.14183867  0.37545167  1
  B  B42  1  0.85816133  0.71632267  0.37545167  1
  B  B43  1  0.14183867  0.28367733  0.62454833  1
  B  B44  1  0.71632267  0.85816133  0.62454833  1
  B  B45  1  0.80850533  0.19149467  0.95788167  1
  B  B46  1  0.95034400  0.47517200  0.70878500  1
  B  B47  1  0.52482800  0.47517200  0.70878500  1
  B  B48  1  0.52482800  0.04965600  0.70878500  1
  B  B49  1  0.80850533  0.61701067  0.95788167  1
  B  B50  1  0.38298933  0.19149467  0.95788167  1
  B  B51  1  0.47517200  0.52482800  0.29121500  1
  B  B52  1  0.61701067  0.80850533  0.04211833  1
  B  B53  1  0.19149467  0.80850533  0.04211833  1
  B  B54  1  0.19149467  0.38298933  0.04211833  1
  B  B55  1  0.47517200  0.95034400  0.29121500  1
  B  B56  1  0.04965600  0.52482800  0.29121500  1
