# generated using pymatgen
data_Ba3Sn5
_symmetry_space_group_name_H-M   'P 1'
_cell_length_a   9.10453600
_cell_length_b   11.17397000
_cell_length_c   11.31927300
_cell_angle_alpha   90.00000000
_cell_angle_beta   90.00000000
_cell_angle_gamma   90.00000000
_symmetry_Int_Tables_number   1
_chemical_formula_structural   Ba3Sn5
_chemical_formula_sum   'Ba12 Sn20'
_cell_volume   1151.55279281
_cell_formula_units_Z   4
loop_
 _symmetry_equiv_pos_site_id
 _symmetry_equiv_pos_as_xyz
  1  'x, y, z'
loop_
 _atom_site_type_symbol
 _atom_site_label
 _atom_site_symmetry_multiplicity
 _atom_site_fract_x
 _atom_site_fract_y
 _atom_site_fract_z
 _atom_site_occupancy
  Ba  Ba0  1  0.50000000  0.79466300  0.50000000  1
  Ba  Ba1  1  0.50000000  0.20533700  0.00000000  1
  Ba  Ba2  1  0.50000000  0.20533700  0.50000000  1
  Ba  Ba3  1  0.50000000  0.79466300  0.00000000  1
  Ba  Ba4  1  0.85039900  0.00000000  0.75000000  1
  Ba  Ba5  1  0.14960100  0.00000000  0.25000000  1
  Ba  Ba6  1  0.00000000  0.29466300  0.50000000  1
  Ba  Ba7  1  0.00000000  0.70533700  0.00000000  1
  Ba  Ba8  1  0.00000000  0.70533700  0.50000000  1
  Ba  Ba9  1  0.00000000  0.29466300  0.00000000  1
  Ba  Ba10  1  0.35039900  0.50000000  0.75000000  1
  Ba  Ba11  1  0.64960100  0.50000000  0.25000000  1
  Sn  Sn12  1  0.80687800  0.00000000  0.43964200  1
  Sn  Sn13  1  0.19312200  0.00000000  0.93964200  1
  Sn  Sn14  1  0.80687800  0.00000000  0.06035800  1
  Sn  Sn15  1  0.19312200  0.00000000  0.56035800  1
  Sn  Sn16  1  0.21177650  0.19199750  0.75000000  1
  Sn  Sn17  1  0.78822350  0.80800250  0.25000000  1
  Sn  Sn18  1  0.55065700  0.00000000  0.25000000  1
  Sn  Sn19  1  0.44934300  0.00000000  0.75000000  1
  Sn  Sn20  1  0.78822350  0.19199750  0.25000000  1
  Sn  Sn21  1  0.21177650  0.80800250  0.75000000  1
  Sn  Sn22  1  0.30687800  0.50000000  0.43964200  1
  Sn  Sn23  1  0.69312200  0.50000000  0.93964200  1
  Sn  Sn24  1  0.30687800  0.50000000  0.06035800  1
  Sn  Sn25  1  0.69312200  0.50000000  0.56035800  1
  Sn  Sn26  1  0.71177650  0.69199750  0.75000000  1
  Sn  Sn27  1  0.28822350  0.30800250  0.25000000  1
  Sn  Sn28  1  0.05065700  0.50000000  0.25000000  1
  Sn  Sn29  1  0.94934300  0.50000000  0.75000000  1
  Sn  Sn30  1  0.28822350  0.69199750  0.25000000  1
  Sn  Sn31  1  0.71177650  0.30800250  0.75000000  1
