# generated using pymatgen
data_Mg4As6Ir7
_symmetry_space_group_name_H-M   'P 1'
_cell_length_a   8.18761600
_cell_length_b   8.18761600
_cell_length_c   8.18761600
_cell_angle_alpha   90.00000000
_cell_angle_beta   90.00000000
_cell_angle_gamma   90.00000000
_symmetry_Int_Tables_number   1
_chemical_formula_structural   Mg4As6Ir7
_chemical_formula_sum   'Mg8 As12 Ir14'
_cell_volume   548.87367036
_cell_formula_units_Z   2
loop_
 _symmetry_equiv_pos_site_id
 _symmetry_equiv_pos_as_xyz
  1  'x, y, z'
loop_
 _atom_site_type_symbol
 _atom_site_label
 _atom_site_symmetry_multiplicity
 _atom_site_fract_x
 _atom_site_fract_y
 _atom_site_fract_z
 _atom_site_occupancy
  Mg  Mg0  1  0.25000000  0.25000000  0.75000000  1
  Mg  Mg1  1  0.75000000  0.25000000  0.25000000  1
  Mg  Mg2  1  0.25000000  0.75000000  0.25000000  1
  Mg  Mg3  1  0.25000000  0.25000000  0.25000000  1
  Mg  Mg4  1  0.75000000  0.75000000  0.25000000  1
  Mg  Mg5  1  0.25000000  0.75000000  0.75000000  1
  Mg  Mg6  1  0.75000000  0.25000000  0.75000000  1
  Mg  Mg7  1  0.75000000  0.75000000  0.75000000  1
  As  As8  1  0.00000000  0.00000000  0.68633200  1
  As  As9  1  0.00000000  0.00000000  0.31366800  1
  As  As10  1  0.68633200  0.00000000  0.00000000  1
  As  As11  1  0.31366800  0.00000000  0.00000000  1
  As  As12  1  0.00000000  0.68633200  0.00000000  1
  As  As13  1  0.00000000  0.31366800  0.00000000  1
  As  As14  1  0.50000000  0.50000000  0.18633200  1
  As  As15  1  0.50000000  0.50000000  0.81366800  1
  As  As16  1  0.18633200  0.50000000  0.50000000  1
  As  As17  1  0.81366800  0.50000000  0.50000000  1
  As  As18  1  0.50000000  0.18633200  0.50000000  1
  As  As19  1  0.50000000  0.81366800  0.50000000  1
  Ir  Ir20  1  0.00000000  0.00000000  0.00000000  1
  Ir  Ir21  1  0.50000000  0.25000000  0.00000000  1
  Ir  Ir22  1  0.00000000  0.50000000  0.25000000  1
  Ir  Ir23  1  0.25000000  0.50000000  0.00000000  1
  Ir  Ir24  1  0.25000000  0.00000000  0.50000000  1
  Ir  Ir25  1  0.00000000  0.25000000  0.50000000  1
  Ir  Ir26  1  0.50000000  0.00000000  0.25000000  1
  Ir  Ir27  1  0.50000000  0.50000000  0.50000000  1
  Ir  Ir28  1  0.00000000  0.75000000  0.50000000  1
  Ir  Ir29  1  0.50000000  0.00000000  0.75000000  1
  Ir  Ir30  1  0.75000000  0.00000000  0.50000000  1
  Ir  Ir31  1  0.75000000  0.50000000  0.00000000  1
  Ir  Ir32  1  0.50000000  0.75000000  0.00000000  1
  Ir  Ir33  1  0.00000000  0.50000000  0.75000000  1
