# generated using pymatgen
data_PrAlGe
_symmetry_space_group_name_H-M   'P 1'
_cell_length_a   4.30424400
_cell_length_b   4.30424400
_cell_length_c   14.79553400
_cell_angle_alpha   90.00000000
_cell_angle_beta   90.00000000
_cell_angle_gamma   90.00000000
_symmetry_Int_Tables_number   1
_chemical_formula_structural   PrAlGe
_chemical_formula_sum   'Pr4 Al4 Ge4'
_cell_volume   274.10970347
_cell_formula_units_Z   4
loop_
 _symmetry_equiv_pos_site_id
 _symmetry_equiv_pos_as_xyz
  1  'x, y, z'
loop_
 _atom_site_type_symbol
 _atom_site_label
 _atom_site_symmetry_multiplicity
 _atom_site_fract_x
 _atom_site_fract_y
 _atom_site_fract_z
 _atom_site_occupancy
  Pr  Pr0  1  0.00000000  0.00000000  0.91672100  1
  Pr  Pr1  1  0.00000000  0.50000000  0.16672100  1
  Pr  Pr2  1  0.50000000  0.50000000  0.41672100  1
  Pr  Pr3  1  0.50000000  0.00000000  0.66672100  1
  Al  Al4  1  0.50000000  0.50000000  0.83277200  1
  Al  Al5  1  0.50000000  0.00000000  0.08277200  1
  Al  Al6  1  0.00000000  0.00000000  0.33277200  1
  Al  Al7  1  0.00000000  0.50000000  0.58277200  1
  Ge  Ge8  1  0.50000000  0.00000000  0.24900700  1
  Ge  Ge9  1  0.50000000  0.50000000  0.99900700  1
  Ge  Ge10  1  0.00000000  0.50000000  0.74900700  1
  Ge  Ge11  1  0.00000000  0.00000000  0.49900700  1
