# generated using pymatgen
data_TbCu2
_symmetry_space_group_name_H-M   'P 1'
_cell_length_a   4.31861200
_cell_length_b   6.92191000
_cell_length_c   7.31149800
_cell_angle_alpha   90.00000000
_cell_angle_beta   90.00000000
_cell_angle_gamma   90.00000000
_symmetry_Int_Tables_number   1
_chemical_formula_structural   TbCu2
_chemical_formula_sum   'Tb4 Cu8'
_cell_volume   218.56292841
_cell_formula_units_Z   4
loop_
 _symmetry_equiv_pos_site_id
 _symmetry_equiv_pos_as_xyz
  1  'x, y, z'
loop_
 _atom_site_type_symbol
 _atom_site_label
 _atom_site_symmetry_multiplicity
 _atom_site_fract_x
 _atom_site_fract_y
 _atom_site_fract_z
 _atom_site_occupancy
  Tb  Tb0  1  0.00000000  0.75000000  0.46163700  1
  Tb  Tb1  1  0.00000000  0.25000000  0.53836300  1
  Tb  Tb2  1  0.50000000  0.25000000  0.96163700  1
  Tb  Tb3  1  0.50000000  0.75000000  0.03836300  1
  Cu  Cu4  1  0.50000000  0.05038800  0.33478400  1
  Cu  Cu5  1  0.50000000  0.94961200  0.66521600  1
  Cu  Cu6  1  0.00000000  0.05038800  0.16521600  1
  Cu  Cu7  1  0.00000000  0.94961200  0.83478400  1
  Cu  Cu8  1  0.00000000  0.55038800  0.83478400  1
  Cu  Cu9  1  0.00000000  0.44961200  0.16521600  1
  Cu  Cu10  1  0.50000000  0.55038800  0.66521600  1
  Cu  Cu11  1  0.50000000  0.44961200  0.33478400  1
