# generated using pymatgen
data_Na3Ge3(MoO6)2
_symmetry_space_group_name_H-M   'P 1'
_cell_length_a   12.60059600
_cell_length_b   12.60059600
_cell_length_c   12.60059600
_cell_angle_alpha   90.00000000
_cell_angle_beta   90.00000000
_cell_angle_gamma   90.00000000
_symmetry_Int_Tables_number   1
_chemical_formula_structural   Na3Ge3(MoO6)2
_chemical_formula_sum   'Na24 Ge24 Mo16 O96'
_cell_volume   2000.65987631
_cell_formula_units_Z   8
loop_
 _symmetry_equiv_pos_site_id
 _symmetry_equiv_pos_as_xyz
  1  'x, y, z'
loop_
 _atom_site_type_symbol
 _atom_site_label
 _atom_site_symmetry_multiplicity
 _atom_site_fract_x
 _atom_site_fract_y
 _atom_site_fract_z
 _atom_site_occupancy
  Na  Na0  1  0.37500000  0.50000000  0.25000000  1
  Na  Na1  1  0.62500000  0.00000000  0.25000000  1
  Na  Na2  1  0.25000000  0.62500000  0.00000000  1
  Na  Na3  1  0.25000000  0.37500000  0.50000000  1
  Na  Na4  1  0.00000000  0.25000000  0.62500000  1
  Na  Na5  1  0.50000000  0.25000000  0.37500000  1
  Na  Na6  1  0.12500000  0.00000000  0.25000000  1
  Na  Na7  1  0.87500000  0.50000000  0.25000000  1
  Na  Na8  1  0.25000000  0.87500000  0.50000000  1
  Na  Na9  1  0.25000000  0.12500000  0.00000000  1
  Na  Na10  1  0.50000000  0.25000000  0.87500000  1
  Na  Na11  1  0.00000000  0.25000000  0.12500000  1
  Na  Na12  1  0.87500000  0.00000000  0.75000000  1
  Na  Na13  1  0.12500000  0.50000000  0.75000000  1
  Na  Na14  1  0.75000000  0.12500000  0.50000000  1
  Na  Na15  1  0.75000000  0.87500000  0.00000000  1
  Na  Na16  1  0.50000000  0.75000000  0.12500000  1
  Na  Na17  1  0.00000000  0.75000000  0.87500000  1
  Na  Na18  1  0.62500000  0.50000000  0.75000000  1
  Na  Na19  1  0.37500000  0.00000000  0.75000000  1
  Na  Na20  1  0.75000000  0.37500000  0.00000000  1
  Na  Na21  1  0.75000000  0.62500000  0.50000000  1
  Na  Na22  1  0.00000000  0.75000000  0.37500000  1
  Na  Na23  1  0.50000000  0.75000000  0.62500000  1
  Ge  Ge24  1  0.50000000  0.25000000  0.12500000  1
  Ge  Ge25  1  0.00000000  0.25000000  0.37500000  1
  Ge  Ge26  1  0.25000000  0.12500000  0.50000000  1
  Ge  Ge27  1  0.37500000  0.50000000  0.75000000  1
  Ge  Ge28  1  0.75000000  0.37500000  0.50000000  1
  Ge  Ge29  1  0.12500000  0.50000000  0.25000000  1
  Ge  Ge30  1  0.37500000  0.00000000  0.25000000  1
  Ge  Ge31  1  0.12500000  0.00000000  0.75000000  1
  Ge  Ge32  1  0.75000000  0.12500000  0.00000000  1
  Ge  Ge33  1  0.25000000  0.37500000  0.00000000  1
  Ge  Ge34  1  0.00000000  0.75000000  0.12500000  1
  Ge  Ge35  1  0.50000000  0.75000000  0.37500000  1
  Ge  Ge36  1  0.00000000  0.75000000  0.62500000  1
  Ge  Ge37  1  0.50000000  0.75000000  0.87500000  1
  Ge  Ge38  1  0.75000000  0.62500000  0.00000000  1
  Ge  Ge39  1  0.87500000  0.00000000  0.25000000  1
  Ge  Ge40  1  0.25000000  0.87500000  0.00000000  1
  Ge  Ge41  1  0.62500000  0.00000000  0.75000000  1
  Ge  Ge42  1  0.87500000  0.50000000  0.75000000  1
  Ge  Ge43  1  0.62500000  0.50000000  0.25000000  1
  Ge  Ge44  1  0.25000000  0.62500000  0.50000000  1
  Ge  Ge45  1  0.75000000  0.87500000  0.50000000  1
  Ge  Ge46  1  0.50000000  0.25000000  0.62500000  1
  Ge  Ge47  1  0.00000000  0.25000000  0.87500000  1
  Mo  Mo48  1  0.00000000  0.50000000  0.00000000  1
  Mo  Mo49  1  0.25000000  0.75000000  0.25000000  1
  Mo  Mo50  1  0.25000000  0.25000000  0.25000000  1
  Mo  Mo51  1  0.25000000  0.25000000  0.75000000  1
  Mo  Mo52  1  0.00000000  0.00000000  0.00000000  1
  Mo  Mo53  1  0.50000000  0.00000000  0.00000000  1
  Mo  Mo54  1  0.00000000  0.00000000  0.50000000  1
  Mo  Mo55  1  0.75000000  0.25000000  0.25000000  1
  Mo  Mo56  1  0.50000000  0.00000000  0.50000000  1
  Mo  Mo57  1  0.75000000  0.25000000  0.75000000  1
  Mo  Mo58  1  0.75000000  0.75000000  0.75000000  1
  Mo  Mo59  1  0.75000000  0.75000000  0.25000000  1
  Mo  Mo60  1  0.50000000  0.50000000  0.50000000  1
  Mo  Mo61  1  0.00000000  0.50000000  0.50000000  1
  Mo  Mo62  1  0.50000000  0.50000000  0.00000000  1
  Mo  Mo63  1  0.25000000  0.75000000  0.75000000  1
  O  O64  1  0.34960200  0.46455700  0.04500300  1
  O  O65  1  0.04500300  0.34960200  0.46455700  1
  O  O66  1  0.53544300  0.45499700  0.34960200  1
  O  O67  1  0.15039800  0.46455700  0.95499700  1
  O  O68  1  0.79500300  0.28544300  0.59960200  1
  O  O69  1  0.04500300  0.65039800  0.03544300  1
  O  O70  1  0.20499700  0.21455700  0.59960200  1
  O  O71  1  0.46455700  0.04500300  0.34960200  1
  O  O72  1  0.29500300  0.21455700  0.40039800  1
  O  O73  1  0.59960200  0.20499700  0.21455700  1
  O  O74  1  0.28544300  0.59960200  0.79500300  1
  O  O75  1  0.78544300  0.90039800  0.20499700  1
  O  O76  1  0.90039800  0.20499700  0.78544300  1
  O  O77  1  0.21455700  0.59960200  0.20499700  1
  O  O78  1  0.40039800  0.29500300  0.21455700  1
  O  O79  1  0.21455700  0.40039800  0.29500300  1
  O  O80  1  0.59960200  0.79500300  0.28544300  1
  O  O81  1  0.34960200  0.53544300  0.45499700  1
  O  O82  1  0.65039800  0.03544300  0.04500300  1
  O  O83  1  0.20499700  0.28544300  0.09960200  1
  O  O84  1  0.95499700  0.15039800  0.46455700  1
  O  O85  1  0.46455700  0.95499700  0.15039800  1
  O  O86  1  0.03544300  0.04500300  0.65039800  1
  O  O87  1  0.20499700  0.78544300  0.90039800  1
  O  O88  1  0.15039800  0.03544300  0.45499700  1
  O  O89  1  0.45499700  0.15039800  0.03544300  1
  O  O90  1  0.96455700  0.04500300  0.15039800  1
  O  O91  1  0.34960200  0.03544300  0.54500300  1
  O  O92  1  0.70499700  0.21455700  0.90039800  1
  O  O93  1  0.45499700  0.84960200  0.46455700  1
  O  O94  1  0.29500300  0.28544300  0.90039800  1
  O  O95  1  0.03544300  0.45499700  0.15039800  1
  O  O96  1  0.29500300  0.71455700  0.59960200  1
  O  O97  1  0.46455700  0.45499700  0.84960200  1
  O  O98  1  0.03544300  0.54500300  0.34960200  1
  O  O99  1  0.04500300  0.15039800  0.96455700  1
  O  O100  1  0.54500300  0.34960200  0.03544300  1
  O  O101  1  0.84960200  0.46455700  0.45499700  1
  O  O102  1  0.15039800  0.96455700  0.04500300  1
  O  O103  1  0.90039800  0.70499700  0.21455700  1
  O  O104  1  0.28544300  0.09960200  0.20499700  1
  O  O105  1  0.09960200  0.20499700  0.28544300  1
  O  O106  1  0.28544300  0.90039800  0.29500300  1
  O  O107  1  0.59960200  0.29500300  0.71455700  1
  O  O108  1  0.71455700  0.59960200  0.29500300  1
  O  O109  1  0.21455700  0.90039800  0.70499700  1
  O  O110  1  0.90039800  0.29500300  0.28544300  1
  O  O111  1  0.45499700  0.34960200  0.53544300  1
  O  O112  1  0.84960200  0.96455700  0.54500300  1
  O  O113  1  0.54500300  0.84960200  0.96455700  1
  O  O114  1  0.03544300  0.95499700  0.84960200  1
  O  O115  1  0.65039800  0.96455700  0.45499700  1
  O  O116  1  0.29500300  0.78544300  0.09960200  1
  O  O117  1  0.54500300  0.15039800  0.53544300  1
  O  O118  1  0.70499700  0.71455700  0.09960200  1
  O  O119  1  0.96455700  0.54500300  0.84960200  1
  O  O120  1  0.79500300  0.71455700  0.90039800  1
  O  O121  1  0.09960200  0.70499700  0.71455700  1
  O  O122  1  0.78544300  0.09960200  0.29500300  1
  O  O123  1  0.28544300  0.40039800  0.70499700  1
  O  O124  1  0.40039800  0.70499700  0.28544300  1
  O  O125  1  0.71455700  0.09960200  0.70499700  1
  O  O126  1  0.90039800  0.79500300  0.71455700  1
  O  O127  1  0.71455700  0.90039800  0.79500300  1
  O  O128  1  0.09960200  0.29500300  0.78544300  1
  O  O129  1  0.84960200  0.03544300  0.95499700  1
  O  O130  1  0.15039800  0.53544300  0.54500300  1
  O  O131  1  0.70499700  0.78544300  0.59960200  1
  O  O132  1  0.45499700  0.65039800  0.96455700  1
  O  O133  1  0.96455700  0.45499700  0.65039800  1
  O  O134  1  0.53544300  0.54500300  0.15039800  1
  O  O135  1  0.70499700  0.28544300  0.40039800  1
  O  O136  1  0.65039800  0.53544300  0.95499700  1
  O  O137  1  0.95499700  0.65039800  0.53544300  1
  O  O138  1  0.46455700  0.54500300  0.65039800  1
  O  O139  1  0.84960200  0.53544300  0.04500300  1
  O  O140  1  0.20499700  0.71455700  0.40039800  1
  O  O141  1  0.95499700  0.34960200  0.96455700  1
  O  O142  1  0.79500300  0.78544300  0.40039800  1
  O  O143  1  0.53544300  0.95499700  0.65039800  1
  O  O144  1  0.79500300  0.21455700  0.09960200  1
  O  O145  1  0.96455700  0.95499700  0.34960200  1
  O  O146  1  0.53544300  0.04500300  0.84960200  1
  O  O147  1  0.54500300  0.65039800  0.46455700  1
  O  O148  1  0.04500300  0.84960200  0.53544300  1
  O  O149  1  0.34960200  0.96455700  0.95499700  1
  O  O150  1  0.65039800  0.46455700  0.54500300  1
  O  O151  1  0.40039800  0.20499700  0.71455700  1
  O  O152  1  0.78544300  0.59960200  0.70499700  1
  O  O153  1  0.59960200  0.70499700  0.78544300  1
  O  O154  1  0.78544300  0.40039800  0.79500300  1
  O  O155  1  0.09960200  0.79500300  0.21455700  1
  O  O156  1  0.21455700  0.09960200  0.79500300  1
  O  O157  1  0.71455700  0.40039800  0.20499700  1
  O  O158  1  0.40039800  0.79500300  0.78544300  1
  O  O159  1  0.95499700  0.84960200  0.03544300  1
