# generated using pymatgen
data_Ce2(ZnGe2)3
_symmetry_space_group_name_H-M   'P 1'
_cell_length_a   5.99735200
_cell_length_b   24.33864800
_cell_length_c   5.99453700
_cell_angle_alpha   90.00000000
_cell_angle_beta   90.00000000
_cell_angle_gamma   90.00000000
_symmetry_Int_Tables_number   1
_chemical_formula_structural   Ce2(ZnGe2)3
_chemical_formula_sum   'Ce8 Zn12 Ge24'
_cell_volume   875.00721544
_cell_formula_units_Z   4
loop_
 _symmetry_equiv_pos_site_id
 _symmetry_equiv_pos_as_xyz
  1  'x, y, z'
loop_
 _atom_site_type_symbol
 _atom_site_label
 _atom_site_symmetry_multiplicity
 _atom_site_fract_x
 _atom_site_fract_y
 _atom_site_fract_z
 _atom_site_occupancy
  Ce  Ce0  1  0.50000000  0.39343500  0.25000000  1
  Ce  Ce1  1  0.00000000  0.10656500  0.75000000  1
  Ce  Ce2  1  0.00000000  0.39431500  0.75000000  1
  Ce  Ce3  1  0.50000000  0.10568500  0.25000000  1
  Ce  Ce4  1  0.00000000  0.89343500  0.25000000  1
  Ce  Ce5  1  0.50000000  0.60656500  0.75000000  1
  Ce  Ce6  1  0.50000000  0.89431500  0.75000000  1
  Ce  Ce7  1  0.00000000  0.60568500  0.25000000  1
  Zn  Zn8  1  0.76898700  0.00000000  0.50000000  1
  Zn  Zn9  1  0.00000000  0.33948700  0.25000000  1
  Zn  Zn10  1  0.76898700  0.00000000  0.00000000  1
  Zn  Zn11  1  0.23101300  0.00000000  0.50000000  1
  Zn  Zn12  1  0.50000000  0.16051300  0.75000000  1
  Zn  Zn13  1  0.23101300  0.00000000  0.00000000  1
  Zn  Zn14  1  0.26898700  0.50000000  0.50000000  1
  Zn  Zn15  1  0.50000000  0.83948700  0.25000000  1
  Zn  Zn16  1  0.26898700  0.50000000  0.00000000  1
  Zn  Zn17  1  0.73101300  0.50000000  0.50000000  1
  Zn  Zn18  1  0.00000000  0.66051300  0.75000000  1
  Zn  Zn19  1  0.73101300  0.50000000  0.00000000  1
  Ge  Ge20  1  0.28368800  0.30009900  0.53387900  1
  Ge  Ge21  1  0.21631200  0.19990100  0.03387900  1
  Ge  Ge22  1  0.71631200  0.30009900  0.53387900  1
  Ge  Ge23  1  0.78368800  0.19990100  0.03387900  1
  Ge  Ge24  1  0.21631200  0.19990100  0.46612100  1
  Ge  Ge25  1  0.28368800  0.30009900  0.96612100  1
  Ge  Ge26  1  0.78368800  0.19990100  0.46612100  1
  Ge  Ge27  1  0.50000000  0.05744100  0.75000000  1
  Ge  Ge28  1  0.00000000  0.07221800  0.25000000  1
  Ge  Ge29  1  0.50000000  0.42778200  0.75000000  1
  Ge  Ge30  1  0.00000000  0.44255900  0.25000000  1
  Ge  Ge31  1  0.71631200  0.30009900  0.96612100  1
  Ge  Ge32  1  0.78368800  0.80009900  0.53387900  1
  Ge  Ge33  1  0.71631200  0.69990100  0.03387900  1
  Ge  Ge34  1  0.21631200  0.80009900  0.53387900  1
  Ge  Ge35  1  0.28368800  0.69990100  0.03387900  1
  Ge  Ge36  1  0.71631200  0.69990100  0.46612100  1
  Ge  Ge37  1  0.78368800  0.80009900  0.96612100  1
  Ge  Ge38  1  0.28368800  0.69990100  0.46612100  1
  Ge  Ge39  1  0.00000000  0.55744100  0.75000000  1
  Ge  Ge40  1  0.50000000  0.57221800  0.25000000  1
  Ge  Ge41  1  0.00000000  0.92778200  0.75000000  1
  Ge  Ge42  1  0.50000000  0.94255900  0.25000000  1
  Ge  Ge43  1  0.21631200  0.80009900  0.96612100  1
