# generated using pymatgen
data_Li6Ca12Mo4N16O3
_symmetry_space_group_name_H-M   'P 1'
_cell_length_a   13.12976599
_cell_length_b   13.12976599
_cell_length_c   13.12976599
_cell_angle_alpha   90.00000000
_cell_angle_beta   90.00000000
_cell_angle_gamma   90.00000000
_symmetry_Int_Tables_number   1
_chemical_formula_structural   Li6Ca12Mo4N16O3
_chemical_formula_sum   'Li24 Ca48 Mo16 N64 O12'
_cell_volume   2263.45027166
_cell_formula_units_Z   4
loop_
 _symmetry_equiv_pos_site_id
 _symmetry_equiv_pos_as_xyz
  1  'x, y, z'
loop_
 _atom_site_type_symbol
 _atom_site_label
 _atom_site_symmetry_multiplicity
 _atom_site_fract_x
 _atom_site_fract_y
 _atom_site_fract_z
 _atom_site_occupancy
  Li  Li0  1  0.00000000  0.25000000  0.02518122  1
  Li  Li1  1  0.00000000  0.25000000  0.72481878  1
  Li  Li2  1  0.27518122  0.50000000  0.25000000  1
  Li  Li3  1  0.25000000  0.27518122  0.50000000  1
  Li  Li4  1  0.72481878  0.00000000  0.25000000  1
  Li  Li5  1  0.25000000  0.72481878  0.00000000  1
  Li  Li6  1  0.50000000  0.25000000  0.97481878  1
  Li  Li7  1  0.25000000  0.97481878  0.50000000  1
  Li  Li8  1  0.25000000  0.02518122  0.00000000  1
  Li  Li9  1  0.02518122  0.00000000  0.25000000  1
  Li  Li10  1  0.97481878  0.50000000  0.25000000  1
  Li  Li11  1  0.50000000  0.25000000  0.27518122  1
  Li  Li12  1  0.50000000  0.75000000  0.52518122  1
  Li  Li13  1  0.50000000  0.75000000  0.22481878  1
  Li  Li14  1  0.77518122  0.00000000  0.75000000  1
  Li  Li15  1  0.75000000  0.77518122  0.00000000  1
  Li  Li16  1  0.22481878  0.50000000  0.75000000  1
  Li  Li17  1  0.75000000  0.22481878  0.50000000  1
  Li  Li18  1  0.00000000  0.75000000  0.47481878  1
  Li  Li19  1  0.75000000  0.47481878  0.00000000  1
  Li  Li20  1  0.75000000  0.52518122  0.50000000  1
  Li  Li21  1  0.52518122  0.50000000  0.75000000  1
  Li  Li22  1  0.47481878  0.00000000  0.75000000  1
  Li  Li23  1  0.00000000  0.75000000  0.77518122  1
  Ca  Ca24  1  0.13239533  0.46261749  0.07583348  1
  Ca  Ca25  1  0.53738252  0.42416652  0.13239533  1
  Ca  Ca26  1  0.92416652  0.36760467  0.46261749  1
  Ca  Ca27  1  0.86760467  0.03738251  0.07583348  1
  Ca  Ca28  1  0.03738251  0.07583348  0.86760467  1
  Ca  Ca29  1  0.07583348  0.86760467  0.03738251  1
  Ca  Ca30  1  0.71261748  0.38239533  0.32583348  1
  Ca  Ca31  1  0.28738251  0.88239533  0.17416652  1
  Ca  Ca32  1  0.21261748  0.11760467  0.67416652  1
  Ca  Ca33  1  0.11760467  0.32583348  0.28738251  1
  Ca  Ca34  1  0.32583348  0.28738251  0.11760467  1
  Ca  Ca35  1  0.32583348  0.71261748  0.38239533  1
  Ca  Ca36  1  0.88239533  0.17416652  0.28738251  1
  Ca  Ca37  1  0.67416652  0.21261748  0.11760467  1
  Ca  Ca38  1  0.38239533  0.32583348  0.71261748  1
  Ca  Ca39  1  0.17416652  0.28738251  0.88239533  1
  Ca  Ca40  1  0.11760467  0.67416652  0.21261748  1
  Ca  Ca41  1  0.13239533  0.53738252  0.42416652  1
  Ca  Ca42  1  0.36760467  0.46261749  0.92416652  1
  Ca  Ca43  1  0.46261749  0.92416652  0.36760467  1
  Ca  Ca44  1  0.46261749  0.07583348  0.13239533  1
  Ca  Ca45  1  0.07583348  0.13239533  0.46261749  1
  Ca  Ca46  1  0.42416652  0.13239533  0.53738252  1
  Ca  Ca47  1  0.28738251  0.11760467  0.32583348  1
  Ca  Ca48  1  0.63239533  0.96261748  0.57583348  1
  Ca  Ca49  1  0.03738252  0.92416652  0.63239533  1
  Ca  Ca50  1  0.42416652  0.86760467  0.96261748  1
  Ca  Ca51  1  0.36760467  0.53738252  0.57583348  1
  Ca  Ca52  1  0.53738252  0.57583348  0.36760467  1
  Ca  Ca53  1  0.57583348  0.36760467  0.53738252  1
  Ca  Ca54  1  0.21261748  0.88239533  0.82583348  1
  Ca  Ca55  1  0.78738252  0.38239533  0.67416652  1
  Ca  Ca56  1  0.71261748  0.61760467  0.17416652  1
  Ca  Ca57  1  0.61760467  0.82583348  0.78738252  1
  Ca  Ca58  1  0.82583348  0.78738252  0.61760467  1
  Ca  Ca59  1  0.82583348  0.21261748  0.88239533  1
  Ca  Ca60  1  0.38239533  0.67416652  0.78738252  1
  Ca  Ca61  1  0.17416652  0.71261748  0.61760467  1
  Ca  Ca62  1  0.88239533  0.82583348  0.21261748  1
  Ca  Ca63  1  0.67416652  0.78738252  0.38239533  1
  Ca  Ca64  1  0.61760467  0.17416652  0.71261748  1
  Ca  Ca65  1  0.63239533  0.03738252  0.92416652  1
  Ca  Ca66  1  0.86760467  0.96261748  0.42416652  1
  Ca  Ca67  1  0.96261748  0.42416652  0.86760467  1
  Ca  Ca68  1  0.96261748  0.57583348  0.63239533  1
  Ca  Ca69  1  0.57583348  0.63239533  0.96261748  1
  Ca  Ca70  1  0.92416652  0.63239533  0.03738252  1
  Ca  Ca71  1  0.78738252  0.61760467  0.82583348  1
  Mo  Mo72  1  0.13790179  0.13790179  0.13790179  1
  Mo  Mo73  1  0.61209821  0.11209821  0.38790179  1
  Mo  Mo74  1  0.61209821  0.88790179  0.11209821  1
  Mo  Mo75  1  0.88790179  0.11209821  0.61209821  1
  Mo  Mo76  1  0.36209821  0.13790179  0.86209821  1
  Mo  Mo77  1  0.63790179  0.36209821  0.86209821  1
  Mo  Mo78  1  0.36209821  0.86209821  0.63790179  1
  Mo  Mo79  1  0.38790179  0.38790179  0.38790179  1
  Mo  Mo80  1  0.63790179  0.63790179  0.63790179  1
  Mo  Mo81  1  0.11209821  0.61209821  0.88790179  1
  Mo  Mo82  1  0.11209821  0.38790179  0.61209821  1
  Mo  Mo83  1  0.38790179  0.61209821  0.11209821  1
  Mo  Mo84  1  0.86209821  0.63790179  0.36209821  1
  Mo  Mo85  1  0.13790179  0.86209821  0.36209821  1
  Mo  Mo86  1  0.86209821  0.36209821  0.13790179  1
  Mo  Mo87  1  0.88790179  0.88790179  0.88790179  1
  N  N88  1  0.05536767  0.05536767  0.05536767  1
  N  N89  1  0.19463233  0.69463233  0.80536767  1
  N  N90  1  0.69463233  0.80536767  0.19463233  1
  N  N91  1  0.80536767  0.19463233  0.69463233  1
  N  N92  1  0.44463233  0.05536767  0.94463233  1
  N  N93  1  0.05536767  0.94463233  0.44463233  1
  N  N94  1  0.44463233  0.94463233  0.55536767  1
  N  N95  1  0.30536767  0.30536767  0.30536767  1
  N  N96  1  0.14299231  0.27534172  0.09177929  1
  N  N97  1  0.22465828  0.90822071  0.64299231  1
  N  N98  1  0.90822071  0.35700769  0.27534172  1
  N  N99  1  0.35700769  0.72465828  0.59177929  1
  N  N100  1  0.72465828  0.59177929  0.35700769  1
  N  N101  1  0.59177929  0.35700769  0.72465828  1
  N  N102  1  0.52534172  0.39299231  0.34177929  1
  N  N103  1  0.47465828  0.89299231  0.15822071  1
  N  N104  1  0.02534172  0.10700769  0.65822071  1
  N  N105  1  0.10700769  0.34177929  0.47465828  1
  N  N106  1  0.34177929  0.47465828  0.10700769  1
  N  N107  1  0.34177929  0.52534172  0.39299231  1
  N  N108  1  0.89299231  0.15822071  0.47465828  1
  N  N109  1  0.65822071  0.02534172  0.10700769  1
  N  N110  1  0.39299231  0.34177929  0.52534172  1
  N  N111  1  0.15822071  0.47465828  0.89299231  1
  N  N112  1  0.10700769  0.65822071  0.02534172  1
  N  N113  1  0.64299231  0.22465828  0.90822071  1
  N  N114  1  0.35700769  0.27534172  0.90822071  1
  N  N115  1  0.27534172  0.90822071  0.35700769  1
  N  N116  1  0.27534172  0.09177929  0.14299231  1
  N  N117  1  0.09177929  0.14299231  0.27534172  1
  N  N118  1  0.90822071  0.64299231  0.22465828  1
  N  N119  1  0.47465828  0.10700769  0.34177929  1
  N  N120  1  0.55536767  0.55536767  0.55536767  1
  N  N121  1  0.69463233  0.19463233  0.30536767  1
  N  N122  1  0.19463233  0.30536767  0.69463233  1
  N  N123  1  0.30536767  0.69463233  0.19463233  1
  N  N124  1  0.94463233  0.55536767  0.44463233  1
  N  N125  1  0.55536767  0.44463233  0.94463233  1
  N  N126  1  0.94463233  0.44463233  0.05536767  1
  N  N127  1  0.80536767  0.80536767  0.80536767  1
  N  N128  1  0.64299231  0.77534172  0.59177929  1
  N  N129  1  0.72465828  0.40822071  0.14299231  1
  N  N130  1  0.40822071  0.85700769  0.77534172  1
  N  N131  1  0.85700769  0.22465828  0.09177929  1
  N  N132  1  0.22465828  0.09177929  0.85700769  1
  N  N133  1  0.09177929  0.85700769  0.22465828  1
  N  N134  1  0.02534172  0.89299231  0.84177929  1
  N  N135  1  0.97465828  0.39299231  0.65822071  1
  N  N136  1  0.52534172  0.60700769  0.15822071  1
  N  N137  1  0.60700769  0.84177929  0.97465828  1
  N  N138  1  0.84177929  0.97465828  0.60700769  1
  N  N139  1  0.84177929  0.02534172  0.89299231  1
  N  N140  1  0.39299231  0.65822071  0.97465828  1
  N  N141  1  0.15822071  0.52534172  0.60700769  1
  N  N142  1  0.89299231  0.84177929  0.02534172  1
  N  N143  1  0.65822071  0.97465828  0.39299231  1
  N  N144  1  0.60700769  0.15822071  0.52534172  1
  N  N145  1  0.14299231  0.72465828  0.40822071  1
  N  N146  1  0.85700769  0.77534172  0.40822071  1
  N  N147  1  0.77534172  0.40822071  0.85700769  1
  N  N148  1  0.77534172  0.59177929  0.64299231  1
  N  N149  1  0.59177929  0.64299231  0.77534172  1
  N  N150  1  0.40822071  0.14299231  0.72465828  1
  N  N151  1  0.97465828  0.60700769  0.84177929  1
  O  O152  1  0.75000000  0.37500000  0.50000000  1
  O  O153  1  0.12500000  0.50000000  0.25000000  1
  O  O154  1  0.37500000  0.50000000  0.75000000  1
  O  O155  1  0.50000000  0.75000000  0.37500000  1
  O  O156  1  0.50000000  0.25000000  0.12500000  1
  O  O157  1  0.25000000  0.12500000  0.50000000  1
  O  O158  1  0.25000000  0.87500000  0.00000000  1
  O  O159  1  0.62500000  0.00000000  0.75000000  1
  O  O160  1  0.87500000  0.00000000  0.25000000  1
  O  O161  1  0.00000000  0.25000000  0.87500000  1
  O  O162  1  0.00000000  0.75000000  0.62500000  1
  O  O163  1  0.75000000  0.62500000  0.00000000  1
