# generated using pymatgen
data_KBaFeO3
_symmetry_space_group_name_H-M   'P 1'
_cell_length_a   5.93673800
_cell_length_b   11.72627000
_cell_length_c   12.97330800
_cell_angle_alpha   90.00000000
_cell_angle_beta   90.00000000
_cell_angle_gamma   90.00000000
_symmetry_Int_Tables_number   1
_chemical_formula_structural   KBaFeO3
_chemical_formula_sum   'K8 Ba8 Fe8 O24'
_cell_volume   903.14712046
_cell_formula_units_Z   8
loop_
 _symmetry_equiv_pos_site_id
 _symmetry_equiv_pos_as_xyz
  1  'x, y, z'
loop_
 _atom_site_type_symbol
 _atom_site_label
 _atom_site_symmetry_multiplicity
 _atom_site_fract_x
 _atom_site_fract_y
 _atom_site_fract_z
 _atom_site_occupancy
  K  K0  1  0.50000000  0.54640400  0.14058900  1
  K  K1  1  0.00000000  0.95359600  0.85941100  1
  K  K2  1  0.50000000  0.95359600  0.64058900  1
  K  K3  1  0.00000000  0.54640400  0.35941100  1
  K  K4  1  0.00000000  0.04640400  0.14058900  1
  K  K5  1  0.50000000  0.45359600  0.85941100  1
  K  K6  1  0.00000000  0.45359600  0.64058900  1
  K  K7  1  0.50000000  0.04640400  0.35941100  1
  Ba  Ba8  1  0.00000000  0.85662700  0.41837100  1
  Ba  Ba9  1  0.00000000  0.64337300  0.91837100  1
  Ba  Ba10  1  0.50000000  0.85662700  0.08162900  1
  Ba  Ba11  1  0.50000000  0.64337300  0.58162900  1
  Ba  Ba12  1  0.50000000  0.35662700  0.41837100  1
  Ba  Ba13  1  0.50000000  0.14337300  0.91837100  1
  Ba  Ba14  1  0.00000000  0.35662700  0.08162900  1
  Ba  Ba15  1  0.00000000  0.14337300  0.58162900  1
  Fe  Fe16  1  0.50000000  0.76951900  0.83649400  1
  Fe  Fe17  1  0.00000000  0.76951900  0.66350600  1
  Fe  Fe18  1  0.00000000  0.73048100  0.16350600  1
  Fe  Fe19  1  0.50000000  0.73048100  0.33649400  1
  Fe  Fe20  1  0.00000000  0.26951900  0.83649400  1
  Fe  Fe21  1  0.50000000  0.26951900  0.66350600  1
  Fe  Fe22  1  0.50000000  0.23048100  0.16350600  1
  Fe  Fe23  1  0.00000000  0.23048100  0.33649400  1
  O  O24  1  0.25000000  0.77242200  0.25000000  1
  O  O25  1  0.75000000  0.72757800  0.75000000  1
  O  O26  1  0.25000000  0.72757800  0.75000000  1
  O  O27  1  0.75000000  0.77242200  0.25000000  1
  O  O28  1  0.50000000  0.57628700  0.37654200  1
  O  O29  1  0.00000000  0.92371300  0.62345800  1
  O  O30  1  0.50000000  0.92371300  0.87654200  1
  O  O31  1  0.00000000  0.82880200  0.04841400  1
  O  O32  1  0.50000000  0.82880200  0.45158600  1
  O  O33  1  0.00000000  0.67119800  0.54841400  1
  O  O34  1  0.50000000  0.67119800  0.95158600  1
  O  O35  1  0.00000000  0.57628700  0.12345800  1
  O  O36  1  0.75000000  0.27242200  0.25000000  1
  O  O37  1  0.25000000  0.22757800  0.75000000  1
  O  O38  1  0.75000000  0.22757800  0.75000000  1
  O  O39  1  0.25000000  0.27242200  0.25000000  1
  O  O40  1  0.00000000  0.07628700  0.37654200  1
  O  O41  1  0.50000000  0.42371300  0.62345800  1
  O  O42  1  0.00000000  0.42371300  0.87654200  1
  O  O43  1  0.50000000  0.32880200  0.04841400  1
  O  O44  1  0.00000000  0.32880200  0.45158600  1
  O  O45  1  0.50000000  0.17119800  0.54841400  1
  O  O46  1  0.00000000  0.17119800  0.95158600  1
  O  O47  1  0.50000000  0.07628700  0.12345800  1
