# generated using pymatgen
data_Pr2AlCo2
_symmetry_space_group_name_H-M   'P 1'
_cell_length_a   4.02136400
_cell_length_b   5.63015800
_cell_length_c   8.96517000
_cell_angle_alpha   90.00000000
_cell_angle_beta   90.00000000
_cell_angle_gamma   90.00000000
_symmetry_Int_Tables_number   1
_chemical_formula_structural   Pr2AlCo2
_chemical_formula_sum   'Pr4 Al2 Co4'
_cell_volume   202.97964920
_cell_formula_units_Z   2
loop_
 _symmetry_equiv_pos_site_id
 _symmetry_equiv_pos_as_xyz
  1  'x, y, z'
loop_
 _atom_site_type_symbol
 _atom_site_label
 _atom_site_symmetry_multiplicity
 _atom_site_fract_x
 _atom_site_fract_y
 _atom_site_fract_z
 _atom_site_occupancy
  Pr  Pr0  1  0.50000000  0.00000000  0.69823700  1
  Pr  Pr1  1  0.00000000  0.50000000  0.80176300  1
  Pr  Pr2  1  0.00000000  0.50000000  0.19823700  1
  Pr  Pr3  1  0.50000000  0.00000000  0.30176300  1
  Al  Al4  1  0.00000000  0.00000000  0.00000000  1
  Al  Al5  1  0.50000000  0.50000000  0.50000000  1
  Co  Co6  1  0.50000000  0.26963000  0.00000000  1
  Co  Co7  1  0.50000000  0.73037000  0.00000000  1
  Co  Co8  1  0.00000000  0.76963000  0.50000000  1
  Co  Co9  1  0.00000000  0.23037000  0.50000000  1
