# generated using pymatgen
data_Pr2NiO4
_symmetry_space_group_name_H-M   'P 1'
_cell_length_a   5.44626400
_cell_length_b   12.31338800
_cell_length_c   5.69797700
_cell_angle_alpha   90.00000000
_cell_angle_beta   90.00000000
_cell_angle_gamma   90.00000000
_symmetry_Int_Tables_number   1
_chemical_formula_structural   Pr2NiO4
_chemical_formula_sum   'Pr8 Ni4 O16'
_cell_volume   382.11751581
_cell_formula_units_Z   4
loop_
 _symmetry_equiv_pos_site_id
 _symmetry_equiv_pos_as_xyz
  1  'x, y, z'
loop_
 _atom_site_type_symbol
 _atom_site_label
 _atom_site_symmetry_multiplicity
 _atom_site_fract_x
 _atom_site_fract_y
 _atom_site_fract_z
 _atom_site_occupancy
  Pr  Pr0  1  0.00000000  0.86307300  0.51638300  1
  Pr  Pr1  1  0.50000000  0.63692700  0.48361700  1
  Pr  Pr2  1  0.00000000  0.63692700  0.01638300  1
  Pr  Pr3  1  0.50000000  0.86307300  0.98361700  1
  Pr  Pr4  1  0.50000000  0.36307300  0.51638300  1
  Pr  Pr5  1  0.00000000  0.13692700  0.48361700  1
  Pr  Pr6  1  0.50000000  0.13692700  0.01638300  1
  Pr  Pr7  1  0.00000000  0.36307300  0.98361700  1
  Ni  Ni8  1  0.50000000  0.00000000  0.50000000  1
  Ni  Ni9  1  0.00000000  0.00000000  0.00000000  1
  Ni  Ni10  1  0.00000000  0.50000000  0.50000000  1
  Ni  Ni11  1  0.50000000  0.50000000  0.00000000  1
  O  O12  1  0.00000000  0.67891900  0.43154200  1
  O  O13  1  0.50000000  0.82108100  0.56845800  1
  O  O14  1  0.00000000  0.82108100  0.93154200  1
  O  O15  1  0.50000000  0.67891900  0.06845800  1
  O  O16  1  0.25000000  0.98028300  0.25000000  1
  O  O17  1  0.75000000  0.51971700  0.75000000  1
  O  O18  1  0.75000000  0.98028300  0.25000000  1
  O  O19  1  0.25000000  0.51971700  0.75000000  1
  O  O20  1  0.50000000  0.17891900  0.43154200  1
  O  O21  1  0.00000000  0.32108100  0.56845800  1
  O  O22  1  0.50000000  0.32108100  0.93154200  1
  O  O23  1  0.00000000  0.17891900  0.06845800  1
  O  O24  1  0.75000000  0.48028300  0.25000000  1
  O  O25  1  0.25000000  0.01971700  0.75000000  1
  O  O26  1  0.25000000  0.48028300  0.25000000  1
  O  O27  1  0.75000000  0.01971700  0.75000000  1
