# generated using pymatgen
data_Re24Mo5
_symmetry_space_group_name_H-M   'P 1'
_cell_length_a   9.65325200
_cell_length_b   9.65325200
_cell_length_c   9.65325200
_cell_angle_alpha   90.00000000
_cell_angle_beta   90.00000000
_cell_angle_gamma   90.00000000
_symmetry_Int_Tables_number   1
_chemical_formula_structural   Re24Mo5
_chemical_formula_sum   'Re48 Mo10'
_cell_volume   899.54093431
_cell_formula_units_Z   2
loop_
 _symmetry_equiv_pos_site_id
 _symmetry_equiv_pos_as_xyz
  1  'x, y, z'
loop_
 _atom_site_type_symbol
 _atom_site_label
 _atom_site_symmetry_multiplicity
 _atom_site_fract_x
 _atom_site_fract_y
 _atom_site_fract_z
 _atom_site_occupancy
  Re  Re0  1  0.35838550  0.35838550  0.95704050  1
  Re  Re1  1  0.14161450  0.85838550  0.54295950  1
  Re  Re2  1  0.85838550  0.14161450  0.54295950  1
  Re  Re3  1  0.14161450  0.45704050  0.14161450  1
  Re  Re4  1  0.14161450  0.54295950  0.85838550  1
  Re  Re5  1  0.54295950  0.14161450  0.85838550  1
  Re  Re6  1  0.45704050  0.14161450  0.14161450  1
  Re  Re7  1  0.95704050  0.35838550  0.35838550  1
  Re  Re8  1  0.35838550  0.95704050  0.35838550  1
  Re  Re9  1  0.85838550  0.54295950  0.14161450  1
  Re  Re10  1  0.54295950  0.85838550  0.14161450  1
  Re  Re11  1  0.14161450  0.14161450  0.45704050  1
  Re  Re12  1  0.09098850  0.09098850  0.71551550  1
  Re  Re13  1  0.90901150  0.09098850  0.28448450  1
  Re  Re14  1  0.09098850  0.90901150  0.28448450  1
  Re  Re15  1  0.40901150  0.21551550  0.40901150  1
  Re  Re16  1  0.90901150  0.28448450  0.09098850  1
  Re  Re17  1  0.28448450  0.90901150  0.09098850  1
  Re  Re18  1  0.21551550  0.40901150  0.40901150  1
  Re  Re19  1  0.71551550  0.09098850  0.09098850  1
  Re  Re20  1  0.09098850  0.71551550  0.09098850  1
  Re  Re21  1  0.09098850  0.28448450  0.90901150  1
  Re  Re22  1  0.28448450  0.09098850  0.90901150  1
  Re  Re23  1  0.40901150  0.40901150  0.21551550  1
  Re  Re24  1  0.85838550  0.85838550  0.45704050  1
  Re  Re25  1  0.64161450  0.35838550  0.04295950  1
  Re  Re26  1  0.35838550  0.64161450  0.04295950  1
  Re  Re27  1  0.64161450  0.95704050  0.64161450  1
  Re  Re28  1  0.64161450  0.04295950  0.35838550  1
  Re  Re29  1  0.04295950  0.64161450  0.35838550  1
  Re  Re30  1  0.95704050  0.64161450  0.64161450  1
  Re  Re31  1  0.45704050  0.85838550  0.85838550  1
  Re  Re32  1  0.85838550  0.45704050  0.85838550  1
  Re  Re33  1  0.35838550  0.04295950  0.64161450  1
  Re  Re34  1  0.04295950  0.35838550  0.64161450  1
  Re  Re35  1  0.64161450  0.64161450  0.95704050  1
  Re  Re36  1  0.59098850  0.59098850  0.21551550  1
  Re  Re37  1  0.40901150  0.59098850  0.78448450  1
  Re  Re38  1  0.59098850  0.40901150  0.78448450  1
  Re  Re39  1  0.90901150  0.71551550  0.90901150  1
  Re  Re40  1  0.40901150  0.78448450  0.59098850  1
  Re  Re41  1  0.78448450  0.40901150  0.59098850  1
  Re  Re42  1  0.71551550  0.90901150  0.90901150  1
  Re  Re43  1  0.21551550  0.59098850  0.59098850  1
  Re  Re44  1  0.59098850  0.21551550  0.59098850  1
  Re  Re45  1  0.59098850  0.78448450  0.40901150  1
  Re  Re46  1  0.78448450  0.59098850  0.40901150  1
  Re  Re47  1  0.90901150  0.90901150  0.71551550  1
  Mo  Mo48  1  0.00000000  0.00000000  0.00000000  1
  Mo  Mo49  1  0.32072400  0.32072400  0.67927600  1
  Mo  Mo50  1  0.67927600  0.32072400  0.32072400  1
  Mo  Mo51  1  0.32072400  0.67927600  0.32072400  1
  Mo  Mo52  1  0.17927600  0.17927600  0.17927600  1
  Mo  Mo53  1  0.50000000  0.50000000  0.50000000  1
  Mo  Mo54  1  0.82072400  0.82072400  0.17927600  1
  Mo  Mo55  1  0.17927600  0.82072400  0.82072400  1
  Mo  Mo56  1  0.82072400  0.17927600  0.82072400  1
  Mo  Mo57  1  0.67927600  0.67927600  0.67927600  1
