# generated using pymatgen
data_Ho3Ge4
_symmetry_space_group_name_H-M   'P 1'
_cell_length_a   4.05368400
_cell_length_b   10.66114200
_cell_length_c   14.26424500
_cell_angle_alpha   90.00000000
_cell_angle_beta   90.00000000
_cell_angle_gamma   90.00000000
_symmetry_Int_Tables_number   1
_chemical_formula_structural   Ho3Ge4
_chemical_formula_sum   'Ho12 Ge16'
_cell_volume   616.45646040
_cell_formula_units_Z   4
loop_
 _symmetry_equiv_pos_site_id
 _symmetry_equiv_pos_as_xyz
  1  'x, y, z'
loop_
 _atom_site_type_symbol
 _atom_site_label
 _atom_site_symmetry_multiplicity
 _atom_site_fract_x
 _atom_site_fract_y
 _atom_site_fract_z
 _atom_site_occupancy
  Ho  Ho0  1  0.50000000  0.45466000  0.75000000  1
  Ho  Ho1  1  0.00000000  0.04534000  0.25000000  1
  Ho  Ho2  1  0.00000000  0.32959000  0.09680500  1
  Ho  Ho3  1  0.50000000  0.17041000  0.90319500  1
  Ho  Ho4  1  0.50000000  0.17041000  0.59680500  1
  Ho  Ho5  1  0.00000000  0.32959000  0.40319500  1
  Ho  Ho6  1  0.00000000  0.95466000  0.75000000  1
  Ho  Ho7  1  0.50000000  0.54534000  0.25000000  1
  Ho  Ho8  1  0.50000000  0.82959000  0.09680500  1
  Ho  Ho9  1  0.00000000  0.67041000  0.90319500  1
  Ho  Ho10  1  0.00000000  0.67041000  0.59680500  1
  Ho  Ho11  1  0.50000000  0.82959000  0.40319500  1
  Ge  Ge12  1  0.00000000  0.00000000  0.00000000  1
  Ge  Ge13  1  0.00000000  0.00000000  0.50000000  1
  Ge  Ge14  1  0.00000000  0.22569700  0.75000000  1
  Ge  Ge15  1  0.50000000  0.27430300  0.25000000  1
  Ge  Ge16  1  0.00000000  0.38093700  0.89159600  1
  Ge  Ge17  1  0.50000000  0.11906300  0.10840400  1
  Ge  Ge18  1  0.00000000  0.38093700  0.60840400  1
  Ge  Ge19  1  0.50000000  0.11906300  0.39159600  1
  Ge  Ge20  1  0.50000000  0.50000000  0.00000000  1
  Ge  Ge21  1  0.50000000  0.50000000  0.50000000  1
  Ge  Ge22  1  0.50000000  0.72569700  0.75000000  1
  Ge  Ge23  1  0.00000000  0.77430300  0.25000000  1
  Ge  Ge24  1  0.50000000  0.88093700  0.89159600  1
  Ge  Ge25  1  0.00000000  0.61906300  0.10840400  1
  Ge  Ge26  1  0.50000000  0.88093700  0.60840400  1
  Ge  Ge27  1  0.00000000  0.61906300  0.39159600  1
