# generated using pymatgen
data_K2Zn2(MoO4)3
_symmetry_space_group_name_H-M   'P 1'
_cell_length_a   7.04321200
_cell_length_b   9.25258900
_cell_length_c   20.72660994
_cell_angle_alpha   90.00000000
_cell_angle_beta   108.83083856
_cell_angle_gamma   90.00000000
_symmetry_Int_Tables_number   1
_chemical_formula_structural   K2Zn2(MoO4)3
_chemical_formula_sum   'K8 Zn8 Mo12 O48'
_cell_volume   1278.41471321
_cell_formula_units_Z   4
loop_
 _symmetry_equiv_pos_site_id
 _symmetry_equiv_pos_as_xyz
  1  'x, y, z'
loop_
 _atom_site_type_symbol
 _atom_site_label
 _atom_site_symmetry_multiplicity
 _atom_site_fract_x
 _atom_site_fract_y
 _atom_site_fract_z
 _atom_site_occupancy
  K  K0  1  0.39376300  0.89013300  0.70919600  1
  K  K1  1  0.60623700  0.39013300  0.79080400  1
  K  K2  1  0.60623700  0.10986700  0.29080400  1
  K  K3  1  0.39376300  0.60986700  0.20919600  1
  K  K4  1  0.79983000  0.98271200  0.59868600  1
  K  K5  1  0.20017000  0.48271200  0.90131400  1
  K  K6  1  0.20017000  0.01728800  0.40131400  1
  K  K7  1  0.79983000  0.51728800  0.09868600  1
  Zn  Zn8  1  0.05856600  0.39945700  0.43458900  1
  Zn  Zn9  1  0.94143400  0.89945700  0.06541100  1
  Zn  Zn10  1  0.94143400  0.60054300  0.56541100  1
  Zn  Zn11  1  0.05856600  0.10054300  0.93458900  1
  Zn  Zn12  1  0.26950300  0.86772800  0.86406600  1
  Zn  Zn13  1  0.73049700  0.36772800  0.63593400  1
  Zn  Zn14  1  0.73049700  0.13227200  0.13593400  1
  Zn  Zn15  1  0.26950300  0.63227200  0.36406600  1
  Mo  Mo16  1  0.41751000  0.67009100  0.53570300  1
  Mo  Mo17  1  0.58249000  0.17009100  0.96429700  1
  Mo  Mo18  1  0.58249000  0.32990900  0.46429700  1
  Mo  Mo19  1  0.41751000  0.82990900  0.03570300  1
  Mo  Mo20  1  0.79952000  0.78539300  0.89975800  1
  Mo  Mo21  1  0.20048000  0.28539300  0.60024200  1
  Mo  Mo22  1  0.20048000  0.21460700  0.10024200  1
  Mo  Mo23  1  0.79952000  0.71460700  0.39975800  1
  Mo  Mo24  1  0.94455500  0.68499000  0.72480700  1
  Mo  Mo25  1  0.05544500  0.18499000  0.77519300  1
  Mo  Mo26  1  0.05544500  0.31501000  0.27519300  1
  Mo  Mo27  1  0.94455500  0.81501000  0.22480700  1
  O  O28  1  0.01758100  0.72508600  0.64989400  1
  O  O29  1  0.98241900  0.22508600  0.85010600  1
  O  O30  1  0.98241900  0.27491400  0.35010600  1
  O  O31  1  0.01758100  0.77491400  0.14989400  1
  O  O32  1  0.83888400  0.75674100  0.98935500  1
  O  O33  1  0.16111600  0.25674100  0.51064500  1
  O  O34  1  0.16111600  0.24325900  0.01064500  1
  O  O35  1  0.83888400  0.74325900  0.48935500  1
  O  O36  1  0.20322200  0.57458400  0.54377800  1
  O  O37  1  0.79677800  0.07458400  0.95622200  1
  O  O38  1  0.79677800  0.42541600  0.45622200  1
  O  O39  1  0.20322200  0.92541600  0.04377800  1
  O  O40  1  0.46277600  0.81876100  0.59076300  1
  O  O41  1  0.53722400  0.31876100  0.90923700  1
  O  O42  1  0.53722400  0.18123900  0.40923700  1
  O  O43  1  0.46277600  0.68123900  0.09076300  1
  O  O44  1  0.77492300  0.81951700  0.72962100  1
  O  O45  1  0.22507700  0.31951700  0.77037900  1
  O  O46  1  0.55142500  0.84984000  0.85528900  1
  O  O47  1  0.22507700  0.18048300  0.27037900  1
  O  O48  1  0.64458300  0.55625400  0.56245700  1
  O  O49  1  0.35541700  0.05625400  0.93754300  1
  O  O50  1  0.35541700  0.44374600  0.43754300  1
  O  O51  1  0.64458300  0.94374600  0.06245700  1
  O  O52  1  0.82676600  0.61483500  0.86643300  1
  O  O53  1  0.17323400  0.11483500  0.63356700  1
  O  O54  1  0.17323400  0.38516500  0.13356700  1
  O  O55  1  0.82676600  0.88516500  0.36643300  1
  O  O56  1  0.17582100  0.48887700  0.28480100  1
  O  O57  1  0.82417900  0.98887700  0.21519900  1
  O  O58  1  0.82417900  0.51112300  0.71519900  1
  O  O59  1  0.17582100  0.01112300  0.78480100  1
  O  O60  1  0.99449200  0.59659700  0.38761800  1
  O  O61  1  0.00550800  0.09659700  0.11238200  1
  O  O62  1  0.00550800  0.40340300  0.61238200  1
  O  O63  1  0.99449200  0.90340300  0.88761800  1
  O  O64  1  0.36036600  0.75031200  0.45263000  1
  O  O65  1  0.63963400  0.25031200  0.04737000  1
  O  O66  1  0.63963400  0.24968800  0.54737000  1
  O  O67  1  0.36036600  0.74968800  0.95263000  1
  O  O68  1  0.16318200  0.80567900  0.30021700  1
  O  O69  1  0.83681800  0.30567900  0.19978300  1
  O  O70  1  0.83681800  0.19432100  0.69978300  1
  O  O71  1  0.16318200  0.69432100  0.80021700  1
  O  O72  1  0.55142500  0.65016000  0.35528900  1
  O  O73  1  0.44857500  0.15016000  0.14471100  1
  O  O74  1  0.44857500  0.34984000  0.64471100  1
  O  O75  1  0.77492300  0.68048300  0.22962100  1
