# generated using pymatgen
data_Ta5Ge3
_symmetry_space_group_name_H-M   'P 1'
_cell_length_a   10.17403400
_cell_length_b   10.17403400
_cell_length_c   5.19797600
_cell_angle_alpha   90.00000000
_cell_angle_beta   90.00000000
_cell_angle_gamma   90.00000000
_symmetry_Int_Tables_number   1
_chemical_formula_structural   Ta5Ge3
_chemical_formula_sum   'Ta20 Ge12'
_cell_volume   538.04752653
_cell_formula_units_Z   4
loop_
 _symmetry_equiv_pos_site_id
 _symmetry_equiv_pos_as_xyz
  1  'x, y, z'
loop_
 _atom_site_type_symbol
 _atom_site_label
 _atom_site_symmetry_multiplicity
 _atom_site_fract_x
 _atom_site_fract_y
 _atom_site_fract_z
 _atom_site_occupancy
  Ta  Ta0  1  0.42560050  0.72354150  0.50000000  1
  Ta  Ta1  1  0.57439950  0.27645850  0.50000000  1
  Ta  Ta2  1  0.22354150  0.07439950  0.00000000  1
  Ta  Ta3  1  0.77645850  0.92560050  0.00000000  1
  Ta  Ta4  1  0.77645850  0.07439950  0.50000000  1
  Ta  Ta5  1  0.42560050  0.27645850  0.00000000  1
  Ta  Ta6  1  0.57439950  0.72354150  0.00000000  1
  Ta  Ta7  1  0.22354150  0.92560050  0.50000000  1
  Ta  Ta8  1  0.50000000  0.00000000  0.25000000  1
  Ta  Ta9  1  0.50000000  0.00000000  0.75000000  1
  Ta  Ta10  1  0.92560050  0.22354150  0.00000000  1
  Ta  Ta11  1  0.07439950  0.77645850  0.00000000  1
  Ta  Ta12  1  0.72354150  0.57439950  0.50000000  1
  Ta  Ta13  1  0.27645850  0.42560050  0.50000000  1
  Ta  Ta14  1  0.27645850  0.57439950  0.00000000  1
  Ta  Ta15  1  0.92560050  0.77645850  0.50000000  1
  Ta  Ta16  1  0.07439950  0.22354150  0.50000000  1
  Ta  Ta17  1  0.72354150  0.42560050  0.00000000  1
  Ta  Ta18  1  0.00000000  0.50000000  0.75000000  1
  Ta  Ta19  1  0.00000000  0.50000000  0.25000000  1
  Ge  Ge20  1  0.33299050  0.16700950  0.50000000  1
  Ge  Ge21  1  0.33299050  0.83299050  0.00000000  1
  Ge  Ge22  1  0.66700950  0.16700950  0.00000000  1
  Ge  Ge23  1  0.66700950  0.83299050  0.50000000  1
  Ge  Ge24  1  0.00000000  0.00000000  0.25000000  1
  Ge  Ge25  1  0.00000000  0.00000000  0.75000000  1
  Ge  Ge26  1  0.83299050  0.66700950  0.00000000  1
  Ge  Ge27  1  0.83299050  0.33299050  0.50000000  1
  Ge  Ge28  1  0.16700950  0.66700950  0.50000000  1
  Ge  Ge29  1  0.16700950  0.33299050  0.00000000  1
  Ge  Ge30  1  0.50000000  0.50000000  0.75000000  1
  Ge  Ge31  1  0.50000000  0.50000000  0.25000000  1
