# generated using pymatgen
data_NaCa3IrO6
_symmetry_space_group_name_H-M   'P 1'
_cell_length_a   9.32725143
_cell_length_b   9.32725143
_cell_length_c   11.27299486
_cell_angle_alpha   90.00000000
_cell_angle_beta   90.00000000
_cell_angle_gamma   120.00000000
_symmetry_Int_Tables_number   1
_chemical_formula_structural   NaCa3IrO6
_chemical_formula_sum   'Na6 Ca18 Ir6 O36'
_cell_volume   849.33165119
_cell_formula_units_Z   6
loop_
 _symmetry_equiv_pos_site_id
 _symmetry_equiv_pos_as_xyz
  1  'x, y, z'
loop_
 _atom_site_type_symbol
 _atom_site_label
 _atom_site_symmetry_multiplicity
 _atom_site_fract_x
 _atom_site_fract_y
 _atom_site_fract_z
 _atom_site_occupancy
  Na  Na0  1  0.00000000  0.00000000  0.25000000  1
  Na  Na1  1  0.00000000  0.00000000  0.75000000  1
  Na  Na2  1  0.66666667  0.33333333  0.58333333  1
  Na  Na3  1  0.66666667  0.33333333  0.08333333  1
  Na  Na4  1  0.33333333  0.66666667  0.91666667  1
  Na  Na5  1  0.33333333  0.66666667  0.41666667  1
  Ca  Ca6  1  0.68786133  0.66666667  0.41666667  1
  Ca  Ca7  1  0.33333333  0.02119467  0.41666667  1
  Ca  Ca8  1  0.97880533  0.31213867  0.41666667  1
  Ca  Ca9  1  0.31213867  0.33333333  0.58333333  1
  Ca  Ca10  1  0.66666667  0.97880533  0.58333333  1
  Ca  Ca11  1  0.02119467  0.68786133  0.58333333  1
  Ca  Ca12  1  0.35452800  0.00000000  0.75000000  1
  Ca  Ca13  1  0.00000000  0.35452800  0.75000000  1
  Ca  Ca14  1  0.64547200  0.64547200  0.75000000  1
  Ca  Ca15  1  0.97880533  0.66666667  0.91666667  1
  Ca  Ca16  1  0.33333333  0.31213867  0.91666667  1
  Ca  Ca17  1  0.68786133  0.02119467  0.91666667  1
  Ca  Ca18  1  0.02119467  0.33333333  0.08333333  1
  Ca  Ca19  1  0.66666667  0.68786133  0.08333333  1
  Ca  Ca20  1  0.31213867  0.97880533  0.08333333  1
  Ca  Ca21  1  0.64547200  0.00000000  0.25000000  1
  Ca  Ca22  1  0.00000000  0.64547200  0.25000000  1
  Ca  Ca23  1  0.35452800  0.35452800  0.25000000  1
  Ir  Ir24  1  0.00000000  0.00000000  0.50000000  1
  Ir  Ir25  1  0.00000000  0.00000000  0.00000000  1
  Ir  Ir26  1  0.66666667  0.33333333  0.83333333  1
  Ir  Ir27  1  0.66666667  0.33333333  0.33333333  1
  Ir  Ir28  1  0.33333333  0.66666667  0.16666667  1
  Ir  Ir29  1  0.33333333  0.66666667  0.66666667  1
  O  O30  1  0.80893233  0.96747367  0.39959267  1
  O  O31  1  0.03252633  0.84145867  0.39959267  1
  O  O32  1  0.15854133  0.19106767  0.39959267  1
  O  O33  1  0.50812533  0.36585967  0.43374067  1
  O  O34  1  0.63414033  0.14226567  0.43374067  1
  O  O35  1  0.85773433  0.49187467  0.43374067  1
  O  O36  1  0.19106767  0.03252633  0.60040733  1
  O  O37  1  0.96747367  0.15854133  0.60040733  1
  O  O38  1  0.84145867  0.80893233  0.60040733  1
  O  O39  1  0.49187467  0.63414033  0.56625933  1
  O  O40  1  0.14226567  0.50812533  0.56625933  1
  O  O41  1  0.36585967  0.85773433  0.56625933  1
  O  O42  1  0.47559900  0.30080700  0.73292600  1
  O  O43  1  0.69919300  0.17479200  0.73292600  1
  O  O44  1  0.82520800  0.52440100  0.73292600  1
  O  O45  1  0.17479200  0.69919300  0.76707400  1
  O  O46  1  0.30080700  0.47559900  0.76707400  1
  O  O47  1  0.52440100  0.82520800  0.76707400  1
  O  O48  1  0.85773433  0.36585967  0.93374067  1
  O  O49  1  0.63414033  0.49187467  0.93374067  1
  O  O50  1  0.50812533  0.14226567  0.93374067  1
  O  O51  1  0.15854133  0.96747367  0.89959267  1
  O  O52  1  0.80893233  0.84145867  0.89959267  1
  O  O53  1  0.03252633  0.19106767  0.89959267  1
  O  O54  1  0.14226567  0.63414033  0.06625933  1
  O  O55  1  0.36585967  0.50812533  0.06625933  1
  O  O56  1  0.49187467  0.85773433  0.06625933  1
  O  O57  1  0.84145867  0.03252633  0.10040733  1
  O  O58  1  0.96747367  0.80893233  0.10040733  1
  O  O59  1  0.19106767  0.15854133  0.10040733  1
  O  O60  1  0.52440100  0.69919300  0.26707400  1
  O  O61  1  0.30080700  0.82520800  0.26707400  1
  O  O62  1  0.17479200  0.47559900  0.26707400  1
  O  O63  1  0.82520800  0.30080700  0.23292600  1
  O  O64  1  0.47559900  0.17479200  0.23292600  1
  O  O65  1  0.69919300  0.52440100  0.23292600  1
