# generated using pymatgen
data_Ca2Ag7
_symmetry_space_group_name_H-M   'P 1'
_cell_length_a   5.57711400
_cell_length_b   9.63869800
_cell_length_c   14.26040200
_cell_angle_alpha   90.00000000
_cell_angle_beta   90.00000000
_cell_angle_gamma   90.00000000
_symmetry_Int_Tables_number   1
_chemical_formula_structural   Ca2Ag7
_chemical_formula_sum   'Ca8 Ag28'
_cell_volume   766.58384633
_cell_formula_units_Z   4
loop_
 _symmetry_equiv_pos_site_id
 _symmetry_equiv_pos_as_xyz
  1  'x, y, z'
loop_
 _atom_site_type_symbol
 _atom_site_label
 _atom_site_symmetry_multiplicity
 _atom_site_fract_x
 _atom_site_fract_y
 _atom_site_fract_z
 _atom_site_occupancy
  Ca  Ca0  1  0.32108700  0.00000000  0.11480500  1
  Ca  Ca1  1  0.67891300  0.00000000  0.61480500  1
  Ca  Ca2  1  0.32108700  0.00000000  0.38519500  1
  Ca  Ca3  1  0.67891300  0.00000000  0.88519500  1
  Ca  Ca4  1  0.82108700  0.50000000  0.11480500  1
  Ca  Ca5  1  0.17891300  0.50000000  0.61480500  1
  Ca  Ca6  1  0.82108700  0.50000000  0.38519500  1
  Ca  Ca7  1  0.17891300  0.50000000  0.88519500  1
  Ag  Ag8  1  0.82864400  0.00000000  0.25000000  1
  Ag  Ag9  1  0.17135600  0.00000000  0.75000000  1
  Ag  Ag10  1  0.57824050  0.24893650  0.25000000  1
  Ag  Ag11  1  0.42175950  0.75106350  0.75000000  1
  Ag  Ag12  1  0.57824050  0.75106350  0.25000000  1
  Ag  Ag13  1  0.42175950  0.24893650  0.75000000  1
  Ag  Ag14  1  0.82862650  0.16504550  0.07645800  1
  Ag  Ag15  1  0.17137350  0.83495450  0.57645800  1
  Ag  Ag16  1  0.82862650  0.83495450  0.42354200  1
  Ag  Ag17  1  0.17137350  0.16504550  0.92354200  1
  Ag  Ag18  1  0.17137350  0.83495450  0.92354200  1
  Ag  Ag19  1  0.82862650  0.16504550  0.42354200  1
  Ag  Ag20  1  0.17137350  0.16504550  0.57645800  1
  Ag  Ag21  1  0.82862650  0.83495450  0.07645800  1
  Ag  Ag22  1  0.32864400  0.50000000  0.25000000  1
  Ag  Ag23  1  0.67135600  0.50000000  0.75000000  1
  Ag  Ag24  1  0.07824050  0.74893650  0.25000000  1
  Ag  Ag25  1  0.92175950  0.25106350  0.75000000  1
  Ag  Ag26  1  0.07824050  0.25106350  0.25000000  1
  Ag  Ag27  1  0.92175950  0.74893650  0.75000000  1
  Ag  Ag28  1  0.32862650  0.66504550  0.07645800  1
  Ag  Ag29  1  0.67137350  0.33495450  0.57645800  1
  Ag  Ag30  1  0.32862650  0.33495450  0.42354200  1
  Ag  Ag31  1  0.67137350  0.66504550  0.92354200  1
  Ag  Ag32  1  0.67137350  0.33495450  0.92354200  1
  Ag  Ag33  1  0.32862650  0.66504550  0.42354200  1
  Ag  Ag34  1  0.67137350  0.66504550  0.57645800  1
  Ag  Ag35  1  0.32862650  0.33495450  0.07645800  1
