# generated using pymatgen
data_Mn5(SiO4)3
_symmetry_space_group_name_H-M   'P 1'
_cell_length_a   11.98951800
_cell_length_b   11.98951800
_cell_length_c   11.98951800
_cell_angle_alpha   90.00000000
_cell_angle_beta   90.00000000
_cell_angle_gamma   90.00000000
_symmetry_Int_Tables_number   1
_chemical_formula_structural   Mn5(SiO4)3
_chemical_formula_sum   'Mn40 Si24 O96'
_cell_volume   1723.47573025
_cell_formula_units_Z   8
loop_
 _symmetry_equiv_pos_site_id
 _symmetry_equiv_pos_as_xyz
  1  'x, y, z'
loop_
 _atom_site_type_symbol
 _atom_site_label
 _atom_site_symmetry_multiplicity
 _atom_site_fract_x
 _atom_site_fract_y
 _atom_site_fract_z
 _atom_site_occupancy
  Mn  Mn0  1  0.00000000  0.00000000  0.00000000  1
  Mn  Mn1  1  0.75000000  0.25000000  0.25000000  1
  Mn  Mn2  1  0.25000000  0.75000000  0.25000000  1
  Mn  Mn3  1  0.25000000  0.25000000  0.75000000  1
  Mn  Mn4  1  0.00000000  0.00000000  0.50000000  1
  Mn  Mn5  1  0.50000000  0.00000000  0.00000000  1
  Mn  Mn6  1  0.00000000  0.50000000  0.00000000  1
  Mn  Mn7  1  0.25000000  0.25000000  0.25000000  1
  Mn  Mn8  1  0.62500000  0.00000000  0.25000000  1
  Mn  Mn9  1  0.37500000  0.50000000  0.25000000  1
  Mn  Mn10  1  0.50000000  0.25000000  0.37500000  1
  Mn  Mn11  1  0.00000000  0.25000000  0.62500000  1
  Mn  Mn12  1  0.25000000  0.62500000  0.00000000  1
  Mn  Mn13  1  0.25000000  0.37500000  0.50000000  1
  Mn  Mn14  1  0.87500000  0.50000000  0.25000000  1
  Mn  Mn15  1  0.12500000  0.00000000  0.25000000  1
  Mn  Mn16  1  0.00000000  0.25000000  0.12500000  1
  Mn  Mn17  1  0.50000000  0.25000000  0.87500000  1
  Mn  Mn18  1  0.25000000  0.87500000  0.50000000  1
  Mn  Mn19  1  0.25000000  0.12500000  0.00000000  1
  Mn  Mn20  1  0.50000000  0.50000000  0.50000000  1
  Mn  Mn21  1  0.25000000  0.75000000  0.75000000  1
  Mn  Mn22  1  0.75000000  0.25000000  0.75000000  1
  Mn  Mn23  1  0.75000000  0.75000000  0.25000000  1
  Mn  Mn24  1  0.50000000  0.50000000  0.00000000  1
  Mn  Mn25  1  0.00000000  0.50000000  0.50000000  1
  Mn  Mn26  1  0.50000000  0.00000000  0.50000000  1
  Mn  Mn27  1  0.75000000  0.75000000  0.75000000  1
  Mn  Mn28  1  0.12500000  0.50000000  0.75000000  1
  Mn  Mn29  1  0.87500000  0.00000000  0.75000000  1
  Mn  Mn30  1  0.00000000  0.75000000  0.87500000  1
  Mn  Mn31  1  0.50000000  0.75000000  0.12500000  1
  Mn  Mn32  1  0.75000000  0.12500000  0.50000000  1
  Mn  Mn33  1  0.75000000  0.87500000  0.00000000  1
  Mn  Mn34  1  0.37500000  0.00000000  0.75000000  1
  Mn  Mn35  1  0.62500000  0.50000000  0.75000000  1
  Mn  Mn36  1  0.50000000  0.75000000  0.62500000  1
  Mn  Mn37  1  0.00000000  0.75000000  0.37500000  1
  Mn  Mn38  1  0.75000000  0.37500000  0.00000000  1
  Mn  Mn39  1  0.75000000  0.62500000  0.50000000  1
  Si  Si40  1  0.50000000  0.75000000  0.37500000  1
  Si  Si41  1  0.00000000  0.75000000  0.12500000  1
  Si  Si42  1  0.37500000  0.00000000  0.25000000  1
  Si  Si43  1  0.25000000  0.37500000  0.00000000  1
  Si  Si44  1  0.12500000  0.00000000  0.75000000  1
  Si  Si45  1  0.75000000  0.12500000  0.00000000  1
  Si  Si46  1  0.50000000  0.25000000  0.12500000  1
  Si  Si47  1  0.25000000  0.12500000  0.50000000  1
  Si  Si48  1  0.75000000  0.37500000  0.50000000  1
  Si  Si49  1  0.37500000  0.50000000  0.75000000  1
  Si  Si50  1  0.12500000  0.50000000  0.25000000  1
  Si  Si51  1  0.00000000  0.25000000  0.37500000  1
  Si  Si52  1  0.00000000  0.25000000  0.87500000  1
  Si  Si53  1  0.50000000  0.25000000  0.62500000  1
  Si  Si54  1  0.87500000  0.50000000  0.75000000  1
  Si  Si55  1  0.75000000  0.87500000  0.50000000  1
  Si  Si56  1  0.62500000  0.50000000  0.25000000  1
  Si  Si57  1  0.25000000  0.62500000  0.50000000  1
  Si  Si58  1  0.00000000  0.75000000  0.62500000  1
  Si  Si59  1  0.75000000  0.62500000  0.00000000  1
  Si  Si60  1  0.25000000  0.87500000  0.00000000  1
  Si  Si61  1  0.87500000  0.00000000  0.25000000  1
  Si  Si62  1  0.62500000  0.00000000  0.75000000  1
  Si  Si63  1  0.50000000  0.75000000  0.87500000  1
  O  O64  1  0.05304500  0.65825400  0.03576400  1
  O  O65  1  0.78576400  0.90825400  0.19695500  1
  O  O66  1  0.21423600  0.40825400  0.30304500  1
  O  O67  1  0.30304500  0.21423600  0.40825400  1
  O  O68  1  0.80304500  0.28576400  0.59174600  1
  O  O69  1  0.59174600  0.80304500  0.28576400  1
  O  O70  1  0.90825400  0.19695500  0.78576400  1
  O  O71  1  0.15825400  0.46423600  0.94695500  1
  O  O72  1  0.46423600  0.05304500  0.34174600  1
  O  O73  1  0.34174600  0.53576400  0.44695500  1
  O  O74  1  0.46423600  0.94695500  0.15825400  1
  O  O75  1  0.34174600  0.46423600  0.05304500  1
  O  O76  1  0.53576400  0.44695500  0.34174600  1
  O  O77  1  0.03576400  0.05304500  0.65825400  1
  O  O78  1  0.65825400  0.03576400  0.05304500  1
  O  O79  1  0.94695500  0.15825400  0.46423600  1
  O  O80  1  0.21423600  0.59174600  0.19695500  1
  O  O81  1  0.05304500  0.34174600  0.46423600  1
  O  O82  1  0.19695500  0.21423600  0.59174600  1
  O  O83  1  0.44695500  0.34174600  0.53576400  1
  O  O84  1  0.59174600  0.19695500  0.21423600  1
  O  O85  1  0.28576400  0.59174600  0.80304500  1
  O  O86  1  0.19695500  0.78576400  0.90825400  1
  O  O87  1  0.40825400  0.30304500  0.21423600  1
  O  O88  1  0.44695500  0.84174600  0.46423600  1
  O  O89  1  0.71423600  0.59174600  0.30304500  1
  O  O90  1  0.28576400  0.09174600  0.19695500  1
  O  O91  1  0.19695500  0.28576400  0.09174600  1
  O  O92  1  0.69695500  0.21423600  0.90825400  1
  O  O93  1  0.90825400  0.69695500  0.21423600  1
  O  O94  1  0.59174600  0.30304500  0.71423600  1
  O  O95  1  0.34174600  0.03576400  0.55304500  1
  O  O96  1  0.03576400  0.44695500  0.15825400  1
  O  O97  1  0.15825400  0.96423600  0.05304500  1
  O  O98  1  0.03576400  0.55304500  0.34174600  1
  O  O99  1  0.15825400  0.03576400  0.44695500  1
  O  O100  1  0.96423600  0.05304500  0.15825400  1
  O  O101  1  0.46423600  0.44695500  0.84174600  1
  O  O102  1  0.84174600  0.46423600  0.44695500  1
  O  O103  1  0.55304500  0.34174600  0.03576400  1
  O  O104  1  0.28576400  0.90825400  0.30304500  1
  O  O105  1  0.44695500  0.15825400  0.03576400  1
  O  O106  1  0.30304500  0.28576400  0.90825400  1
  O  O107  1  0.05304500  0.15825400  0.96423600  1
  O  O108  1  0.90825400  0.30304500  0.28576400  1
  O  O109  1  0.21423600  0.90825400  0.69695500  1
  O  O110  1  0.30304500  0.71423600  0.59174600  1
  O  O111  1  0.09174600  0.19695500  0.28576400  1
  O  O112  1  0.55304500  0.15825400  0.53576400  1
  O  O113  1  0.28576400  0.40825400  0.69695500  1
  O  O114  1  0.71423600  0.90825400  0.80304500  1
  O  O115  1  0.80304500  0.71423600  0.90825400  1
  O  O116  1  0.30304500  0.78576400  0.09174600  1
  O  O117  1  0.09174600  0.30304500  0.78576400  1
  O  O118  1  0.40825400  0.69695500  0.28576400  1
  O  O119  1  0.65825400  0.96423600  0.44695500  1
  O  O120  1  0.96423600  0.55304500  0.84174600  1
  O  O121  1  0.84174600  0.03576400  0.94695500  1
  O  O122  1  0.96423600  0.44695500  0.65825400  1
  O  O123  1  0.84174600  0.96423600  0.55304500  1
  O  O124  1  0.03576400  0.94695500  0.84174600  1
  O  O125  1  0.53576400  0.55304500  0.15825400  1
  O  O126  1  0.15825400  0.53576400  0.55304500  1
  O  O127  1  0.44695500  0.65825400  0.96423600  1
  O  O128  1  0.71423600  0.09174600  0.69695500  1
  O  O129  1  0.55304500  0.84174600  0.96423600  1
  O  O130  1  0.69695500  0.71423600  0.09174600  1
  O  O131  1  0.94695500  0.84174600  0.03576400  1
  O  O132  1  0.09174600  0.69695500  0.71423600  1
  O  O133  1  0.78576400  0.09174600  0.30304500  1
  O  O134  1  0.69695500  0.28576400  0.40825400  1
  O  O135  1  0.90825400  0.80304500  0.71423600  1
  O  O136  1  0.94695500  0.34174600  0.96423600  1
  O  O137  1  0.21423600  0.09174600  0.80304500  1
  O  O138  1  0.78576400  0.59174600  0.69695500  1
  O  O139  1  0.69695500  0.78576400  0.59174600  1
  O  O140  1  0.19695500  0.71423600  0.40825400  1
  O  O141  1  0.40825400  0.19695500  0.71423600  1
  O  O142  1  0.09174600  0.80304500  0.21423600  1
  O  O143  1  0.84174600  0.53576400  0.05304500  1
  O  O144  1  0.53576400  0.94695500  0.65825400  1
  O  O145  1  0.65825400  0.46423600  0.55304500  1
  O  O146  1  0.53576400  0.05304500  0.84174600  1
  O  O147  1  0.65825400  0.53576400  0.94695500  1
  O  O148  1  0.46423600  0.55304500  0.65825400  1
  O  O149  1  0.96423600  0.94695500  0.34174600  1
  O  O150  1  0.34174600  0.96423600  0.94695500  1
  O  O151  1  0.05304500  0.84174600  0.53576400  1
  O  O152  1  0.78576400  0.40825400  0.80304500  1
  O  O153  1  0.94695500  0.65825400  0.53576400  1
  O  O154  1  0.80304500  0.78576400  0.40825400  1
  O  O155  1  0.55304500  0.65825400  0.46423600  1
  O  O156  1  0.40825400  0.80304500  0.78576400  1
  O  O157  1  0.71423600  0.40825400  0.19695500  1
  O  O158  1  0.80304500  0.21423600  0.09174600  1
  O  O159  1  0.59174600  0.69695500  0.78576400  1
