# generated using pymatgen
data_Al13Ru4
_symmetry_space_group_name_H-M   'P 1'
_cell_length_a   15.94845600
_cell_length_b   8.21824600
_cell_length_c   12.79902233
_cell_angle_alpha   90.00000000
_cell_angle_beta   107.76492900
_cell_angle_gamma   90.00000000
_symmetry_Int_Tables_number   1
_chemical_formula_structural   Al13Ru4
_chemical_formula_sum   'Al78 Ru24'
_cell_volume   1597.55497073
_cell_formula_units_Z   6
loop_
 _symmetry_equiv_pos_site_id
 _symmetry_equiv_pos_as_xyz
  1  'x, y, z'
loop_
 _atom_site_type_symbol
 _atom_site_label
 _atom_site_symmetry_multiplicity
 _atom_site_fract_x
 _atom_site_fract_y
 _atom_site_fract_z
 _atom_site_occupancy
  Al  Al0  1  0.00000000  0.50000000  0.50000000  1
  Al  Al1  1  0.00000000  0.25051000  0.00000000  1
  Al  Al2  1  0.00000000  0.74949000  0.00000000  1
  Al  Al3  1  0.93241300  0.00000000  0.82544200  1
  Al  Al4  1  0.56758700  0.50000000  0.17455800  1
  Al  Al5  1  0.67757600  0.00000000  0.71688400  1
  Al  Al6  1  0.82242400  0.50000000  0.28311600  1
  Al  Al7  1  0.76413700  0.00000000  0.46089800  1
  Al  Al8  1  0.73586300  0.50000000  0.53910200  1
  Al  Al9  1  0.92787200  0.00000000  0.41978800  1
  Al  Al10  1  0.57212800  0.50000000  0.58021200  1
  Al  Al11  1  0.76055800  0.00000000  0.04307400  1
  Al  Al12  1  0.73944200  0.50000000  0.95692600  1
  Al  Al13  1  0.51863100  0.00000000  0.17044400  1
  Al  Al14  1  0.98136900  0.50000000  0.82955600  1
  Al  Al15  1  0.69006300  0.00000000  0.22631800  1
  Al  Al16  1  0.80993700  0.50000000  0.77368200  1
  Al  Al17  1  0.91768200  0.00000000  0.21424000  1
  Al  Al18  1  0.58231800  0.50000000  0.78576000  1
  Al  Al19  1  0.81412200  0.22031700  0.89015100  1
  Al  Al20  1  0.68587800  0.72031700  0.10984900  1
  Al  Al21  1  0.68587800  0.27968300  0.10984900  1
  Al  Al22  1  0.81412200  0.77968300  0.89015100  1
  Al  Al23  1  0.63297600  0.21616900  0.89105000  1
  Al  Al24  1  0.86702400  0.71616900  0.10895000  1
  Al  Al25  1  0.86702400  0.28383100  0.10895000  1
  Al  Al26  1  0.63297600  0.78383100  0.89105000  1
  Al  Al27  1  0.82109700  0.22177000  0.66467400  1
  Al  Al28  1  0.67890300  0.72177000  0.33532600  1
  Al  Al29  1  0.67890300  0.27823000  0.33532600  1
  Al  Al30  1  0.82109700  0.77823000  0.66467400  1
  Al  Al31  1  0.50934150  0.23271150  0.67047600  1
  Al  Al32  1  0.99065850  0.73271150  0.32952400  1
  Al  Al33  1  0.99065850  0.26728850  0.32952400  1
  Al  Al34  1  0.50934150  0.76728850  0.67047600  1
  Al  Al35  1  0.63603250  0.22280450  0.51953900  1
  Al  Al36  1  0.86396750  0.72280450  0.48046100  1
  Al  Al37  1  0.86396750  0.27719550  0.48046100  1
  Al  Al38  1  0.63603250  0.77719550  0.51953900  1
  Al  Al39  1  0.50000000  0.00000000  0.50000000  1
  Al  Al40  1  0.50000000  0.75051000  0.00000000  1
  Al  Al41  1  0.50000000  0.24949000  0.00000000  1
  Al  Al42  1  0.43241300  0.50000000  0.82544200  1
  Al  Al43  1  0.06758700  0.00000000  0.17455800  1
  Al  Al44  1  0.17757600  0.50000000  0.71688400  1
  Al  Al45  1  0.32242400  0.00000000  0.28311600  1
  Al  Al46  1  0.26413700  0.50000000  0.46089800  1
  Al  Al47  1  0.23586300  0.00000000  0.53910200  1
  Al  Al48  1  0.42787200  0.50000000  0.41978800  1
  Al  Al49  1  0.07212800  0.00000000  0.58021200  1
  Al  Al50  1  0.26055800  0.50000000  0.04307400  1
  Al  Al51  1  0.23944200  0.00000000  0.95692600  1
  Al  Al52  1  0.01863100  0.50000000  0.17044400  1
  Al  Al53  1  0.48136900  0.00000000  0.82955600  1
  Al  Al54  1  0.19006300  0.50000000  0.22631800  1
  Al  Al55  1  0.30993700  0.00000000  0.77368200  1
  Al  Al56  1  0.41768200  0.50000000  0.21424000  1
  Al  Al57  1  0.08231800  0.00000000  0.78576000  1
  Al  Al58  1  0.31412200  0.72031700  0.89015100  1
  Al  Al59  1  0.18587800  0.22031700  0.10984900  1
  Al  Al60  1  0.18587800  0.77968300  0.10984900  1
  Al  Al61  1  0.31412200  0.27968300  0.89015100  1
  Al  Al62  1  0.13297600  0.71616900  0.89105000  1
  Al  Al63  1  0.36702400  0.21616900  0.10895000  1
  Al  Al64  1  0.36702400  0.78383100  0.10895000  1
  Al  Al65  1  0.13297600  0.28383100  0.89105000  1
  Al  Al66  1  0.32109700  0.72177000  0.66467400  1
  Al  Al67  1  0.17890300  0.22177000  0.33532600  1
  Al  Al68  1  0.17890300  0.77823000  0.33532600  1
  Al  Al69  1  0.32109700  0.27823000  0.66467400  1
  Al  Al70  1  0.00934150  0.73271150  0.67047600  1
  Al  Al71  1  0.49065850  0.23271150  0.32952400  1
  Al  Al72  1  0.49065850  0.76728850  0.32952400  1
  Al  Al73  1  0.00934150  0.26728850  0.67047600  1
  Al  Al74  1  0.13603250  0.72280450  0.51953900  1
  Al  Al75  1  0.36396750  0.22280450  0.48046100  1
  Al  Al76  1  0.36396750  0.77719550  0.48046100  1
  Al  Al77  1  0.13603250  0.27719550  0.51953900  1
  Ru  Ru78  1  0.91470300  0.00000000  0.61701600  1
  Ru  Ru79  1  0.58529700  0.50000000  0.38298400  1
  Ru  Ru80  1  0.59862700  0.00000000  0.37553900  1
  Ru  Ru81  1  0.90137300  0.50000000  0.62446100  1
  Ru  Ru82  1  0.90810100  0.00000000  0.01245000  1
  Ru  Ru83  1  0.59189900  0.50000000  0.98755000  1
  Ru  Ru84  1  0.59951300  0.00000000  0.01531100  1
  Ru  Ru85  1  0.90048700  0.50000000  0.98468900  1
  Ru  Ru86  1  0.68068850  0.29625450  0.72158600  1
  Ru  Ru87  1  0.81931150  0.79625450  0.27841400  1
  Ru  Ru88  1  0.81931150  0.20374550  0.27841400  1
  Ru  Ru89  1  0.68068850  0.70374550  0.72158600  1
  Ru  Ru90  1  0.41470300  0.50000000  0.61701600  1
  Ru  Ru91  1  0.08529700  0.00000000  0.38298400  1
  Ru  Ru92  1  0.09862700  0.50000000  0.37553900  1
  Ru  Ru93  1  0.40137300  0.00000000  0.62446100  1
  Ru  Ru94  1  0.40810100  0.50000000  0.01245000  1
  Ru  Ru95  1  0.09189900  0.00000000  0.98755000  1
  Ru  Ru96  1  0.09951300  0.50000000  0.01531100  1
  Ru  Ru97  1  0.40048700  0.00000000  0.98468900  1
  Ru  Ru98  1  0.18068850  0.79625450  0.72158600  1
  Ru  Ru99  1  0.31931150  0.29625450  0.27841400  1
  Ru  Ru100  1  0.31931150  0.70374550  0.27841400  1
  Ru  Ru101  1  0.18068850  0.20374550  0.72158600  1
