# generated using pymatgen
data_Ca2MnAlO5
_symmetry_space_group_name_H-M   'P 1'
_cell_length_a   5.35092627
_cell_length_b   5.61678950
_cell_length_c   14.84071727
_cell_angle_alpha   90.00000000
_cell_angle_beta   90.00000000
_cell_angle_gamma   90.00000000
_symmetry_Int_Tables_number   1
_chemical_formula_structural   Ca2MnAlO5
_chemical_formula_sum   'Ca8 Mn4 Al4 O20'
_cell_volume   446.03815015
_cell_formula_units_Z   4
loop_
 _symmetry_equiv_pos_site_id
 _symmetry_equiv_pos_as_xyz
  1  'x, y, z'
loop_
 _atom_site_type_symbol
 _atom_site_label
 _atom_site_symmetry_multiplicity
 _atom_site_fract_x
 _atom_site_fract_y
 _atom_site_fract_z
 _atom_site_occupancy
  Ca  Ca0  1  0.01044350  0.03002700  0.88834250  1
  Ca  Ca1  1  0.01044350  0.03002700  0.61165750  1
  Ca  Ca2  1  0.51044350  0.46997300  0.61165750  1
  Ca  Ca3  1  0.51044350  0.46997300  0.88834250  1
  Ca  Ca4  1  0.51044350  0.53002700  0.38834250  1
  Ca  Ca5  1  0.51044350  0.53002700  0.11165750  1
  Ca  Ca6  1  0.01044350  0.96997300  0.11165750  1
  Ca  Ca7  1  0.01044350  0.96997300  0.38834250  1
  Mn  Mn8  1  0.49899050  0.00000000  0.00000000  1
  Mn  Mn9  1  0.99899050  0.50000000  0.00000000  1
  Mn  Mn10  1  0.99899050  0.50000000  0.50000000  1
  Mn  Mn11  1  0.49899050  0.00000000  0.50000000  1
  Al  Al12  1  0.03717900  0.57322950  0.75000000  1
  Al  Al13  1  0.53717900  0.92677050  0.75000000  1
  Al  Al14  1  0.53717900  0.07322950  0.25000000  1
  Al  Al15  1  0.03717900  0.42677050  0.25000000  1
  O  O16  1  0.36962300  0.64539650  0.75000000  1
  O  O17  1  0.86962300  0.85460350  0.75000000  1
  O  O18  1  0.46586650  0.07317700  0.85142550  1
  O  O19  1  0.96586650  0.42682300  0.64857450  1
  O  O20  1  0.96586650  0.42682300  0.85142550  1
  O  O21  1  0.46586650  0.07317700  0.64857450  1
  O  O22  1  0.75082400  0.75379950  0.51457100  1
  O  O23  1  0.25082400  0.74620050  0.98542900  1
  O  O24  1  0.75082400  0.75379950  0.98542900  1
  O  O25  1  0.25082400  0.74620050  0.51457100  1
  O  O26  1  0.86962300  0.14539650  0.25000000  1
  O  O27  1  0.36962300  0.35460350  0.25000000  1
  O  O28  1  0.96586650  0.57317700  0.35142550  1
  O  O29  1  0.46586650  0.92682300  0.14857450  1
  O  O30  1  0.46586650  0.92682300  0.35142550  1
  O  O31  1  0.96586650  0.57317700  0.14857450  1
  O  O32  1  0.25082400  0.25379950  0.01457100  1
  O  O33  1  0.75082400  0.24620050  0.48542900  1
  O  O34  1  0.25082400  0.25379950  0.48542900  1
  O  O35  1  0.75082400  0.24620050  0.01457100  1
