# generated using pymatgen
data_GaTe4(MoSe)4
_symmetry_space_group_name_H-M   'P 1'
_cell_length_a   10.77834400
_cell_length_b   10.77834400
_cell_length_c   10.77834400
_cell_angle_alpha   90.00000000
_cell_angle_beta   90.00000000
_cell_angle_gamma   90.00000000
_symmetry_Int_Tables_number   1
_chemical_formula_structural   GaTe4(MoSe)4
_chemical_formula_sum   'Ga4 Te16 Mo16 Se16'
_cell_volume   1252.14931735
_cell_formula_units_Z   4
loop_
 _symmetry_equiv_pos_site_id
 _symmetry_equiv_pos_as_xyz
  1  'x, y, z'
loop_
 _atom_site_type_symbol
 _atom_site_label
 _atom_site_symmetry_multiplicity
 _atom_site_fract_x
 _atom_site_fract_y
 _atom_site_fract_z
 _atom_site_occupancy
  Ga  Ga0  1  0.00000000  0.00000000  0.00000000  1
  Ga  Ga1  1  0.00000000  0.50000000  0.50000000  1
  Ga  Ga2  1  0.50000000  0.00000000  0.50000000  1
  Ga  Ga3  1  0.50000000  0.50000000  0.00000000  1
  Te  Te4  1  0.13840500  0.36159500  0.63840500  1
  Te  Te5  1  0.36159500  0.13840500  0.63840500  1
  Te  Te6  1  0.36159500  0.36159500  0.86159500  1
  Te  Te7  1  0.13840500  0.13840500  0.86159500  1
  Te  Te8  1  0.13840500  0.86159500  0.13840500  1
  Te  Te9  1  0.36159500  0.63840500  0.13840500  1
  Te  Te10  1  0.36159500  0.86159500  0.36159500  1
  Te  Te11  1  0.13840500  0.63840500  0.36159500  1
  Te  Te12  1  0.63840500  0.36159500  0.13840500  1
  Te  Te13  1  0.86159500  0.13840500  0.13840500  1
  Te  Te14  1  0.86159500  0.36159500  0.36159500  1
  Te  Te15  1  0.63840500  0.13840500  0.36159500  1
  Te  Te16  1  0.63840500  0.86159500  0.63840500  1
  Te  Te17  1  0.86159500  0.63840500  0.63840500  1
  Te  Te18  1  0.86159500  0.86159500  0.86159500  1
  Te  Te19  1  0.63840500  0.63840500  0.86159500  1
  Mo  Mo20  1  0.59562633  0.09562633  0.09562633  1
  Mo  Mo21  1  0.40437367  0.09562633  0.90437367  1
  Mo  Mo22  1  0.90437367  0.40437367  0.09562633  1
  Mo  Mo23  1  0.09562633  0.40437367  0.90437367  1
  Mo  Mo24  1  0.59562633  0.59562633  0.59562633  1
  Mo  Mo25  1  0.40437367  0.59562633  0.40437367  1
  Mo  Mo26  1  0.90437367  0.90437367  0.59562633  1
  Mo  Mo27  1  0.09562633  0.90437367  0.40437367  1
  Mo  Mo28  1  0.09562633  0.09562633  0.59562633  1
  Mo  Mo29  1  0.90437367  0.09562633  0.40437367  1
  Mo  Mo30  1  0.40437367  0.40437367  0.59562633  1
  Mo  Mo31  1  0.59562633  0.40437367  0.40437367  1
  Mo  Mo32  1  0.09562633  0.59562633  0.09562633  1
  Mo  Mo33  1  0.90437367  0.59562633  0.90437367  1
  Mo  Mo34  1  0.40437367  0.90437367  0.09562633  1
  Mo  Mo35  1  0.59562633  0.90437367  0.90437367  1
  Se  Se36  1  0.86911867  0.36911867  0.86911867  1
  Se  Se37  1  0.13088133  0.36911867  0.13088133  1
  Se  Se38  1  0.63088133  0.13088133  0.86911867  1
  Se  Se39  1  0.36911867  0.13088133  0.13088133  1
  Se  Se40  1  0.86911867  0.86911867  0.36911867  1
  Se  Se41  1  0.13088133  0.86911867  0.63088133  1
  Se  Se42  1  0.63088133  0.63088133  0.36911867  1
  Se  Se43  1  0.36911867  0.63088133  0.63088133  1
  Se  Se44  1  0.36911867  0.36911867  0.36911867  1
  Se  Se45  1  0.63088133  0.36911867  0.63088133  1
  Se  Se46  1  0.13088133  0.13088133  0.36911867  1
  Se  Se47  1  0.86911867  0.13088133  0.63088133  1
  Se  Se48  1  0.36911867  0.86911867  0.86911867  1
  Se  Se49  1  0.63088133  0.86911867  0.13088133  1
  Se  Se50  1  0.13088133  0.63088133  0.86911867  1
  Se  Se51  1  0.86911867  0.63088133  0.13088133  1
