# generated using pymatgen
data_YbGa7Au3
_symmetry_space_group_name_H-M   'P 1'
_cell_length_a   8.25967987
_cell_length_b   8.25967987
_cell_length_c   21.35693572
_cell_angle_alpha   90.00000000
_cell_angle_beta   90.00000000
_cell_angle_gamma   120.00000000
_symmetry_Int_Tables_number   1
_chemical_formula_structural   YbGa7Au3
_chemical_formula_sum   'Yb6 Ga42 Au18'
_cell_volume   1261.81592176
_cell_formula_units_Z   6
loop_
 _symmetry_equiv_pos_site_id
 _symmetry_equiv_pos_as_xyz
  1  'x, y, z'
loop_
 _atom_site_type_symbol
 _atom_site_label
 _atom_site_symmetry_multiplicity
 _atom_site_fract_x
 _atom_site_fract_y
 _atom_site_fract_z
 _atom_site_occupancy
  Yb  Yb0  1  0.33333333  0.66666667  0.16666667  1
  Yb  Yb1  1  0.00000000  0.00000000  0.00000000  1
  Yb  Yb2  1  1.00000000  0.00000000  0.50000000  1
  Yb  Yb3  1  0.66666667  0.33333333  0.33333333  1
  Yb  Yb4  1  0.66666667  0.33333333  0.83333333  1
  Yb  Yb5  1  0.33333333  0.66666667  0.66666667  1
  Ga  Ga6  1  0.01204500  0.80428200  0.13482400  1
  Ga  Ga7  1  0.19571800  0.20776300  0.13482400  1
  Ga  Ga8  1  0.79223700  0.98795500  0.13482400  1
  Ga  Ga9  1  0.32128833  0.45890367  0.03184267  1
  Ga  Ga10  1  0.54109633  0.86238467  0.03184267  1
  Ga  Ga11  1  0.13761533  0.67871167  0.03184267  1
  Ga  Ga12  1  0.65462167  0.52905133  0.19850933  1
  Ga  Ga13  1  0.47094867  0.12557033  0.19850933  1
  Ga  Ga14  1  0.66666667  0.33333333  0.08333333  1
  Ga  Ga15  1  0.00000000  0.00000000  0.25000000  1
  Ga  Ga16  1  0.52905133  0.65462167  0.30149067  1
  Ga  Ga17  1  0.12557033  0.47094867  0.30149067  1
  Ga  Ga18  1  0.34537833  0.87442967  0.30149067  1
  Ga  Ga19  1  0.87442967  0.34537833  0.19850933  1
  Ga  Ga20  1  0.67871167  0.13761533  0.46815733  1
  Ga  Ga21  1  0.86238467  0.54109633  0.46815733  1
  Ga  Ga22  1  0.45890367  0.32128833  0.46815733  1
  Ga  Ga23  1  0.98795500  0.79223700  0.36517600  1
  Ga  Ga24  1  0.20776300  0.19571800  0.36517600  1
  Ga  Ga25  1  0.80428200  0.01204500  0.36517600  1
  Ga  Ga26  1  0.32128833  0.86238467  0.53184267  1
  Ga  Ga27  1  0.13761533  0.45890367  0.53184267  1
  Ga  Ga28  1  0.33333333  0.66666667  0.41666667  1
  Ga  Ga29  1  0.66666667  0.33333333  0.58333333  1
  Ga  Ga30  1  0.19571800  0.98795500  0.63482400  1
  Ga  Ga31  1  0.79223700  0.80428200  0.63482400  1
  Ga  Ga32  1  0.01204500  0.20776300  0.63482400  1
  Ga  Ga33  1  0.54109633  0.67871167  0.53184267  1
  Ga  Ga34  1  0.34537833  0.47094867  0.80149067  1
  Ga  Ga35  1  0.52905133  0.87442967  0.80149067  1
  Ga  Ga36  1  0.12557033  0.65462167  0.80149067  1
  Ga  Ga37  1  0.65462167  0.12557033  0.69850933  1
  Ga  Ga38  1  0.87442967  0.52905133  0.69850933  1
  Ga  Ga39  1  0.47094867  0.34537833  0.69850933  1
  Ga  Ga40  1  0.98795500  0.19571800  0.86517600  1
  Ga  Ga41  1  0.80428200  0.79223700  0.86517600  1
  Ga  Ga42  1  0.00000000  0.00000000  0.75000000  1
  Ga  Ga43  1  0.33333333  0.66666667  0.91666667  1
  Ga  Ga44  1  0.86238467  0.32128833  0.96815733  1
  Ga  Ga45  1  0.45890367  0.13761533  0.96815733  1
  Ga  Ga46  1  0.67871167  0.54109633  0.96815733  1
  Ga  Ga47  1  0.20776300  0.01204500  0.86517600  1
  Au  Au48  1  0.68179100  0.00000000  0.25000000  1
  Au  Au49  1  0.66666667  0.65154233  0.08333333  1
  Au  Au50  1  0.34845767  0.01512433  0.08333333  1
  Au  Au51  1  0.98487567  0.33333333  0.08333333  1
  Au  Au52  1  0.31820900  0.31820900  0.25000000  1
  Au  Au53  1  0.00000000  0.68179100  0.25000000  1
  Au  Au54  1  0.34845767  0.33333333  0.58333333  1
  Au  Au55  1  0.33333333  0.98487567  0.41666667  1
  Au  Au56  1  0.01512433  0.34845767  0.41666667  1
  Au  Au57  1  0.65154233  0.66666667  0.41666667  1
  Au  Au58  1  0.98487567  0.65154233  0.58333333  1
  Au  Au59  1  0.66666667  0.01512433  0.58333333  1
  Au  Au60  1  0.01512433  0.66666667  0.91666667  1
  Au  Au61  1  0.00000000  0.31820900  0.75000000  1
  Au  Au62  1  0.68179100  0.68179100  0.75000000  1
  Au  Au63  1  0.31820900  0.00000000  0.75000000  1
  Au  Au64  1  0.65154233  0.98487567  0.91666667  1
  Au  Au65  1  0.33333333  0.34845767  0.91666667  1
