# generated using pymatgen
data_Tb2Al6Si4Au
_symmetry_space_group_name_H-M   'P 1'
_cell_length_a   4.21147386
_cell_length_b   4.21147386
_cell_length_c   50.52893421
_cell_angle_alpha   90.00000000
_cell_angle_beta   90.00000000
_cell_angle_gamma   120.00000000
_symmetry_Int_Tables_number   1
_chemical_formula_structural   Tb2Al6Si4Au
_chemical_formula_sum   'Tb6 Al18 Si12 Au3'
_cell_volume   776.13807491
_cell_formula_units_Z   3
loop_
 _symmetry_equiv_pos_site_id
 _symmetry_equiv_pos_as_xyz
  1  'x, y, z'
loop_
 _atom_site_type_symbol
 _atom_site_label
 _atom_site_symmetry_multiplicity
 _atom_site_fract_x
 _atom_site_fract_y
 _atom_site_fract_z
 _atom_site_occupancy
  Tb  Tb0  1  0.33333333  0.66666667  0.23221367  1
  Tb  Tb1  1  0.33333333  0.66666667  0.10111967  1
  Tb  Tb2  1  0.00000000  0.00000000  0.56554700  1
  Tb  Tb3  1  0.00000000  0.00000000  0.43445300  1
  Tb  Tb4  1  0.66666667  0.33333333  0.89888033  1
  Tb  Tb5  1  0.66666667  0.33333333  0.76778633  1
  Al  Al6  1  0.66666667  0.33333333  0.28123033  1
  Al  Al7  1  0.00000000  0.00000000  0.05210300  1
  Al  Al8  1  0.00000000  0.00000000  0.18542800  1
  Al  Al9  1  0.66666667  0.33333333  0.14790533  1
  Al  Al10  1  0.00000000  0.00000000  0.31694800  1
  Al  Al11  1  0.66666667  0.33333333  0.01638533  1
  Al  Al12  1  0.33333333  0.66666667  0.61456367  1
  Al  Al13  1  0.66666667  0.33333333  0.38543633  1
  Al  Al14  1  0.66666667  0.33333333  0.51876133  1
  Al  Al15  1  0.33333333  0.66666667  0.48123867  1
  Al  Al16  1  0.66666667  0.33333333  0.65028133  1
  Al  Al17  1  0.33333333  0.66666667  0.34971867  1
  Al  Al18  1  0.00000000  0.00000000  0.94789700  1
  Al  Al19  1  0.33333333  0.66666667  0.71876967  1
  Al  Al20  1  0.33333333  0.66666667  0.85209467  1
  Al  Al21  1  0.00000000  0.00000000  0.81457200  1
  Al  Al22  1  0.33333333  0.66666667  0.98361467  1
  Al  Al23  1  0.00000000  0.00000000  0.68305200  1
  Si  Si24  1  0.66666667  0.33333333  0.06737033  1
  Si  Si25  1  0.00000000  0.00000000  0.13525700  1
  Si  Si26  1  0.00000000  0.00000000  0.26596300  1
  Si  Si27  1  0.66666667  0.33333333  0.19807633  1
  Si  Si28  1  0.33333333  0.66666667  0.40070367  1
  Si  Si29  1  0.66666667  0.33333333  0.46859033  1
  Si  Si30  1  0.66666667  0.33333333  0.59929633  1
  Si  Si31  1  0.33333333  0.66666667  0.53140967  1
  Si  Si32  1  0.00000000  0.00000000  0.73403700  1
  Si  Si33  1  0.33333333  0.66666667  0.80192367  1
  Si  Si34  1  0.33333333  0.66666667  0.93262967  1
  Si  Si35  1  0.00000000  0.00000000  0.86474300  1
  Au  Au36  1  0.00000000  0.00000000  0.00000000  1
  Au  Au37  1  0.66666667  0.33333333  0.33333333  1
  Au  Au38  1  0.33333333  0.66666667  0.66666667  1
