# generated using pymatgen
data_Sm(NiGe)3
_symmetry_space_group_name_H-M   'P 1'
_cell_length_a   4.15314800
_cell_length_b   4.15314800
_cell_length_c   25.15751000
_cell_angle_alpha   90.00000000
_cell_angle_beta   90.00000000
_cell_angle_gamma   90.00000000
_symmetry_Int_Tables_number   1
_chemical_formula_structural   Sm(NiGe)3
_chemical_formula_sum   'Sm4 Ni12 Ge12'
_cell_volume   433.93279077
_cell_formula_units_Z   4
loop_
 _symmetry_equiv_pos_site_id
 _symmetry_equiv_pos_as_xyz
  1  'x, y, z'
loop_
 _atom_site_type_symbol
 _atom_site_label
 _atom_site_symmetry_multiplicity
 _atom_site_fract_x
 _atom_site_fract_y
 _atom_site_fract_z
 _atom_site_occupancy
  Sm  Sm0  1  0.50000000  0.50000000  0.15303500  1
  Sm  Sm1  1  0.00000000  0.00000000  0.34696500  1
  Sm  Sm2  1  0.00000000  0.00000000  0.65303500  1
  Sm  Sm3  1  0.50000000  0.50000000  0.84696500  1
  Ni  Ni4  1  0.50000000  0.50000000  0.29684500  1
  Ni  Ni5  1  0.00000000  0.00000000  0.20315500  1
  Ni  Ni6  1  0.50000000  0.00000000  0.05440200  1
  Ni  Ni7  1  0.00000000  0.50000000  0.05440200  1
  Ni  Ni8  1  0.00000000  0.50000000  0.44559800  1
  Ni  Ni9  1  0.50000000  0.00000000  0.44559800  1
  Ni  Ni10  1  0.00000000  0.00000000  0.79684500  1
  Ni  Ni11  1  0.50000000  0.50000000  0.70315500  1
  Ni  Ni12  1  0.00000000  0.50000000  0.55440200  1
  Ni  Ni13  1  0.50000000  0.00000000  0.55440200  1
  Ni  Ni14  1  0.50000000  0.00000000  0.94559800  1
  Ni  Ni15  1  0.00000000  0.50000000  0.94559800  1
  Ge  Ge16  1  0.00000000  0.00000000  0.00000000  1
  Ge  Ge17  1  0.50000000  0.50000000  0.00000000  1
  Ge  Ge18  1  0.00000000  0.00000000  0.11057200  1
  Ge  Ge19  1  0.50000000  0.50000000  0.38942800  1
  Ge  Ge20  1  0.50000000  0.00000000  0.25000000  1
  Ge  Ge21  1  0.00000000  0.50000000  0.25000000  1
  Ge  Ge22  1  0.50000000  0.50000000  0.50000000  1
  Ge  Ge23  1  0.00000000  0.00000000  0.50000000  1
  Ge  Ge24  1  0.50000000  0.50000000  0.61057200  1
  Ge  Ge25  1  0.00000000  0.00000000  0.88942800  1
  Ge  Ge26  1  0.00000000  0.50000000  0.75000000  1
  Ge  Ge27  1  0.50000000  0.00000000  0.75000000  1
