# generated using pymatgen
data_Nd2AlCo2
_symmetry_space_group_name_H-M   'P 1'
_cell_length_a   4.02085200
_cell_length_b   5.61259000
_cell_length_c   8.84740600
_cell_angle_alpha   90.00000000
_cell_angle_beta   90.00000000
_cell_angle_gamma   90.00000000
_symmetry_Int_Tables_number   1
_chemical_formula_structural   Nd2AlCo2
_chemical_formula_sum   'Nd4 Al2 Co4'
_cell_volume   199.66289466
_cell_formula_units_Z   2
loop_
 _symmetry_equiv_pos_site_id
 _symmetry_equiv_pos_as_xyz
  1  'x, y, z'
loop_
 _atom_site_type_symbol
 _atom_site_label
 _atom_site_symmetry_multiplicity
 _atom_site_fract_x
 _atom_site_fract_y
 _atom_site_fract_z
 _atom_site_occupancy
  Nd  Nd0  1  0.00000000  0.50000000  0.80084900  1
  Nd  Nd1  1  0.00000000  0.50000000  0.19915100  1
  Nd  Nd2  1  0.50000000  0.00000000  0.30084900  1
  Nd  Nd3  1  0.50000000  0.00000000  0.69915100  1
  Al  Al4  1  0.00000000  0.00000000  0.00000000  1
  Al  Al5  1  0.50000000  0.50000000  0.50000000  1
  Co  Co6  1  0.50000000  0.27024200  0.00000000  1
  Co  Co7  1  0.50000000  0.72975800  0.00000000  1
  Co  Co8  1  0.00000000  0.77024200  0.50000000  1
  Co  Co9  1  0.00000000  0.22975800  0.50000000  1
