# generated using pymatgen
data_Ga3Ni5
_symmetry_space_group_name_H-M   'P 1'
_cell_length_a   6.80215000
_cell_length_b   7.50244600
_cell_length_c   3.71590800
_cell_angle_alpha   90.00000000
_cell_angle_beta   90.00000000
_cell_angle_gamma   90.00000000
_symmetry_Int_Tables_number   1
_chemical_formula_structural   Ga3Ni5
_chemical_formula_sum   'Ga6 Ni10'
_cell_volume   189.63305251
_cell_formula_units_Z   2
loop_
 _symmetry_equiv_pos_site_id
 _symmetry_equiv_pos_as_xyz
  1  'x, y, z'
loop_
 _atom_site_type_symbol
 _atom_site_label
 _atom_site_symmetry_multiplicity
 _atom_site_fract_x
 _atom_site_fract_y
 _atom_site_fract_z
 _atom_site_occupancy
  Ga  Ga0  1  0.00000000  0.00000000  0.00000000  1
  Ga  Ga1  1  0.50000000  0.78017900  0.50000000  1
  Ga  Ga2  1  0.50000000  0.21982100  0.50000000  1
  Ga  Ga3  1  0.50000000  0.50000000  0.00000000  1
  Ga  Ga4  1  0.00000000  0.28017900  0.50000000  1
  Ga  Ga5  1  0.00000000  0.71982100  0.50000000  1
  Ni  Ni6  1  0.50000000  0.00000000  0.00000000  1
  Ni  Ni7  1  0.25000000  0.75000000  0.00000000  1
  Ni  Ni8  1  0.25000000  0.25000000  0.00000000  1
  Ni  Ni9  1  0.77235600  0.00000000  0.50000000  1
  Ni  Ni10  1  0.22764400  0.00000000  0.50000000  1
  Ni  Ni11  1  0.00000000  0.50000000  0.00000000  1
  Ni  Ni12  1  0.75000000  0.25000000  0.00000000  1
  Ni  Ni13  1  0.75000000  0.75000000  0.00000000  1
  Ni  Ni14  1  0.27235600  0.50000000  0.50000000  1
  Ni  Ni15  1  0.72764400  0.50000000  0.50000000  1
