# generated using pymatgen
data_Nb5(PPd)4
_symmetry_space_group_name_H-M   'P 1'
_cell_length_a   10.45665000
_cell_length_b   10.45665000
_cell_length_c   3.64505600
_cell_angle_alpha   90.00000000
_cell_angle_beta   90.00000000
_cell_angle_gamma   90.00000000
_symmetry_Int_Tables_number   1
_chemical_formula_structural   Nb5(PPd)4
_chemical_formula_sum   'Nb10 P8 Pd8'
_cell_volume   398.55599714
_cell_formula_units_Z   2
loop_
 _symmetry_equiv_pos_site_id
 _symmetry_equiv_pos_as_xyz
  1  'x, y, z'
loop_
 _atom_site_type_symbol
 _atom_site_label
 _atom_site_symmetry_multiplicity
 _atom_site_fract_x
 _atom_site_fract_y
 _atom_site_fract_z
 _atom_site_occupancy
  Nb  Nb0  1  0.81264850  0.12266650  0.50000000  1
  Nb  Nb1  1  0.18735150  0.87733350  0.50000000  1
  Nb  Nb2  1  0.00000000  0.00000000  0.00000000  1
  Nb  Nb3  1  0.37733350  0.31264850  0.00000000  1
  Nb  Nb4  1  0.62266650  0.68735150  0.00000000  1
  Nb  Nb5  1  0.31264850  0.62266650  0.00000000  1
  Nb  Nb6  1  0.68735150  0.37733350  0.00000000  1
  Nb  Nb7  1  0.50000000  0.50000000  0.50000000  1
  Nb  Nb8  1  0.87733350  0.81264850  0.50000000  1
  Nb  Nb9  1  0.12266650  0.18735150  0.50000000  1
  P  P10  1  0.24300050  0.05909450  0.00000000  1
  P  P11  1  0.75699950  0.94090550  0.00000000  1
  P  P12  1  0.55909450  0.25699950  0.50000000  1
  P  P13  1  0.44090550  0.74300050  0.50000000  1
  P  P14  1  0.74300050  0.55909450  0.50000000  1
  P  P15  1  0.25699950  0.44090550  0.50000000  1
  P  P16  1  0.05909450  0.75699950  0.00000000  1
  P  P17  1  0.94090550  0.24300050  0.00000000  1
  Pd  Pd18  1  0.61565650  0.90442950  0.50000000  1
  Pd  Pd19  1  0.40442950  0.88434350  0.00000000  1
  Pd  Pd20  1  0.38434350  0.09557050  0.50000000  1
  Pd  Pd21  1  0.59557050  0.11565650  0.00000000  1
  Pd  Pd22  1  0.11565650  0.40442950  0.00000000  1
  Pd  Pd23  1  0.90442950  0.38434350  0.50000000  1
  Pd  Pd24  1  0.88434350  0.59557050  0.00000000  1
  Pd  Pd25  1  0.09557050  0.61565650  0.50000000  1
