# generated using pymatgen
data_Sm2Mo2C3
_symmetry_space_group_name_H-M   'P 1'
_cell_length_a   11.38238800
_cell_length_b   3.46428000
_cell_length_c   5.83243267
_cell_angle_alpha   90.00000000
_cell_angle_beta   106.43413860
_cell_angle_gamma   90.00000000
_symmetry_Int_Tables_number   1
_chemical_formula_structural   Sm2Mo2C3
_chemical_formula_sum   'Sm4 Mo4 C6'
_cell_volume   220.58736592
_cell_formula_units_Z   2
loop_
 _symmetry_equiv_pos_site_id
 _symmetry_equiv_pos_as_xyz
  1  'x, y, z'
loop_
 _atom_site_type_symbol
 _atom_site_label
 _atom_site_symmetry_multiplicity
 _atom_site_fract_x
 _atom_site_fract_y
 _atom_site_fract_z
 _atom_site_occupancy
  Sm  Sm0  1  0.38887600  0.00000000  0.17625500  1
  Sm  Sm1  1  0.11112400  0.50000000  0.82374500  1
  Sm  Sm2  1  0.88887600  0.50000000  0.17625500  1
  Sm  Sm3  1  0.61112400  0.00000000  0.82374500  1
  Mo  Mo4  1  0.15241700  0.00000000  0.38224100  1
  Mo  Mo5  1  0.34758300  0.50000000  0.61775900  1
  Mo  Mo6  1  0.65241700  0.50000000  0.38224100  1
  Mo  Mo7  1  0.84758300  0.00000000  0.61775900  1
  C  C8  1  0.00000000  0.00000000  0.50000000  1
  C  C9  1  0.27542700  0.00000000  0.73394500  1
  C  C10  1  0.22457300  0.50000000  0.26605500  1
  C  C11  1  0.50000000  0.50000000  0.50000000  1
  C  C12  1  0.77542700  0.50000000  0.73394500  1
  C  C13  1  0.72457300  0.00000000  0.26605500  1
