# generated using pymatgen
data_Li2VGeO5
_symmetry_space_group_name_H-M   'P 1'
_cell_length_a   6.59841300
_cell_length_b   6.59841300
_cell_length_c   4.60742600
_cell_angle_alpha   90.00000000
_cell_angle_beta   90.00000000
_cell_angle_gamma   90.00000000
_symmetry_Int_Tables_number   1
_chemical_formula_structural   Li2VGeO5
_chemical_formula_sum   'Li4 V2 Ge2 O10'
_cell_volume   200.60296997
_cell_formula_units_Z   2
loop_
 _symmetry_equiv_pos_site_id
 _symmetry_equiv_pos_as_xyz
  1  'x, y, z'
loop_
 _atom_site_type_symbol
 _atom_site_label
 _atom_site_symmetry_multiplicity
 _atom_site_fract_x
 _atom_site_fract_y
 _atom_site_fract_z
 _atom_site_occupancy
  Li  Li0  1  0.75000000  0.75000000  0.00000000  1
  Li  Li1  1  0.25000000  0.75000000  0.00000000  1
  Li  Li2  1  0.75000000  0.25000000  0.00000000  1
  Li  Li3  1  0.25000000  0.25000000  0.00000000  1
  V  V4  1  0.50000000  0.00000000  0.59461200  1
  V  V5  1  0.00000000  0.50000000  0.40538800  1
  Ge  Ge6  1  0.00000000  0.00000000  0.50000000  1
  Ge  Ge7  1  0.50000000  0.50000000  0.50000000  1
  O  O8  1  0.50000000  0.00000000  0.23019500  1
  O  O9  1  0.00000000  0.50000000  0.76980500  1
  O  O10  1  0.78615100  0.00000000  0.73261500  1
  O  O11  1  0.50000000  0.71384900  0.73261500  1
  O  O12  1  0.50000000  0.28615100  0.73261500  1
  O  O13  1  0.21384900  0.00000000  0.73261500  1
  O  O14  1  0.71384900  0.50000000  0.26738500  1
  O  O15  1  0.28615100  0.50000000  0.26738500  1
  O  O16  1  0.00000000  0.78615100  0.26738500  1
  O  O17  1  0.00000000  0.21384900  0.26738500  1
