# generated using pymatgen
data_Al8Cr5
_symmetry_space_group_name_H-M   'P 1'
_cell_length_a   12.88396863
_cell_length_b   12.88396863
_cell_length_c   7.79137653
_cell_angle_alpha   90.00000000
_cell_angle_beta   90.00000000
_cell_angle_gamma   120.00000000
_symmetry_Int_Tables_number   1
_chemical_formula_structural   Al8Cr5
_chemical_formula_sum   'Al48 Cr30'
_cell_volume   1120.06736061
_cell_formula_units_Z   6
loop_
 _symmetry_equiv_pos_site_id
 _symmetry_equiv_pos_as_xyz
  1  'x, y, z'
loop_
 _atom_site_type_symbol
 _atom_site_label
 _atom_site_symmetry_multiplicity
 _atom_site_fract_x
 _atom_site_fract_y
 _atom_site_fract_z
 _atom_site_occupancy
  Al  Al0  1  0.00000000  0.00000000  0.30354500  1
  Al  Al1  1  0.42967933  0.21483967  0.56827667  1
  Al  Al2  1  0.11849367  0.88150633  0.23494333  1
  Al  Al3  1  0.11849367  0.23698733  0.23494333  1
  Al  Al4  1  0.51863600  0.25931800  0.92279500  1
  Al  Al5  1  0.07401533  0.92598467  0.58946167  1
  Al  Al6  1  0.07401533  0.14803067  0.58946167  1
  Al  Al7  1  0.23409933  0.11704967  0.38227867  1
  Al  Al8  1  0.21628367  0.78371633  0.04894533  1
  Al  Al9  1  0.21628367  0.43256733  0.04894533  1
  Al  Al10  1  0.32845333  0.28559867  0.00480167  1
  Al  Al11  1  0.38106800  0.37618800  0.33813500  1
  Al  Al12  1  0.29047867  0.33821333  0.67146833  1
  Al  Al13  1  0.38106800  0.00488000  0.33813500  1
  Al  Al14  1  0.32845333  0.04285467  0.00480167  1
  Al  Al15  1  0.29047867  0.95226533  0.67146833  1
  Al  Al16  1  0.66666667  0.33333333  0.63687833  1
  Al  Al17  1  0.09634600  0.54817300  0.90161000  1
  Al  Al18  1  0.78516033  0.21483967  0.56827667  1
  Al  Al19  1  0.78516033  0.57032067  0.56827667  1
  Al  Al20  1  0.18530267  0.59265133  0.25612833  1
  Al  Al21  1  0.74068200  0.25931800  0.92279500  1
  Al  Al22  1  0.74068200  0.48136400  0.92279500  1
  Al  Al23  1  0.90076600  0.45038300  0.71561200  1
  Al  Al24  1  0.88295033  0.11704967  0.38227867  1
  Al  Al25  1  0.88295033  0.76590067  0.38227867  1
  Al  Al26  1  0.99512000  0.61893200  0.33813500  1
  Al  Al27  1  0.04773467  0.70952133  0.67146833  1
  Al  Al28  1  0.95714533  0.67154667  0.00480167  1
  Al  Al29  1  0.04773467  0.33821333  0.67146833  1
  Al  Al30  1  0.99512000  0.37618800  0.33813500  1
  Al  Al31  1  0.95714533  0.28559867  0.00480167  1
  Al  Al32  1  0.33333333  0.66666667  0.97021167  1
  Al  Al33  1  0.76301267  0.88150633  0.23494333  1
  Al  Al34  1  0.45182700  0.54817300  0.90161000  1
  Al  Al35  1  0.45182700  0.90365400  0.90161000  1
  Al  Al36  1  0.85196933  0.92598467  0.58946167  1
  Al  Al37  1  0.40734867  0.59265133  0.25612833  1
  Al  Al38  1  0.40734867  0.81469733  0.25612833  1
  Al  Al39  1  0.56743267  0.78371633  0.04894533  1
  Al  Al40  1  0.54961700  0.45038300  0.71561200  1
  Al  Al41  1  0.54961700  0.09923400  0.71561200  1
  Al  Al42  1  0.66178667  0.95226533  0.67146833  1
  Al  Al43  1  0.71440133  0.04285467  0.00480167  1
  Al  Al44  1  0.62381200  0.00488000  0.33813500  1
  Al  Al45  1  0.71440133  0.67154667  0.00480167  1
  Al  Al46  1  0.66178667  0.70952133  0.67146833  1
  Al  Al47  1  0.62381200  0.61893200  0.33813500  1
  Cr  Cr48  1  0.00000000  0.00000000  0.84887600  1
  Cr  Cr49  1  0.14538467  0.07269233  0.05734933  1
  Cr  Cr50  1  0.26064100  0.73935900  0.72401600  1
  Cr  Cr51  1  0.26064100  0.52128200  0.72401600  1
  Cr  Cr52  1  0.43609200  0.21804600  0.23021800  1
  Cr  Cr53  1  0.11528733  0.88471267  0.89688467  1
  Cr  Cr54  1  0.11528733  0.23057467  0.89688467  1
  Cr  Cr55  1  0.23272733  0.11636367  0.75134067  1
  Cr  Cr56  1  0.21696967  0.78303033  0.41800733  1
  Cr  Cr57  1  0.21696967  0.43393933  0.41800733  1
  Cr  Cr58  1  0.66666667  0.33333333  0.18220933  1
  Cr  Cr59  1  0.81205133  0.40602567  0.39068267  1
  Cr  Cr60  1  0.92730767  0.07269233  0.05734933  1
  Cr  Cr61  1  0.92730767  0.85461533  0.05734933  1
  Cr  Cr62  1  0.10275867  0.55137933  0.56355133  1
  Cr  Cr63  1  0.78195400  0.21804600  0.23021800  1
  Cr  Cr64  1  0.78195400  0.56390800  0.23021800  1
  Cr  Cr65  1  0.89939400  0.44969700  0.08467400  1
  Cr  Cr66  1  0.88363633  0.11636367  0.75134067  1
  Cr  Cr67  1  0.88363633  0.76727267  0.75134067  1
  Cr  Cr68  1  0.33333333  0.66666667  0.51554267  1
  Cr  Cr69  1  0.47871800  0.73935900  0.72401600  1
  Cr  Cr70  1  0.59397433  0.40602567  0.39068267  1
  Cr  Cr71  1  0.59397433  0.18794867  0.39068267  1
  Cr  Cr72  1  0.76942533  0.88471267  0.89688467  1
  Cr  Cr73  1  0.44862067  0.55137933  0.56355133  1
  Cr  Cr74  1  0.44862067  0.89724133  0.56355133  1
  Cr  Cr75  1  0.56606067  0.78303033  0.41800733  1
  Cr  Cr76  1  0.55030300  0.44969700  0.08467400  1
  Cr  Cr77  1  0.55030300  0.10060600  0.08467400  1
