# generated using pymatgen
data_Nd3RuO7
_symmetry_space_group_name_H-M   'P 1'
_cell_length_a   7.47753200
_cell_length_b   10.97331800
_cell_length_c   7.61259200
_cell_angle_alpha   90.00000000
_cell_angle_beta   90.00000000
_cell_angle_gamma   90.00000000
_symmetry_Int_Tables_number   1
_chemical_formula_structural   Nd3RuO7
_chemical_formula_sum   'Nd12 Ru4 O28'
_cell_volume   624.63857295
_cell_formula_units_Z   4
loop_
 _symmetry_equiv_pos_site_id
 _symmetry_equiv_pos_as_xyz
  1  'x, y, z'
loop_
 _atom_site_type_symbol
 _atom_site_label
 _atom_site_symmetry_multiplicity
 _atom_site_fract_x
 _atom_site_fract_y
 _atom_site_fract_z
 _atom_site_occupancy
  Nd  Nd0  1  0.69325400  0.77904300  0.75000000  1
  Nd  Nd1  1  0.30674600  0.22095700  0.25000000  1
  Nd  Nd2  1  0.69325400  0.22095700  0.75000000  1
  Nd  Nd3  1  0.30674600  0.77904300  0.25000000  1
  Nd  Nd4  1  0.00000000  0.00000000  0.50000000  1
  Nd  Nd5  1  0.00000000  0.00000000  0.00000000  1
  Nd  Nd6  1  0.19325400  0.27904300  0.75000000  1
  Nd  Nd7  1  0.80674600  0.72095700  0.25000000  1
  Nd  Nd8  1  0.19325400  0.72095700  0.75000000  1
  Nd  Nd9  1  0.80674600  0.27904300  0.25000000  1
  Nd  Nd10  1  0.50000000  0.50000000  0.50000000  1
  Nd  Nd11  1  0.50000000  0.50000000  0.00000000  1
  Ru  Ru12  1  0.50000000  0.00000000  0.50000000  1
  Ru  Ru13  1  0.50000000  0.00000000  0.00000000  1
  Ru  Ru14  1  0.00000000  0.50000000  0.50000000  1
  Ru  Ru15  1  0.00000000  0.50000000  0.00000000  1
  O  O16  1  0.58265400  0.00000000  0.75000000  1
  O  O17  1  0.41734600  0.00000000  0.25000000  1
  O  O18  1  0.47330050  0.36833350  0.75000000  1
  O  O19  1  0.52669950  0.63166650  0.25000000  1
  O  O20  1  0.47330050  0.63166650  0.75000000  1
  O  O21  1  0.52669950  0.36833350  0.25000000  1
  O  O22  1  0.31420350  0.12568250  0.96061500  1
  O  O23  1  0.68579650  0.87431750  0.46061500  1
  O  O24  1  0.31420350  0.87431750  0.96061500  1
  O  O25  1  0.68579650  0.12568250  0.46061500  1
  O  O26  1  0.31420350  0.12568250  0.53938500  1
  O  O27  1  0.68579650  0.87431750  0.03938500  1
  O  O28  1  0.68579650  0.12568250  0.03938500  1
  O  O29  1  0.31420350  0.87431750  0.53938500  1
  O  O30  1  0.08265400  0.50000000  0.75000000  1
  O  O31  1  0.91734600  0.50000000  0.25000000  1
  O  O32  1  0.97330050  0.86833350  0.75000000  1
  O  O33  1  0.02669950  0.13166650  0.25000000  1
  O  O34  1  0.97330050  0.13166650  0.75000000  1
  O  O35  1  0.02669950  0.86833350  0.25000000  1
  O  O36  1  0.81420350  0.62568250  0.96061500  1
  O  O37  1  0.18579650  0.37431750  0.46061500  1
  O  O38  1  0.81420350  0.37431750  0.96061500  1
  O  O39  1  0.18579650  0.62568250  0.46061500  1
  O  O40  1  0.81420350  0.62568250  0.53938500  1
  O  O41  1  0.18579650  0.37431750  0.03938500  1
  O  O42  1  0.18579650  0.62568250  0.03938500  1
  O  O43  1  0.81420350  0.37431750  0.53938500  1
