# generated using pymatgen
data_HfB4Ir3
_symmetry_space_group_name_H-M   'P 1'
_cell_length_a   7.62122966
_cell_length_b   7.62122966
_cell_length_c   3.52577200
_cell_angle_alpha   90.00000000
_cell_angle_beta   90.00000000
_cell_angle_gamma   120.00000000
_symmetry_Int_Tables_number   1
_chemical_formula_structural   HfB4Ir3
_chemical_formula_sum   'Hf2 B8 Ir6'
_cell_volume   177.35153592
_cell_formula_units_Z   2
loop_
 _symmetry_equiv_pos_site_id
 _symmetry_equiv_pos_as_xyz
  1  'x, y, z'
loop_
 _atom_site_type_symbol
 _atom_site_label
 _atom_site_symmetry_multiplicity
 _atom_site_fract_x
 _atom_site_fract_y
 _atom_site_fract_z
 _atom_site_occupancy
  Hf  Hf0  1  0.66666667  0.33333333  0.75000000  1
  Hf  Hf1  1  0.33333333  0.66666667  0.25000000  1
  B  B2  1  0.60207900  0.55134500  0.25000000  1
  B  B3  1  0.94926600  0.39792100  0.25000000  1
  B  B4  1  0.44865500  0.05073400  0.25000000  1
  B  B5  1  0.39792100  0.44865500  0.75000000  1
  B  B6  1  0.05073400  0.60207900  0.75000000  1
  B  B7  1  0.55134500  0.94926600  0.75000000  1
  B  B8  1  0.00000000  0.00000000  0.50000000  1
  B  B9  1  0.00000000  0.00000000  0.00000000  1
  Ir  Ir10  1  0.92456600  0.66804300  0.25000000  1
  Ir  Ir11  1  0.74347700  0.07543400  0.25000000  1
  Ir  Ir12  1  0.33195700  0.25652300  0.25000000  1
  Ir  Ir13  1  0.07543400  0.33195700  0.75000000  1
  Ir  Ir14  1  0.25652300  0.92456600  0.75000000  1
  Ir  Ir15  1  0.66804300  0.74347700  0.75000000  1
