# generated using pymatgen
data_Ba2CoMoO6
_symmetry_space_group_name_H-M   'P 1'
_cell_length_a   8.21071700
_cell_length_b   8.21071700
_cell_length_c   8.21071700
_cell_angle_alpha   90.00000000
_cell_angle_beta   90.00000000
_cell_angle_gamma   90.00000000
_symmetry_Int_Tables_number   1
_chemical_formula_structural   Ba2CoMoO6
_chemical_formula_sum   'Ba8 Co4 Mo4 O24'
_cell_volume   553.53265921
_cell_formula_units_Z   4
loop_
 _symmetry_equiv_pos_site_id
 _symmetry_equiv_pos_as_xyz
  1  'x, y, z'
loop_
 _atom_site_type_symbol
 _atom_site_label
 _atom_site_symmetry_multiplicity
 _atom_site_fract_x
 _atom_site_fract_y
 _atom_site_fract_z
 _atom_site_occupancy
  Ba  Ba0  1  0.25000000  0.25000000  0.25000000  1
  Ba  Ba1  1  0.25000000  0.25000000  0.75000000  1
  Ba  Ba2  1  0.25000000  0.75000000  0.75000000  1
  Ba  Ba3  1  0.25000000  0.75000000  0.25000000  1
  Ba  Ba4  1  0.75000000  0.25000000  0.75000000  1
  Ba  Ba5  1  0.75000000  0.25000000  0.25000000  1
  Ba  Ba6  1  0.75000000  0.75000000  0.25000000  1
  Ba  Ba7  1  0.75000000  0.75000000  0.75000000  1
  Co  Co8  1  0.00000000  0.50000000  0.00000000  1
  Co  Co9  1  0.00000000  0.00000000  0.50000000  1
  Co  Co10  1  0.50000000  0.50000000  0.50000000  1
  Co  Co11  1  0.50000000  0.00000000  0.00000000  1
  Mo  Mo12  1  0.50000000  0.50000000  0.00000000  1
  Mo  Mo13  1  0.50000000  0.00000000  0.50000000  1
  Mo  Mo14  1  0.00000000  0.50000000  0.50000000  1
  Mo  Mo15  1  0.00000000  0.00000000  0.00000000  1
  O  O16  1  0.00000000  0.00000000  0.23870550  1
  O  O17  1  0.00000000  0.76129450  0.00000000  1
  O  O18  1  0.26129450  0.50000000  0.00000000  1
  O  O19  1  0.50000000  0.50000000  0.76129450  1
  O  O20  1  0.50000000  0.73870550  0.00000000  1
  O  O21  1  0.23870550  0.00000000  0.00000000  1
  O  O22  1  0.00000000  0.50000000  0.73870550  1
  O  O23  1  0.00000000  0.26129450  0.50000000  1
  O  O24  1  0.26129450  0.00000000  0.50000000  1
  O  O25  1  0.50000000  0.00000000  0.26129450  1
  O  O26  1  0.50000000  0.23870550  0.50000000  1
  O  O27  1  0.23870550  0.50000000  0.50000000  1
  O  O28  1  0.50000000  0.00000000  0.73870550  1
  O  O29  1  0.50000000  0.76129450  0.50000000  1
  O  O30  1  0.76129450  0.50000000  0.50000000  1
  O  O31  1  0.00000000  0.50000000  0.26129450  1
  O  O32  1  0.00000000  0.73870550  0.50000000  1
  O  O33  1  0.73870550  0.00000000  0.50000000  1
  O  O34  1  0.50000000  0.50000000  0.23870550  1
  O  O35  1  0.50000000  0.26129450  0.00000000  1
  O  O36  1  0.76129450  0.00000000  0.00000000  1
  O  O37  1  0.00000000  0.00000000  0.76129450  1
  O  O38  1  0.00000000  0.23870550  0.00000000  1
  O  O39  1  0.73870550  0.50000000  0.00000000  1
