# generated using pymatgen
data_Pr4Sb3
_symmetry_space_group_name_H-M   'P 1'
_cell_length_a   9.58132000
_cell_length_b   9.58132000
_cell_length_c   9.58132000
_cell_angle_alpha   90.00000000
_cell_angle_beta   90.00000000
_cell_angle_gamma   90.00000000
_symmetry_Int_Tables_number   1
_chemical_formula_structural   Pr4Sb3
_chemical_formula_sum   'Pr16 Sb12'
_cell_volume   879.58139662
_cell_formula_units_Z   4
loop_
 _symmetry_equiv_pos_site_id
 _symmetry_equiv_pos_as_xyz
  1  'x, y, z'
loop_
 _atom_site_type_symbol
 _atom_site_label
 _atom_site_symmetry_multiplicity
 _atom_site_fract_x
 _atom_site_fract_y
 _atom_site_fract_z
 _atom_site_occupancy
  Pr  Pr0  1  0.17958300  0.82041700  0.32041700  1
  Pr  Pr1  1  0.92958300  0.07041700  0.57041700  1
  Pr  Pr2  1  0.07041700  0.57041700  0.92958300  1
  Pr  Pr3  1  0.17958300  0.17958300  0.17958300  1
  Pr  Pr4  1  0.82041700  0.32041700  0.17958300  1
  Pr  Pr5  1  0.57041700  0.92958300  0.07041700  1
  Pr  Pr6  1  0.42958300  0.42958300  0.42958300  1
  Pr  Pr7  1  0.32041700  0.17958300  0.82041700  1
  Pr  Pr8  1  0.67958300  0.32041700  0.82041700  1
  Pr  Pr9  1  0.42958300  0.57041700  0.07041700  1
  Pr  Pr10  1  0.57041700  0.07041700  0.42958300  1
  Pr  Pr11  1  0.67958300  0.67958300  0.67958300  1
  Pr  Pr12  1  0.32041700  0.82041700  0.67958300  1
  Pr  Pr13  1  0.07041700  0.42958300  0.57041700  1
  Pr  Pr14  1  0.92958300  0.92958300  0.92958300  1
  Pr  Pr15  1  0.82041700  0.67958300  0.32041700  1
  Sb  Sb16  1  0.50000000  0.25000000  0.12500000  1
  Sb  Sb17  1  0.75000000  0.37500000  0.50000000  1
  Sb  Sb18  1  0.25000000  0.12500000  0.50000000  1
  Sb  Sb19  1  0.50000000  0.75000000  0.37500000  1
  Sb  Sb20  1  0.37500000  0.50000000  0.75000000  1
  Sb  Sb21  1  0.12500000  0.50000000  0.25000000  1
  Sb  Sb22  1  0.00000000  0.75000000  0.62500000  1
  Sb  Sb23  1  0.25000000  0.87500000  0.00000000  1
  Sb  Sb24  1  0.75000000  0.62500000  0.00000000  1
  Sb  Sb25  1  0.00000000  0.25000000  0.87500000  1
  Sb  Sb26  1  0.87500000  0.00000000  0.25000000  1
  Sb  Sb27  1  0.62500000  0.00000000  0.75000000  1
