# generated using pymatgen
data_Er(CuO2)2
_symmetry_space_group_name_H-M   'P 1'
_cell_length_a   5.65649800
_cell_length_b   5.65649800
_cell_length_c   9.59926600
_cell_angle_alpha   90.00000000
_cell_angle_beta   90.00000000
_cell_angle_gamma   90.00000000
_symmetry_Int_Tables_number   1
_chemical_formula_structural   Er(CuO2)2
_chemical_formula_sum   'Er4 Cu8 O16'
_cell_volume   307.13782335
_cell_formula_units_Z   4
loop_
 _symmetry_equiv_pos_site_id
 _symmetry_equiv_pos_as_xyz
  1  'x, y, z'
loop_
 _atom_site_type_symbol
 _atom_site_label
 _atom_site_symmetry_multiplicity
 _atom_site_fract_x
 _atom_site_fract_y
 _atom_site_fract_z
 _atom_site_occupancy
  Er  Er0  1  0.50000000  0.50000000  0.00000000  1
  Er  Er1  1  0.50000000  0.00000000  0.25000000  1
  Er  Er2  1  0.00000000  0.00000000  0.50000000  1
  Er  Er3  1  0.00000000  0.50000000  0.75000000  1
  Cu  Cu4  1  0.00000000  0.25000000  0.12500000  1
  Cu  Cu5  1  0.00000000  0.75000000  0.12500000  1
  Cu  Cu6  1  0.25000000  0.50000000  0.37500000  1
  Cu  Cu7  1  0.75000000  0.50000000  0.37500000  1
  Cu  Cu8  1  0.50000000  0.75000000  0.62500000  1
  Cu  Cu9  1  0.50000000  0.25000000  0.62500000  1
  Cu  Cu10  1  0.75000000  0.00000000  0.87500000  1
  Cu  Cu11  1  0.25000000  0.00000000  0.87500000  1
  O  O12  1  0.29487850  0.85108350  0.05271650  1
  O  O13  1  0.70512150  0.14891650  0.05271650  1
  O  O14  1  0.70512150  0.64891650  0.19728350  1
  O  O15  1  0.29487850  0.35108350  0.19728350  1
  O  O16  1  0.85108350  0.20512150  0.30271650  1
  O  O17  1  0.14891650  0.79487850  0.30271650  1
  O  O18  1  0.35108350  0.20512150  0.44728350  1
  O  O19  1  0.64891650  0.79487850  0.44728350  1
  O  O20  1  0.79487850  0.35108350  0.55271650  1
  O  O21  1  0.20512150  0.64891650  0.55271650  1
  O  O22  1  0.20512150  0.14891650  0.69728350  1
  O  O23  1  0.79487850  0.85108350  0.69728350  1
  O  O24  1  0.35108350  0.70512150  0.80271650  1
  O  O25  1  0.64891650  0.29487850  0.80271650  1
  O  O26  1  0.85108350  0.70512150  0.94728350  1
  O  O27  1  0.14891650  0.29487850  0.94728350  1
