# generated using pymatgen
data_ErGa
_symmetry_space_group_name_H-M   'P 1'
_cell_length_a   4.28117000
_cell_length_b   10.78018600
_cell_length_c   4.05050100
_cell_angle_alpha   90.00000000
_cell_angle_beta   90.00000000
_cell_angle_gamma   90.00000000
_symmetry_Int_Tables_number   1
_chemical_formula_structural   ErGa
_chemical_formula_sum   'Er4 Ga4'
_cell_volume   186.93794809
_cell_formula_units_Z   4
loop_
 _symmetry_equiv_pos_site_id
 _symmetry_equiv_pos_as_xyz
  1  'x, y, z'
loop_
 _atom_site_type_symbol
 _atom_site_label
 _atom_site_symmetry_multiplicity
 _atom_site_fract_x
 _atom_site_fract_y
 _atom_site_fract_z
 _atom_site_occupancy
  Er  Er0  1  0.00000000  0.13986200  0.75000000  1
  Er  Er1  1  0.50000000  0.36013800  0.25000000  1
  Er  Er2  1  0.50000000  0.63986200  0.75000000  1
  Er  Er3  1  0.00000000  0.86013800  0.25000000  1
  Ga  Ga4  1  0.00000000  0.42310200  0.75000000  1
  Ga  Ga5  1  0.50000000  0.07689800  0.25000000  1
  Ga  Ga6  1  0.50000000  0.92310200  0.75000000  1
  Ga  Ga7  1  0.00000000  0.57689800  0.25000000  1
