# generated using pymatgen
data_K3(FeO2)2
_symmetry_space_group_name_H-M   'P 1'
_cell_length_a   6.07585000
_cell_length_b   11.57309400
_cell_length_c   17.16419800
_cell_angle_alpha   90.00000000
_cell_angle_beta   90.00000000
_cell_angle_gamma   90.00000000
_symmetry_Int_Tables_number   1
_chemical_formula_structural   K3(FeO2)2
_chemical_formula_sum   'K24 Fe16 O32'
_cell_volume   1206.92432354
_cell_formula_units_Z   8
loop_
 _symmetry_equiv_pos_site_id
 _symmetry_equiv_pos_as_xyz
  1  'x, y, z'
loop_
 _atom_site_type_symbol
 _atom_site_label
 _atom_site_symmetry_multiplicity
 _atom_site_fract_x
 _atom_site_fract_y
 _atom_site_fract_z
 _atom_site_occupancy
  K  K0  1  0.00000000  0.00000000  0.60882200  1
  K  K1  1  0.25000000  0.75000000  0.75000000  1
  K  K2  1  0.75000000  0.75000000  0.64117800  1
  K  K3  1  0.75000000  0.75000000  0.85882200  1
  K  K4  1  0.00000000  0.00000000  0.00000000  1
  K  K5  1  0.50000000  0.00000000  0.89117800  1
  K  K6  1  0.00000000  0.50000000  0.10882200  1
  K  K7  1  0.25000000  0.25000000  0.25000000  1
  K  K8  1  0.75000000  0.25000000  0.14117800  1
  K  K9  1  0.75000000  0.25000000  0.35882200  1
  K  K10  1  0.00000000  0.50000000  0.50000000  1
  K  K11  1  0.50000000  0.50000000  0.39117800  1
  K  K12  1  0.50000000  0.00000000  0.10882200  1
  K  K13  1  0.75000000  0.75000000  0.25000000  1
  K  K14  1  0.25000000  0.75000000  0.14117800  1
  K  K15  1  0.25000000  0.75000000  0.35882200  1
  K  K16  1  0.50000000  0.00000000  0.50000000  1
  K  K17  1  0.00000000  0.00000000  0.39117800  1
  K  K18  1  0.50000000  0.50000000  0.60882200  1
  K  K19  1  0.75000000  0.25000000  0.75000000  1
  K  K20  1  0.25000000  0.25000000  0.64117800  1
  K  K21  1  0.25000000  0.25000000  0.85882200  1
  K  K22  1  0.50000000  0.50000000  0.00000000  1
  K  K23  1  0.00000000  0.50000000  0.89117800  1
  Fe  Fe24  1  0.25000000  0.75000000  0.55807600  1
  Fe  Fe25  1  0.00000000  0.00000000  0.80807600  1
  Fe  Fe26  1  0.50000000  0.00000000  0.69192400  1
  Fe  Fe27  1  0.25000000  0.75000000  0.94192400  1
  Fe  Fe28  1  0.25000000  0.25000000  0.05807600  1
  Fe  Fe29  1  0.00000000  0.50000000  0.30807600  1
  Fe  Fe30  1  0.50000000  0.50000000  0.19192400  1
  Fe  Fe31  1  0.25000000  0.25000000  0.44192400  1
  Fe  Fe32  1  0.75000000  0.75000000  0.05807600  1
  Fe  Fe33  1  0.50000000  0.00000000  0.30807600  1
  Fe  Fe34  1  0.00000000  0.00000000  0.19192400  1
  Fe  Fe35  1  0.75000000  0.75000000  0.44192400  1
  Fe  Fe36  1  0.75000000  0.25000000  0.55807600  1
  Fe  Fe37  1  0.50000000  0.50000000  0.80807600  1
  Fe  Fe38  1  0.00000000  0.50000000  0.69192400  1
  Fe  Fe39  1  0.75000000  0.25000000  0.94192400  1
  O  O40  1  0.37500000  0.62500000  0.87500000  1
  O  O41  1  0.00000000  0.68197000  0.00000000  1
  O  O42  1  0.75000000  0.93197000  0.75000000  1
  O  O43  1  0.75000000  0.56803000  0.75000000  1
  O  O44  1  0.50000000  0.81803000  0.00000000  1
  O  O45  1  0.12500000  0.87500000  0.87500000  1
  O  O46  1  0.37500000  0.87500000  0.62500000  1
  O  O47  1  0.12500000  0.62500000  0.62500000  1
  O  O48  1  0.37500000  0.12500000  0.37500000  1
  O  O49  1  0.00000000  0.18197000  0.50000000  1
  O  O50  1  0.75000000  0.43197000  0.25000000  1
  O  O51  1  0.75000000  0.06803000  0.25000000  1
  O  O52  1  0.50000000  0.31803000  0.50000000  1
  O  O53  1  0.12500000  0.37500000  0.37500000  1
  O  O54  1  0.37500000  0.37500000  0.12500000  1
  O  O55  1  0.12500000  0.12500000  0.12500000  1
  O  O56  1  0.87500000  0.62500000  0.37500000  1
  O  O57  1  0.50000000  0.68197000  0.50000000  1
  O  O58  1  0.25000000  0.93197000  0.25000000  1
  O  O59  1  0.25000000  0.56803000  0.25000000  1
  O  O60  1  0.00000000  0.81803000  0.50000000  1
  O  O61  1  0.62500000  0.87500000  0.37500000  1
  O  O62  1  0.87500000  0.87500000  0.12500000  1
  O  O63  1  0.62500000  0.62500000  0.12500000  1
  O  O64  1  0.87500000  0.12500000  0.87500000  1
  O  O65  1  0.50000000  0.18197000  0.00000000  1
  O  O66  1  0.25000000  0.43197000  0.75000000  1
  O  O67  1  0.25000000  0.06803000  0.75000000  1
  O  O68  1  0.00000000  0.31803000  0.00000000  1
  O  O69  1  0.62500000  0.37500000  0.87500000  1
  O  O70  1  0.87500000  0.37500000  0.62500000  1
  O  O71  1  0.62500000  0.12500000  0.62500000  1
