# generated using pymatgen
data_Y3(Si3Os)4
_symmetry_space_group_name_H-M   'P 1'
_cell_length_a   8.17478000
_cell_length_b   18.57807200
_cell_length_c   8.17866200
_cell_angle_alpha   90.00000000
_cell_angle_beta   90.00000000
_cell_angle_gamma   90.00000000
_symmetry_Int_Tables_number   1
_chemical_formula_structural   Y3(Si3Os)4
_chemical_formula_sum   'Y12 Si48 Os16'
_cell_volume   1242.10690438
_cell_formula_units_Z   4
loop_
 _symmetry_equiv_pos_site_id
 _symmetry_equiv_pos_as_xyz
  1  'x, y, z'
loop_
 _atom_site_type_symbol
 _atom_site_label
 _atom_site_symmetry_multiplicity
 _atom_site_fract_x
 _atom_site_fract_y
 _atom_site_fract_z
 _atom_site_occupancy
  Y  Y0  1  0.25154800  0.75000000  0.25000000  1
  Y  Y1  1  0.74845200  0.75000000  0.75000000  1
  Y  Y2  1  0.24845200  0.75000000  0.75000000  1
  Y  Y3  1  0.75154800  0.75000000  0.25000000  1
  Y  Y4  1  0.00000000  0.00000000  0.00000000  1
  Y  Y5  1  0.50000000  0.00000000  0.50000000  1
  Y  Y6  1  0.75154800  0.25000000  0.25000000  1
  Y  Y7  1  0.24845200  0.25000000  0.75000000  1
  Y  Y8  1  0.74845200  0.25000000  0.75000000  1
  Y  Y9  1  0.25154800  0.25000000  0.25000000  1
  Y  Y10  1  0.50000000  0.50000000  0.00000000  1
  Y  Y11  1  0.00000000  0.50000000  0.50000000  1
  Si  Si12  1  0.50000000  0.70487800  0.50000000  1
  Si  Si13  1  0.50000000  0.79512200  0.00000000  1
  Si  Si14  1  0.00000000  0.79512200  0.50000000  1
  Si  Si15  1  0.00000000  0.70487800  0.00000000  1
  Si  Si16  1  0.66732200  0.00000000  0.83303400  1
  Si  Si17  1  0.16732200  0.00000000  0.66696600  1
  Si  Si18  1  0.83267800  0.00000000  0.33303400  1
  Si  Si19  1  0.33267800  0.00000000  0.16696600  1
  Si  Si20  1  0.72789200  0.88277200  0.00505200  1
  Si  Si21  1  0.72789200  0.61722800  0.49494800  1
  Si  Si22  1  0.27210800  0.61722800  0.50505200  1
  Si  Si23  1  0.27210800  0.88277200  0.99494800  1
  Si  Si24  1  0.77210800  0.61722800  0.99494800  1
  Si  Si25  1  0.77210800  0.88277200  0.50505200  1
  Si  Si26  1  0.00357000  0.88282700  0.27217400  1
  Si  Si27  1  0.00357000  0.61717300  0.22782600  1
  Si  Si28  1  0.99643000  0.61717300  0.77217400  1
  Si  Si29  1  0.99643000  0.88282700  0.72782600  1
  Si  Si30  1  0.49643000  0.61717300  0.72782600  1
  Si  Si31  1  0.49643000  0.88282700  0.77217400  1
  Si  Si32  1  0.50357000  0.88282700  0.22782600  1
  Si  Si33  1  0.50357000  0.61717300  0.27217400  1
  Si  Si34  1  0.22789200  0.61722800  0.00505200  1
  Si  Si35  1  0.22789200  0.88277200  0.49494800  1
  Si  Si36  1  0.00000000  0.20487800  0.50000000  1
  Si  Si37  1  0.00000000  0.29512200  0.00000000  1
  Si  Si38  1  0.50000000  0.29512200  0.50000000  1
  Si  Si39  1  0.50000000  0.20487800  0.00000000  1
  Si  Si40  1  0.16732200  0.50000000  0.83303400  1
  Si  Si41  1  0.66732200  0.50000000  0.66696600  1
  Si  Si42  1  0.33267800  0.50000000  0.33303400  1
  Si  Si43  1  0.83267800  0.50000000  0.16696600  1
  Si  Si44  1  0.22789200  0.38277200  0.00505200  1
  Si  Si45  1  0.22789200  0.11722800  0.49494800  1
  Si  Si46  1  0.77210800  0.11722800  0.50505200  1
  Si  Si47  1  0.77210800  0.38277200  0.99494800  1
  Si  Si48  1  0.27210800  0.11722800  0.99494800  1
  Si  Si49  1  0.27210800  0.38277200  0.50505200  1
  Si  Si50  1  0.50357000  0.38282700  0.27217400  1
  Si  Si51  1  0.50357000  0.11717300  0.22782600  1
  Si  Si52  1  0.49643000  0.11717300  0.77217400  1
  Si  Si53  1  0.49643000  0.38282700  0.72782600  1
  Si  Si54  1  0.99643000  0.11717300  0.72782600  1
  Si  Si55  1  0.99643000  0.38282700  0.77217400  1
  Si  Si56  1  0.00357000  0.38282700  0.22782600  1
  Si  Si57  1  0.00357000  0.11717300  0.27217400  1
  Si  Si58  1  0.72789200  0.11722800  0.00505200  1
  Si  Si59  1  0.72789200  0.38277200  0.49494800  1
  Os  Os60  1  0.62714400  0.00000000  0.12738500  1
  Os  Os61  1  0.12714400  0.00000000  0.37261500  1
  Os  Os62  1  0.37285600  0.00000000  0.87261500  1
  Os  Os63  1  0.87285600  0.00000000  0.62738500  1
  Os  Os64  1  0.00000000  0.83107500  0.00000000  1
  Os  Os65  1  0.00000000  0.66892500  0.50000000  1
  Os  Os66  1  0.50000000  0.66892500  0.00000000  1
  Os  Os67  1  0.50000000  0.83107500  0.50000000  1
  Os  Os68  1  0.12714400  0.50000000  0.12738500  1
  Os  Os69  1  0.62714400  0.50000000  0.37261500  1
  Os  Os70  1  0.87285600  0.50000000  0.87261500  1
  Os  Os71  1  0.37285600  0.50000000  0.62738500  1
  Os  Os72  1  0.50000000  0.33107500  0.00000000  1
  Os  Os73  1  0.50000000  0.16892500  0.50000000  1
  Os  Os74  1  0.00000000  0.16892500  0.00000000  1
  Os  Os75  1  0.00000000  0.33107500  0.50000000  1
