# generated using pymatgen
data_Ba3CaIr2O9
_symmetry_space_group_name_H-M   'P 1'
_cell_length_a   5.97603800
_cell_length_b   10.33202000
_cell_length_c   14.75669702
_cell_angle_alpha   90.00000000
_cell_angle_beta   91.29051561
_cell_angle_gamma   90.00000000
_symmetry_Int_Tables_number   1
_chemical_formula_structural   Ba3CaIr2O9
_chemical_formula_sum   'Ba12 Ca4 Ir8 O36'
_cell_volume   910.91441940
_cell_formula_units_Z   4
loop_
 _symmetry_equiv_pos_site_id
 _symmetry_equiv_pos_as_xyz
  1  'x, y, z'
loop_
 _atom_site_type_symbol
 _atom_site_label
 _atom_site_symmetry_multiplicity
 _atom_site_fract_x
 _atom_site_fract_y
 _atom_site_fract_z
 _atom_site_occupancy
  Ba  Ba0  1  0.50407100  0.83315200  0.08640000  1
  Ba  Ba1  1  0.49592900  0.83315200  0.41360000  1
  Ba  Ba2  1  0.50000000  0.49852900  0.25000000  1
  Ba  Ba3  1  0.50000000  0.50147100  0.75000000  1
  Ba  Ba4  1  0.50407100  0.16684800  0.58640000  1
  Ba  Ba5  1  0.49592900  0.16684800  0.91360000  1
  Ba  Ba6  1  0.00407100  0.33315200  0.08640000  1
  Ba  Ba7  1  0.99592900  0.33315200  0.41360000  1
  Ba  Ba8  1  0.00000000  0.99852900  0.25000000  1
  Ba  Ba9  1  0.00000000  0.00147100  0.75000000  1
  Ba  Ba10  1  0.00407100  0.66684800  0.58640000  1
  Ba  Ba11  1  0.99592900  0.66684800  0.91360000  1
  Ca  Ca12  1  0.00000000  0.00000000  0.50000000  1
  Ca  Ca13  1  0.00000000  0.00000000  0.00000000  1
  Ca  Ca14  1  0.50000000  0.50000000  0.50000000  1
  Ca  Ca15  1  0.50000000  0.50000000  0.00000000  1
  Ir  Ir16  1  0.49084200  0.83361100  0.83659200  1
  Ir  Ir17  1  0.50915800  0.83361100  0.66340800  1
  Ir  Ir18  1  0.50915800  0.16638900  0.16340800  1
  Ir  Ir19  1  0.49084200  0.16638900  0.33659200  1
  Ir  Ir20  1  0.99084200  0.33361100  0.83659200  1
  Ir  Ir21  1  0.00915800  0.33361100  0.66340800  1
  Ir  Ir22  1  0.00915800  0.66638900  0.16340800  1
  Ir  Ir23  1  0.99084200  0.66638900  0.33659200  1
  O  O24  1  0.74948250  0.91056550  0.59437800  1
  O  O25  1  0.25051750  0.91056550  0.90562200  1
  O  O26  1  0.25051750  0.08943450  0.40562200  1
  O  O27  1  0.74948250  0.08943450  0.09437800  1
  O  O28  1  0.28639200  0.90993800  0.58152900  1
  O  O29  1  0.71360800  0.90993800  0.91847100  1
  O  O30  1  0.71360800  0.09006200  0.41847100  1
  O  O31  1  0.28639200  0.09006200  0.08152900  1
  O  O32  1  0.51719750  0.67844550  0.58875400  1
  O  O33  1  0.48280250  0.67844550  0.91124600  1
  O  O34  1  0.48280250  0.32155450  0.41124600  1
  O  O35  1  0.51719750  0.32155450  0.08875400  1
  O  O36  1  0.50000000  0.01118600  0.25000000  1
  O  O37  1  0.50000000  0.98881400  0.75000000  1
  O  O38  1  0.26732650  0.24321550  0.24357200  1
  O  O39  1  0.73267350  0.24321550  0.25642800  1
  O  O40  1  0.73267350  0.75678450  0.75642800  1
  O  O41  1  0.26732650  0.75678450  0.74357200  1
  O  O42  1  0.24948250  0.41056550  0.59437800  1
  O  O43  1  0.75051750  0.41056550  0.90562200  1
  O  O44  1  0.75051750  0.58943450  0.40562200  1
  O  O45  1  0.24948250  0.58943450  0.09437800  1
  O  O46  1  0.78639200  0.40993800  0.58152900  1
  O  O47  1  0.21360800  0.40993800  0.91847100  1
  O  O48  1  0.21360800  0.59006200  0.41847100  1
  O  O49  1  0.78639200  0.59006200  0.08152900  1
  O  O50  1  0.01719750  0.17844550  0.58875400  1
  O  O51  1  0.98280250  0.17844550  0.91124600  1
  O  O52  1  0.98280250  0.82155450  0.41124600  1
  O  O53  1  0.01719750  0.82155450  0.08875400  1
  O  O54  1  0.00000000  0.51118600  0.25000000  1
  O  O55  1  0.00000000  0.48881400  0.75000000  1
  O  O56  1  0.76732650  0.74321550  0.24357200  1
  O  O57  1  0.23267350  0.74321550  0.25642800  1
  O  O58  1  0.23267350  0.25678450  0.75642800  1
  O  O59  1  0.76732650  0.25678450  0.74357200  1
