# generated using pymatgen
data_Ce2MnN3
_symmetry_space_group_name_H-M   'P 1'
_cell_length_a   3.46065200
_cell_length_b   3.79747800
_cell_length_c   12.39950000
_cell_angle_alpha   90.00000000
_cell_angle_beta   90.00000000
_cell_angle_gamma   90.00000000
_symmetry_Int_Tables_number   1
_chemical_formula_structural   Ce2MnN3
_chemical_formula_sum   'Ce4 Mn2 N6'
_cell_volume   162.95112709
_cell_formula_units_Z   2
loop_
 _symmetry_equiv_pos_site_id
 _symmetry_equiv_pos_as_xyz
  1  'x, y, z'
loop_
 _atom_site_type_symbol
 _atom_site_label
 _atom_site_symmetry_multiplicity
 _atom_site_fract_x
 _atom_site_fract_y
 _atom_site_fract_z
 _atom_site_occupancy
  Ce  Ce0  1  0.00000000  0.00000000  0.64578000  1
  Ce  Ce1  1  0.50000000  0.50000000  0.85422000  1
  Ce  Ce2  1  0.50000000  0.50000000  0.14578000  1
  Ce  Ce3  1  0.00000000  0.00000000  0.35422000  1
  Mn  Mn4  1  0.00000000  0.00000000  0.00000000  1
  Mn  Mn5  1  0.50000000  0.50000000  0.50000000  1
  N  N6  1  0.00000000  0.00000000  0.83719000  1
  N  N7  1  0.50000000  0.50000000  0.66281000  1
  N  N8  1  0.00000000  0.50000000  0.00000000  1
  N  N9  1  0.50000000  0.50000000  0.33719000  1
  N  N10  1  0.00000000  0.00000000  0.16281000  1
  N  N11  1  0.50000000  0.00000000  0.50000000  1
