# generated using pymatgen
data_Ba5Sn3
_symmetry_space_group_name_H-M   'P 1'
_cell_length_a   9.04801600
_cell_length_b   9.04801600
_cell_length_c   17.42060200
_cell_angle_alpha   90.00000000
_cell_angle_beta   90.00000000
_cell_angle_gamma   90.00000000
_symmetry_Int_Tables_number   1
_chemical_formula_structural   Ba5Sn3
_chemical_formula_sum   'Ba20 Sn12'
_cell_volume   1426.16534309
_cell_formula_units_Z   4
loop_
 _symmetry_equiv_pos_site_id
 _symmetry_equiv_pos_as_xyz
  1  'x, y, z'
loop_
 _atom_site_type_symbol
 _atom_site_label
 _atom_site_symmetry_multiplicity
 _atom_site_fract_x
 _atom_site_fract_y
 _atom_site_fract_z
 _atom_site_occupancy
  Ba  Ba0  1  0.32123700  0.82123700  0.35699400  1
  Ba  Ba1  1  0.82123700  0.32123700  0.14300600  1
  Ba  Ba2  1  0.00000000  0.00000000  0.00000000  1
  Ba  Ba3  1  0.50000000  0.50000000  0.00000000  1
  Ba  Ba4  1  0.67876300  0.17876300  0.35699400  1
  Ba  Ba5  1  0.82123700  0.67876300  0.35699400  1
  Ba  Ba6  1  0.17876300  0.32123700  0.35699400  1
  Ba  Ba7  1  0.67876300  0.82123700  0.14300600  1
  Ba  Ba8  1  0.32123700  0.17876300  0.14300600  1
  Ba  Ba9  1  0.17876300  0.67876300  0.14300600  1
  Ba  Ba10  1  0.82123700  0.32123700  0.85699400  1
  Ba  Ba11  1  0.32123700  0.82123700  0.64300600  1
  Ba  Ba12  1  0.50000000  0.50000000  0.50000000  1
  Ba  Ba13  1  0.00000000  0.00000000  0.50000000  1
  Ba  Ba14  1  0.17876300  0.67876300  0.85699400  1
  Ba  Ba15  1  0.32123700  0.17876300  0.85699400  1
  Ba  Ba16  1  0.67876300  0.82123700  0.85699400  1
  Ba  Ba17  1  0.17876300  0.32123700  0.64300600  1
  Ba  Ba18  1  0.82123700  0.67876300  0.64300600  1
  Ba  Ba19  1  0.67876300  0.17876300  0.64300600  1
  Sn  Sn20  1  0.50000000  0.50000000  0.25000000  1
  Sn  Sn21  1  0.00000000  0.00000000  0.25000000  1
  Sn  Sn22  1  0.61527700  0.11527700  0.00000000  1
  Sn  Sn23  1  0.88472300  0.61527700  0.00000000  1
  Sn  Sn24  1  0.11527700  0.38472300  0.00000000  1
  Sn  Sn25  1  0.38472300  0.88472300  0.00000000  1
  Sn  Sn26  1  0.00000000  0.00000000  0.75000000  1
  Sn  Sn27  1  0.50000000  0.50000000  0.75000000  1
  Sn  Sn28  1  0.11527700  0.61527700  0.50000000  1
  Sn  Sn29  1  0.38472300  0.11527700  0.50000000  1
  Sn  Sn30  1  0.61527700  0.88472300  0.50000000  1
  Sn  Sn31  1  0.88472300  0.38472300  0.50000000  1
