# generated using pymatgen
data_SrSn3
_symmetry_space_group_name_H-M   'P 1'
_cell_length_a   6.94199910
_cell_length_b   6.94199910
_cell_length_c   34.26755896
_cell_angle_alpha   90.00000000
_cell_angle_beta   90.00000000
_cell_angle_gamma   120.00000000
_symmetry_Int_Tables_number   1
_chemical_formula_structural   SrSn3
_chemical_formula_sum   'Sr12 Sn36'
_cell_volume   1430.15433555
_cell_formula_units_Z   12
loop_
 _symmetry_equiv_pos_site_id
 _symmetry_equiv_pos_as_xyz
  1  'x, y, z'
loop_
 _atom_site_type_symbol
 _atom_site_label
 _atom_site_symmetry_multiplicity
 _atom_site_fract_x
 _atom_site_fract_y
 _atom_site_fract_z
 _atom_site_occupancy
  Sr  Sr0  1  0.66666667  0.33333333  0.20044733  1
  Sr  Sr1  1  0.00000000  0.00000000  0.13288600  1
  Sr  Sr2  1  0.66666667  0.33333333  0.04056533  1
  Sr  Sr3  1  0.00000000  0.00000000  0.29276800  1
  Sr  Sr4  1  0.33333333  0.66666667  0.53378067  1
  Sr  Sr5  1  0.66666667  0.33333333  0.46621933  1
  Sr  Sr6  1  0.33333333  0.66666667  0.37389867  1
  Sr  Sr7  1  0.66666667  0.33333333  0.62610133  1
  Sr  Sr8  1  0.00000000  0.00000000  0.86711400  1
  Sr  Sr9  1  0.33333333  0.66666667  0.79955267  1
  Sr  Sr10  1  0.00000000  0.00000000  0.70723200  1
  Sr  Sr11  1  0.33333333  0.66666667  0.95943467  1
  Sn  Sn12  1  0.50401000  0.00802000  0.28968700  1
  Sn  Sn13  1  0.50401000  0.49599000  0.28968700  1
  Sn  Sn14  1  0.18646500  0.37293000  0.21211000  1
  Sn  Sn15  1  0.18646500  0.81353500  0.21211000  1
  Sn  Sn16  1  0.62707000  0.81353500  0.21211000  1
  Sn  Sn17  1  0.03959667  0.51979833  0.12122333  1
  Sn  Sn18  1  0.48020167  0.96040333  0.12122333  1
  Sn  Sn19  1  0.48020167  0.51979833  0.12122333  1
  Sn  Sn20  1  0.99198000  0.49599000  0.28968700  1
  Sn  Sn21  1  0.67468667  0.83734333  0.04364633  1
  Sn  Sn22  1  0.16265667  0.83734333  0.04364633  1
  Sn  Sn23  1  0.16265667  0.32531333  0.04364633  1
  Sn  Sn24  1  0.17067667  0.34135333  0.62302033  1
  Sn  Sn25  1  0.17067667  0.82932333  0.62302033  1
  Sn  Sn26  1  0.85313167  0.70626333  0.54544333  1
  Sn  Sn27  1  0.85313167  0.14686833  0.54544333  1
  Sn  Sn28  1  0.29373667  0.14686833  0.54544333  1
  Sn  Sn29  1  0.70626333  0.85313167  0.45455667  1
  Sn  Sn30  1  0.14686833  0.29373667  0.45455667  1
  Sn  Sn31  1  0.14686833  0.85313167  0.45455667  1
  Sn  Sn32  1  0.65864667  0.82932333  0.62302033  1
  Sn  Sn33  1  0.34135333  0.17067667  0.37697967  1
  Sn  Sn34  1  0.82932333  0.17067667  0.37697967  1
  Sn  Sn35  1  0.82932333  0.65864667  0.37697967  1
  Sn  Sn36  1  0.83734333  0.67468667  0.95635367  1
  Sn  Sn37  1  0.83734333  0.16265667  0.95635367  1
  Sn  Sn38  1  0.51979833  0.03959667  0.87877667  1
  Sn  Sn39  1  0.51979833  0.48020167  0.87877667  1
  Sn  Sn40  1  0.96040333  0.48020167  0.87877667  1
  Sn  Sn41  1  0.37293000  0.18646500  0.78789000  1
  Sn  Sn42  1  0.81353500  0.62707000  0.78789000  1
  Sn  Sn43  1  0.81353500  0.18646500  0.78789000  1
  Sn  Sn44  1  0.32531333  0.16265667  0.95635367  1
  Sn  Sn45  1  0.00802000  0.50401000  0.71031300  1
  Sn  Sn46  1  0.49599000  0.50401000  0.71031300  1
  Sn  Sn47  1  0.49599000  0.99198000  0.71031300  1
