# generated using pymatgen
data_ZrMnSi2
_symmetry_space_group_name_H-M   'P 1'
_cell_length_a   5.16322800
_cell_length_b   7.89258200
_cell_length_c   17.33602800
_cell_angle_alpha   90.00000000
_cell_angle_beta   90.00000000
_cell_angle_gamma   90.00000000
_symmetry_Int_Tables_number   1
_chemical_formula_structural   ZrMnSi2
_chemical_formula_sum   'Zr12 Mn12 Si24'
_cell_volume   706.46395073
_cell_formula_units_Z   12
loop_
 _symmetry_equiv_pos_site_id
 _symmetry_equiv_pos_as_xyz
  1  'x, y, z'
loop_
 _atom_site_type_symbol
 _atom_site_label
 _atom_site_symmetry_multiplicity
 _atom_site_fract_x
 _atom_site_fract_y
 _atom_site_fract_z
 _atom_site_occupancy
  Zr  Zr0  1  0.50000000  0.75895700  0.59470000  1
  Zr  Zr1  1  0.00000000  0.74104300  0.90530000  1
  Zr  Zr2  1  0.00000000  0.25895700  0.90530000  1
  Zr  Zr3  1  0.50000000  0.24104300  0.59470000  1
  Zr  Zr4  1  0.00000000  0.00000000  0.64110400  1
  Zr  Zr5  1  0.50000000  0.50000000  0.85889600  1
  Zr  Zr6  1  0.00000000  0.25895700  0.09470000  1
  Zr  Zr7  1  0.50000000  0.24104300  0.40530000  1
  Zr  Zr8  1  0.50000000  0.75895700  0.40530000  1
  Zr  Zr9  1  0.00000000  0.74104300  0.09470000  1
  Zr  Zr10  1  0.50000000  0.50000000  0.14110400  1
  Zr  Zr11  1  0.00000000  0.00000000  0.35889600  1
  Mn  Mn12  1  0.25000000  0.75000000  0.75000000  1
  Mn  Mn13  1  0.75000000  0.75000000  0.75000000  1
  Mn  Mn14  1  0.25000000  0.25000000  0.75000000  1
  Mn  Mn15  1  0.75000000  0.25000000  0.75000000  1
  Mn  Mn16  1  0.50000000  0.24783800  0.00000000  1
  Mn  Mn17  1  0.50000000  0.75216200  0.00000000  1
  Mn  Mn18  1  0.75000000  0.25000000  0.25000000  1
  Mn  Mn19  1  0.25000000  0.25000000  0.25000000  1
  Mn  Mn20  1  0.75000000  0.75000000  0.25000000  1
  Mn  Mn21  1  0.25000000  0.75000000  0.25000000  1
  Mn  Mn22  1  0.00000000  0.74783800  0.50000000  1
  Mn  Mn23  1  0.00000000  0.25216200  0.50000000  1
  Si  Si24  1  0.75540800  0.00000000  0.00000000  1
  Si  Si25  1  0.24459200  0.00000000  0.00000000  1
  Si  Si26  1  0.24545600  0.50000000  0.00000000  1
  Si  Si27  1  0.75454400  0.50000000  0.00000000  1
  Si  Si28  1  0.50000000  0.50000000  0.70197500  1
  Si  Si29  1  0.00000000  0.00000000  0.79802500  1
  Si  Si30  1  0.00000000  0.50000000  0.78836600  1
  Si  Si31  1  0.50000000  0.00000000  0.71163400  1
  Si  Si32  1  0.50000000  0.85044550  0.86309250  1
  Si  Si33  1  0.00000000  0.64955450  0.63690750  1
  Si  Si34  1  0.00000000  0.35044550  0.63690750  1
  Si  Si35  1  0.50000000  0.14955450  0.86309250  1
  Si  Si36  1  0.25540800  0.50000000  0.50000000  1
  Si  Si37  1  0.74459200  0.50000000  0.50000000  1
  Si  Si38  1  0.74545600  0.00000000  0.50000000  1
  Si  Si39  1  0.25454400  0.00000000  0.50000000  1
  Si  Si40  1  0.00000000  0.00000000  0.20197500  1
  Si  Si41  1  0.50000000  0.50000000  0.29802500  1
  Si  Si42  1  0.50000000  0.00000000  0.28836600  1
  Si  Si43  1  0.00000000  0.50000000  0.21163400  1
  Si  Si44  1  0.00000000  0.35044550  0.36309250  1
  Si  Si45  1  0.50000000  0.14955450  0.13690750  1
  Si  Si46  1  0.50000000  0.85044550  0.13690750  1
  Si  Si47  1  0.00000000  0.64955450  0.36309250  1
