# generated using pymatgen
data_HoGa
_symmetry_space_group_name_H-M   'P 1'
_cell_length_a   4.32344800
_cell_length_b   10.84156400
_cell_length_c   4.06925600
_cell_angle_alpha   90.00000000
_cell_angle_beta   90.00000000
_cell_angle_gamma   90.00000000
_symmetry_Int_Tables_number   1
_chemical_formula_structural   HoGa
_chemical_formula_sum   'Ho4 Ga4'
_cell_volume   190.73798498
_cell_formula_units_Z   4
loop_
 _symmetry_equiv_pos_site_id
 _symmetry_equiv_pos_as_xyz
  1  'x, y, z'
loop_
 _atom_site_type_symbol
 _atom_site_label
 _atom_site_symmetry_multiplicity
 _atom_site_fract_x
 _atom_site_fract_y
 _atom_site_fract_z
 _atom_site_occupancy
  Ho  Ho0  1  0.00000000  0.13798400  0.75000000  1
  Ho  Ho1  1  0.50000000  0.36201600  0.25000000  1
  Ho  Ho2  1  0.50000000  0.63798400  0.75000000  1
  Ho  Ho3  1  0.00000000  0.86201600  0.25000000  1
  Ga  Ga4  1  0.00000000  0.42346000  0.75000000  1
  Ga  Ga5  1  0.50000000  0.07654000  0.25000000  1
  Ga  Ga6  1  0.50000000  0.92346000  0.75000000  1
  Ga  Ga7  1  0.00000000  0.57654000  0.25000000  1
