# generated using pymatgen
data_Nb5Ge3
_symmetry_space_group_name_H-M   'P 1'
_cell_length_a   10.23849800
_cell_length_b   10.23849800
_cell_length_c   5.18560000
_cell_angle_alpha   90.00000000
_cell_angle_beta   90.00000000
_cell_angle_gamma   90.00000000
_symmetry_Int_Tables_number   1
_chemical_formula_structural   Nb5Ge3
_chemical_formula_sum   'Nb20 Ge12'
_cell_volume   543.59006822
_cell_formula_units_Z   4
loop_
 _symmetry_equiv_pos_site_id
 _symmetry_equiv_pos_as_xyz
  1  'x, y, z'
loop_
 _atom_site_type_symbol
 _atom_site_label
 _atom_site_symmetry_multiplicity
 _atom_site_fract_x
 _atom_site_fract_y
 _atom_site_fract_z
 _atom_site_occupancy
  Nb  Nb0  1  0.57547450  0.72268650  0.50000000  1
  Nb  Nb1  1  0.42452550  0.27731350  0.50000000  1
  Nb  Nb2  1  0.77731350  0.07547450  0.00000000  1
  Nb  Nb3  1  0.22268650  0.92452550  0.00000000  1
  Nb  Nb4  1  0.22268650  0.07547450  0.50000000  1
  Nb  Nb5  1  0.57547450  0.27731350  0.00000000  1
  Nb  Nb6  1  0.42452550  0.72268650  0.00000000  1
  Nb  Nb7  1  0.77731350  0.92452550  0.50000000  1
  Nb  Nb8  1  0.50000000  0.00000000  0.75000000  1
  Nb  Nb9  1  0.50000000  0.00000000  0.25000000  1
  Nb  Nb10  1  0.07547450  0.22268650  0.00000000  1
  Nb  Nb11  1  0.92452550  0.77731350  0.00000000  1
  Nb  Nb12  1  0.27731350  0.57547450  0.50000000  1
  Nb  Nb13  1  0.72268650  0.42452550  0.50000000  1
  Nb  Nb14  1  0.72268650  0.57547450  0.00000000  1
  Nb  Nb15  1  0.07547450  0.77731350  0.50000000  1
  Nb  Nb16  1  0.92452550  0.22268650  0.50000000  1
  Nb  Nb17  1  0.27731350  0.42452550  0.00000000  1
  Nb  Nb18  1  0.00000000  0.50000000  0.25000000  1
  Nb  Nb19  1  0.00000000  0.50000000  0.75000000  1
  Ge  Ge20  1  0.66566600  0.16566600  0.50000000  1
  Ge  Ge21  1  0.66566600  0.83433400  0.00000000  1
  Ge  Ge22  1  0.33433400  0.16566600  0.00000000  1
  Ge  Ge23  1  0.33433400  0.83433400  0.50000000  1
  Ge  Ge24  1  0.00000000  0.00000000  0.75000000  1
  Ge  Ge25  1  0.00000000  0.00000000  0.25000000  1
  Ge  Ge26  1  0.16566600  0.66566600  0.00000000  1
  Ge  Ge27  1  0.16566600  0.33433400  0.50000000  1
  Ge  Ge28  1  0.83433400  0.66566600  0.50000000  1
  Ge  Ge29  1  0.83433400  0.33433400  0.00000000  1
  Ge  Ge30  1  0.50000000  0.50000000  0.25000000  1
  Ge  Ge31  1  0.50000000  0.50000000  0.75000000  1
