# generated using pymatgen
data_Ba6Ga5N
_symmetry_space_group_name_H-M   'P 1'
_cell_length_a   7.98025780
_cell_length_b   7.98025780
_cell_length_c   42.39284652
_cell_angle_alpha   90.00000000
_cell_angle_beta   90.00000000
_cell_angle_gamma   120.00000000
_symmetry_Int_Tables_number   1
_chemical_formula_structural   Ba6Ga5N
_chemical_formula_sum   'Ba36 Ga30 N6'
_cell_volume   2338.06754386
_cell_formula_units_Z   6
loop_
 _symmetry_equiv_pos_site_id
 _symmetry_equiv_pos_as_xyz
  1  'x, y, z'
loop_
 _atom_site_type_symbol
 _atom_site_label
 _atom_site_symmetry_multiplicity
 _atom_site_fract_x
 _atom_site_fract_y
 _atom_site_fract_z
 _atom_site_occupancy
  Ba  Ba0  1  0.10769067  0.34096233  0.13065733  1
  Ba  Ba1  1  0.23327167  0.89230933  0.13065733  1
  Ba  Ba2  1  0.65903767  0.76672833  0.13065733  1
  Ba  Ba3  1  0.10006167  0.32570433  0.03600933  1
  Ba  Ba4  1  0.22564267  0.89993833  0.03600933  1
  Ba  Ba5  1  0.67429567  0.77435733  0.03600933  1
  Ba  Ba6  1  0.55897600  0.99237100  0.20267600  1
  Ba  Ba7  1  0.43339500  0.44102400  0.20267600  1
  Ba  Ba8  1  0.00762900  0.56660500  0.20267600  1
  Ba  Ba9  1  0.56660500  0.00762900  0.29732400  1
  Ba  Ba10  1  0.44102400  0.43339500  0.29732400  1
  Ba  Ba11  1  0.99237100  0.55897600  0.29732400  1
  Ba  Ba12  1  0.77435733  0.67429567  0.46399067  1
  Ba  Ba13  1  0.89993833  0.22564267  0.46399067  1
  Ba  Ba14  1  0.32570433  0.10006167  0.46399067  1
  Ba  Ba15  1  0.76672833  0.65903767  0.36934267  1
  Ba  Ba16  1  0.89230933  0.23327167  0.36934267  1
  Ba  Ba17  1  0.34096233  0.10769067  0.36934267  1
  Ba  Ba18  1  0.22564267  0.32570433  0.53600933  1
  Ba  Ba19  1  0.10006167  0.77435733  0.53600933  1
  Ba  Ba20  1  0.67429567  0.89993833  0.53600933  1
  Ba  Ba21  1  0.23327167  0.34096233  0.63065733  1
  Ba  Ba22  1  0.10769067  0.76672833  0.63065733  1
  Ba  Ba23  1  0.65903767  0.89230933  0.63065733  1
  Ba  Ba24  1  0.44102400  0.00762900  0.79732400  1
  Ba  Ba25  1  0.56660500  0.55897600  0.79732400  1
  Ba  Ba26  1  0.99237100  0.43339500  0.79732400  1
  Ba  Ba27  1  0.43339500  0.99237100  0.70267600  1
  Ba  Ba28  1  0.55897600  0.56660500  0.70267600  1
  Ba  Ba29  1  0.00762900  0.44102400  0.70267600  1
  Ba  Ba30  1  0.89230933  0.65903767  0.86934267  1
  Ba  Ba31  1  0.76672833  0.10769067  0.86934267  1
  Ba  Ba32  1  0.34096233  0.23327167  0.86934267  1
  Ba  Ba33  1  0.89993833  0.67429567  0.96399067  1
  Ba  Ba34  1  0.77435733  0.10006167  0.96399067  1
  Ba  Ba35  1  0.32570433  0.22564267  0.96399067  1
  Ga  Ga36  1  0.20203700  0.00000000  0.25000000  1
  Ga  Ga37  1  0.00000000  0.00000000  0.19767100  1
  Ga  Ga38  1  0.66666667  0.33333333  0.03100433  1
  Ga  Ga39  1  0.00000000  0.00000000  0.30232900  1
  Ga  Ga40  1  0.66666667  0.33333333  0.13566233  1
  Ga  Ga41  1  0.79796300  0.79796300  0.25000000  1
  Ga  Ga42  1  0.00000000  0.20203700  0.25000000  1
  Ga  Ga43  1  0.46462967  0.33333333  0.08333333  1
  Ga  Ga44  1  0.86870367  0.53537033  0.08333333  1
  Ga  Ga45  1  0.66666667  0.13129633  0.08333333  1
  Ga  Ga46  1  0.86870367  0.33333333  0.58333333  1
  Ga  Ga47  1  0.66666667  0.33333333  0.53100433  1
  Ga  Ga48  1  0.33333333  0.66666667  0.36433767  1
  Ga  Ga49  1  0.66666667  0.33333333  0.63566233  1
  Ga  Ga50  1  0.33333333  0.66666667  0.46899567  1
  Ga  Ga51  1  0.46462967  0.13129633  0.58333333  1
  Ga  Ga52  1  0.66666667  0.53537033  0.58333333  1
  Ga  Ga53  1  0.13129633  0.66666667  0.41666667  1
  Ga  Ga54  1  0.53537033  0.86870367  0.41666667  1
  Ga  Ga55  1  0.33333333  0.46462967  0.41666667  1
  Ga  Ga56  1  0.53537033  0.66666667  0.91666667  1
  Ga  Ga57  1  0.33333333  0.66666667  0.86433767  1
  Ga  Ga58  1  0.00000000  0.00000000  0.69767100  1
  Ga  Ga59  1  0.33333333  0.66666667  0.96899567  1
  Ga  Ga60  1  0.00000000  0.00000000  0.80232900  1
  Ga  Ga61  1  0.13129633  0.46462967  0.91666667  1
  Ga  Ga62  1  0.33333333  0.86870367  0.91666667  1
  Ga  Ga63  1  0.79796300  0.00000000  0.75000000  1
  Ga  Ga64  1  0.20203700  0.20203700  0.75000000  1
  Ga  Ga65  1  0.00000000  0.79796300  0.75000000  1
  N  N66  1  0.33333333  0.66666667  0.16666667  1
  N  N67  1  0.00000000  0.00000000  0.00000000  1
  N  N68  1  1.00000000  0.00000000  0.50000000  1
  N  N69  1  0.66666667  0.33333333  0.33333333  1
  N  N70  1  0.66666667  0.33333333  0.83333333  1
  N  N71  1  0.33333333  0.66666667  0.66666667  1
