# generated using pymatgen
data_Nb2(PO4)3
_symmetry_space_group_name_H-M   'P 1'
_cell_length_a   8.83516023
_cell_length_b   8.83516023
_cell_length_c   22.64641666
_cell_angle_alpha   90.00000000
_cell_angle_beta   90.00000000
_cell_angle_gamma   120.00000000
_symmetry_Int_Tables_number   1
_chemical_formula_structural   Nb2(PO4)3
_chemical_formula_sum   'Nb12 P18 O72'
_cell_volume   1530.94287350
_cell_formula_units_Z   6
loop_
 _symmetry_equiv_pos_site_id
 _symmetry_equiv_pos_as_xyz
  1  'x, y, z'
loop_
 _atom_site_type_symbol
 _atom_site_label
 _atom_site_symmetry_multiplicity
 _atom_site_fract_x
 _atom_site_fract_y
 _atom_site_fract_z
 _atom_site_occupancy
  Nb  Nb0  1  0.66666667  0.33333333  0.19128633  1
  Nb  Nb1  1  0.33333333  0.66666667  0.30871367  1
  Nb  Nb2  1  0.00000000  0.00000000  0.14204700  1
  Nb  Nb3  1  0.33333333  0.66666667  0.02461967  1
  Nb  Nb4  1  0.33333333  0.66666667  0.52461967  1
  Nb  Nb5  1  0.00000000  0.00000000  0.64204700  1
  Nb  Nb6  1  0.66666667  0.33333333  0.47538033  1
  Nb  Nb7  1  0.00000000  0.00000000  0.35795300  1
  Nb  Nb8  1  0.00000000  0.00000000  0.85795300  1
  Nb  Nb9  1  0.66666667  0.33333333  0.97538033  1
  Nb  Nb10  1  0.33333333  0.66666667  0.80871367  1
  Nb  Nb11  1  0.66666667  0.33333333  0.69128633  1
  P  P12  1  0.94879767  0.33333333  0.08333333  1
  P  P13  1  0.38453567  0.05120233  0.08333333  1
  P  P14  1  0.66666667  0.61546433  0.08333333  1
  P  P15  1  0.71786900  0.00000000  0.25000000  1
  P  P16  1  0.28213100  0.28213100  0.25000000  1
  P  P17  1  0.00000000  0.71786900  0.25000000  1
  P  P18  1  0.61546433  0.66666667  0.41666667  1
  P  P19  1  0.05120233  0.38453567  0.41666667  1
  P  P20  1  0.33333333  0.94879767  0.41666667  1
  P  P21  1  0.38453567  0.33333333  0.58333333  1
  P  P22  1  0.94879767  0.61546433  0.58333333  1
  P  P23  1  0.66666667  0.05120233  0.58333333  1
  P  P24  1  0.28213100  0.00000000  0.75000000  1
  P  P25  1  0.71786900  0.71786900  0.75000000  1
  P  P26  1  0.00000000  0.28213100  0.75000000  1
  P  P27  1  0.05120233  0.66666667  0.91666667  1
  P  P28  1  0.61546433  0.94879767  0.91666667  1
  P  P29  1  0.33333333  0.38453567  0.91666667  1
  O  O30  1  0.69758600  0.16199700  0.24077500  1
  O  O31  1  0.46441100  0.30241400  0.24077500  1
  O  O32  1  0.83800300  0.53558900  0.24077500  1
  O  O33  1  0.53558900  0.83800300  0.25922500  1
  O  O34  1  0.30241400  0.46441100  0.25922500  1
  O  O35  1  0.16199700  0.69758600  0.25922500  1
  O  O36  1  0.96908067  0.17133633  0.09255833  1
  O  O37  1  0.20225567  0.03091933  0.09255833  1
  O  O38  1  0.82866367  0.79774433  0.09255833  1
  O  O39  1  0.13107767  0.49533033  0.07410833  1
  O  O40  1  0.96843567  0.80076933  0.30496233  1
  O  O41  1  0.19923067  0.16766633  0.30496233  1
  O  O42  1  0.83233367  0.03156433  0.30496233  1
  O  O43  1  0.03156433  0.83233367  0.19503767  1
  O  O44  1  0.16766633  0.19923067  0.19503767  1
  O  O45  1  0.80076933  0.96843567  0.19503767  1
  O  O46  1  0.69823100  0.53256400  0.02837100  1
  O  O47  1  0.46743600  0.16566700  0.02837100  1
  O  O48  1  0.83433300  0.30176900  0.02837100  1
  O  O49  1  0.63510233  0.50099967  0.13829567  1
  O  O50  1  0.49900033  0.13410267  0.13829567  1
  O  O51  1  0.86589733  0.36489767  0.13829567  1
  O  O52  1  0.50466967  0.63574733  0.07410833  1
  O  O53  1  0.36425267  0.86892233  0.07410833  1
  O  O54  1  0.36425267  0.49533033  0.57410833  1
  O  O55  1  0.13107767  0.63574733  0.57410833  1
  O  O56  1  0.50466967  0.86892233  0.57410833  1
  O  O57  1  0.20225567  0.17133633  0.59255833  1
  O  O58  1  0.96908067  0.79774433  0.59255833  1
  O  O59  1  0.82866367  0.03091933  0.59255833  1
  O  O60  1  0.63574733  0.50466967  0.42589167  1
  O  O61  1  0.86892233  0.36425267  0.42589167  1
  O  O62  1  0.49533033  0.13107767  0.42589167  1
  O  O63  1  0.79774433  0.82866367  0.40744167  1
  O  O64  1  0.63510233  0.13410267  0.63829567  1
  O  O65  1  0.86589733  0.50099967  0.63829567  1
  O  O66  1  0.49900033  0.36489767  0.63829567  1
  O  O67  1  0.69823100  0.16566700  0.52837100  1
  O  O68  1  0.83433300  0.53256400  0.52837100  1
  O  O69  1  0.46743600  0.30176900  0.52837100  1
  O  O70  1  0.36489767  0.86589733  0.36170433  1
  O  O71  1  0.13410267  0.49900033  0.36170433  1
  O  O72  1  0.50099967  0.63510233  0.36170433  1
  O  O73  1  0.30176900  0.83433300  0.47162900  1
  O  O74  1  0.16566700  0.46743600  0.47162900  1
  O  O75  1  0.53256400  0.69823100  0.47162900  1
  O  O76  1  0.17133633  0.96908067  0.40744167  1
  O  O77  1  0.03091933  0.20225567  0.40744167  1
  O  O78  1  0.03091933  0.82866367  0.90744167  1
  O  O79  1  0.79774433  0.96908067  0.90744167  1
  O  O80  1  0.17133633  0.20225567  0.90744167  1
  O  O81  1  0.86892233  0.50466967  0.92589167  1
  O  O82  1  0.63574733  0.13107767  0.92589167  1
  O  O83  1  0.49533033  0.36425267  0.92589167  1
  O  O84  1  0.30241400  0.83800300  0.75922500  1
  O  O85  1  0.53558900  0.69758600  0.75922500  1
  O  O86  1  0.16199700  0.46441100  0.75922500  1
  O  O87  1  0.46441100  0.16199700  0.74077500  1
  O  O88  1  0.30176900  0.46743600  0.97162900  1
  O  O89  1  0.53256400  0.83433300  0.97162900  1
  O  O90  1  0.16566700  0.69823100  0.97162900  1
  O  O91  1  0.36489767  0.49900033  0.86170433  1
  O  O92  1  0.50099967  0.86589733  0.86170433  1
  O  O93  1  0.13410267  0.63510233  0.86170433  1
  O  O94  1  0.03156433  0.19923067  0.69503767  1
  O  O95  1  0.80076933  0.83233367  0.69503767  1
  O  O96  1  0.16766633  0.96843567  0.69503767  1
  O  O97  1  0.96843567  0.16766633  0.80496233  1
  O  O98  1  0.83233367  0.80076933  0.80496233  1
  O  O99  1  0.19923067  0.03156433  0.80496233  1
  O  O100  1  0.83800300  0.30241400  0.74077500  1
  O  O101  1  0.69758600  0.53558900  0.74077500  1
