# generated using pymatgen
data_EuAg2
_symmetry_space_group_name_H-M   'P 1'
_cell_length_a   4.82550800
_cell_length_b   7.50405600
_cell_length_c   8.30669200
_cell_angle_alpha   90.00000000
_cell_angle_beta   90.00000000
_cell_angle_gamma   90.00000000
_symmetry_Int_Tables_number   1
_chemical_formula_structural   EuAg2
_chemical_formula_sum   'Eu4 Ag8'
_cell_volume   300.79264599
_cell_formula_units_Z   4
loop_
 _symmetry_equiv_pos_site_id
 _symmetry_equiv_pos_as_xyz
  1  'x, y, z'
loop_
 _atom_site_type_symbol
 _atom_site_label
 _atom_site_symmetry_multiplicity
 _atom_site_fract_x
 _atom_site_fract_y
 _atom_site_fract_z
 _atom_site_occupancy
  Eu  Eu0  1  0.00000000  0.75000000  0.54361200  1
  Eu  Eu1  1  0.00000000  0.25000000  0.45638800  1
  Eu  Eu2  1  0.50000000  0.25000000  0.04361200  1
  Eu  Eu3  1  0.50000000  0.75000000  0.95638800  1
  Ag  Ag4  1  0.00000000  0.94847100  0.16336800  1
  Ag  Ag5  1  0.00000000  0.05152900  0.83663200  1
  Ag  Ag6  1  0.50000000  0.94847100  0.33663200  1
  Ag  Ag7  1  0.50000000  0.05152900  0.66336800  1
  Ag  Ag8  1  0.50000000  0.44847100  0.66336800  1
  Ag  Ag9  1  0.50000000  0.55152900  0.33663200  1
  Ag  Ag10  1  0.00000000  0.44847100  0.83663200  1
  Ag  Ag11  1  0.00000000  0.55152900  0.16336800  1
