# generated using pymatgen
data_Al2Fe3(SiO4)3
_symmetry_space_group_name_H-M   'P 1'
_cell_length_a   11.66601200
_cell_length_b   11.66601200
_cell_length_c   11.66601200
_cell_angle_alpha   90.00000000
_cell_angle_beta   90.00000000
_cell_angle_gamma   90.00000000
_symmetry_Int_Tables_number   1
_chemical_formula_structural   Al2Fe3(SiO4)3
_chemical_formula_sum   'Al16 Fe24 Si24 O96'
_cell_volume   1587.69565574
_cell_formula_units_Z   8
loop_
 _symmetry_equiv_pos_site_id
 _symmetry_equiv_pos_as_xyz
  1  'x, y, z'
loop_
 _atom_site_type_symbol
 _atom_site_label
 _atom_site_symmetry_multiplicity
 _atom_site_fract_x
 _atom_site_fract_y
 _atom_site_fract_z
 _atom_site_occupancy
  Al  Al0  1  0.00000000  0.00000000  0.00000000  1
  Al  Al1  1  0.75000000  0.25000000  0.25000000  1
  Al  Al2  1  0.00000000  0.00000000  0.50000000  1
  Al  Al3  1  0.50000000  0.00000000  0.00000000  1
  Al  Al4  1  0.25000000  0.25000000  0.75000000  1
  Al  Al5  1  0.25000000  0.25000000  0.25000000  1
  Al  Al6  1  0.25000000  0.75000000  0.25000000  1
  Al  Al7  1  0.00000000  0.50000000  0.00000000  1
  Al  Al8  1  0.50000000  0.50000000  0.50000000  1
  Al  Al9  1  0.25000000  0.75000000  0.75000000  1
  Al  Al10  1  0.50000000  0.50000000  0.00000000  1
  Al  Al11  1  0.00000000  0.50000000  0.50000000  1
  Al  Al12  1  0.75000000  0.75000000  0.25000000  1
  Al  Al13  1  0.75000000  0.75000000  0.75000000  1
  Al  Al14  1  0.75000000  0.25000000  0.75000000  1
  Al  Al15  1  0.50000000  0.00000000  0.50000000  1
  Fe  Fe16  1  0.37500000  0.50000000  0.25000000  1
  Fe  Fe17  1  0.62500000  0.00000000  0.25000000  1
  Fe  Fe18  1  0.25000000  0.62500000  0.00000000  1
  Fe  Fe19  1  0.25000000  0.37500000  0.50000000  1
  Fe  Fe20  1  0.00000000  0.25000000  0.62500000  1
  Fe  Fe21  1  0.50000000  0.25000000  0.37500000  1
  Fe  Fe22  1  0.12500000  0.00000000  0.25000000  1
  Fe  Fe23  1  0.87500000  0.50000000  0.25000000  1
  Fe  Fe24  1  0.25000000  0.87500000  0.50000000  1
  Fe  Fe25  1  0.25000000  0.12500000  0.00000000  1
  Fe  Fe26  1  0.50000000  0.25000000  0.87500000  1
  Fe  Fe27  1  0.00000000  0.25000000  0.12500000  1
  Fe  Fe28  1  0.87500000  0.00000000  0.75000000  1
  Fe  Fe29  1  0.12500000  0.50000000  0.75000000  1
  Fe  Fe30  1  0.75000000  0.12500000  0.50000000  1
  Fe  Fe31  1  0.75000000  0.87500000  0.00000000  1
  Fe  Fe32  1  0.50000000  0.75000000  0.12500000  1
  Fe  Fe33  1  0.00000000  0.75000000  0.87500000  1
  Fe  Fe34  1  0.62500000  0.50000000  0.75000000  1
  Fe  Fe35  1  0.37500000  0.00000000  0.75000000  1
  Fe  Fe36  1  0.75000000  0.37500000  0.00000000  1
  Fe  Fe37  1  0.75000000  0.62500000  0.50000000  1
  Fe  Fe38  1  0.00000000  0.75000000  0.37500000  1
  Fe  Fe39  1  0.50000000  0.75000000  0.62500000  1
  Si  Si40  1  0.75000000  0.12500000  0.00000000  1
  Si  Si41  1  0.12500000  0.00000000  0.75000000  1
  Si  Si42  1  0.37500000  0.00000000  0.25000000  1
  Si  Si43  1  0.25000000  0.12500000  0.50000000  1
  Si  Si44  1  0.00000000  0.75000000  0.12500000  1
  Si  Si45  1  0.25000000  0.37500000  0.00000000  1
  Si  Si46  1  0.50000000  0.25000000  0.12500000  1
  Si  Si47  1  0.37500000  0.50000000  0.75000000  1
  Si  Si48  1  0.00000000  0.25000000  0.37500000  1
  Si  Si49  1  0.50000000  0.75000000  0.37500000  1
  Si  Si50  1  0.12500000  0.50000000  0.25000000  1
  Si  Si51  1  0.75000000  0.37500000  0.50000000  1
  Si  Si52  1  0.25000000  0.62500000  0.50000000  1
  Si  Si53  1  0.62500000  0.50000000  0.25000000  1
  Si  Si54  1  0.87500000  0.50000000  0.75000000  1
  Si  Si55  1  0.75000000  0.62500000  0.00000000  1
  Si  Si56  1  0.50000000  0.25000000  0.62500000  1
  Si  Si57  1  0.75000000  0.87500000  0.50000000  1
  Si  Si58  1  0.00000000  0.75000000  0.62500000  1
  Si  Si59  1  0.87500000  0.00000000  0.25000000  1
  Si  Si60  1  0.50000000  0.75000000  0.87500000  1
  Si  Si61  1  0.00000000  0.25000000  0.87500000  1
  Si  Si62  1  0.62500000  0.00000000  0.75000000  1
  Si  Si63  1  0.25000000  0.87500000  0.00000000  1
  O  O64  1  0.34744000  0.03387900  0.54786100  1
  O  O65  1  0.54786100  0.34744000  0.03387900  1
  O  O66  1  0.46612100  0.45213900  0.84744000  1
  O  O67  1  0.15256000  0.03387900  0.45213900  1
  O  O68  1  0.29786100  0.71612100  0.59744000  1
  O  O69  1  0.04786100  0.15256000  0.96612100  1
  O  O70  1  0.20213900  0.28387900  0.09744000  1
  O  O71  1  0.03387900  0.54786100  0.34744000  1
  O  O72  1  0.29786100  0.28387900  0.90256000  1
  O  O73  1  0.09744000  0.20213900  0.28387900  1
  O  O74  1  0.71612100  0.59744000  0.29786100  1
  O  O75  1  0.21612100  0.90256000  0.70213900  1
  O  O76  1  0.90256000  0.70213900  0.21612100  1
  O  O77  1  0.28387900  0.09744000  0.20213900  1
  O  O78  1  0.90256000  0.29786100  0.28387900  1
  O  O79  1  0.28387900  0.90256000  0.29786100  1
  O  O80  1  0.59744000  0.29786100  0.71612100  1
  O  O81  1  0.84744000  0.46612100  0.45213900  1
  O  O82  1  0.15256000  0.96612100  0.04786100  1
  O  O83  1  0.20213900  0.21612100  0.59744000  1
  O  O84  1  0.45213900  0.15256000  0.03387900  1
  O  O85  1  0.03387900  0.45213900  0.15256000  1
  O  O86  1  0.96612100  0.04786100  0.15256000  1
  O  O87  1  0.70213900  0.21612100  0.90256000  1
  O  O88  1  0.15256000  0.46612100  0.95213900  1
  O  O89  1  0.95213900  0.15256000  0.46612100  1
  O  O90  1  0.03387900  0.04786100  0.65256000  1
  O  O91  1  0.34744000  0.46612100  0.04786100  1
  O  O92  1  0.20213900  0.78387900  0.90256000  1
  O  O93  1  0.45213900  0.34744000  0.53387900  1
  O  O94  1  0.29786100  0.21612100  0.40256000  1
  O  O95  1  0.46612100  0.95213900  0.15256000  1
  O  O96  1  0.79786100  0.28387900  0.59744000  1
  O  O97  1  0.53387900  0.45213900  0.34744000  1
  O  O98  1  0.46612100  0.04786100  0.34744000  1
  O  O99  1  0.04786100  0.65256000  0.03387900  1
  O  O100  1  0.04786100  0.34744000  0.46612100  1
  O  O101  1  0.34744000  0.53387900  0.45213900  1
  O  O102  1  0.65256000  0.03387900  0.04786100  1
  O  O103  1  0.90256000  0.20213900  0.78387900  1
  O  O104  1  0.21612100  0.59744000  0.20213900  1
  O  O105  1  0.59744000  0.20213900  0.21612100  1
  O  O106  1  0.21612100  0.40256000  0.29786100  1
  O  O107  1  0.59744000  0.79786100  0.28387900  1
  O  O108  1  0.28387900  0.59744000  0.79786100  1
  O  O109  1  0.78387900  0.90256000  0.20213900  1
  O  O110  1  0.40256000  0.29786100  0.21612100  1
  O  O111  1  0.45213900  0.84744000  0.46612100  1
  O  O112  1  0.84744000  0.53387900  0.04786100  1
  O  O113  1  0.04786100  0.84744000  0.53387900  1
  O  O114  1  0.96612100  0.95213900  0.34744000  1
  O  O115  1  0.65256000  0.53387900  0.95213900  1
  O  O116  1  0.79786100  0.21612100  0.09744000  1
  O  O117  1  0.54786100  0.65256000  0.46612100  1
  O  O118  1  0.70213900  0.78387900  0.59744000  1
  O  O119  1  0.53387900  0.04786100  0.84744000  1
  O  O120  1  0.79786100  0.78387900  0.40256000  1
  O  O121  1  0.59744000  0.70213900  0.78387900  1
  O  O122  1  0.21612100  0.09744000  0.79786100  1
  O  O123  1  0.71612100  0.40256000  0.20213900  1
  O  O124  1  0.40256000  0.20213900  0.71612100  1
  O  O125  1  0.78387900  0.59744000  0.70213900  1
  O  O126  1  0.40256000  0.79786100  0.78387900  1
  O  O127  1  0.78387900  0.40256000  0.79786100  1
  O  O128  1  0.09744000  0.79786100  0.21612100  1
  O  O129  1  0.34744000  0.96612100  0.95213900  1
  O  O130  1  0.65256000  0.46612100  0.54786100  1
  O  O131  1  0.70213900  0.71612100  0.09744000  1
  O  O132  1  0.95213900  0.65256000  0.53387900  1
  O  O133  1  0.53387900  0.95213900  0.65256000  1
  O  O134  1  0.46612100  0.54786100  0.65256000  1
  O  O135  1  0.20213900  0.71612100  0.40256000  1
  O  O136  1  0.65256000  0.96612100  0.45213900  1
  O  O137  1  0.45213900  0.65256000  0.96612100  1
  O  O138  1  0.53387900  0.54786100  0.15256000  1
  O  O139  1  0.84744000  0.96612100  0.54786100  1
  O  O140  1  0.70213900  0.28387900  0.40256000  1
  O  O141  1  0.95213900  0.84744000  0.03387900  1
  O  O142  1  0.79786100  0.71612100  0.90256000  1
  O  O143  1  0.96612100  0.45213900  0.65256000  1
  O  O144  1  0.29786100  0.78387900  0.09744000  1
  O  O145  1  0.03387900  0.95213900  0.84744000  1
  O  O146  1  0.96612100  0.54786100  0.84744000  1
  O  O147  1  0.54786100  0.15256000  0.53387900  1
  O  O148  1  0.54786100  0.84744000  0.96612100  1
  O  O149  1  0.84744000  0.03387900  0.95213900  1
  O  O150  1  0.15256000  0.53387900  0.54786100  1
  O  O151  1  0.40256000  0.70213900  0.28387900  1
  O  O152  1  0.71612100  0.09744000  0.70213900  1
  O  O153  1  0.09744000  0.70213900  0.71612100  1
  O  O154  1  0.71612100  0.90256000  0.79786100  1
  O  O155  1  0.09744000  0.29786100  0.78387900  1
  O  O156  1  0.78387900  0.09744000  0.29786100  1
  O  O157  1  0.28387900  0.40256000  0.70213900  1
  O  O158  1  0.90256000  0.79786100  0.71612100  1
  O  O159  1  0.95213900  0.34744000  0.96612100  1
