# generated using pymatgen
data_Ba2Co(BO2)6
_symmetry_space_group_name_H-M   'P 1'
_cell_length_a   7.15151481
_cell_length_b   7.15151481
_cell_length_c   17.08258976
_cell_angle_alpha   90.00000000
_cell_angle_beta   90.00000000
_cell_angle_gamma   120.00000000
_symmetry_Int_Tables_number   1
_chemical_formula_structural   Ba2Co(BO2)6
_chemical_formula_sum   'Ba6 Co3 B18 O36'
_cell_volume   756.62454831
_cell_formula_units_Z   3
loop_
 _symmetry_equiv_pos_site_id
 _symmetry_equiv_pos_as_xyz
  1  'x, y, z'
loop_
 _atom_site_type_symbol
 _atom_site_label
 _atom_site_symmetry_multiplicity
 _atom_site_fract_x
 _atom_site_fract_y
 _atom_site_fract_z
 _atom_site_occupancy
  Ba  Ba0  1  0.00000000  0.00000000  0.79156700  1
  Ba  Ba1  1  0.00000000  0.00000000  0.20843300  1
  Ba  Ba2  1  0.66666667  0.33333333  0.12490033  1
  Ba  Ba3  1  0.66666667  0.33333333  0.54176633  1
  Ba  Ba4  1  0.33333333  0.66666667  0.45823367  1
  Ba  Ba5  1  0.33333333  0.66666667  0.87509967  1
  Co  Co6  1  0.66666667  0.33333333  0.33333333  1
  Co  Co7  1  0.33333333  0.66666667  0.66666667  1
  Co  Co8  1  0.00000000  1.00000000  0.00000000  1
  B  B9  1  0.22372500  0.16778000  0.41105800  1
  B  B10  1  0.77627500  0.83222000  0.58894200  1
  B  B11  1  0.16778000  0.94405500  0.58894200  1
  B  B12  1  0.83222000  0.05594500  0.41105800  1
  B  B13  1  0.05594500  0.22372500  0.58894200  1
  B  B14  1  0.94405500  0.77627500  0.41105800  1
  B  B15  1  0.89039167  0.50111333  0.74439133  1
  B  B16  1  0.44294167  0.16555333  0.92227533  1
  B  B17  1  0.83444667  0.27738833  0.92227533  1
  B  B18  1  0.49888667  0.38927833  0.74439133  1
  B  B19  1  0.72261167  0.55705833  0.92227533  1
  B  B20  1  0.61072167  0.10960833  0.74439133  1
  B  B21  1  0.55705833  0.83444667  0.07772467  1
  B  B22  1  0.10960833  0.49888667  0.25560867  1
  B  B23  1  0.50111333  0.61072167  0.25560867  1
  B  B24  1  0.16555333  0.72261167  0.07772467  1
  B  B25  1  0.38927833  0.89039167  0.25560867  1
  B  B26  1  0.27738833  0.44294167  0.07772467  1
  O  O27  1  0.05359483  0.21536067  0.41082917  1
  O  O28  1  0.94640517  0.78463933  0.58917083  1
  O  O29  1  0.16176583  0.94640517  0.41082917  1
  O  O30  1  0.83823417  0.05359483  0.58917083  1
  O  O31  1  0.78463933  0.83823417  0.41082917  1
  O  O32  1  0.21536067  0.16176583  0.58917083  1
  O  O33  1  0.57230300  0.67152400  0.58692200  1
  O  O34  1  0.32847600  0.90077900  0.58692200  1
  O  O35  1  0.09922100  0.42769700  0.58692200  1
  O  O36  1  0.67152400  0.09922100  0.41307800  1
  O  O37  1  0.42769700  0.32847600  0.41307800  1
  O  O38  1  0.90077900  0.57230300  0.41307800  1
  O  O39  1  0.72026150  0.54869400  0.74416250  1
  O  O40  1  0.61307183  0.11797267  0.92250417  1
  O  O41  1  0.82843250  0.27973850  0.74416250  1
  O  O42  1  0.50490083  0.38692817  0.92250417  1
  O  O43  1  0.45130600  0.17156750  0.74416250  1
  O  O44  1  0.88202733  0.49509917  0.92250417  1
  O  O45  1  0.23896967  0.00485733  0.92025533  1
  O  O46  1  0.99514267  0.23411233  0.92025533  1
  O  O47  1  0.76588767  0.76103033  0.92025533  1
  O  O48  1  0.33819067  0.43255433  0.74641133  1
  O  O49  1  0.09436367  0.66180933  0.74641133  1
  O  O50  1  0.56744567  0.90563633  0.74641133  1
  O  O51  1  0.38692817  0.88202733  0.07749583  1
  O  O52  1  0.27973850  0.45130600  0.25583750  1
  O  O53  1  0.49509917  0.61307183  0.07749583  1
  O  O54  1  0.17156750  0.72026150  0.25583750  1
  O  O55  1  0.11797267  0.50490083  0.07749583  1
  O  O56  1  0.54869400  0.82843250  0.25583750  1
  O  O57  1  0.90563633  0.33819067  0.25358867  1
  O  O58  1  0.66180933  0.56744567  0.25358867  1
  O  O59  1  0.43255433  0.09436367  0.25358867  1
  O  O60  1  0.00485733  0.76588767  0.07974467  1
  O  O61  1  0.76103033  0.99514267  0.07974467  1
  O  O62  1  0.23411233  0.23896967  0.07974467  1
