# generated using pymatgen
data_Mn2Te3O8
_symmetry_space_group_name_H-M   'P 1'
_cell_length_a   13.10545200
_cell_length_b   5.50781600
_cell_length_c   12.05514197
_cell_angle_alpha   90.00000000
_cell_angle_beta   97.81902373
_cell_angle_gamma   90.00000000
_symmetry_Int_Tables_number   1
_chemical_formula_structural   Mn2Te3O8
_chemical_formula_sum   'Mn8 Te12 O32'
_cell_volume   862.07909603
_cell_formula_units_Z   4
loop_
 _symmetry_equiv_pos_site_id
 _symmetry_equiv_pos_as_xyz
  1  'x, y, z'
loop_
 _atom_site_type_symbol
 _atom_site_label
 _atom_site_symmetry_multiplicity
 _atom_site_fract_x
 _atom_site_fract_y
 _atom_site_fract_z
 _atom_site_occupancy
  Mn  Mn0  1  0.77019950  0.80425050  0.14884200  1
  Mn  Mn1  1  0.72980050  0.30425050  0.35115800  1
  Mn  Mn2  1  0.72980050  0.69574950  0.85115800  1
  Mn  Mn3  1  0.77019950  0.19574950  0.64884200  1
  Mn  Mn4  1  0.27019950  0.30425050  0.14884200  1
  Mn  Mn5  1  0.22980050  0.80425050  0.35115800  1
  Mn  Mn6  1  0.22980050  0.19574950  0.85115800  1
  Mn  Mn7  1  0.27019950  0.69574950  0.64884200  1
  Te  Te8  1  0.86088450  0.81566550  0.44214900  1
  Te  Te9  1  0.63911550  0.31566550  0.05785100  1
  Te  Te10  1  0.63911550  0.68433450  0.55785100  1
  Te  Te11  1  0.86088450  0.18433450  0.94214900  1
  Te  Te12  1  0.00000000  0.13533500  0.25000000  1
  Te  Te13  1  0.00000000  0.86466500  0.75000000  1
  Te  Te14  1  0.36088450  0.31566550  0.44214900  1
  Te  Te15  1  0.13911550  0.81566550  0.05785100  1
  Te  Te16  1  0.13911550  0.18433450  0.55785100  1
  Te  Te17  1  0.36088450  0.68433450  0.94214900  1
  Te  Te18  1  0.50000000  0.63533500  0.25000000  1
  Te  Te19  1  0.50000000  0.36466500  0.75000000  1
  O  O20  1  0.80374400  0.64163300  0.31220800  1
  O  O21  1  0.69625600  0.14163300  0.18779200  1
  O  O22  1  0.69625600  0.85836700  0.68779200  1
  O  O23  1  0.80374400  0.35836700  0.81220800  1
  O  O24  1  0.73742400  0.98601400  0.47184500  1
  O  O25  1  0.76257600  0.48601400  0.02815500  1
  O  O26  1  0.76257600  0.51398600  0.52815500  1
  O  O27  1  0.73742400  0.01398600  0.97184500  1
  O  O28  1  0.61683550  0.61482550  0.14227200  1
  O  O29  1  0.88316450  0.11482550  0.35772800  1
  O  O30  1  0.92423100  0.07596000  0.64555800  1
  O  O31  1  0.57576900  0.57596000  0.85444200  1
  O  O32  1  0.57576900  0.42404000  0.35444200  1
  O  O33  1  0.92423100  0.92404000  0.14555800  1
  O  O34  1  0.61683550  0.38517450  0.64227200  1
  O  O35  1  0.88316450  0.88517450  0.85772800  1
  O  O36  1  0.30374400  0.14163300  0.31220800  1
  O  O37  1  0.19625600  0.64163300  0.18779200  1
  O  O38  1  0.19625600  0.35836700  0.68779200  1
  O  O39  1  0.30374400  0.85836700  0.81220800  1
  O  O40  1  0.23742400  0.48601400  0.47184500  1
  O  O41  1  0.26257600  0.98601400  0.02815500  1
  O  O42  1  0.26257600  0.01398600  0.52815500  1
  O  O43  1  0.23742400  0.51398600  0.97184500  1
  O  O44  1  0.11683550  0.11482550  0.14227200  1
  O  O45  1  0.38316450  0.61482550  0.35772800  1
  O  O46  1  0.42423100  0.57596000  0.64555800  1
  O  O47  1  0.07576900  0.07596000  0.85444200  1
  O  O48  1  0.07576900  0.92404000  0.35444200  1
  O  O49  1  0.42423100  0.42404000  0.14555800  1
  O  O50  1  0.11683550  0.88517450  0.64227200  1
  O  O51  1  0.38316450  0.38517450  0.85772800  1
