# generated using pymatgen
data_Ho2Ge5Rh3
_symmetry_space_group_name_H-M   'P 1'
_cell_length_a   11.34372600
_cell_length_b   12.25139000
_cell_length_c   5.88265893
_cell_angle_alpha   90.00000000
_cell_angle_beta   118.06183449
_cell_angle_gamma   90.00000000
_symmetry_Int_Tables_number   1
_chemical_formula_structural   Ho2Ge5Rh3
_chemical_formula_sum   'Ho8 Ge20 Rh12'
_cell_volume   721.43989269
_cell_formula_units_Z   4
loop_
 _symmetry_equiv_pos_site_id
 _symmetry_equiv_pos_as_xyz
  1  'x, y, z'
loop_
 _atom_site_type_symbol
 _atom_site_label
 _atom_site_symmetry_multiplicity
 _atom_site_fract_x
 _atom_site_fract_y
 _atom_site_fract_z
 _atom_site_occupancy
  Ho  Ho0  1  0.76934550  0.13958550  0.76338100  1
  Ho  Ho1  1  0.23065450  0.13958550  0.73661900  1
  Ho  Ho2  1  0.23065450  0.86041450  0.23661900  1
  Ho  Ho3  1  0.76934550  0.86041450  0.26338100  1
  Ho  Ho4  1  0.26934550  0.63958550  0.76338100  1
  Ho  Ho5  1  0.73065450  0.63958550  0.73661900  1
  Ho  Ho6  1  0.73065450  0.36041450  0.23661900  1
  Ho  Ho7  1  0.26934550  0.36041450  0.26338100  1
  Ge  Ge8  1  0.50000000  0.51348300  0.75000000  1
  Ge  Ge9  1  0.50000000  0.48651700  0.25000000  1
  Ge  Ge10  1  0.50000000  0.20690200  0.75000000  1
  Ge  Ge11  1  0.50000000  0.79309800  0.25000000  1
  Ge  Ge12  1  0.50000000  0.77770200  0.75000000  1
  Ge  Ge13  1  0.50000000  0.22229800  0.25000000  1
  Ge  Ge14  1  0.32992750  0.90529550  0.83083800  1
  Ge  Ge15  1  0.32992750  0.09470450  0.33083800  1
  Ge  Ge16  1  0.67007250  0.09470450  0.16916200  1
  Ge  Ge17  1  0.67007250  0.90529550  0.66916200  1
  Ge  Ge18  1  0.00000000  0.01348300  0.75000000  1
  Ge  Ge19  1  0.00000000  0.98651700  0.25000000  1
  Ge  Ge20  1  0.00000000  0.70690200  0.75000000  1
  Ge  Ge21  1  0.00000000  0.29309800  0.25000000  1
  Ge  Ge22  1  0.00000000  0.27770200  0.75000000  1
  Ge  Ge23  1  0.00000000  0.72229800  0.25000000  1
  Ge  Ge24  1  0.82992750  0.40529550  0.83083800  1
  Ge  Ge25  1  0.82992750  0.59470450  0.33083800  1
  Ge  Ge26  1  0.17007250  0.59470450  0.16916200  1
  Ge  Ge27  1  0.17007250  0.40529550  0.66916200  1
  Rh  Rh28  1  0.59658150  0.64201750  0.12618600  1
  Rh  Rh29  1  0.50000000  0.99746200  0.25000000  1
  Rh  Rh30  1  0.59658150  0.35798250  0.62618600  1
  Rh  Rh31  1  0.40341850  0.35798250  0.87381400  1
  Rh  Rh32  1  0.40341850  0.64201750  0.37381400  1
  Rh  Rh33  1  0.50000000  0.00253800  0.75000000  1
  Rh  Rh34  1  0.09658150  0.14201750  0.12618600  1
  Rh  Rh35  1  0.00000000  0.49746200  0.25000000  1
  Rh  Rh36  1  0.09658150  0.85798250  0.62618600  1
  Rh  Rh37  1  0.90341850  0.85798250  0.87381400  1
  Rh  Rh38  1  0.90341850  0.14201750  0.37381400  1
  Rh  Rh39  1  0.00000000  0.50253800  0.75000000  1
