# generated using pymatgen
data_K(MoO3)3
_symmetry_space_group_name_H-M   'P 1'
_cell_length_a   15.31738800
_cell_length_b   7.81409200
_cell_length_c   6.52112780
_cell_angle_alpha   90.00000000
_cell_angle_beta   92.26054916
_cell_angle_gamma   90.00000000
_symmetry_Int_Tables_number   1
_chemical_formula_structural   K(MoO3)3
_chemical_formula_sum   'K4 Mo12 O36'
_cell_volume   779.91602102
_cell_formula_units_Z   4
loop_
 _symmetry_equiv_pos_site_id
 _symmetry_equiv_pos_as_xyz
  1  'x, y, z'
loop_
 _atom_site_type_symbol
 _atom_site_label
 _atom_site_symmetry_multiplicity
 _atom_site_fract_x
 _atom_site_fract_y
 _atom_site_fract_z
 _atom_site_occupancy
  K  K0  1  0.70118700  0.00000000  0.84204000  1
  K  K1  1  0.79881300  0.50000000  0.15796000  1
  K  K2  1  0.20118700  0.50000000  0.84204000  1
  K  K3  1  0.29881300  0.00000000  0.15796000  1
  Mo  Mo4  1  0.55627450  0.76038250  0.26652800  1
  Mo  Mo5  1  0.94372550  0.26038250  0.73347200  1
  Mo  Mo6  1  0.61850700  0.50000000  0.63355600  1
  Mo  Mo7  1  0.88149300  0.00000000  0.36644400  1
  Mo  Mo8  1  0.55627450  0.23961750  0.26652800  1
  Mo  Mo9  1  0.94372550  0.73961750  0.73347200  1
  Mo  Mo10  1  0.05627450  0.26038250  0.26652800  1
  Mo  Mo11  1  0.44372550  0.76038250  0.73347200  1
  Mo  Mo12  1  0.11850700  0.00000000  0.63355600  1
  Mo  Mo13  1  0.38149300  0.50000000  0.36644400  1
  Mo  Mo14  1  0.05627450  0.73961750  0.26652800  1
  Mo  Mo15  1  0.44372550  0.23961750  0.73347200  1
  O  O16  1  0.92010550  0.76222650  0.41411800  1
  O  O17  1  0.57989450  0.26222650  0.58588200  1
  O  O18  1  0.57989450  0.73777350  0.58588200  1
  O  O19  1  0.92010550  0.23777350  0.41411800  1
  O  O20  1  0.83634150  0.73653750  0.80121100  1
  O  O21  1  0.66365850  0.23653750  0.19878900  1
  O  O22  1  0.66365850  0.76346250  0.19878900  1
  O  O23  1  0.83634150  0.26346250  0.80121100  1
  O  O24  1  0.00000000  0.25802800  0.00000000  1
  O  O25  1  0.00000000  0.74197200  0.00000000  1
  O  O26  1  0.78327300  0.00000000  0.48909200  1
  O  O27  1  0.71672700  0.50000000  0.51090800  1
  O  O28  1  0.85213500  0.00000000  0.10739900  1
  O  O29  1  0.64786500  0.50000000  0.89260100  1
  O  O30  1  0.96331700  0.50000000  0.70634600  1
  O  O31  1  0.53668300  0.00000000  0.29365400  1
  O  O32  1  0.96265900  0.00000000  0.69282600  1
  O  O33  1  0.53734100  0.50000000  0.30717400  1
  O  O34  1  0.42010550  0.26222650  0.41411800  1
  O  O35  1  0.07989450  0.76222650  0.58588200  1
  O  O36  1  0.07989450  0.23777350  0.58588200  1
  O  O37  1  0.42010550  0.73777350  0.41411800  1
  O  O38  1  0.33634150  0.23653750  0.80121100  1
  O  O39  1  0.16365850  0.73653750  0.19878900  1
  O  O40  1  0.16365850  0.26346250  0.19878900  1
  O  O41  1  0.33634150  0.76346250  0.80121100  1
  O  O42  1  0.50000000  0.75802800  0.00000000  1
  O  O43  1  0.50000000  0.24197200  0.00000000  1
  O  O44  1  0.28327300  0.50000000  0.48909200  1
  O  O45  1  0.21672700  0.00000000  0.51090800  1
  O  O46  1  0.35213500  0.50000000  0.10739900  1
  O  O47  1  0.14786500  0.00000000  0.89260100  1
  O  O48  1  0.46331700  0.00000000  0.70634600  1
  O  O49  1  0.03668300  0.50000000  0.29365400  1
  O  O50  1  0.46265900  0.50000000  0.69282600  1
  O  O51  1  0.03734100  0.00000000  0.30717400  1
