# generated using pymatgen
data_Ho2Ni(B2O5)2
_symmetry_space_group_name_H-M   'P 1'
_cell_length_a   4.54005600
_cell_length_b   7.27133100
_cell_length_c   9.41735189
_cell_angle_alpha   90.00000000
_cell_angle_beta   91.25911947
_cell_angle_gamma   90.00000000
_symmetry_Int_Tables_number   1
_chemical_formula_structural   Ho2Ni(B2O5)2
_chemical_formula_sum   'Ho4 Ni2 B8 O20'
_cell_volume   310.81290809
_cell_formula_units_Z   2
loop_
 _symmetry_equiv_pos_site_id
 _symmetry_equiv_pos_as_xyz
  1  'x, y, z'
loop_
 _atom_site_type_symbol
 _atom_site_label
 _atom_site_symmetry_multiplicity
 _atom_site_fract_x
 _atom_site_fract_y
 _atom_site_fract_z
 _atom_site_occupancy
  Ho  Ho0  1  0.00425600  0.60120200  0.16480600  1
  Ho  Ho1  1  0.99574400  0.10120200  0.33519400  1
  Ho  Ho2  1  0.00425600  0.89879800  0.66480600  1
  Ho  Ho3  1  0.99574400  0.39879800  0.83519400  1
  Ni  Ni4  1  0.00000000  0.00000000  0.00000000  1
  Ni  Ni5  1  0.00000000  0.50000000  0.50000000  1
  B  B6  1  0.52946100  0.73539800  0.91502200  1
  B  B7  1  0.47053900  0.23539800  0.58497800  1
  B  B8  1  0.47053900  0.26460200  0.08497800  1
  B  B9  1  0.52946100  0.76460200  0.41502200  1
  B  B10  1  0.53528500  0.40397000  0.33888700  1
  B  B11  1  0.46471500  0.90397000  0.16111300  1
  B  B12  1  0.46471500  0.59603000  0.66111300  1
  B  B13  1  0.53528500  0.09603000  0.83888700  1
  O  O14  1  0.77780900  0.59566600  0.66668800  1
  O  O15  1  0.22219100  0.40433400  0.33331200  1
  O  O16  1  0.67864100  0.90798200  0.85714200  1
  O  O17  1  0.32135900  0.40798200  0.64285800  1
  O  O18  1  0.32135900  0.09201800  0.14285800  1
  O  O19  1  0.77780900  0.90433400  0.16668800  1
  O  O20  1  0.66627100  0.20708400  0.96245500  1
  O  O21  1  0.33372900  0.70708400  0.53754500  1
  O  O22  1  0.33372900  0.79291600  0.03754500  1
  O  O23  1  0.66627100  0.29291600  0.46245500  1
  O  O24  1  0.67192400  0.17008300  0.70487900  1
  O  O25  1  0.32807600  0.67008300  0.79512100  1
  O  O26  1  0.32807600  0.82991700  0.29512100  1
  O  O27  1  0.67192400  0.32991700  0.20487900  1
  O  O28  1  0.75144600  0.89122100  0.46064700  1
  O  O29  1  0.24855400  0.39122100  0.03935300  1
  O  O30  1  0.24855400  0.10877900  0.53935300  1
  O  O31  1  0.75144600  0.60877900  0.96064700  1
  O  O32  1  0.67864100  0.59201800  0.35714200  1
  O  O33  1  0.22219100  0.09566600  0.83331200  1
