# generated using pymatgen
data_Mn3W3C
_symmetry_space_group_name_H-M   'P 1'
_cell_length_a   11.13457600
_cell_length_b   11.13457600
_cell_length_c   11.13457600
_cell_angle_alpha   90.00000000
_cell_angle_beta   90.00000000
_cell_angle_gamma   90.00000000
_symmetry_Int_Tables_number   1
_chemical_formula_structural   Mn3W3C
_chemical_formula_sum   'Mn48 W48 C16'
_cell_volume   1380.45117836
_cell_formula_units_Z   16
loop_
 _symmetry_equiv_pos_site_id
 _symmetry_equiv_pos_as_xyz
  1  'x, y, z'
loop_
 _atom_site_type_symbol
 _atom_site_label
 _atom_site_symmetry_multiplicity
 _atom_site_fract_x
 _atom_site_fract_y
 _atom_site_fract_z
 _atom_site_occupancy
  Mn  Mn0  1  0.12500000  0.62500000  0.12500000  1
  Mn  Mn1  1  0.17196133  0.67196133  0.32803867  1
  Mn  Mn2  1  0.32803867  0.67196133  0.17196133  1
  Mn  Mn3  1  0.07803867  0.42196133  0.07803867  1
  Mn  Mn4  1  0.42196133  0.07803867  0.07803867  1
  Mn  Mn5  1  0.42196133  0.42196133  0.42196133  1
  Mn  Mn6  1  0.07803867  0.07803867  0.42196133  1
  Mn  Mn7  1  0.17196133  0.82803867  0.17196133  1
  Mn  Mn8  1  0.12500000  0.87500000  0.37500000  1
  Mn  Mn9  1  0.37500000  0.87500000  0.12500000  1
  Mn  Mn10  1  0.37500000  0.62500000  0.37500000  1
  Mn  Mn11  1  0.32803867  0.82803867  0.32803867  1
  Mn  Mn12  1  0.12500000  0.12500000  0.62500000  1
  Mn  Mn13  1  0.17196133  0.17196133  0.82803867  1
  Mn  Mn14  1  0.32803867  0.17196133  0.67196133  1
  Mn  Mn15  1  0.07803867  0.92196133  0.57803867  1
  Mn  Mn16  1  0.42196133  0.57803867  0.57803867  1
  Mn  Mn17  1  0.42196133  0.92196133  0.92196133  1
  Mn  Mn18  1  0.07803867  0.57803867  0.92196133  1
  Mn  Mn19  1  0.17196133  0.32803867  0.67196133  1
  Mn  Mn20  1  0.12500000  0.37500000  0.87500000  1
  Mn  Mn21  1  0.37500000  0.37500000  0.62500000  1
  Mn  Mn22  1  0.37500000  0.12500000  0.87500000  1
  Mn  Mn23  1  0.32803867  0.32803867  0.82803867  1
  Mn  Mn24  1  0.62500000  0.62500000  0.62500000  1
  Mn  Mn25  1  0.67196133  0.67196133  0.82803867  1
  Mn  Mn26  1  0.82803867  0.67196133  0.67196133  1
  Mn  Mn27  1  0.57803867  0.42196133  0.57803867  1
  Mn  Mn28  1  0.92196133  0.07803867  0.57803867  1
  Mn  Mn29  1  0.92196133  0.42196133  0.92196133  1
  Mn  Mn30  1  0.57803867  0.07803867  0.92196133  1
  Mn  Mn31  1  0.67196133  0.82803867  0.67196133  1
  Mn  Mn32  1  0.62500000  0.87500000  0.87500000  1
  Mn  Mn33  1  0.87500000  0.87500000  0.62500000  1
  Mn  Mn34  1  0.87500000  0.62500000  0.87500000  1
  Mn  Mn35  1  0.82803867  0.82803867  0.82803867  1
  Mn  Mn36  1  0.62500000  0.12500000  0.12500000  1
  Mn  Mn37  1  0.67196133  0.17196133  0.32803867  1
  Mn  Mn38  1  0.82803867  0.17196133  0.17196133  1
  Mn  Mn39  1  0.57803867  0.92196133  0.07803867  1
  Mn  Mn40  1  0.92196133  0.57803867  0.07803867  1
  Mn  Mn41  1  0.92196133  0.92196133  0.42196133  1
  Mn  Mn42  1  0.57803867  0.57803867  0.42196133  1
  Mn  Mn43  1  0.67196133  0.32803867  0.17196133  1
  Mn  Mn44  1  0.62500000  0.37500000  0.37500000  1
  Mn  Mn45  1  0.87500000  0.37500000  0.12500000  1
  Mn  Mn46  1  0.87500000  0.12500000  0.37500000  1
  Mn  Mn47  1  0.82803867  0.32803867  0.32803867  1
  W  W48  1  0.50000000  0.19848000  0.50000000  1
  W  W49  1  0.50000000  0.80152000  0.50000000  1
  W  W50  1  0.25000000  0.05152000  0.25000000  1
  W  W51  1  0.44848000  0.25000000  0.25000000  1
  W  W52  1  0.05152000  0.25000000  0.25000000  1
  W  W53  1  0.25000000  0.44848000  0.25000000  1
  W  W54  1  0.50000000  0.00000000  0.30152000  1
  W  W55  1  0.25000000  0.25000000  0.05152000  1
  W  W56  1  0.00000000  0.00000000  0.19848000  1
  W  W57  1  0.30152000  0.00000000  0.50000000  1
  W  W58  1  0.25000000  0.25000000  0.44848000  1
  W  W59  1  0.69848000  0.00000000  0.50000000  1
  W  W60  1  0.50000000  0.69848000  0.00000000  1
  W  W61  1  0.50000000  0.30152000  0.00000000  1
  W  W62  1  0.25000000  0.55152000  0.75000000  1
  W  W63  1  0.44848000  0.75000000  0.75000000  1
  W  W64  1  0.05152000  0.75000000  0.75000000  1
  W  W65  1  0.25000000  0.94848000  0.75000000  1
  W  W66  1  0.50000000  0.50000000  0.80152000  1
  W  W67  1  0.25000000  0.75000000  0.55152000  1
  W  W68  1  0.00000000  0.50000000  0.69848000  1
  W  W69  1  0.30152000  0.50000000  0.00000000  1
  W  W70  1  0.25000000  0.75000000  0.94848000  1
  W  W71  1  0.69848000  0.50000000  0.00000000  1
  W  W72  1  0.00000000  0.19848000  0.00000000  1
  W  W73  1  0.00000000  0.80152000  0.00000000  1
  W  W74  1  0.75000000  0.05152000  0.75000000  1
  W  W75  1  0.94848000  0.25000000  0.75000000  1
  W  W76  1  0.55152000  0.25000000  0.75000000  1
  W  W77  1  0.75000000  0.44848000  0.75000000  1
  W  W78  1  0.00000000  0.00000000  0.80152000  1
  W  W79  1  0.75000000  0.25000000  0.55152000  1
  W  W80  1  0.50000000  0.00000000  0.69848000  1
  W  W81  1  0.80152000  0.00000000  0.00000000  1
  W  W82  1  0.75000000  0.25000000  0.94848000  1
  W  W83  1  0.19848000  0.00000000  0.00000000  1
  W  W84  1  0.00000000  0.69848000  0.50000000  1
  W  W85  1  0.00000000  0.30152000  0.50000000  1
  W  W86  1  0.75000000  0.55152000  0.25000000  1
  W  W87  1  0.94848000  0.75000000  0.25000000  1
  W  W88  1  0.55152000  0.75000000  0.25000000  1
  W  W89  1  0.75000000  0.94848000  0.25000000  1
  W  W90  1  0.00000000  0.50000000  0.30152000  1
  W  W91  1  0.75000000  0.75000000  0.05152000  1
  W  W92  1  0.50000000  0.50000000  0.19848000  1
  W  W93  1  0.80152000  0.50000000  0.50000000  1
  W  W94  1  0.75000000  0.75000000  0.44848000  1
  W  W95  1  0.19848000  0.50000000  0.50000000  1
  C  C96  1  0.12500000  0.12500000  0.12500000  1
  C  C97  1  0.87500000  0.87500000  0.12500000  1
  C  C98  1  0.62500000  0.87500000  0.37500000  1
  C  C99  1  0.37500000  0.12500000  0.37500000  1
  C  C100  1  0.12500000  0.62500000  0.62500000  1
  C  C101  1  0.87500000  0.37500000  0.62500000  1
  C  C102  1  0.62500000  0.37500000  0.87500000  1
  C  C103  1  0.37500000  0.62500000  0.87500000  1
  C  C104  1  0.62500000  0.12500000  0.62500000  1
  C  C105  1  0.37500000  0.87500000  0.62500000  1
  C  C106  1  0.12500000  0.87500000  0.87500000  1
  C  C107  1  0.87500000  0.12500000  0.87500000  1
  C  C108  1  0.62500000  0.62500000  0.12500000  1
  C  C109  1  0.37500000  0.37500000  0.12500000  1
  C  C110  1  0.12500000  0.37500000  0.37500000  1
  C  C111  1  0.87500000  0.62500000  0.37500000  1
