# generated using pymatgen
data_Sr2ScIrO6
_symmetry_space_group_name_H-M   'P 1'
_cell_length_a   9.85880000
_cell_length_b   5.68553000
_cell_length_c   5.74219221
_cell_angle_alpha   90.00000000
_cell_angle_beta   125.43007170
_cell_angle_gamma   90.00000000
_symmetry_Int_Tables_number   1
_chemical_formula_structural   Sr2ScIrO6
_chemical_formula_sum   'Sr4 Sc2 Ir2 O12'
_cell_volume   262.26259969
_cell_formula_units_Z   2
loop_
 _symmetry_equiv_pos_site_id
 _symmetry_equiv_pos_as_xyz
  1  'x, y, z'
loop_
 _atom_site_type_symbol
 _atom_site_label
 _atom_site_symmetry_multiplicity
 _atom_site_fract_x
 _atom_site_fract_y
 _atom_site_fract_z
 _atom_site_occupancy
  Sr  Sr0  1  0.25085300  0.00000000  0.25498900  1
  Sr  Sr1  1  0.74914700  0.00000000  0.74501100  1
  Sr  Sr2  1  0.75085300  0.50000000  0.25498900  1
  Sr  Sr3  1  0.24914700  0.50000000  0.74501100  1
  Sc  Sc4  1  0.00000000  0.50000000  0.00000000  1
  Sc  Sc5  1  0.50000000  0.00000000  0.00000000  1
  Ir  Ir6  1  0.50000000  0.50000000  0.50000000  1
  Ir  Ir7  1  0.00000000  0.00000000  0.50000000  1
  O  O8  1  0.74303100  0.50000000  0.80145100  1
  O  O9  1  0.25696900  0.50000000  0.19854900  1
  O  O10  1  0.46905200  0.74421600  0.71191200  1
  O  O11  1  0.53094800  0.74421600  0.28808800  1
  O  O12  1  0.53094800  0.25578400  0.28808800  1
  O  O13  1  0.46905200  0.25578400  0.71191200  1
  O  O14  1  0.24303100  0.00000000  0.80145100  1
  O  O15  1  0.75696900  0.00000000  0.19854900  1
  O  O16  1  0.96905200  0.24421600  0.71191200  1
  O  O17  1  0.03094800  0.24421600  0.28808800  1
  O  O18  1  0.03094800  0.75578400  0.28808800  1
  O  O19  1  0.96905200  0.75578400  0.71191200  1
