# generated using pymatgen
data_Tm2AlSi2
_symmetry_space_group_name_H-M   'P 1'
_cell_length_a   4.02192000
_cell_length_b   5.78421000
_cell_length_c   8.51462600
_cell_angle_alpha   90.00000000
_cell_angle_beta   90.00000000
_cell_angle_gamma   90.00000000
_symmetry_Int_Tables_number   1
_chemical_formula_structural   Tm2AlSi2
_chemical_formula_sum   'Tm4 Al2 Si4'
_cell_volume   198.08110786
_cell_formula_units_Z   2
loop_
 _symmetry_equiv_pos_site_id
 _symmetry_equiv_pos_as_xyz
  1  'x, y, z'
loop_
 _atom_site_type_symbol
 _atom_site_label
 _atom_site_symmetry_multiplicity
 _atom_site_fract_x
 _atom_site_fract_y
 _atom_site_fract_z
 _atom_site_occupancy
  Tm  Tm0  1  0.00000000  0.50000000  0.21117500  1
  Tm  Tm1  1  0.00000000  0.50000000  0.78882500  1
  Tm  Tm2  1  0.50000000  0.00000000  0.71117500  1
  Tm  Tm3  1  0.50000000  0.00000000  0.28882500  1
  Al  Al4  1  0.00000000  0.00000000  0.00000000  1
  Al  Al5  1  0.50000000  0.50000000  0.50000000  1
  Si  Si6  1  0.50000000  0.28904200  0.00000000  1
  Si  Si7  1  0.50000000  0.71095800  0.00000000  1
  Si  Si8  1  0.00000000  0.78904200  0.50000000  1
  Si  Si9  1  0.00000000  0.21095800  0.50000000  1
