# generated using pymatgen
data_EuAl3(BO3)4
_symmetry_space_group_name_H-M   'P 1'
_cell_length_a   9.38354436
_cell_length_b   9.38354436
_cell_length_c   7.39943186
_cell_angle_alpha   90.00000000
_cell_angle_beta   90.00000000
_cell_angle_gamma   120.00000000
_symmetry_Int_Tables_number   1
_chemical_formula_structural   EuAl3(BO3)4
_chemical_formula_sum   'Eu3 Al9 B12 O36'
_cell_volume   564.23864770
_cell_formula_units_Z   3
loop_
 _symmetry_equiv_pos_site_id
 _symmetry_equiv_pos_as_xyz
  1  'x, y, z'
loop_
 _atom_site_type_symbol
 _atom_site_label
 _atom_site_symmetry_multiplicity
 _atom_site_fract_x
 _atom_site_fract_y
 _atom_site_fract_z
 _atom_site_occupancy
  Eu  Eu0  1  0.00000000  0.00000000  0.00000000  1
  Eu  Eu1  1  0.66666667  0.33333333  0.33333333  1
  Eu  Eu2  1  0.33333333  0.66666667  0.66666667  1
  Al  Al3  1  0.11005067  0.33333333  0.33333333  1
  Al  Al4  1  0.22328267  0.88994933  0.33333333  1
  Al  Al5  1  0.66666667  0.77671733  0.33333333  1
  Al  Al6  1  0.77671733  0.66666667  0.66666667  1
  Al  Al7  1  0.88994933  0.22328267  0.66666667  1
  Al  Al8  1  0.33333333  0.11005067  0.66666667  1
  Al  Al9  1  0.44338400  0.00000000  0.00000000  1
  Al  Al10  1  0.55661600  0.55661600  0.00000000  1
  Al  Al11  1  0.00000000  0.44338400  0.00000000  1
  B  B12  1  0.00000000  0.00000000  0.50000000  1
  B  B13  1  0.55883500  0.00000000  0.50000000  1
  B  B14  1  0.44116500  0.44116500  0.50000000  1
  B  B15  1  0.00000000  0.55883500  0.50000000  1
  B  B16  1  0.66666667  0.33333333  0.83333333  1
  B  B17  1  0.22550167  0.33333333  0.83333333  1
  B  B18  1  0.10783167  0.77449833  0.83333333  1
  B  B19  1  0.66666667  0.89216833  0.83333333  1
  B  B20  1  0.33333333  0.66666667  0.16666667  1
  B  B21  1  0.89216833  0.66666667  0.16666667  1
  B  B22  1  0.77449833  0.10783167  0.16666667  1
  B  B23  1  0.33333333  0.22550167  0.16666667  1
  O  O24  1  0.14855700  0.00000000  0.50000000  1
  O  O25  1  0.85144300  0.85144300  0.50000000  1
  O  O26  1  0.00000000  0.14855700  0.50000000  1
  O  O27  1  0.40981300  0.00000000  0.50000000  1
  O  O28  1  0.59018700  0.59018700  0.50000000  1
  O  O29  1  0.00000000  0.40981300  0.50000000  1
  O  O30  1  0.55403967  0.85309533  0.47391033  1
  O  O31  1  0.29905567  0.44596033  0.47391033  1
  O  O32  1  0.14690467  0.70094433  0.47391033  1
  O  O33  1  0.70094433  0.14690467  0.52608967  1
  O  O34  1  0.85309533  0.55403967  0.52608967  1
  O  O35  1  0.44596033  0.29905567  0.52608967  1
  O  O36  1  0.81522367  0.33333333  0.83333333  1
  O  O37  1  0.51810967  0.18477633  0.83333333  1
  O  O38  1  0.66666667  0.48189033  0.83333333  1
  O  O39  1  0.07647967  0.33333333  0.83333333  1
  O  O40  1  0.25685367  0.92352033  0.83333333  1
  O  O41  1  0.66666667  0.74314633  0.83333333  1
  O  O42  1  0.22070633  0.18642867  0.80724367  1
  O  O43  1  0.96572233  0.77929367  0.80724367  1
  O  O44  1  0.81357133  0.03427767  0.80724367  1
  O  O45  1  0.36761100  0.48023800  0.85942300  1
  O  O46  1  0.51976200  0.88737300  0.85942300  1
  O  O47  1  0.11262700  0.63238900  0.85942300  1
  O  O48  1  0.48189033  0.66666667  0.16666667  1
  O  O49  1  0.18477633  0.51810967  0.16666667  1
  O  O50  1  0.33333333  0.81522367  0.16666667  1
  O  O51  1  0.74314633  0.66666667  0.16666667  1
  O  O52  1  0.92352033  0.25685367  0.16666667  1
  O  O53  1  0.33333333  0.07647967  0.16666667  1
  O  O54  1  0.88737300  0.51976200  0.14057700  1
  O  O55  1  0.63238900  0.11262700  0.14057700  1
  O  O56  1  0.48023800  0.36761100  0.14057700  1
  O  O57  1  0.03427767  0.81357133  0.19275633  1
  O  O58  1  0.18642867  0.22070633  0.19275633  1
  O  O59  1  0.77929367  0.96572233  0.19275633  1
