# generated using pymatgen
data_Sm2AlGe6
_symmetry_space_group_name_H-M   'P 1'
_cell_length_a   8.36913400
_cell_length_b   8.69013600
_cell_length_c   10.61940486
_cell_angle_alpha   90.00000000
_cell_angle_beta   101.86200246
_cell_angle_gamma   90.00000000
_symmetry_Int_Tables_number   1
_chemical_formula_structural   Sm2AlGe6
_chemical_formula_sum   'Sm8 Al4 Ge24'
_cell_volume   755.84489779
_cell_formula_units_Z   4
loop_
 _symmetry_equiv_pos_site_id
 _symmetry_equiv_pos_as_xyz
  1  'x, y, z'
loop_
 _atom_site_type_symbol
 _atom_site_label
 _atom_site_symmetry_multiplicity
 _atom_site_fract_x
 _atom_site_fract_y
 _atom_site_fract_z
 _atom_site_occupancy
  Sm  Sm0  1  0.41252500  0.74726200  0.66117400  1
  Sm  Sm1  1  0.58747500  0.74726200  0.33882600  1
  Sm  Sm2  1  0.58747500  0.25273800  0.33882600  1
  Sm  Sm3  1  0.41252500  0.25273800  0.66117400  1
  Sm  Sm4  1  0.91252500  0.24726200  0.66117400  1
  Sm  Sm5  1  0.08747500  0.24726200  0.33882600  1
  Sm  Sm6  1  0.08747500  0.75273800  0.33882600  1
  Sm  Sm7  1  0.91252500  0.75273800  0.66117400  1
  Al  Al8  1  0.19871600  0.00000000  0.80103600  1
  Al  Al9  1  0.80128400  0.00000000  0.19896400  1
  Al  Al10  1  0.69871600  0.50000000  0.80103600  1
  Al  Al11  1  0.30128400  0.50000000  0.19896400  1
  Ge  Ge12  1  0.71914150  0.21436750  0.88326600  1
  Ge  Ge13  1  0.28085850  0.21436750  0.11673400  1
  Ge  Ge14  1  0.28085850  0.78563250  0.11673400  1
  Ge  Ge15  1  0.71914150  0.78563250  0.88326600  1
  Ge  Ge16  1  0.63614000  0.00000000  0.58825300  1
  Ge  Ge17  1  0.36386000  0.00000000  0.41174700  1
  Ge  Ge18  1  0.85194500  0.00000000  0.44033100  1
  Ge  Ge19  1  0.14805500  0.00000000  0.55966900  1
  Ge  Ge20  1  0.50914500  0.00000000  0.88301900  1
  Ge  Ge21  1  0.49085500  0.00000000  0.11698100  1
  Ge  Ge22  1  0.93009600  0.00000000  0.88333700  1
  Ge  Ge23  1  0.06990400  0.00000000  0.11666300  1
  Ge  Ge24  1  0.21914150  0.71436750  0.88326600  1
  Ge  Ge25  1  0.78085850  0.71436750  0.11673400  1
  Ge  Ge26  1  0.78085850  0.28563250  0.11673400  1
  Ge  Ge27  1  0.21914150  0.28563250  0.88326600  1
  Ge  Ge28  1  0.13614000  0.50000000  0.58825300  1
  Ge  Ge29  1  0.86386000  0.50000000  0.41174700  1
  Ge  Ge30  1  0.35194500  0.50000000  0.44033100  1
  Ge  Ge31  1  0.64805500  0.50000000  0.55966900  1
  Ge  Ge32  1  0.00914500  0.50000000  0.88301900  1
  Ge  Ge33  1  0.99085500  0.50000000  0.11698100  1
  Ge  Ge34  1  0.43009600  0.50000000  0.88333700  1
  Ge  Ge35  1  0.56990400  0.50000000  0.11666300  1
