# generated using pymatgen
data_Y(Al5Fe)2
_symmetry_space_group_name_H-M   'P 1'
_cell_length_a   8.93883400
_cell_length_b   10.13947200
_cell_length_c   8.97543500
_cell_angle_alpha   90.00000000
_cell_angle_beta   90.00000000
_cell_angle_gamma   90.00000000
_symmetry_Int_Tables_number   1
_chemical_formula_structural   Y(Al5Fe)2
_chemical_formula_sum   'Y4 Al40 Fe8'
_cell_volume   813.48906332
_cell_formula_units_Z   4
loop_
 _symmetry_equiv_pos_site_id
 _symmetry_equiv_pos_as_xyz
  1  'x, y, z'
loop_
 _atom_site_type_symbol
 _atom_site_label
 _atom_site_symmetry_multiplicity
 _atom_site_fract_x
 _atom_site_fract_y
 _atom_site_fract_z
 _atom_site_occupancy
  Y  Y0  1  0.50000000  0.37415900  0.25000000  1
  Y  Y1  1  0.50000000  0.62584100  0.75000000  1
  Y  Y2  1  0.00000000  0.87415900  0.25000000  1
  Y  Y3  1  0.00000000  0.12584100  0.75000000  1
  Al  Al4  1  0.72552900  0.14011700  0.25000000  1
  Al  Al5  1  0.27447100  0.85988300  0.75000000  1
  Al  Al6  1  0.72552900  0.85988300  0.75000000  1
  Al  Al7  1  0.27447100  0.14011700  0.25000000  1
  Al  Al8  1  0.34901150  0.87082950  0.25000000  1
  Al  Al9  1  0.65098850  0.12917050  0.75000000  1
  Al  Al10  1  0.34901150  0.12917050  0.75000000  1
  Al  Al11  1  0.65098850  0.87082950  0.25000000  1
  Al  Al12  1  0.50000000  0.34162700  0.90282800  1
  Al  Al13  1  0.50000000  0.65837300  0.40282800  1
  Al  Al14  1  0.50000000  0.65837300  0.09717200  1
  Al  Al15  1  0.50000000  0.34162700  0.59717200  1
  Al  Al16  1  0.50000000  0.12522000  0.45108800  1
  Al  Al17  1  0.50000000  0.87478000  0.95108800  1
  Al  Al18  1  0.50000000  0.87478000  0.54891200  1
  Al  Al19  1  0.50000000  0.12522000  0.04891200  1
  Al  Al20  1  0.22736600  0.00000000  0.50000000  1
  Al  Al21  1  0.77263400  0.00000000  0.00000000  1
  Al  Al22  1  0.77263400  0.00000000  0.50000000  1
  Al  Al23  1  0.22736600  0.00000000  0.00000000  1
  Al  Al24  1  0.22552900  0.64011700  0.25000000  1
  Al  Al25  1  0.77447100  0.35988300  0.75000000  1
  Al  Al26  1  0.22552900  0.35988300  0.75000000  1
  Al  Al27  1  0.77447100  0.64011700  0.25000000  1
  Al  Al28  1  0.84901150  0.37082950  0.25000000  1
  Al  Al29  1  0.15098850  0.62917050  0.75000000  1
  Al  Al30  1  0.84901150  0.62917050  0.75000000  1
  Al  Al31  1  0.15098850  0.37082950  0.25000000  1
  Al  Al32  1  0.00000000  0.84162700  0.90282800  1
  Al  Al33  1  0.00000000  0.15837300  0.40282800  1
  Al  Al34  1  0.00000000  0.15837300  0.09717200  1
  Al  Al35  1  0.00000000  0.84162700  0.59717200  1
  Al  Al36  1  0.00000000  0.62522000  0.45108800  1
  Al  Al37  1  0.00000000  0.37478000  0.95108800  1
  Al  Al38  1  0.00000000  0.37478000  0.54891200  1
  Al  Al39  1  0.00000000  0.62522000  0.04891200  1
  Al  Al40  1  0.72736600  0.50000000  0.50000000  1
  Al  Al41  1  0.27263400  0.50000000  0.00000000  1
  Al  Al42  1  0.27263400  0.50000000  0.50000000  1
  Al  Al43  1  0.72736600  0.50000000  0.00000000  1
  Fe  Fe44  1  0.25000000  0.75000000  0.50000000  1
  Fe  Fe45  1  0.25000000  0.75000000  0.00000000  1
  Fe  Fe46  1  0.25000000  0.25000000  0.50000000  1
  Fe  Fe47  1  0.25000000  0.25000000  0.00000000  1
  Fe  Fe48  1  0.75000000  0.25000000  0.50000000  1
  Fe  Fe49  1  0.75000000  0.25000000  0.00000000  1
  Fe  Fe50  1  0.75000000  0.75000000  0.50000000  1
  Fe  Fe51  1  0.75000000  0.75000000  0.00000000  1
