# generated using pymatgen
data_Si(CO)2
_symmetry_space_group_name_H-M   'P 1'
_cell_length_a   2.90401200
_cell_length_b   7.03227600
_cell_length_c   12.78477000
_cell_angle_alpha   90.00000000
_cell_angle_beta   90.00000000
_cell_angle_gamma   90.00000000
_symmetry_Int_Tables_number   1
_chemical_formula_structural   Si(CO)2
_chemical_formula_sum   'Si4 C8 O8'
_cell_volume   261.08819358
_cell_formula_units_Z   4
loop_
 _symmetry_equiv_pos_site_id
 _symmetry_equiv_pos_as_xyz
  1  'x, y, z'
loop_
 _atom_site_type_symbol
 _atom_site_label
 _atom_site_symmetry_multiplicity
 _atom_site_fract_x
 _atom_site_fract_y
 _atom_site_fract_z
 _atom_site_occupancy
  Si  Si0  1  0.50000000  0.00000000  0.62293000  1
  Si  Si1  1  0.00000000  0.50000000  0.87707000  1
  Si  Si2  1  0.00000000  0.50000000  0.12293000  1
  Si  Si3  1  0.50000000  0.00000000  0.37707000  1
  C  C4  1  0.00000000  0.00000000  0.91686300  1
  C  C5  1  0.00000000  0.14334100  0.00000000  1
  C  C6  1  0.50000000  0.50000000  0.58313700  1
  C  C7  1  0.00000000  0.85665900  0.00000000  1
  C  C8  1  0.50000000  0.50000000  0.41686300  1
  C  C9  1  0.50000000  0.64334100  0.50000000  1
  C  C10  1  0.00000000  0.00000000  0.08313700  1
  C  C11  1  0.50000000  0.35665900  0.50000000  1
  O  O12  1  0.00000000  0.66517400  0.00000000  1
  O  O13  1  0.50000000  0.50000000  0.68024300  1
  O  O14  1  0.00000000  0.00000000  0.81975700  1
  O  O15  1  0.00000000  0.33482600  0.00000000  1
  O  O16  1  0.50000000  0.16517400  0.50000000  1
  O  O17  1  0.00000000  0.00000000  0.18024300  1
  O  O18  1  0.50000000  0.50000000  0.31975700  1
  O  O19  1  0.50000000  0.83482600  0.50000000  1
