# generated using pymatgen
data_Er(BRh)4
_symmetry_space_group_name_H-M   'P 1'
_cell_length_a   7.54246200
_cell_length_b   7.54246200
_cell_length_c   14.90365400
_cell_angle_alpha   90.00000000
_cell_angle_beta   90.00000000
_cell_angle_gamma   90.00000000
_symmetry_Int_Tables_number   1
_chemical_formula_structural   Er(BRh)4
_chemical_formula_sum   'Er8 B32 Rh32'
_cell_volume   847.84999345
_cell_formula_units_Z   8
loop_
 _symmetry_equiv_pos_site_id
 _symmetry_equiv_pos_as_xyz
  1  'x, y, z'
loop_
 _atom_site_type_symbol
 _atom_site_label
 _atom_site_symmetry_multiplicity
 _atom_site_fract_x
 _atom_site_fract_y
 _atom_site_fract_z
 _atom_site_occupancy
  Er  Er0  1  0.00000000  0.00000000  0.25000000  1
  Er  Er1  1  0.50000000  0.00000000  0.00000000  1
  Er  Er2  1  0.00000000  0.50000000  0.00000000  1
  Er  Er3  1  0.50000000  0.50000000  0.25000000  1
  Er  Er4  1  0.50000000  0.50000000  0.75000000  1
  Er  Er5  1  0.00000000  0.50000000  0.50000000  1
  Er  Er6  1  0.50000000  0.00000000  0.50000000  1
  Er  Er7  1  0.00000000  0.00000000  0.75000000  1
  B  B8  1  0.32957800  0.86193700  0.16786000  1
  B  B9  1  0.86193700  0.32957800  0.33214000  1
  B  B10  1  0.13806300  0.67042200  0.33214000  1
  B  B11  1  0.82957800  0.13806300  0.08214000  1
  B  B12  1  0.86193700  0.17042200  0.41786000  1
  B  B13  1  0.67042200  0.13806300  0.16786000  1
  B  B14  1  0.67042200  0.63806300  0.08214000  1
  B  B15  1  0.63806300  0.67042200  0.41786000  1
  B  B16  1  0.36193700  0.32957800  0.41786000  1
  B  B17  1  0.17042200  0.36193700  0.16786000  1
  B  B18  1  0.82957800  0.63806300  0.16786000  1
  B  B19  1  0.36193700  0.17042200  0.33214000  1
  B  B20  1  0.63806300  0.82957800  0.33214000  1
  B  B21  1  0.32957800  0.36193700  0.08214000  1
  B  B22  1  0.17042200  0.86193700  0.08214000  1
  B  B23  1  0.13806300  0.82957800  0.41786000  1
  B  B24  1  0.82957800  0.36193700  0.66786000  1
  B  B25  1  0.36193700  0.82957800  0.83214000  1
  B  B26  1  0.63806300  0.17042200  0.83214000  1
  B  B27  1  0.32957800  0.63806300  0.58214000  1
  B  B28  1  0.36193700  0.67042200  0.91786000  1
  B  B29  1  0.17042200  0.63806300  0.66786000  1
  B  B30  1  0.17042200  0.13806300  0.58214000  1
  B  B31  1  0.13806300  0.17042200  0.91786000  1
  B  B32  1  0.86193700  0.82957800  0.91786000  1
  B  B33  1  0.67042200  0.86193700  0.66786000  1
  B  B34  1  0.32957800  0.13806300  0.66786000  1
  B  B35  1  0.86193700  0.67042200  0.83214000  1
  B  B36  1  0.13806300  0.32957800  0.83214000  1
  B  B37  1  0.82957800  0.86193700  0.58214000  1
  B  B38  1  0.67042200  0.36193700  0.58214000  1
  B  B39  1  0.63806300  0.32957800  0.91786000  1
  Rh  Rh40  1  0.11589750  0.15352750  0.06353250  1
  Rh  Rh41  1  0.15352750  0.38410250  0.31353250  1
  Rh  Rh42  1  0.84647250  0.61589750  0.31353250  1
  Rh  Rh43  1  0.61589750  0.84647250  0.18646750  1
  Rh  Rh44  1  0.84647250  0.88410250  0.43646750  1
  Rh  Rh45  1  0.38410250  0.15352750  0.18646750  1
  Rh  Rh46  1  0.38410250  0.65352750  0.06353250  1
  Rh  Rh47  1  0.65352750  0.38410250  0.43646750  1
  Rh  Rh48  1  0.34647250  0.61589750  0.43646750  1
  Rh  Rh49  1  0.88410250  0.34647250  0.18646750  1
  Rh  Rh50  1  0.11589750  0.65352750  0.18646750  1
  Rh  Rh51  1  0.34647250  0.88410250  0.31353250  1
  Rh  Rh52  1  0.65352750  0.11589750  0.31353250  1
  Rh  Rh53  1  0.61589750  0.34647250  0.06353250  1
  Rh  Rh54  1  0.88410250  0.84647250  0.06353250  1
  Rh  Rh55  1  0.15352750  0.11589750  0.43646750  1
  Rh  Rh56  1  0.61589750  0.65352750  0.56353250  1
  Rh  Rh57  1  0.65352750  0.88410250  0.81353250  1
  Rh  Rh58  1  0.34647250  0.11589750  0.81353250  1
  Rh  Rh59  1  0.11589750  0.34647250  0.68646750  1
  Rh  Rh60  1  0.34647250  0.38410250  0.93646750  1
  Rh  Rh61  1  0.88410250  0.65352750  0.68646750  1
  Rh  Rh62  1  0.88410250  0.15352750  0.56353250  1
  Rh  Rh63  1  0.15352750  0.88410250  0.93646750  1
  Rh  Rh64  1  0.84647250  0.11589750  0.93646750  1
  Rh  Rh65  1  0.38410250  0.84647250  0.68646750  1
  Rh  Rh66  1  0.61589750  0.15352750  0.68646750  1
  Rh  Rh67  1  0.84647250  0.38410250  0.81353250  1
  Rh  Rh68  1  0.15352750  0.61589750  0.81353250  1
  Rh  Rh69  1  0.11589750  0.84647250  0.56353250  1
  Rh  Rh70  1  0.38410250  0.34647250  0.56353250  1
  Rh  Rh71  1  0.65352750  0.61589750  0.93646750  1
