# generated using pymatgen
data_Li3Ni2(GeO4)3
_symmetry_space_group_name_H-M   'P 1'
_cell_length_a   11.85126400
_cell_length_b   11.85126400
_cell_length_c   11.85126400
_cell_angle_alpha   90.00000000
_cell_angle_beta   90.00000000
_cell_angle_gamma   90.00000000
_symmetry_Int_Tables_number   1
_chemical_formula_structural   Li3Ni2(GeO4)3
_chemical_formula_sum   'Li24 Ni16 Ge24 O96'
_cell_volume   1664.53916392
_cell_formula_units_Z   8
loop_
 _symmetry_equiv_pos_site_id
 _symmetry_equiv_pos_as_xyz
  1  'x, y, z'
loop_
 _atom_site_type_symbol
 _atom_site_label
 _atom_site_symmetry_multiplicity
 _atom_site_fract_x
 _atom_site_fract_y
 _atom_site_fract_z
 _atom_site_occupancy
  Li  Li0  1  0.37500000  0.50000000  0.25000000  1
  Li  Li1  1  0.62500000  0.00000000  0.25000000  1
  Li  Li2  1  0.25000000  0.62500000  0.00000000  1
  Li  Li3  1  0.25000000  0.37500000  0.50000000  1
  Li  Li4  1  0.00000000  0.25000000  0.62500000  1
  Li  Li5  1  0.50000000  0.25000000  0.37500000  1
  Li  Li6  1  0.12500000  0.00000000  0.25000000  1
  Li  Li7  1  0.87500000  0.50000000  0.25000000  1
  Li  Li8  1  0.25000000  0.87500000  0.50000000  1
  Li  Li9  1  0.25000000  0.12500000  0.00000000  1
  Li  Li10  1  0.50000000  0.25000000  0.87500000  1
  Li  Li11  1  0.00000000  0.25000000  0.12500000  1
  Li  Li12  1  0.87500000  0.00000000  0.75000000  1
  Li  Li13  1  0.12500000  0.50000000  0.75000000  1
  Li  Li14  1  0.75000000  0.12500000  0.50000000  1
  Li  Li15  1  0.75000000  0.87500000  0.00000000  1
  Li  Li16  1  0.50000000  0.75000000  0.12500000  1
  Li  Li17  1  0.00000000  0.75000000  0.87500000  1
  Li  Li18  1  0.62500000  0.50000000  0.75000000  1
  Li  Li19  1  0.37500000  0.00000000  0.75000000  1
  Li  Li20  1  0.75000000  0.37500000  0.00000000  1
  Li  Li21  1  0.75000000  0.62500000  0.50000000  1
  Li  Li22  1  0.00000000  0.75000000  0.37500000  1
  Li  Li23  1  0.50000000  0.75000000  0.62500000  1
  Ni  Ni24  1  0.00000000  0.50000000  0.00000000  1
  Ni  Ni25  1  0.25000000  0.75000000  0.25000000  1
  Ni  Ni26  1  0.25000000  0.25000000  0.25000000  1
  Ni  Ni27  1  0.25000000  0.25000000  0.75000000  1
  Ni  Ni28  1  0.00000000  0.00000000  0.00000000  1
  Ni  Ni29  1  0.50000000  0.00000000  0.00000000  1
  Ni  Ni30  1  0.00000000  0.00000000  0.50000000  1
  Ni  Ni31  1  0.75000000  0.25000000  0.25000000  1
  Ni  Ni32  1  0.50000000  0.00000000  0.50000000  1
  Ni  Ni33  1  0.75000000  0.25000000  0.75000000  1
  Ni  Ni34  1  0.75000000  0.75000000  0.75000000  1
  Ni  Ni35  1  0.75000000  0.75000000  0.25000000  1
  Ni  Ni36  1  0.50000000  0.50000000  0.50000000  1
  Ni  Ni37  1  0.00000000  0.50000000  0.50000000  1
  Ni  Ni38  1  0.50000000  0.50000000  0.00000000  1
  Ni  Ni39  1  0.25000000  0.75000000  0.75000000  1
  Ge  Ge40  1  0.50000000  0.25000000  0.12500000  1
  Ge  Ge41  1  0.00000000  0.25000000  0.37500000  1
  Ge  Ge42  1  0.25000000  0.12500000  0.50000000  1
  Ge  Ge43  1  0.37500000  0.50000000  0.75000000  1
  Ge  Ge44  1  0.75000000  0.37500000  0.50000000  1
  Ge  Ge45  1  0.12500000  0.50000000  0.25000000  1
  Ge  Ge46  1  0.37500000  0.00000000  0.25000000  1
  Ge  Ge47  1  0.12500000  0.00000000  0.75000000  1
  Ge  Ge48  1  0.75000000  0.12500000  0.00000000  1
  Ge  Ge49  1  0.25000000  0.37500000  0.00000000  1
  Ge  Ge50  1  0.00000000  0.75000000  0.12500000  1
  Ge  Ge51  1  0.50000000  0.75000000  0.37500000  1
  Ge  Ge52  1  0.00000000  0.75000000  0.62500000  1
  Ge  Ge53  1  0.50000000  0.75000000  0.87500000  1
  Ge  Ge54  1  0.75000000  0.62500000  0.00000000  1
  Ge  Ge55  1  0.87500000  0.00000000  0.25000000  1
  Ge  Ge56  1  0.25000000  0.87500000  0.00000000  1
  Ge  Ge57  1  0.62500000  0.00000000  0.75000000  1
  Ge  Ge58  1  0.87500000  0.50000000  0.75000000  1
  Ge  Ge59  1  0.62500000  0.50000000  0.25000000  1
  Ge  Ge60  1  0.25000000  0.62500000  0.50000000  1
  Ge  Ge61  1  0.75000000  0.87500000  0.50000000  1
  Ge  Ge62  1  0.50000000  0.25000000  0.62500000  1
  Ge  Ge63  1  0.00000000  0.25000000  0.87500000  1
  O  O64  1  0.35247150  0.47174550  0.05123750  1
  O  O65  1  0.05123750  0.35247150  0.47174550  1
  O  O66  1  0.52825450  0.44876250  0.35247150  1
  O  O67  1  0.14752850  0.47174550  0.94876250  1
  O  O68  1  0.80123750  0.27825450  0.60247150  1
  O  O69  1  0.05123750  0.64752850  0.02825450  1
  O  O70  1  0.19876250  0.22174550  0.60247150  1
  O  O71  1  0.47174550  0.05123750  0.35247150  1
  O  O72  1  0.30123750  0.22174550  0.39752850  1
  O  O73  1  0.60247150  0.19876250  0.22174550  1
  O  O74  1  0.27825450  0.60247150  0.80123750  1
  O  O75  1  0.77825450  0.89752850  0.19876250  1
  O  O76  1  0.89752850  0.19876250  0.77825450  1
  O  O77  1  0.22174550  0.60247150  0.19876250  1
  O  O78  1  0.39752850  0.30123750  0.22174550  1
  O  O79  1  0.22174550  0.39752850  0.30123750  1
  O  O80  1  0.60247150  0.80123750  0.27825450  1
  O  O81  1  0.35247150  0.52825450  0.44876250  1
  O  O82  1  0.64752850  0.02825450  0.05123750  1
  O  O83  1  0.19876250  0.27825450  0.10247150  1
  O  O84  1  0.94876250  0.14752850  0.47174550  1
  O  O85  1  0.47174550  0.94876250  0.14752850  1
  O  O86  1  0.02825450  0.05123750  0.64752850  1
  O  O87  1  0.19876250  0.77825450  0.89752850  1
  O  O88  1  0.14752850  0.02825450  0.44876250  1
  O  O89  1  0.44876250  0.14752850  0.02825450  1
  O  O90  1  0.97174550  0.05123750  0.14752850  1
  O  O91  1  0.35247150  0.02825450  0.55123750  1
  O  O92  1  0.69876250  0.22174550  0.89752850  1
  O  O93  1  0.44876250  0.85247150  0.47174550  1
  O  O94  1  0.30123750  0.27825450  0.89752850  1
  O  O95  1  0.02825450  0.44876250  0.14752850  1
  O  O96  1  0.30123750  0.72174550  0.60247150  1
  O  O97  1  0.47174550  0.44876250  0.85247150  1
  O  O98  1  0.02825450  0.55123750  0.35247150  1
  O  O99  1  0.05123750  0.14752850  0.97174550  1
  O  O100  1  0.55123750  0.35247150  0.02825450  1
  O  O101  1  0.85247150  0.47174550  0.44876250  1
  O  O102  1  0.14752850  0.97174550  0.05123750  1
  O  O103  1  0.89752850  0.69876250  0.22174550  1
  O  O104  1  0.27825450  0.10247150  0.19876250  1
  O  O105  1  0.10247150  0.19876250  0.27825450  1
  O  O106  1  0.27825450  0.89752850  0.30123750  1
  O  O107  1  0.60247150  0.30123750  0.72174550  1
  O  O108  1  0.72174550  0.60247150  0.30123750  1
  O  O109  1  0.22174550  0.89752850  0.69876250  1
  O  O110  1  0.89752850  0.30123750  0.27825450  1
  O  O111  1  0.44876250  0.35247150  0.52825450  1
  O  O112  1  0.85247150  0.97174550  0.55123750  1
  O  O113  1  0.55123750  0.85247150  0.97174550  1
  O  O114  1  0.02825450  0.94876250  0.85247150  1
  O  O115  1  0.64752850  0.97174550  0.44876250  1
  O  O116  1  0.30123750  0.77825450  0.10247150  1
  O  O117  1  0.55123750  0.14752850  0.52825450  1
  O  O118  1  0.69876250  0.72174550  0.10247150  1
  O  O119  1  0.97174550  0.55123750  0.85247150  1
  O  O120  1  0.80123750  0.72174550  0.89752850  1
  O  O121  1  0.10247150  0.69876250  0.72174550  1
  O  O122  1  0.77825450  0.10247150  0.30123750  1
  O  O123  1  0.27825450  0.39752850  0.69876250  1
  O  O124  1  0.39752850  0.69876250  0.27825450  1
  O  O125  1  0.72174550  0.10247150  0.69876250  1
  O  O126  1  0.89752850  0.80123750  0.72174550  1
  O  O127  1  0.72174550  0.89752850  0.80123750  1
  O  O128  1  0.10247150  0.30123750  0.77825450  1
  O  O129  1  0.85247150  0.02825450  0.94876250  1
  O  O130  1  0.14752850  0.52825450  0.55123750  1
  O  O131  1  0.69876250  0.77825450  0.60247150  1
  O  O132  1  0.44876250  0.64752850  0.97174550  1
  O  O133  1  0.97174550  0.44876250  0.64752850  1
  O  O134  1  0.52825450  0.55123750  0.14752850  1
  O  O135  1  0.69876250  0.27825450  0.39752850  1
  O  O136  1  0.64752850  0.52825450  0.94876250  1
  O  O137  1  0.94876250  0.64752850  0.52825450  1
  O  O138  1  0.47174550  0.55123750  0.64752850  1
  O  O139  1  0.85247150  0.52825450  0.05123750  1
  O  O140  1  0.19876250  0.72174550  0.39752850  1
  O  O141  1  0.94876250  0.35247150  0.97174550  1
  O  O142  1  0.80123750  0.77825450  0.39752850  1
  O  O143  1  0.52825450  0.94876250  0.64752850  1
  O  O144  1  0.80123750  0.22174550  0.10247150  1
  O  O145  1  0.97174550  0.94876250  0.35247150  1
  O  O146  1  0.52825450  0.05123750  0.85247150  1
  O  O147  1  0.55123750  0.64752850  0.47174550  1
  O  O148  1  0.05123750  0.85247150  0.52825450  1
  O  O149  1  0.35247150  0.97174550  0.94876250  1
  O  O150  1  0.64752850  0.47174550  0.55123750  1
  O  O151  1  0.39752850  0.19876250  0.72174550  1
  O  O152  1  0.77825450  0.60247150  0.69876250  1
  O  O153  1  0.60247150  0.69876250  0.77825450  1
  O  O154  1  0.77825450  0.39752850  0.80123750  1
  O  O155  1  0.10247150  0.80123750  0.22174550  1
  O  O156  1  0.22174550  0.10247150  0.80123750  1
  O  O157  1  0.72174550  0.39752850  0.19876250  1
  O  O158  1  0.39752850  0.80123750  0.77825450  1
  O  O159  1  0.94876250  0.85247150  0.02825450  1
