# generated using pymatgen
data_La3(NbN3)2
_symmetry_space_group_name_H-M   'P 1'
_cell_length_a   4.10502200
_cell_length_b   4.10502200
_cell_length_c   20.14878400
_cell_angle_alpha   90.00000000
_cell_angle_beta   90.00000000
_cell_angle_gamma   90.00000000
_symmetry_Int_Tables_number   1
_chemical_formula_structural   La3(NbN3)2
_chemical_formula_sum   'La6 Nb4 N12'
_cell_volume   339.53130219
_cell_formula_units_Z   2
loop_
 _symmetry_equiv_pos_site_id
 _symmetry_equiv_pos_as_xyz
  1  'x, y, z'
loop_
 _atom_site_type_symbol
 _atom_site_label
 _atom_site_symmetry_multiplicity
 _atom_site_fract_x
 _atom_site_fract_y
 _atom_site_fract_z
 _atom_site_occupancy
  La  La0  1  0.00000000  0.00000000  0.00000000  1
  La  La1  1  0.50000000  0.50000000  0.32010000  1
  La  La2  1  0.00000000  0.00000000  0.17990000  1
  La  La3  1  0.50000000  0.50000000  0.50000000  1
  La  La4  1  0.00000000  0.00000000  0.82010000  1
  La  La5  1  0.50000000  0.50000000  0.67990000  1
  Nb  Nb6  1  0.00000000  0.00000000  0.39861500  1
  Nb  Nb7  1  0.50000000  0.50000000  0.10138500  1
  Nb  Nb8  1  0.50000000  0.50000000  0.89861500  1
  Nb  Nb9  1  0.00000000  0.00000000  0.60138500  1
  N  N10  1  0.50000000  0.00000000  0.08446900  1
  N  N11  1  0.00000000  0.50000000  0.08446900  1
  N  N12  1  0.00000000  0.50000000  0.41553100  1
  N  N13  1  0.50000000  0.00000000  0.41553100  1
  N  N14  1  0.50000000  0.50000000  0.19879900  1
  N  N15  1  0.00000000  0.00000000  0.30120100  1
  N  N16  1  0.00000000  0.50000000  0.58446900  1
  N  N17  1  0.50000000  0.00000000  0.58446900  1
  N  N18  1  0.50000000  0.00000000  0.91553100  1
  N  N19  1  0.00000000  0.50000000  0.91553100  1
  N  N20  1  0.00000000  0.00000000  0.69879900  1
  N  N21  1  0.50000000  0.50000000  0.80120100  1
