# generated using pymatgen
data_La2Ge5Rh3
_symmetry_space_group_name_H-M   'P 1'
_cell_length_a   6.11115600
_cell_length_b   10.26618000
_cell_length_c   12.27017000
_cell_angle_alpha   90.00000000
_cell_angle_beta   90.00000000
_cell_angle_gamma   90.00000000
_symmetry_Int_Tables_number   1
_chemical_formula_structural   La2Ge5Rh3
_chemical_formula_sum   'La8 Ge20 Rh12'
_cell_volume   769.80871697
_cell_formula_units_Z   4
loop_
 _symmetry_equiv_pos_site_id
 _symmetry_equiv_pos_as_xyz
  1  'x, y, z'
loop_
 _atom_site_type_symbol
 _atom_site_label
 _atom_site_symmetry_multiplicity
 _atom_site_fract_x
 _atom_site_fract_y
 _atom_site_fract_z
 _atom_site_occupancy
  La  La0  1  0.00000000  0.76798300  0.86738600  1
  La  La1  1  0.00000000  0.23201700  0.13261400  1
  La  La2  1  0.50000000  0.76798300  0.13261400  1
  La  La3  1  0.50000000  0.23201700  0.86738600  1
  La  La4  1  0.50000000  0.26798300  0.36738600  1
  La  La5  1  0.50000000  0.73201700  0.63261400  1
  La  La6  1  0.00000000  0.26798300  0.63261400  1
  La  La7  1  0.00000000  0.73201700  0.36738600  1
  Ge  Ge8  1  0.25000000  0.00000000  0.00000000  1
  Ge  Ge9  1  0.75000000  0.00000000  0.00000000  1
  Ge  Ge10  1  0.75000000  0.50000000  0.77508900  1
  Ge  Ge11  1  0.75000000  0.50000000  0.22491100  1
  Ge  Ge12  1  0.25000000  0.50000000  0.22491100  1
  Ge  Ge13  1  0.25000000  0.50000000  0.77508900  1
  Ge  Ge14  1  0.50000000  0.34272000  0.10040000  1
  Ge  Ge15  1  0.00000000  0.65728000  0.10040000  1
  Ge  Ge16  1  0.00000000  0.34272000  0.89960000  1
  Ge  Ge17  1  0.50000000  0.65728000  0.89960000  1
  Ge  Ge18  1  0.75000000  0.50000000  0.50000000  1
  Ge  Ge19  1  0.25000000  0.50000000  0.50000000  1
  Ge  Ge20  1  0.25000000  0.00000000  0.27508900  1
  Ge  Ge21  1  0.25000000  0.00000000  0.72491100  1
  Ge  Ge22  1  0.75000000  0.00000000  0.72491100  1
  Ge  Ge23  1  0.75000000  0.00000000  0.27508900  1
  Ge  Ge24  1  0.00000000  0.84272000  0.60040000  1
  Ge  Ge25  1  0.50000000  0.15728000  0.60040000  1
  Ge  Ge26  1  0.50000000  0.84272000  0.39960000  1
  Ge  Ge27  1  0.00000000  0.15728000  0.39960000  1
  Rh  Rh28  1  0.50000000  0.39179500  0.63987300  1
  Rh  Rh29  1  0.75000000  0.50000000  0.00000000  1
  Rh  Rh30  1  0.00000000  0.60820500  0.63987300  1
  Rh  Rh31  1  0.00000000  0.39179500  0.36012700  1
  Rh  Rh32  1  0.50000000  0.60820500  0.36012700  1
  Rh  Rh33  1  0.25000000  0.50000000  0.00000000  1
  Rh  Rh34  1  0.00000000  0.89179500  0.13987300  1
  Rh  Rh35  1  0.25000000  0.00000000  0.50000000  1
  Rh  Rh36  1  0.50000000  0.10820500  0.13987300  1
  Rh  Rh37  1  0.50000000  0.89179500  0.86012700  1
  Rh  Rh38  1  0.00000000  0.10820500  0.86012700  1
  Rh  Rh39  1  0.75000000  0.00000000  0.50000000  1
