# generated using pymatgen
data_Nd2Sb
_symmetry_space_group_name_H-M   'P 1'
_cell_length_a   4.58331800
_cell_length_b   4.58331800
_cell_length_c   17.77487600
_cell_angle_alpha   90.00000000
_cell_angle_beta   90.00000000
_cell_angle_gamma   90.00000000
_symmetry_Int_Tables_number   1
_chemical_formula_structural   Nd2Sb
_chemical_formula_sum   'Nd8 Sb4'
_cell_volume   373.39333429
_cell_formula_units_Z   4
loop_
 _symmetry_equiv_pos_site_id
 _symmetry_equiv_pos_as_xyz
  1  'x, y, z'
loop_
 _atom_site_type_symbol
 _atom_site_label
 _atom_site_symmetry_multiplicity
 _atom_site_fract_x
 _atom_site_fract_y
 _atom_site_fract_z
 _atom_site_occupancy
  Nd  Nd0  1  0.00000000  0.00000000  0.17901900  1
  Nd  Nd1  1  0.50000000  0.50000000  0.32098100  1
  Nd  Nd2  1  0.00000000  0.50000000  0.00000000  1
  Nd  Nd3  1  0.50000000  0.00000000  0.00000000  1
  Nd  Nd4  1  0.50000000  0.50000000  0.67901900  1
  Nd  Nd5  1  0.00000000  0.00000000  0.82098100  1
  Nd  Nd6  1  0.50000000  0.00000000  0.50000000  1
  Nd  Nd7  1  0.00000000  0.50000000  0.50000000  1
  Sb  Sb8  1  0.50000000  0.50000000  0.13837700  1
  Sb  Sb9  1  0.00000000  0.00000000  0.36162300  1
  Sb  Sb10  1  0.00000000  0.00000000  0.63837700  1
  Sb  Sb11  1  0.50000000  0.50000000  0.86162300  1
