# generated using pymatgen
data_MgB4Os3
_symmetry_space_group_name_H-M   'P 1'
_cell_length_a   2.92137000
_cell_length_b   11.91553600
_cell_length_c   9.80732200
_cell_angle_alpha   90.00000000
_cell_angle_beta   90.00000000
_cell_angle_gamma   90.00000000
_symmetry_Int_Tables_number   1
_chemical_formula_structural   MgB4Os3
_chemical_formula_sum   'Mg4 B16 Os12'
_cell_volume   341.38983271
_cell_formula_units_Z   4
loop_
 _symmetry_equiv_pos_site_id
 _symmetry_equiv_pos_as_xyz
  1  'x, y, z'
loop_
 _atom_site_type_symbol
 _atom_site_label
 _atom_site_symmetry_multiplicity
 _atom_site_fract_x
 _atom_site_fract_y
 _atom_site_fract_z
 _atom_site_occupancy
  Mg  Mg0  1  0.50000000  0.00000000  0.50000000  1
  Mg  Mg1  1  0.50000000  0.00000000  0.00000000  1
  Mg  Mg2  1  0.00000000  0.50000000  0.50000000  1
  Mg  Mg3  1  0.00000000  0.50000000  0.00000000  1
  B  B4  1  0.50000000  0.12334900  0.75000000  1
  B  B5  1  0.00000000  0.37665100  0.25000000  1
  B  B6  1  0.00000000  0.34580100  0.75000000  1
  B  B7  1  0.50000000  0.15419900  0.25000000  1
  B  B8  1  0.00000000  0.15909800  0.38944100  1
  B  B9  1  0.50000000  0.34090200  0.88944100  1
  B  B10  1  0.50000000  0.34090200  0.61055900  1
  B  B11  1  0.00000000  0.15909800  0.11055900  1
  B  B12  1  0.00000000  0.62334900  0.75000000  1
  B  B13  1  0.50000000  0.87665100  0.25000000  1
  B  B14  1  0.50000000  0.84580100  0.75000000  1
  B  B15  1  0.00000000  0.65419900  0.25000000  1
  B  B16  1  0.50000000  0.65909800  0.38944100  1
  B  B17  1  0.00000000  0.84090200  0.88944100  1
  B  B18  1  0.00000000  0.84090200  0.61055900  1
  B  B19  1  0.50000000  0.65909800  0.11055900  1
  Os  Os20  1  0.00000000  0.19971000  0.60708000  1
  Os  Os21  1  0.00000000  0.01640200  0.25000000  1
  Os  Os22  1  0.50000000  0.48359800  0.75000000  1
  Os  Os23  1  0.50000000  0.30029000  0.39292000  1
  Os  Os24  1  0.50000000  0.30029000  0.10708000  1
  Os  Os25  1  0.00000000  0.19971000  0.89292000  1
  Os  Os26  1  0.50000000  0.69971000  0.60708000  1
  Os  Os27  1  0.50000000  0.51640200  0.25000000  1
  Os  Os28  1  0.00000000  0.98359800  0.75000000  1
  Os  Os29  1  0.00000000  0.80029000  0.39292000  1
  Os  Os30  1  0.00000000  0.80029000  0.10708000  1
  Os  Os31  1  0.50000000  0.69971000  0.89292000  1
