# generated using pymatgen
data_TmAl4Ni
_symmetry_space_group_name_H-M   'P 1'
_cell_length_a   4.02439200
_cell_length_b   15.24034400
_cell_length_c   6.65822300
_cell_angle_alpha   90.00000000
_cell_angle_beta   90.00000000
_cell_angle_gamma   90.00000000
_symmetry_Int_Tables_number   1
_chemical_formula_structural   TmAl4Ni
_chemical_formula_sum   'Tm4 Al16 Ni4'
_cell_volume   408.36958006
_cell_formula_units_Z   4
loop_
 _symmetry_equiv_pos_site_id
 _symmetry_equiv_pos_as_xyz
  1  'x, y, z'
loop_
 _atom_site_type_symbol
 _atom_site_label
 _atom_site_symmetry_multiplicity
 _atom_site_fract_x
 _atom_site_fract_y
 _atom_site_fract_z
 _atom_site_occupancy
  Tm  Tm0  1  0.50000000  0.61947300  0.25000000  1
  Tm  Tm1  1  0.00000000  0.88052700  0.75000000  1
  Tm  Tm2  1  0.00000000  0.11947300  0.25000000  1
  Tm  Tm3  1  0.50000000  0.38052700  0.75000000  1
  Al  Al4  1  0.50000000  0.00000000  0.00000000  1
  Al  Al5  1  0.50000000  0.00000000  0.50000000  1
  Al  Al6  1  0.00000000  0.92472900  0.25000000  1
  Al  Al7  1  0.50000000  0.57527100  0.75000000  1
  Al  Al8  1  0.50000000  0.81245500  0.05339000  1
  Al  Al9  1  0.00000000  0.68754500  0.94661000  1
  Al  Al10  1  0.00000000  0.68754500  0.55339000  1
  Al  Al11  1  0.50000000  0.81245500  0.44661000  1
  Al  Al12  1  0.00000000  0.50000000  0.00000000  1
  Al  Al13  1  0.00000000  0.50000000  0.50000000  1
  Al  Al14  1  0.50000000  0.42472900  0.25000000  1
  Al  Al15  1  0.00000000  0.07527100  0.75000000  1
  Al  Al16  1  0.00000000  0.31245500  0.05339000  1
  Al  Al17  1  0.50000000  0.18754500  0.94661000  1
  Al  Al18  1  0.50000000  0.18754500  0.55339000  1
  Al  Al19  1  0.00000000  0.31245500  0.44661000  1
  Ni  Ni20  1  0.00000000  0.77204100  0.25000000  1
  Ni  Ni21  1  0.50000000  0.72795900  0.75000000  1
  Ni  Ni22  1  0.50000000  0.27204100  0.25000000  1
  Ni  Ni23  1  0.00000000  0.22795900  0.75000000  1
