# generated using pymatgen
data_Er3FeSi3
_symmetry_space_group_name_H-M   'P 1'
_cell_length_a   10.40757800
_cell_length_b   4.13176600
_cell_length_c   13.39491136
_cell_angle_alpha   90.00000000
_cell_angle_beta   111.13043107
_cell_angle_gamma   90.00000000
_symmetry_Int_Tables_number   1
_chemical_formula_structural   Er3FeSi3
_chemical_formula_sum   'Er12 Fe4 Si12'
_cell_volume   537.27443292
_cell_formula_units_Z   4
loop_
 _symmetry_equiv_pos_site_id
 _symmetry_equiv_pos_as_xyz
  1  'x, y, z'
loop_
 _atom_site_type_symbol
 _atom_site_label
 _atom_site_symmetry_multiplicity
 _atom_site_fract_x
 _atom_site_fract_y
 _atom_site_fract_z
 _atom_site_occupancy
  Er  Er0  1  0.24845900  0.50000000  0.22990700  1
  Er  Er1  1  0.75154100  0.50000000  0.77009300  1
  Er  Er2  1  0.52382900  0.00000000  0.37950000  1
  Er  Er3  1  0.47617100  0.00000000  0.62050000  1
  Er  Er4  1  0.39887300  0.00000000  0.08081100  1
  Er  Er5  1  0.60112700  0.00000000  0.91918900  1
  Er  Er6  1  0.74845900  0.00000000  0.22990700  1
  Er  Er7  1  0.25154100  0.00000000  0.77009300  1
  Er  Er8  1  0.02382900  0.50000000  0.37950000  1
  Er  Er9  1  0.97617100  0.50000000  0.62050000  1
  Er  Er10  1  0.89887300  0.50000000  0.08081100  1
  Er  Er11  1  0.10112700  0.50000000  0.91918900  1
  Fe  Fe12  1  0.75314400  0.00000000  0.58456500  1
  Fe  Fe13  1  0.24685600  0.00000000  0.41543500  1
  Fe  Fe14  1  0.25314400  0.50000000  0.58456500  1
  Fe  Fe15  1  0.74685600  0.50000000  0.41543500  1
  Si  Si16  1  0.64397900  0.50000000  0.54339400  1
  Si  Si17  1  0.35602100  0.50000000  0.45660600  1
  Si  Si18  1  0.11401900  0.00000000  0.07542700  1
  Si  Si19  1  0.88598100  0.00000000  0.92457300  1
  Si  Si20  1  0.55483500  0.50000000  0.24211000  1
  Si  Si21  1  0.44516500  0.50000000  0.75789000  1
  Si  Si22  1  0.14397900  0.00000000  0.54339400  1
  Si  Si23  1  0.85602100  0.00000000  0.45660600  1
  Si  Si24  1  0.61401900  0.50000000  0.07542700  1
  Si  Si25  1  0.38598100  0.50000000  0.92457300  1
  Si  Si26  1  0.05483500  0.00000000  0.24211000  1
  Si  Si27  1  0.94516500  0.00000000  0.75789000  1
