# generated using pymatgen
data_CsHoCoSe3
_symmetry_space_group_name_H-M   'P 1'
_cell_length_a   4.10803000
_cell_length_b   16.25706000
_cell_length_c   10.86332600
_cell_angle_alpha   90.00000000
_cell_angle_beta   90.00000000
_cell_angle_gamma   90.00000000
_symmetry_Int_Tables_number   1
_chemical_formula_structural   CsHoCoSe3
_chemical_formula_sum   'Cs4 Ho4 Co4 Se12'
_cell_volume   725.50168870
_cell_formula_units_Z   4
loop_
 _symmetry_equiv_pos_site_id
 _symmetry_equiv_pos_as_xyz
  1  'x, y, z'
loop_
 _atom_site_type_symbol
 _atom_site_label
 _atom_site_symmetry_multiplicity
 _atom_site_fract_x
 _atom_site_fract_y
 _atom_site_fract_z
 _atom_site_occupancy
  Cs  Cs0  1  0.50000000  0.24036300  0.25000000  1
  Cs  Cs1  1  0.00000000  0.25963700  0.75000000  1
  Cs  Cs2  1  0.00000000  0.74036300  0.25000000  1
  Cs  Cs3  1  0.50000000  0.75963700  0.75000000  1
  Ho  Ho4  1  0.00000000  0.00000000  0.00000000  1
  Ho  Ho5  1  0.00000000  0.00000000  0.50000000  1
  Ho  Ho6  1  0.50000000  0.50000000  0.00000000  1
  Ho  Ho7  1  0.50000000  0.50000000  0.50000000  1
  Co  Co8  1  0.50000000  0.03383800  0.75000000  1
  Co  Co9  1  0.00000000  0.46616200  0.25000000  1
  Co  Co10  1  0.00000000  0.53383800  0.75000000  1
  Co  Co11  1  0.50000000  0.96616200  0.25000000  1
  Se  Se12  1  0.00000000  0.05289100  0.25000000  1
  Se  Se13  1  0.50000000  0.44710900  0.75000000  1
  Se  Se14  1  0.00000000  0.38568700  0.43481000  1
  Se  Se15  1  0.50000000  0.11431300  0.56519000  1
  Se  Se16  1  0.50000000  0.11431300  0.93481000  1
  Se  Se17  1  0.00000000  0.38568700  0.06519000  1
  Se  Se18  1  0.50000000  0.55289100  0.25000000  1
  Se  Se19  1  0.00000000  0.94710900  0.75000000  1
  Se  Se20  1  0.50000000  0.88568700  0.43481000  1
  Se  Se21  1  0.00000000  0.61431300  0.56519000  1
  Se  Se22  1  0.00000000  0.61431300  0.93481000  1
  Se  Se23  1  0.50000000  0.88568700  0.06519000  1
