# generated using pymatgen
data_U2Mn12P7
_symmetry_space_group_name_H-M   'P 1'
_cell_length_a   9.25752627
_cell_length_b   9.25752627
_cell_length_c   3.57767800
_cell_angle_alpha   90.00000000
_cell_angle_beta   90.00000000
_cell_angle_gamma   120.00000000
_symmetry_Int_Tables_number   1
_chemical_formula_structural   U2Mn12P7
_chemical_formula_sum   'U2 Mn12 P7'
_cell_volume   265.53500901
_cell_formula_units_Z   1
loop_
 _symmetry_equiv_pos_site_id
 _symmetry_equiv_pos_as_xyz
  1  'x, y, z'
loop_
 _atom_site_type_symbol
 _atom_site_label
 _atom_site_symmetry_multiplicity
 _atom_site_fract_x
 _atom_site_fract_y
 _atom_site_fract_z
 _atom_site_occupancy
  U  U0  1  0.66666667  0.33333333  0.50000000  1
  U  U1  1  0.33333333  0.66666667  0.00000000  1
  Mn  Mn2  1  0.12311667  0.84663833  0.00000000  1
  Mn  Mn3  1  0.38616867  0.44056333  0.50000000  1
  Mn  Mn4  1  0.72352167  0.87688333  0.00000000  1
  Mn  Mn5  1  0.55943667  0.94560533  0.50000000  1
  Mn  Mn6  1  0.23058567  0.10769533  0.50000000  1
  Mn  Mn7  1  0.87710967  0.76941433  0.50000000  1
  Mn  Mn8  1  0.89230467  0.12289033  0.50000000  1
  Mn  Mn9  1  0.94048567  0.37301033  0.00000000  1
  Mn  Mn10  1  0.62698967  0.56747533  0.00000000  1
  Mn  Mn11  1  0.43252467  0.05951433  0.00000000  1
  Mn  Mn12  1  0.05439467  0.61383133  0.50000000  1
  Mn  Mn13  1  0.15336167  0.27647833  0.00000000  1
  P  P14  1  0.00000000  0.00000000  0.00000000  1
  P  P15  1  0.59546567  0.71426433  0.50000000  1
  P  P16  1  0.70614267  0.11306633  0.00000000  1
  P  P17  1  0.88693367  0.59307633  0.00000000  1
  P  P18  1  0.40692367  0.29385733  0.00000000  1
  P  P19  1  0.28573567  0.88120133  0.50000000  1
  P  P20  1  0.11879867  0.40453433  0.50000000  1
