# generated using pymatgen
data_HoAl7Au3
_symmetry_space_group_name_H-M   'P 1'
_cell_length_a   8.09349320
_cell_length_b   8.09349320
_cell_length_c   21.13375524
_cell_angle_alpha   90.00000000
_cell_angle_beta   90.00000000
_cell_angle_gamma   120.00000000
_symmetry_Int_Tables_number   1
_chemical_formula_structural   HoAl7Au3
_chemical_formula_sum   'Ho6 Al42 Au18'
_cell_volume   1198.88994327
_cell_formula_units_Z   6
loop_
 _symmetry_equiv_pos_site_id
 _symmetry_equiv_pos_as_xyz
  1  'x, y, z'
loop_
 _atom_site_type_symbol
 _atom_site_label
 _atom_site_symmetry_multiplicity
 _atom_site_fract_x
 _atom_site_fract_y
 _atom_site_fract_z
 _atom_site_occupancy
  Ho  Ho0  1  0.00000000  0.00000000  0.00000000  1
  Ho  Ho1  1  0.33333333  0.66666667  0.16666667  1
  Ho  Ho2  1  0.66666667  0.33333333  0.33333333  1
  Ho  Ho3  1  0.00000000  0.00000000  0.50000000  1
  Ho  Ho4  1  0.33333333  0.66666667  0.66666667  1
  Ho  Ho5  1  0.66666667  0.33333333  0.83333333  1
  Al  Al6  1  0.01043300  0.20654000  0.13678700  1
  Al  Al7  1  0.79346000  0.80389300  0.13678700  1
  Al  Al8  1  0.19610700  0.98956700  0.13678700  1
  Al  Al9  1  0.13722633  0.46012667  0.02987967  1
  Al  Al10  1  0.53987333  0.67709967  0.02987967  1
  Al  Al11  1  0.32290033  0.86277367  0.02987967  1
  Al  Al12  1  0.65623367  0.12679333  0.19654633  1
  Al  Al13  1  0.87320667  0.52944033  0.19654633  1
  Al  Al14  1  0.66666667  0.33333333  0.08333333  1
  Al  Al15  1  0.00000000  0.00000000  0.25000000  1
  Al  Al16  1  0.34376633  0.47055967  0.30345367  1
  Al  Al17  1  0.12679333  0.65623367  0.30345367  1
  Al  Al18  1  0.52944033  0.87320667  0.30345367  1
  Al  Al19  1  0.47055967  0.34376633  0.19654633  1
  Al  Al20  1  0.67709967  0.53987333  0.47012033  1
  Al  Al21  1  0.46012667  0.13722633  0.47012033  1
  Al  Al22  1  0.86277367  0.32290033  0.47012033  1
  Al  Al23  1  0.80389300  0.79346000  0.36321300  1
  Al  Al24  1  0.20654000  0.01043300  0.36321300  1
  Al  Al25  1  0.98956700  0.19610700  0.36321300  1
  Al  Al26  1  0.32290033  0.46012667  0.52987967  1
  Al  Al27  1  0.53987333  0.86277367  0.52987967  1
  Al  Al28  1  0.33333333  0.66666667  0.41666667  1
  Al  Al29  1  0.66666667  0.33333333  0.58333333  1
  Al  Al30  1  0.01043300  0.80389300  0.63678700  1
  Al  Al31  1  0.79346000  0.98956700  0.63678700  1
  Al  Al32  1  0.19610700  0.20654000  0.63678700  1
  Al  Al33  1  0.13722633  0.67709967  0.52987967  1
  Al  Al34  1  0.34376633  0.87320667  0.80345367  1
  Al  Al35  1  0.12679333  0.47055967  0.80345367  1
  Al  Al36  1  0.52944033  0.65623367  0.80345367  1
  Al  Al37  1  0.47055967  0.12679333  0.69654633  1
  Al  Al38  1  0.87320667  0.34376633  0.69654633  1
  Al  Al39  1  0.65623367  0.52944033  0.69654633  1
  Al  Al40  1  0.98956700  0.79346000  0.86321300  1
  Al  Al41  1  0.20654000  0.19610700  0.86321300  1
  Al  Al42  1  0.00000000  0.00000000  0.75000000  1
  Al  Al43  1  0.33333333  0.66666667  0.91666667  1
  Al  Al44  1  0.67709967  0.13722633  0.97012033  1
  Al  Al45  1  0.46012667  0.32290033  0.97012033  1
  Al  Al46  1  0.86277367  0.53987333  0.97012033  1
  Al  Al47  1  0.80389300  0.01043300  0.86321300  1
  Au  Au48  1  0.32419100  0.00000000  0.25000000  1
  Au  Au49  1  0.00000000  0.32419100  0.25000000  1
  Au  Au50  1  0.67580900  0.67580900  0.25000000  1
  Au  Au51  1  0.34247567  0.33333333  0.08333333  1
  Au  Au52  1  0.66666667  0.00914233  0.08333333  1
  Au  Au53  1  0.99085767  0.65752433  0.08333333  1
  Au  Au54  1  0.99085767  0.33333333  0.58333333  1
  Au  Au55  1  0.66666667  0.65752433  0.58333333  1
  Au  Au56  1  0.34247567  0.00914233  0.58333333  1
  Au  Au57  1  0.00914233  0.66666667  0.41666667  1
  Au  Au58  1  0.33333333  0.34247567  0.41666667  1
  Au  Au59  1  0.65752433  0.99085767  0.41666667  1
  Au  Au60  1  0.65752433  0.66666667  0.91666667  1
  Au  Au61  1  0.33333333  0.99085767  0.91666667  1
  Au  Au62  1  0.00914233  0.34247567  0.91666667  1
  Au  Au63  1  0.67580900  0.00000000  0.75000000  1
  Au  Au64  1  0.00000000  0.67580900  0.75000000  1
  Au  Au65  1  0.32419100  0.32419100  0.75000000  1
