# generated using pymatgen
data_CaMg2Ni9
_symmetry_space_group_name_H-M   'P 1'
_cell_length_a   4.85206003
_cell_length_b   4.85206003
_cell_length_c   23.55413482
_cell_angle_alpha   90.00000000
_cell_angle_beta   90.00000000
_cell_angle_gamma   120.00000000
_symmetry_Int_Tables_number   1
_chemical_formula_structural   CaMg2Ni9
_chemical_formula_sum   'Ca3 Mg6 Ni27'
_cell_volume   480.23092068
_cell_formula_units_Z   3
loop_
 _symmetry_equiv_pos_site_id
 _symmetry_equiv_pos_as_xyz
  1  'x, y, z'
loop_
 _atom_site_type_symbol
 _atom_site_label
 _atom_site_symmetry_multiplicity
 _atom_site_fract_x
 _atom_site_fract_y
 _atom_site_fract_z
 _atom_site_occupancy
  Ca  Ca0  1  0.00000000  0.00000000  0.00000000  1
  Ca  Ca1  1  0.66666667  0.33333333  0.33333333  1
  Ca  Ca2  1  0.33333333  0.66666667  0.66666667  1
  Mg  Mg3  1  0.00000000  0.00000000  0.14330700  1
  Mg  Mg4  1  0.66666667  0.33333333  0.19002633  1
  Mg  Mg5  1  0.66666667  0.33333333  0.47664033  1
  Mg  Mg6  1  0.33333333  0.66666667  0.52335967  1
  Mg  Mg7  1  0.33333333  0.66666667  0.80997367  1
  Mg  Mg8  1  0.00000000  0.00000000  0.85669300  1
  Ni  Ni9  1  0.16533533  0.83466467  0.24869467  1
  Ni  Ni10  1  0.16533533  0.33067067  0.24869467  1
  Ni  Ni11  1  0.66932933  0.83466467  0.24869467  1
  Ni  Ni12  1  0.99733733  0.49866867  0.08463867  1
  Ni  Ni13  1  0.50133133  0.49866867  0.08463867  1
  Ni  Ni14  1  0.50133133  0.00266267  0.08463867  1
  Ni  Ni15  1  0.33333333  0.66666667  0.16666667  1
  Ni  Ni16  1  0.33333333  0.66666667  0.00011467  1
  Ni  Ni17  1  0.33333333  0.66666667  0.33321867  1
  Ni  Ni18  1  0.83200200  0.16799800  0.58202800  1
  Ni  Ni19  1  0.83200200  0.66400400  0.58202800  1
  Ni  Ni20  1  0.33599600  0.16799800  0.58202800  1
  Ni  Ni21  1  0.66400400  0.83200200  0.41797200  1
  Ni  Ni22  1  0.16799800  0.83200200  0.41797200  1
  Ni  Ni23  1  0.16799800  0.33599600  0.41797200  1
  Ni  Ni24  1  1.00000000  1.00000000  0.50000000  1
  Ni  Ni25  1  0.00000000  0.00000000  0.33344800  1
  Ni  Ni26  1  0.00000000  0.00000000  0.66655200  1
  Ni  Ni27  1  0.49866867  0.50133133  0.91536133  1
  Ni  Ni28  1  0.49866867  0.99733733  0.91536133  1
  Ni  Ni29  1  0.00266267  0.50133133  0.91536133  1
  Ni  Ni30  1  0.33067067  0.16533533  0.75130533  1
  Ni  Ni31  1  0.83466467  0.16533533  0.75130533  1
  Ni  Ni32  1  0.83466467  0.66932933  0.75130533  1
  Ni  Ni33  1  0.66666667  0.33333333  0.83333333  1
  Ni  Ni34  1  0.66666667  0.33333333  0.66678133  1
  Ni  Ni35  1  0.66666667  0.33333333  0.99988533  1
