# generated using pymatgen
data_Sr3MgRhO6
_symmetry_space_group_name_H-M   'P 1'
_cell_length_a   9.73874421
_cell_length_b   9.73874421
_cell_length_c   11.12726981
_cell_angle_alpha   90.00000000
_cell_angle_beta   90.00000000
_cell_angle_gamma   120.00000000
_symmetry_Int_Tables_number   1
_chemical_formula_structural   Sr3MgRhO6
_chemical_formula_sum   'Sr18 Mg6 Rh6 O36'
_cell_volume   913.95574882
_cell_formula_units_Z   6
loop_
 _symmetry_equiv_pos_site_id
 _symmetry_equiv_pos_as_xyz
  1  'x, y, z'
loop_
 _atom_site_type_symbol
 _atom_site_label
 _atom_site_symmetry_multiplicity
 _atom_site_fract_x
 _atom_site_fract_y
 _atom_site_fract_z
 _atom_site_occupancy
  Sr  Sr0  1  0.66666667  0.96788733  0.58333333  1
  Sr  Sr1  1  0.03211267  0.69877933  0.58333333  1
  Sr  Sr2  1  0.69877933  0.66666667  0.41666667  1
  Sr  Sr3  1  0.33333333  0.03211267  0.41666667  1
  Sr  Sr4  1  0.96788733  0.30122067  0.41666667  1
  Sr  Sr5  1  0.30122067  0.33333333  0.58333333  1
  Sr  Sr6  1  0.33333333  0.30122067  0.91666667  1
  Sr  Sr7  1  0.69877933  0.03211267  0.91666667  1
  Sr  Sr8  1  0.36544600  0.00000000  0.75000000  1
  Sr  Sr9  1  0.00000000  0.36544600  0.75000000  1
  Sr  Sr10  1  0.63455400  0.63455400  0.75000000  1
  Sr  Sr11  1  0.96788733  0.66666667  0.91666667  1
  Sr  Sr12  1  0.00000000  0.63455400  0.25000000  1
  Sr  Sr13  1  0.36544600  0.36544600  0.25000000  1
  Sr  Sr14  1  0.03211267  0.33333333  0.08333333  1
  Sr  Sr15  1  0.66666667  0.69877933  0.08333333  1
  Sr  Sr16  1  0.30122067  0.96788733  0.08333333  1
  Sr  Sr17  1  0.63455400  0.00000000  0.25000000  1
  Mg  Mg18  1  0.00000000  0.00000000  0.25000000  1
  Mg  Mg19  1  0.00000000  0.00000000  0.75000000  1
  Mg  Mg20  1  0.66666667  0.33333333  0.58333333  1
  Mg  Mg21  1  0.66666667  0.33333333  0.08333333  1
  Mg  Mg22  1  0.33333333  0.66666667  0.91666667  1
  Mg  Mg23  1  0.33333333  0.66666667  0.41666667  1
  Rh  Rh24  1  0.00000000  0.00000000  0.00000000  1
  Rh  Rh25  1  0.00000000  0.00000000  0.50000000  1
  Rh  Rh26  1  0.66666667  0.33333333  0.33333333  1
  Rh  Rh27  1  0.66666667  0.33333333  0.83333333  1
  Rh  Rh28  1  0.33333333  0.66666667  0.66666667  1
  Rh  Rh29  1  0.33333333  0.66666667  0.16666667  1
  O  O30  1  0.17278600  0.02103300  0.61470100  1
  O  O31  1  0.97896700  0.15175300  0.61470100  1
  O  O32  1  0.84824700  0.82721400  0.61470100  1
  O  O33  1  0.48508633  0.64563367  0.55196567  1
  O  O34  1  0.35436633  0.83945267  0.55196567  1
  O  O35  1  0.16054733  0.51491367  0.55196567  1
  O  O36  1  0.82721400  0.97896700  0.38529900  1
  O  O37  1  0.02103300  0.84824700  0.38529900  1
  O  O38  1  0.15175300  0.17278600  0.38529900  1
  O  O39  1  0.51491367  0.35436633  0.44803433  1
  O  O40  1  0.83945267  0.48508633  0.44803433  1
  O  O41  1  0.64563367  0.16054733  0.44803433  1
  O  O42  1  0.83945267  0.35436633  0.94803433  1
  O  O43  1  0.64563367  0.48508633  0.94803433  1
  O  O44  1  0.51491367  0.16054733  0.94803433  1
  O  O45  1  0.15175300  0.97896700  0.88529900  1
  O  O46  1  0.02103300  0.17278600  0.88529900  1
  O  O47  1  0.82721400  0.84824700  0.88529900  1
  O  O48  1  0.49388067  0.31230033  0.71863233  1
  O  O49  1  0.68769967  0.18158033  0.71863233  1
  O  O50  1  0.81841967  0.50611933  0.71863233  1
  O  O51  1  0.18158033  0.68769967  0.78136767  1
  O  O52  1  0.50611933  0.81841967  0.78136767  1
  O  O53  1  0.31230033  0.49388067  0.78136767  1
  O  O54  1  0.50611933  0.68769967  0.28136767  1
  O  O55  1  0.31230033  0.81841967  0.28136767  1
  O  O56  1  0.18158033  0.49388067  0.28136767  1
  O  O57  1  0.81841967  0.31230033  0.21863233  1
  O  O58  1  0.68769967  0.50611933  0.21863233  1
  O  O59  1  0.49388067  0.18158033  0.21863233  1
  O  O60  1  0.16054733  0.64563367  0.05196567  1
  O  O61  1  0.35436633  0.51491367  0.05196567  1
  O  O62  1  0.48508633  0.83945267  0.05196567  1
  O  O63  1  0.84824700  0.02103300  0.11470100  1
  O  O64  1  0.17278600  0.15175300  0.11470100  1
  O  O65  1  0.97896700  0.82721400  0.11470100  1
