# generated using pymatgen
data_Dy2Si5Rh3
_symmetry_space_group_name_H-M   'P 1'
_cell_length_a   5.76087800
_cell_length_b   9.89227200
_cell_length_c   11.61912200
_cell_angle_alpha   90.00000000
_cell_angle_beta   90.00000000
_cell_angle_gamma   90.00000000
_symmetry_Int_Tables_number   1
_chemical_formula_structural   Dy2Si5Rh3
_chemical_formula_sum   'Dy8 Si20 Rh12'
_cell_volume   662.15252459
_cell_formula_units_Z   4
loop_
 _symmetry_equiv_pos_site_id
 _symmetry_equiv_pos_as_xyz
  1  'x, y, z'
loop_
 _atom_site_type_symbol
 _atom_site_label
 _atom_site_symmetry_multiplicity
 _atom_site_fract_x
 _atom_site_fract_y
 _atom_site_fract_z
 _atom_site_occupancy
  Dy  Dy0  1  0.50000000  0.76840500  0.63213000  1
  Dy  Dy1  1  0.50000000  0.23159500  0.36787000  1
  Dy  Dy2  1  0.00000000  0.76840500  0.36787000  1
  Dy  Dy3  1  0.00000000  0.23159500  0.63213000  1
  Dy  Dy4  1  0.00000000  0.26840500  0.13213000  1
  Dy  Dy5  1  0.00000000  0.73159500  0.86787000  1
  Dy  Dy6  1  0.50000000  0.26840500  0.86787000  1
  Dy  Dy7  1  0.50000000  0.73159500  0.13213000  1
  Si  Si8  1  0.00000000  0.34226150  0.39408750  1
  Si  Si9  1  0.00000000  0.65773850  0.60591250  1
  Si  Si10  1  0.50000000  0.34226150  0.60591250  1
  Si  Si11  1  0.50000000  0.65773850  0.39408750  1
  Si  Si12  1  0.75000000  0.00000000  0.22139150  1
  Si  Si13  1  0.75000000  0.00000000  0.77860850  1
  Si  Si14  1  0.25000000  0.00000000  0.77860850  1
  Si  Si15  1  0.75000000  0.00000000  0.50000000  1
  Si  Si16  1  0.25000000  0.00000000  0.50000000  1
  Si  Si17  1  0.25000000  0.00000000  0.22139150  1
  Si  Si18  1  0.50000000  0.84226150  0.89408750  1
  Si  Si19  1  0.50000000  0.15773850  0.10591250  1
  Si  Si20  1  0.00000000  0.84226150  0.10591250  1
  Si  Si21  1  0.00000000  0.15773850  0.89408750  1
  Si  Si22  1  0.25000000  0.50000000  0.72139150  1
  Si  Si23  1  0.25000000  0.50000000  0.27860850  1
  Si  Si24  1  0.75000000  0.50000000  0.27860850  1
  Si  Si25  1  0.25000000  0.50000000  0.00000000  1
  Si  Si26  1  0.75000000  0.50000000  0.00000000  1
  Si  Si27  1  0.75000000  0.50000000  0.72139150  1
  Rh  Rh28  1  0.75000000  0.50000000  0.50000000  1
  Rh  Rh29  1  0.00000000  0.89093500  0.64002800  1
  Rh  Rh30  1  0.50000000  0.10906500  0.64002800  1
  Rh  Rh31  1  0.50000000  0.89093500  0.35997200  1
  Rh  Rh32  1  0.25000000  0.50000000  0.50000000  1
  Rh  Rh33  1  0.00000000  0.10906500  0.35997200  1
  Rh  Rh34  1  0.25000000  0.00000000  0.00000000  1
  Rh  Rh35  1  0.50000000  0.39093500  0.14002800  1
  Rh  Rh36  1  0.00000000  0.60906500  0.14002800  1
  Rh  Rh37  1  0.00000000  0.39093500  0.85997200  1
  Rh  Rh38  1  0.75000000  0.00000000  0.00000000  1
  Rh  Rh39  1  0.50000000  0.60906500  0.85997200  1
