# generated using pymatgen
data_Mn2PO4F
_symmetry_space_group_name_H-M   'P 1'
_cell_length_a   13.62443800
_cell_length_b   6.60140400
_cell_length_c   10.24181264
_cell_angle_alpha   90.00000000
_cell_angle_beta   120.14597936
_cell_angle_gamma   90.00000000
_symmetry_Int_Tables_number   1
_chemical_formula_structural   Mn2PO4F
_chemical_formula_sum   'Mn16 P8 O32 F8'
_cell_volume   796.56577980
_cell_formula_units_Z   8
loop_
 _symmetry_equiv_pos_site_id
 _symmetry_equiv_pos_as_xyz
  1  'x, y, z'
loop_
 _atom_site_type_symbol
 _atom_site_label
 _atom_site_symmetry_multiplicity
 _atom_site_fract_x
 _atom_site_fract_y
 _atom_site_fract_z
 _atom_site_occupancy
  Mn  Mn0  1  0.05592650  0.73291450  0.99503500  1
  Mn  Mn1  1  0.94407350  0.73291450  0.50496500  1
  Mn  Mn2  1  0.94407350  0.26708550  0.00496500  1
  Mn  Mn3  1  0.05592650  0.26708550  0.49503500  1
  Mn  Mn4  1  0.84432150  0.10444450  0.64888200  1
  Mn  Mn5  1  0.15567850  0.10444450  0.85111800  1
  Mn  Mn6  1  0.15567850  0.89555550  0.35111800  1
  Mn  Mn7  1  0.84432150  0.89555550  0.14888200  1
  Mn  Mn8  1  0.55592650  0.23291450  0.99503500  1
  Mn  Mn9  1  0.44407350  0.23291450  0.50496500  1
  Mn  Mn10  1  0.44407350  0.76708550  0.00496500  1
  Mn  Mn11  1  0.55592650  0.76708550  0.49503500  1
  Mn  Mn12  1  0.34432150  0.60444450  0.64888200  1
  Mn  Mn13  1  0.65567850  0.60444450  0.85111800  1
  Mn  Mn14  1  0.65567850  0.39555550  0.35111800  1
  Mn  Mn15  1  0.34432150  0.39555550  0.14888200  1
  P  P16  1  0.17599600  0.59424900  0.80624500  1
  P  P17  1  0.32400400  0.09424900  0.69375500  1
  P  P18  1  0.82400400  0.40575100  0.19375500  1
  P  P19  1  0.67599600  0.90575100  0.30624500  1
  P  P20  1  0.67599600  0.09424900  0.80624500  1
  P  P21  1  0.82400400  0.59424900  0.69375500  1
  P  P22  1  0.32400400  0.90575100  0.19375500  1
  P  P23  1  0.17599600  0.40575100  0.30624500  1
  O  O24  1  0.80653300  0.41887100  0.58287600  1
  O  O25  1  0.19346700  0.41887100  0.91712400  1
  O  O26  1  0.19346700  0.58112900  0.41712400  1
  O  O27  1  0.80653300  0.58112900  0.08287600  1
  O  O28  1  0.71049750  0.35507250  0.18777500  1
  O  O29  1  0.78950250  0.85507250  0.31222500  1
  O  O30  1  0.28950250  0.64492750  0.81222500  1
  O  O31  1  0.21049750  0.14492750  0.68777500  1
  O  O32  1  0.91506600  0.46344100  0.35759800  1
  O  O33  1  0.58493400  0.96344100  0.14240200  1
  O  O34  1  0.08493400  0.53655900  0.64240200  1
  O  O35  1  0.41506600  0.03655900  0.85759800  1
  O  O36  1  0.86760100  0.21836200  0.14516500  1
  O  O37  1  0.13239900  0.21836200  0.35483500  1
  O  O38  1  0.13239900  0.78163800  0.85483500  1
  O  O39  1  0.86760100  0.78163800  0.64516500  1
  O  O40  1  0.30653300  0.91887100  0.58287600  1
  O  O41  1  0.69346700  0.91887100  0.91712400  1
  O  O42  1  0.69346700  0.08112900  0.41712400  1
  O  O43  1  0.30653300  0.08112900  0.08287600  1
  O  O44  1  0.21049750  0.85507250  0.18777500  1
  O  O45  1  0.28950250  0.35507250  0.31222500  1
  O  O46  1  0.78950250  0.14492750  0.81222500  1
  O  O47  1  0.71049750  0.64492750  0.68777500  1
  O  O48  1  0.41506600  0.96344100  0.35759800  1
  O  O49  1  0.08493400  0.46344100  0.14240200  1
  O  O50  1  0.58493400  0.03655900  0.64240200  1
  O  O51  1  0.91506600  0.53655900  0.85759800  1
  O  O52  1  0.36760100  0.71836200  0.14516500  1
  O  O53  1  0.63239900  0.71836200  0.35483500  1
  O  O54  1  0.63239900  0.28163800  0.85483500  1
  O  O55  1  0.36760100  0.28163800  0.64516500  1
  F  F56  1  0.01405450  0.90333750  0.39198200  1
  F  F57  1  0.98594550  0.90333750  0.10801800  1
  F  F58  1  0.98594550  0.09666250  0.60801800  1
  F  F59  1  0.01405450  0.09666250  0.89198200  1
  F  F60  1  0.51405450  0.40333750  0.39198200  1
  F  F61  1  0.48594550  0.40333750  0.10801800  1
  F  F62  1  0.48594550  0.59666250  0.60801800  1
  F  F63  1  0.51405450  0.59666250  0.89198200  1
