# generated using pymatgen
data_SmTiGe
_symmetry_space_group_name_H-M   'P 1'
_cell_length_a   4.10361400
_cell_length_b   4.10361400
_cell_length_c   15.82552000
_cell_angle_alpha   90.00000000
_cell_angle_beta   90.00000000
_cell_angle_gamma   90.00000000
_symmetry_Int_Tables_number   1
_chemical_formula_structural   SmTiGe
_chemical_formula_sum   'Sm4 Ti4 Ge4'
_cell_volume   266.49618402
_cell_formula_units_Z   4
loop_
 _symmetry_equiv_pos_site_id
 _symmetry_equiv_pos_as_xyz
  1  'x, y, z'
loop_
 _atom_site_type_symbol
 _atom_site_label
 _atom_site_symmetry_multiplicity
 _atom_site_fract_x
 _atom_site_fract_y
 _atom_site_fract_z
 _atom_site_occupancy
  Sm  Sm0  1  0.50000000  0.50000000  0.17388800  1
  Sm  Sm1  1  0.00000000  0.00000000  0.32611200  1
  Sm  Sm2  1  0.00000000  0.00000000  0.67388800  1
  Sm  Sm3  1  0.50000000  0.50000000  0.82611200  1
  Ti  Ti4  1  0.00000000  0.50000000  0.00000000  1
  Ti  Ti5  1  0.50000000  0.00000000  0.00000000  1
  Ti  Ti6  1  0.50000000  0.00000000  0.50000000  1
  Ti  Ti7  1  0.00000000  0.50000000  0.50000000  1
  Ge  Ge8  1  0.00000000  0.00000000  0.11850100  1
  Ge  Ge9  1  0.50000000  0.50000000  0.38149900  1
  Ge  Ge10  1  0.50000000  0.50000000  0.61850100  1
  Ge  Ge11  1  0.00000000  0.00000000  0.88149900  1
