# generated using pymatgen
data_Sr3ScNiO6
_symmetry_space_group_name_H-M   'P 1'
_cell_length_a   9.75675476
_cell_length_b   9.75675476
_cell_length_c   10.95031185
_cell_angle_alpha   90.00000000
_cell_angle_beta   90.00000000
_cell_angle_gamma   120.00000000
_symmetry_Int_Tables_number   1
_chemical_formula_structural   Sr3ScNiO6
_chemical_formula_sum   'Sr18 Sc6 Ni6 O36'
_cell_volume   902.75083177
_cell_formula_units_Z   6
loop_
 _symmetry_equiv_pos_site_id
 _symmetry_equiv_pos_as_xyz
  1  'x, y, z'
loop_
 _atom_site_type_symbol
 _atom_site_label
 _atom_site_symmetry_multiplicity
 _atom_site_fract_x
 _atom_site_fract_y
 _atom_site_fract_z
 _atom_site_occupancy
  Sr  Sr0  1  0.96246804  0.66666667  0.41666667  1
  Sr  Sr1  1  0.33333333  0.29580138  0.41666667  1
  Sr  Sr2  1  0.66666667  0.70419862  0.58333333  1
  Sr  Sr3  1  0.03753196  0.33333333  0.58333333  1
  Sr  Sr4  1  0.70419862  0.03753196  0.41666667  1
  Sr  Sr5  1  0.29580138  0.96246804  0.58333333  1
  Sr  Sr6  1  0.62913471  0.00000000  0.75000000  1
  Sr  Sr7  1  0.00000000  0.62913471  0.75000000  1
  Sr  Sr8  1  0.33333333  0.03753196  0.91666667  1
  Sr  Sr9  1  0.70419862  0.66666667  0.91666667  1
  Sr  Sr10  1  0.37086529  0.37086529  0.75000000  1
  Sr  Sr11  1  0.96246804  0.29580138  0.91666667  1
  Sr  Sr12  1  0.29580138  0.33333333  0.08333333  1
  Sr  Sr13  1  0.66666667  0.96246804  0.08333333  1
  Sr  Sr14  1  0.00000000  0.37086529  0.25000000  1
  Sr  Sr15  1  0.37086529  0.00000000  0.25000000  1
  Sr  Sr16  1  0.03753196  0.70419862  0.08333333  1
  Sr  Sr17  1  0.62913471  0.62913471  0.25000000  1
  Sc  Sc18  1  0.00000000  0.00000000  0.75000000  1
  Sc  Sc19  1  0.00000000  0.00000000  0.25000000  1
  Sc  Sc20  1  0.66666667  0.33333333  0.08333333  1
  Sc  Sc21  1  0.66666667  0.33333333  0.58333333  1
  Sc  Sc22  1  0.33333333  0.66666667  0.41666667  1
  Sc  Sc23  1  0.33333333  0.66666667  0.91666667  1
  Ni  Ni24  1  0.00000000  0.00000000  0.50000000  1
  Ni  Ni25  1  0.00000000  0.00000000  0.00000000  1
  Ni  Ni26  1  0.66666667  0.33333333  0.83333333  1
  Ni  Ni27  1  0.66666667  0.33333333  0.33333333  1
  Ni  Ni28  1  0.33333333  0.66666667  0.16666667  1
  Ni  Ni29  1  0.33333333  0.66666667  0.66666667  1
  O  O30  1  0.17238100  0.15039343  0.61720802  1
  O  O31  1  0.97801243  0.82761900  0.61720802  1
  O  O32  1  0.84960657  0.02198757  0.61720802  1
  O  O33  1  0.48372676  0.83904767  0.54945865  1
  O  O34  1  0.35532090  0.51627324  0.54945865  1
  O  O35  1  0.16095233  0.64467910  0.54945865  1
  O  O36  1  0.82761900  0.84960657  0.38279198  1
  O  O37  1  0.02198757  0.17238100  0.38279198  1
  O  O38  1  0.15039343  0.97801243  0.38279198  1
  O  O39  1  0.51627324  0.16095233  0.45054135  1
  O  O40  1  0.83904767  0.35532090  0.45054135  1
  O  O41  1  0.64467910  0.48372676  0.45054135  1
  O  O42  1  0.83904767  0.48372676  0.95054135  1
  O  O43  1  0.64467910  0.16095233  0.95054135  1
  O  O44  1  0.51627324  0.35532090  0.95054135  1
  O  O45  1  0.15039343  0.17238100  0.88279198  1
  O  O46  1  0.02198757  0.84960657  0.88279198  1
  O  O47  1  0.82761900  0.97801243  0.88279198  1
  O  O48  1  0.49428567  0.18293990  0.71612531  1
  O  O49  1  0.68865424  0.50571433  0.71612531  1
  O  O50  1  0.81706010  0.31134576  0.71612531  1
  O  O51  1  0.18293990  0.49428567  0.78387469  1
  O  O52  1  0.50571433  0.68865424  0.78387469  1
  O  O53  1  0.31134576  0.81706010  0.78387469  1
  O  O54  1  0.50571433  0.81706010  0.28387469  1
  O  O55  1  0.31134576  0.49428567  0.28387469  1
  O  O56  1  0.18293990  0.68865424  0.28387469  1
  O  O57  1  0.81706010  0.50571433  0.21612531  1
  O  O58  1  0.68865424  0.18293990  0.21612531  1
  O  O59  1  0.49428567  0.31134576  0.21612531  1
  O  O60  1  0.16095233  0.51627324  0.04945865  1
  O  O61  1  0.35532090  0.83904767  0.04945865  1
  O  O62  1  0.48372676  0.64467910  0.04945865  1
  O  O63  1  0.84960657  0.82761900  0.11720802  1
  O  O64  1  0.17238100  0.02198757  0.11720802  1
  O  O65  1  0.97801243  0.15039343  0.11720802  1
