# generated using pymatgen
data_Cr3Ga4
_symmetry_space_group_name_H-M   'P 1'
_cell_length_a   10.05725800
_cell_length_b   7.85672200
_cell_length_c   7.86638840
_cell_angle_alpha   90.00000000
_cell_angle_beta   104.80049309
_cell_angle_gamma   90.00000000
_symmetry_Int_Tables_number   1
_chemical_formula_structural   Cr3Ga4
_chemical_formula_sum   'Cr18 Ga24'
_cell_volume   600.95579051
_cell_formula_units_Z   6
loop_
 _symmetry_equiv_pos_site_id
 _symmetry_equiv_pos_as_xyz
  1  'x, y, z'
loop_
 _atom_site_type_symbol
 _atom_site_label
 _atom_site_symmetry_multiplicity
 _atom_site_fract_x
 _atom_site_fract_y
 _atom_site_fract_z
 _atom_site_occupancy
  Cr  Cr0  1  0.00000000  0.00000000  0.00000000  1
  Cr  Cr1  1  0.99418000  0.50000000  0.66222500  1
  Cr  Cr2  1  0.00582000  0.50000000  0.33777500  1
  Cr  Cr3  1  0.26995400  0.50000000  0.33914000  1
  Cr  Cr4  1  0.73004600  0.50000000  0.66086000  1
  Cr  Cr5  1  0.85386600  0.18553300  0.14258800  1
  Cr  Cr6  1  0.14613400  0.18553300  0.85741200  1
  Cr  Cr7  1  0.14613400  0.81446700  0.85741200  1
  Cr  Cr8  1  0.85386600  0.81446700  0.14258800  1
  Cr  Cr9  1  0.50000000  0.50000000  0.00000000  1
  Cr  Cr10  1  0.49418000  0.00000000  0.66222500  1
  Cr  Cr11  1  0.50582000  0.00000000  0.33777500  1
  Cr  Cr12  1  0.76995400  0.00000000  0.33914000  1
  Cr  Cr13  1  0.23004600  0.00000000  0.66086000  1
  Cr  Cr14  1  0.35386600  0.68553300  0.14258800  1
  Cr  Cr15  1  0.64613400  0.68553300  0.85741200  1
  Cr  Cr16  1  0.64613400  0.31446700  0.85741200  1
  Cr  Cr17  1  0.35386600  0.31446700  0.14258800  1
  Ga  Ga18  1  0.21298400  0.50000000  0.90205700  1
  Ga  Ga19  1  0.78701600  0.50000000  0.09794300  1
  Ga  Ga20  1  0.45228500  0.50000000  0.64842300  1
  Ga  Ga21  1  0.54771500  0.50000000  0.35157700  1
  Ga  Ga22  1  0.90041250  0.71136050  0.84478500  1
  Ga  Ga23  1  0.09958750  0.71136050  0.15521500  1
  Ga  Ga24  1  0.09958750  0.28863950  0.15521500  1
  Ga  Ga25  1  0.90041250  0.28863950  0.84478500  1
  Ga  Ga26  1  0.15184950  0.69622650  0.55911600  1
  Ga  Ga27  1  0.84815050  0.69622650  0.44088400  1
  Ga  Ga28  1  0.84815050  0.30377350  0.44088400  1
  Ga  Ga29  1  0.15184950  0.30377350  0.55911600  1
  Ga  Ga30  1  0.71298400  0.00000000  0.90205700  1
  Ga  Ga31  1  0.28701600  0.00000000  0.09794300  1
  Ga  Ga32  1  0.95228500  0.00000000  0.64842300  1
  Ga  Ga33  1  0.04771500  0.00000000  0.35157700  1
  Ga  Ga34  1  0.40041250  0.21136050  0.84478500  1
  Ga  Ga35  1  0.59958750  0.21136050  0.15521500  1
  Ga  Ga36  1  0.59958750  0.78863950  0.15521500  1
  Ga  Ga37  1  0.40041250  0.78863950  0.84478500  1
  Ga  Ga38  1  0.65184950  0.19622650  0.55911600  1
  Ga  Ga39  1  0.34815050  0.19622650  0.44088400  1
  Ga  Ga40  1  0.34815050  0.80377350  0.44088400  1
  Ga  Ga41  1  0.65184950  0.80377350  0.55911600  1
