# generated using pymatgen
data_Pr3ReO7
_symmetry_space_group_name_H-M   'P 1'
_cell_length_a   7.55865800
_cell_length_b   11.08234000
_cell_length_c   7.68737500
_cell_angle_alpha   90.00000000
_cell_angle_beta   90.00000000
_cell_angle_gamma   90.00000000
_symmetry_Int_Tables_number   1
_chemical_formula_structural   Pr3ReO7
_chemical_formula_sum   'Pr12 Re4 O28'
_cell_volume   643.95309165
_cell_formula_units_Z   4
loop_
 _symmetry_equiv_pos_site_id
 _symmetry_equiv_pos_as_xyz
  1  'x, y, z'
loop_
 _atom_site_type_symbol
 _atom_site_label
 _atom_site_symmetry_multiplicity
 _atom_site_fract_x
 _atom_site_fract_y
 _atom_site_fract_z
 _atom_site_occupancy
  Pr  Pr0  1  0.30363050  0.72273950  0.25000000  1
  Pr  Pr1  1  0.69636950  0.27726050  0.75000000  1
  Pr  Pr2  1  0.50000000  0.00000000  0.50000000  1
  Pr  Pr3  1  0.50000000  0.00000000  0.00000000  1
  Pr  Pr4  1  0.69636950  0.72273950  0.75000000  1
  Pr  Pr5  1  0.30363050  0.27726050  0.25000000  1
  Pr  Pr6  1  0.80363050  0.22273950  0.25000000  1
  Pr  Pr7  1  0.19636950  0.77726050  0.75000000  1
  Pr  Pr8  1  0.00000000  0.50000000  0.50000000  1
  Pr  Pr9  1  0.00000000  0.50000000  0.00000000  1
  Pr  Pr10  1  0.19636950  0.22273950  0.75000000  1
  Pr  Pr11  1  0.80363050  0.77726050  0.25000000  1
  Re  Re12  1  0.00000000  0.00000000  0.00000000  1
  Re  Re13  1  0.00000000  0.00000000  0.50000000  1
  Re  Re14  1  0.50000000  0.50000000  0.00000000  1
  Re  Re15  1  0.50000000  0.50000000  0.50000000  1
  O  O16  1  0.47487000  0.13132600  0.75000000  1
  O  O17  1  0.52513000  0.86867400  0.25000000  1
  O  O18  1  0.47487000  0.86867400  0.75000000  1
  O  O19  1  0.52513000  0.13132600  0.25000000  1
  O  O20  1  0.18425350  0.12515150  0.03741100  1
  O  O21  1  0.81574650  0.87484850  0.53741100  1
  O  O22  1  0.18425350  0.87484850  0.46258900  1
  O  O23  1  0.81574650  0.12515150  0.96258900  1
  O  O24  1  0.92319300  0.00000000  0.25000000  1
  O  O25  1  0.07680700  0.00000000  0.75000000  1
  O  O26  1  0.18425350  0.87484850  0.03741100  1
  O  O27  1  0.81574650  0.12515150  0.53741100  1
  O  O28  1  0.18425350  0.12515150  0.46258900  1
  O  O29  1  0.81574650  0.87484850  0.96258900  1
  O  O30  1  0.97487000  0.63132600  0.75000000  1
  O  O31  1  0.02513000  0.36867400  0.25000000  1
  O  O32  1  0.97487000  0.36867400  0.75000000  1
  O  O33  1  0.02513000  0.63132600  0.25000000  1
  O  O34  1  0.68425350  0.62515150  0.03741100  1
  O  O35  1  0.31574650  0.37484850  0.53741100  1
  O  O36  1  0.68425350  0.37484850  0.46258900  1
  O  O37  1  0.31574650  0.62515150  0.96258900  1
  O  O38  1  0.42319300  0.50000000  0.25000000  1
  O  O39  1  0.57680700  0.50000000  0.75000000  1
  O  O40  1  0.68425350  0.37484850  0.03741100  1
  O  O41  1  0.31574650  0.62515150  0.53741100  1
  O  O42  1  0.68425350  0.62515150  0.46258900  1
  O  O43  1  0.31574650  0.37484850  0.96258900  1
