# generated using pymatgen
data_TbSb2
_symmetry_space_group_name_H-M   'P 1'
_cell_length_a   3.57906000
_cell_length_b   6.38964200
_cell_length_c   7.52904600
_cell_angle_alpha   90.00000000
_cell_angle_beta   90.00000000
_cell_angle_gamma   90.00000000
_symmetry_Int_Tables_number   1
_chemical_formula_structural   TbSb2
_chemical_formula_sum   'Tb2 Sb4'
_cell_volume   172.18109114
_cell_formula_units_Z   2
loop_
 _symmetry_equiv_pos_site_id
 _symmetry_equiv_pos_as_xyz
  1  'x, y, z'
loop_
 _atom_site_type_symbol
 _atom_site_label
 _atom_site_symmetry_multiplicity
 _atom_site_fract_x
 _atom_site_fract_y
 _atom_site_fract_z
 _atom_site_occupancy
  Tb  Tb0  1  0.00000000  0.00000000  0.00000000  1
  Tb  Tb1  1  0.50000000  0.50000000  0.00000000  1
  Sb  Sb2  1  0.75000000  0.25000000  0.67303900  1
  Sb  Sb3  1  0.25000000  0.25000000  0.32696100  1
  Sb  Sb4  1  0.25000000  0.75000000  0.67303900  1
  Sb  Sb5  1  0.75000000  0.75000000  0.32696100  1
