# generated using pymatgen
data_Er3CrB7
_symmetry_space_group_name_H-M   'P 1'
_cell_length_a   3.41498800
_cell_length_b   15.68736200
_cell_length_c   9.29026800
_cell_angle_alpha   90.00000000
_cell_angle_beta   90.00000000
_cell_angle_gamma   90.00000000
_symmetry_Int_Tables_number   1
_chemical_formula_structural   Er3CrB7
_chemical_formula_sum   'Er12 Cr4 B28'
_cell_volume   497.69965854
_cell_formula_units_Z   4
loop_
 _symmetry_equiv_pos_site_id
 _symmetry_equiv_pos_as_xyz
  1  'x, y, z'
loop_
 _atom_site_type_symbol
 _atom_site_label
 _atom_site_symmetry_multiplicity
 _atom_site_fract_x
 _atom_site_fract_y
 _atom_site_fract_z
 _atom_site_occupancy
  Er  Er0  1  0.00000000  0.24142000  0.75000000  1
  Er  Er1  1  0.50000000  0.25858000  0.25000000  1
  Er  Er2  1  0.00000000  0.10512500  0.05954700  1
  Er  Er3  1  0.50000000  0.39487500  0.94045300  1
  Er  Er4  1  0.50000000  0.39487500  0.55954700  1
  Er  Er5  1  0.00000000  0.10512500  0.44045300  1
  Er  Er6  1  0.50000000  0.74142000  0.75000000  1
  Er  Er7  1  0.00000000  0.75858000  0.25000000  1
  Er  Er8  1  0.50000000  0.60512500  0.05954700  1
  Er  Er9  1  0.00000000  0.89487500  0.94045300  1
  Er  Er10  1  0.00000000  0.89487500  0.55954700  1
  Er  Er11  1  0.50000000  0.60512500  0.44045300  1
  Cr  Cr12  1  0.00000000  0.05287900  0.75000000  1
  Cr  Cr13  1  0.50000000  0.44712100  0.25000000  1
  Cr  Cr14  1  0.50000000  0.55287900  0.75000000  1
  Cr  Cr15  1  0.00000000  0.94712100  0.25000000  1
  B  B16  1  0.00000000  0.45798400  0.75000000  1
  B  B17  1  0.50000000  0.04201600  0.25000000  1
  B  B18  1  0.00000000  0.47923400  0.40407500  1
  B  B19  1  0.50000000  0.02076600  0.59592500  1
  B  B20  1  0.50000000  0.02076600  0.90407500  1
  B  B21  1  0.00000000  0.47923400  0.09592500  1
  B  B22  1  0.00000000  0.36893700  0.34886800  1
  B  B23  1  0.50000000  0.13106300  0.65113200  1
  B  B24  1  0.00000000  0.27279900  0.46763100  1
  B  B25  1  0.50000000  0.22720100  0.53236900  1
  B  B26  1  0.50000000  0.22720100  0.96763100  1
  B  B27  1  0.00000000  0.27279900  0.03236900  1
  B  B28  1  0.00000000  0.36893700  0.15113200  1
  B  B29  1  0.50000000  0.13106300  0.84886800  1
  B  B30  1  0.50000000  0.95798400  0.75000000  1
  B  B31  1  0.00000000  0.54201600  0.25000000  1
  B  B32  1  0.50000000  0.97923400  0.40407500  1
  B  B33  1  0.00000000  0.52076600  0.59592500  1
  B  B34  1  0.00000000  0.52076600  0.90407500  1
  B  B35  1  0.50000000  0.97923400  0.09592500  1
  B  B36  1  0.50000000  0.86893700  0.34886800  1
  B  B37  1  0.00000000  0.63106300  0.65113200  1
  B  B38  1  0.50000000  0.77279900  0.46763100  1
  B  B39  1  0.00000000  0.72720100  0.53236900  1
  B  B40  1  0.00000000  0.72720100  0.96763100  1
  B  B41  1  0.50000000  0.77279900  0.03236900  1
  B  B42  1  0.50000000  0.86893700  0.15113200  1
  B  B43  1  0.00000000  0.63106300  0.84886800  1
