# generated using pymatgen
data_HfZn16
_symmetry_space_group_name_H-M   'P 1'
_cell_length_a   7.75110000
_cell_length_b   11.56610000
_cell_length_c   11.84369400
_cell_angle_alpha   90.00000000
_cell_angle_beta   90.00000000
_cell_angle_gamma   90.00000000
_symmetry_Int_Tables_number   1
_chemical_formula_structural   HfZn16
_chemical_formula_sum   'Hf4 Zn64'
_cell_volume   1061.78713998
_cell_formula_units_Z   4
loop_
 _symmetry_equiv_pos_site_id
 _symmetry_equiv_pos_as_xyz
  1  'x, y, z'
loop_
 _atom_site_type_symbol
 _atom_site_label
 _atom_site_symmetry_multiplicity
 _atom_site_fract_x
 _atom_site_fract_y
 _atom_site_fract_z
 _atom_site_occupancy
  Hf  Hf0  1  0.50000000  0.45273500  0.25000000  1
  Hf  Hf1  1  0.50000000  0.54726500  0.75000000  1
  Hf  Hf2  1  0.00000000  0.95273500  0.25000000  1
  Hf  Hf3  1  0.00000000  0.04726500  0.75000000  1
  Zn  Zn4  1  0.66891450  0.31396250  0.43075200  1
  Zn  Zn5  1  0.33108550  0.68603750  0.93075200  1
  Zn  Zn6  1  0.66891450  0.68603750  0.56924800  1
  Zn  Zn7  1  0.33108550  0.31396250  0.06924800  1
  Zn  Zn8  1  0.33108550  0.68603750  0.56924800  1
  Zn  Zn9  1  0.66891450  0.31396250  0.06924800  1
  Zn  Zn10  1  0.33108550  0.31396250  0.43075200  1
  Zn  Zn11  1  0.66891450  0.68603750  0.93075200  1
  Zn  Zn12  1  0.70233900  0.05367900  0.36590100  1
  Zn  Zn13  1  0.29766100  0.94632100  0.86590100  1
  Zn  Zn14  1  0.70233900  0.94632100  0.63409900  1
  Zn  Zn15  1  0.29766100  0.05367900  0.13409900  1
  Zn  Zn16  1  0.29766100  0.94632100  0.63409900  1
  Zn  Zn17  1  0.70233900  0.05367900  0.13409900  1
  Zn  Zn18  1  0.29766100  0.05367900  0.36590100  1
  Zn  Zn19  1  0.70233900  0.94632100  0.86590100  1
  Zn  Zn20  1  0.33690450  0.85705750  0.25000000  1
  Zn  Zn21  1  0.66309550  0.14294250  0.75000000  1
  Zn  Zn22  1  0.33690450  0.14294250  0.75000000  1
  Zn  Zn23  1  0.66309550  0.85705750  0.25000000  1
  Zn  Zn24  1  0.50000000  0.32218300  0.86043000  1
  Zn  Zn25  1  0.50000000  0.67781700  0.36043000  1
  Zn  Zn26  1  0.50000000  0.67781700  0.13957000  1
  Zn  Zn27  1  0.50000000  0.32218300  0.63957000  1
  Zn  Zn28  1  0.50000000  0.87892100  0.46911100  1
  Zn  Zn29  1  0.50000000  0.12107900  0.96911100  1
  Zn  Zn30  1  0.50000000  0.12107900  0.53088900  1
  Zn  Zn31  1  0.50000000  0.87892100  0.03088900  1
  Zn  Zn32  1  0.50000000  0.20801800  0.25000000  1
  Zn  Zn33  1  0.50000000  0.79198200  0.75000000  1
  Zn  Zn34  1  0.00000000  0.00000000  0.50000000  1
  Zn  Zn35  1  0.00000000  0.00000000  0.00000000  1
  Zn  Zn36  1  0.16891450  0.81396250  0.43075200  1
  Zn  Zn37  1  0.83108550  0.18603750  0.93075200  1
  Zn  Zn38  1  0.16891450  0.18603750  0.56924800  1
  Zn  Zn39  1  0.83108550  0.81396250  0.06924800  1
  Zn  Zn40  1  0.83108550  0.18603750  0.56924800  1
  Zn  Zn41  1  0.16891450  0.81396250  0.06924800  1
  Zn  Zn42  1  0.83108550  0.81396250  0.43075200  1
  Zn  Zn43  1  0.16891450  0.18603750  0.93075200  1
  Zn  Zn44  1  0.20233900  0.55367900  0.36590100  1
  Zn  Zn45  1  0.79766100  0.44632100  0.86590100  1
  Zn  Zn46  1  0.20233900  0.44632100  0.63409900  1
  Zn  Zn47  1  0.79766100  0.55367900  0.13409900  1
  Zn  Zn48  1  0.79766100  0.44632100  0.63409900  1
  Zn  Zn49  1  0.20233900  0.55367900  0.13409900  1
  Zn  Zn50  1  0.79766100  0.55367900  0.36590100  1
  Zn  Zn51  1  0.20233900  0.44632100  0.86590100  1
  Zn  Zn52  1  0.83690450  0.35705750  0.25000000  1
  Zn  Zn53  1  0.16309550  0.64294250  0.75000000  1
  Zn  Zn54  1  0.83690450  0.64294250  0.75000000  1
  Zn  Zn55  1  0.16309550  0.35705750  0.25000000  1
  Zn  Zn56  1  0.00000000  0.82218300  0.86043000  1
  Zn  Zn57  1  0.00000000  0.17781700  0.36043000  1
  Zn  Zn58  1  0.00000000  0.17781700  0.13957000  1
  Zn  Zn59  1  0.00000000  0.82218300  0.63957000  1
  Zn  Zn60  1  0.00000000  0.37892100  0.46911100  1
  Zn  Zn61  1  0.00000000  0.62107900  0.96911100  1
  Zn  Zn62  1  0.00000000  0.62107900  0.53088900  1
  Zn  Zn63  1  0.00000000  0.37892100  0.03088900  1
  Zn  Zn64  1  0.00000000  0.70801800  0.25000000  1
  Zn  Zn65  1  0.00000000  0.29198200  0.75000000  1
  Zn  Zn66  1  0.50000000  0.50000000  0.50000000  1
  Zn  Zn67  1  0.50000000  0.50000000  0.00000000  1
