# generated using pymatgen
data_BaCu9Si4
_symmetry_space_group_name_H-M   'P 1'
_cell_length_a   8.22286000
_cell_length_b   8.22286000
_cell_length_c   11.72733400
_cell_angle_alpha   90.00000000
_cell_angle_beta   90.00000000
_cell_angle_gamma   90.00000000
_symmetry_Int_Tables_number   1
_chemical_formula_structural   BaCu9Si4
_chemical_formula_sum   'Ba4 Cu36 Si16'
_cell_volume   792.94869105
_cell_formula_units_Z   4
loop_
 _symmetry_equiv_pos_site_id
 _symmetry_equiv_pos_as_xyz
  1  'x, y, z'
loop_
 _atom_site_type_symbol
 _atom_site_label
 _atom_site_symmetry_multiplicity
 _atom_site_fract_x
 _atom_site_fract_y
 _atom_site_fract_z
 _atom_site_occupancy
  Ba  Ba0  1  0.50000000  0.50000000  0.25000000  1
  Ba  Ba1  1  0.00000000  0.00000000  0.25000000  1
  Ba  Ba2  1  0.00000000  0.00000000  0.75000000  1
  Ba  Ba3  1  0.50000000  0.50000000  0.75000000  1
  Cu  Cu4  1  0.70484700  0.43579400  0.00000000  1
  Cu  Cu5  1  0.56420600  0.70484700  0.00000000  1
  Cu  Cu6  1  0.43579400  0.29515300  0.00000000  1
  Cu  Cu7  1  0.79515300  0.93579400  0.00000000  1
  Cu  Cu8  1  0.29515300  0.56420600  0.00000000  1
  Cu  Cu9  1  0.37747850  0.12252150  0.18199250  1
  Cu  Cu10  1  0.62252150  0.87747850  0.18199250  1
  Cu  Cu11  1  0.12252150  0.37747850  0.31800750  1
  Cu  Cu12  1  0.87747850  0.62252150  0.31800750  1
  Cu  Cu13  1  0.62252150  0.12252150  0.31800750  1
  Cu  Cu14  1  0.37747850  0.87747850  0.31800750  1
  Cu  Cu15  1  0.87747850  0.37747850  0.18199250  1
  Cu  Cu16  1  0.93579400  0.20484700  0.00000000  1
  Cu  Cu17  1  0.20484700  0.06420600  0.00000000  1
  Cu  Cu18  1  0.50000000  0.00000000  0.00000000  1
  Cu  Cu19  1  0.00000000  0.50000000  0.00000000  1
  Cu  Cu20  1  0.12252150  0.62252150  0.18199250  1
  Cu  Cu21  1  0.06420600  0.79515300  0.00000000  1
  Cu  Cu22  1  0.20484700  0.93579400  0.50000000  1
  Cu  Cu23  1  0.06420600  0.20484700  0.50000000  1
  Cu  Cu24  1  0.93579400  0.79515300  0.50000000  1
  Cu  Cu25  1  0.29515300  0.43579400  0.50000000  1
  Cu  Cu26  1  0.79515300  0.06420600  0.50000000  1
  Cu  Cu27  1  0.87747850  0.62252150  0.68199250  1
  Cu  Cu28  1  0.12252150  0.37747850  0.68199250  1
  Cu  Cu29  1  0.62252150  0.87747850  0.81800750  1
  Cu  Cu30  1  0.37747850  0.12252150  0.81800750  1
  Cu  Cu31  1  0.12252150  0.62252150  0.81800750  1
  Cu  Cu32  1  0.87747850  0.37747850  0.81800750  1
  Cu  Cu33  1  0.37747850  0.87747850  0.68199250  1
  Cu  Cu34  1  0.43579400  0.70484700  0.50000000  1
  Cu  Cu35  1  0.70484700  0.56420600  0.50000000  1
  Cu  Cu36  1  0.00000000  0.50000000  0.50000000  1
  Cu  Cu37  1  0.50000000  0.00000000  0.50000000  1
  Cu  Cu38  1  0.62252150  0.12252150  0.68199250  1
  Cu  Cu39  1  0.56420600  0.29515300  0.50000000  1
  Si  Si40  1  0.67535950  0.17535950  0.11518450  1
  Si  Si41  1  0.17535950  0.67535950  0.38481550  1
  Si  Si42  1  0.32464050  0.17535950  0.38481550  1
  Si  Si43  1  0.82464050  0.67535950  0.11518450  1
  Si  Si44  1  0.17535950  0.32464050  0.11518450  1
  Si  Si45  1  0.32464050  0.82464050  0.11518450  1
  Si  Si46  1  0.82464050  0.32464050  0.38481550  1
  Si  Si47  1  0.67535950  0.82464050  0.38481550  1
  Si  Si48  1  0.17535950  0.67535950  0.61518450  1
  Si  Si49  1  0.67535950  0.17535950  0.88481550  1
  Si  Si50  1  0.82464050  0.67535950  0.88481550  1
  Si  Si51  1  0.32464050  0.17535950  0.61518450  1
  Si  Si52  1  0.67535950  0.82464050  0.61518450  1
  Si  Si53  1  0.82464050  0.32464050  0.61518450  1
  Si  Si54  1  0.32464050  0.82464050  0.88481550  1
  Si  Si55  1  0.17535950  0.32464050  0.88481550  1
