# generated using pymatgen
data_Eu(Cu2As)2
_symmetry_space_group_name_H-M   'P 1'
_cell_length_a   4.16900380
_cell_length_b   4.16900380
_cell_length_c   23.00566822
_cell_angle_alpha   90.00000000
_cell_angle_beta   90.00000000
_cell_angle_gamma   120.00000000
_symmetry_Int_Tables_number   1
_chemical_formula_structural   Eu(Cu2As)2
_chemical_formula_sum   'Eu3 Cu12 As6'
_cell_volume   346.28211942
_cell_formula_units_Z   3
loop_
 _symmetry_equiv_pos_site_id
 _symmetry_equiv_pos_as_xyz
  1  'x, y, z'
loop_
 _atom_site_type_symbol
 _atom_site_label
 _atom_site_symmetry_multiplicity
 _atom_site_fract_x
 _atom_site_fract_y
 _atom_site_fract_z
 _atom_site_occupancy
  Eu  Eu0  1  0.00000000  0.00000000  0.00000000  1
  Eu  Eu1  1  0.66666667  0.33333333  0.33333333  1
  Eu  Eu2  1  0.33333333  0.66666667  0.66666667  1
  Cu  Cu3  1  0.33333333  0.66666667  0.10566067  1
  Cu  Cu4  1  0.00000000  0.00000000  0.14569600  1
  Cu  Cu5  1  0.33333333  0.66666667  0.22767267  1
  Cu  Cu6  1  0.66666667  0.33333333  0.18763733  1
  Cu  Cu7  1  0.00000000  0.00000000  0.43899400  1
  Cu  Cu8  1  0.66666667  0.33333333  0.47902933  1
  Cu  Cu9  1  0.00000000  0.00000000  0.56100600  1
  Cu  Cu10  1  0.33333333  0.66666667  0.52097067  1
  Cu  Cu11  1  0.66666667  0.33333333  0.77232733  1
  Cu  Cu12  1  0.33333333  0.66666667  0.81236267  1
  Cu  Cu13  1  0.66666667  0.33333333  0.89433933  1
  Cu  Cu14  1  0.00000000  0.00000000  0.85430400  1
  As  As15  1  0.00000000  0.00000000  0.25232800  1
  As  As16  1  0.66666667  0.33333333  0.08100533  1
  As  As17  1  0.66666667  0.33333333  0.58566133  1
  As  As18  1  0.33333333  0.66666667  0.41433867  1
  As  As19  1  0.33333333  0.66666667  0.91899467  1
  As  As20  1  0.00000000  0.00000000  0.74767200  1
