# generated using pymatgen
data_SmCrO4
_symmetry_space_group_name_H-M   'P 1'
_cell_length_a   7.35599400
_cell_length_b   7.35599400
_cell_length_c   6.38645200
_cell_angle_alpha   90.00000000
_cell_angle_beta   90.00000000
_cell_angle_gamma   90.00000000
_symmetry_Int_Tables_number   1
_chemical_formula_structural   SmCrO4
_chemical_formula_sum   'Sm4 Cr4 O16'
_cell_volume   345.57505440
_cell_formula_units_Z   4
loop_
 _symmetry_equiv_pos_site_id
 _symmetry_equiv_pos_as_xyz
  1  'x, y, z'
loop_
 _atom_site_type_symbol
 _atom_site_label
 _atom_site_symmetry_multiplicity
 _atom_site_fract_x
 _atom_site_fract_y
 _atom_site_fract_z
 _atom_site_occupancy
  Sm  Sm0  1  0.00000000  0.00000000  0.50000000  1
  Sm  Sm1  1  0.50000000  0.00000000  0.75000000  1
  Sm  Sm2  1  0.50000000  0.50000000  0.00000000  1
  Sm  Sm3  1  0.00000000  0.50000000  0.25000000  1
  Cr  Cr4  1  0.50000000  0.50000000  0.50000000  1
  Cr  Cr5  1  0.50000000  0.00000000  0.25000000  1
  Cr  Cr6  1  0.00000000  0.00000000  0.00000000  1
  Cr  Cr7  1  0.00000000  0.50000000  0.75000000  1
  O  O8  1  0.00000000  0.68164900  0.57909100  1
  O  O9  1  0.81835100  0.00000000  0.82909100  1
  O  O10  1  0.68164900  0.50000000  0.32909100  1
  O  O11  1  0.00000000  0.31835100  0.57909100  1
  O  O12  1  0.68164900  0.00000000  0.42090900  1
  O  O13  1  0.50000000  0.31835100  0.67090900  1
  O  O14  1  0.00000000  0.18164900  0.17090900  1
  O  O15  1  0.31835100  0.00000000  0.42090900  1
  O  O16  1  0.50000000  0.18164900  0.07909100  1
  O  O17  1  0.31835100  0.50000000  0.32909100  1
  O  O18  1  0.18164900  0.00000000  0.82909100  1
  O  O19  1  0.50000000  0.81835100  0.07909100  1
  O  O20  1  0.18164900  0.50000000  0.92090900  1
  O  O21  1  0.00000000  0.81835100  0.17090900  1
  O  O22  1  0.50000000  0.68164900  0.67090900  1
  O  O23  1  0.81835100  0.50000000  0.92090900  1
