# generated using pymatgen
data_Tm5(SiSb)2
_symmetry_space_group_name_H-M   'P 1'
_cell_length_a   7.73546200
_cell_length_b   14.94919800
_cell_length_c   7.75859500
_cell_angle_alpha   90.00000000
_cell_angle_beta   90.00000000
_cell_angle_gamma   90.00000000
_symmetry_Int_Tables_number   1
_chemical_formula_structural   Tm5(SiSb)2
_chemical_formula_sum   'Tm20 Si8 Sb8'
_cell_volume   897.19580301
_cell_formula_units_Z   4
loop_
 _symmetry_equiv_pos_site_id
 _symmetry_equiv_pos_as_xyz
  1  'x, y, z'
loop_
 _atom_site_type_symbol
 _atom_site_label
 _atom_site_symmetry_multiplicity
 _atom_site_fract_x
 _atom_site_fract_y
 _atom_site_fract_z
 _atom_site_occupancy
  Tm  Tm0  1  0.16496650  0.62481350  0.83554700  1
  Tm  Tm1  1  0.16496650  0.87518650  0.66445300  1
  Tm  Tm2  1  0.83503350  0.62481350  0.16445300  1
  Tm  Tm3  1  0.83503350  0.87518650  0.33554700  1
  Tm  Tm4  1  0.33503350  0.62481350  0.33554700  1
  Tm  Tm5  1  0.33503350  0.87518650  0.16445300  1
  Tm  Tm6  1  0.66496650  0.87518650  0.83554700  1
  Tm  Tm7  1  0.66496650  0.62481350  0.66445300  1
  Tm  Tm8  1  0.50000000  0.00000000  0.50000000  1
  Tm  Tm9  1  0.00000000  0.00000000  0.00000000  1
  Tm  Tm10  1  0.66496650  0.12481350  0.83554700  1
  Tm  Tm11  1  0.66496650  0.37518650  0.66445300  1
  Tm  Tm12  1  0.33503350  0.12481350  0.16445300  1
  Tm  Tm13  1  0.33503350  0.37518650  0.33554700  1
  Tm  Tm14  1  0.83503350  0.12481350  0.33554700  1
  Tm  Tm15  1  0.83503350  0.37518650  0.16445300  1
  Tm  Tm16  1  0.16496650  0.37518650  0.83554700  1
  Tm  Tm17  1  0.16496650  0.12481350  0.66445300  1
  Tm  Tm18  1  0.00000000  0.50000000  0.50000000  1
  Tm  Tm19  1  0.50000000  0.50000000  0.00000000  1
  Si  Si20  1  0.63342800  0.00000000  0.13220500  1
  Si  Si21  1  0.13342800  0.00000000  0.36779500  1
  Si  Si22  1  0.86657200  0.00000000  0.63220500  1
  Si  Si23  1  0.36657200  0.00000000  0.86779500  1
  Si  Si24  1  0.13342800  0.50000000  0.13220500  1
  Si  Si25  1  0.63342800  0.50000000  0.36779500  1
  Si  Si26  1  0.36657200  0.50000000  0.63220500  1
  Si  Si27  1  0.86657200  0.50000000  0.86779500  1
  Sb  Sb28  1  0.00000000  0.70611000  0.50000000  1
  Sb  Sb29  1  0.00000000  0.79389000  0.00000000  1
  Sb  Sb30  1  0.50000000  0.79389000  0.50000000  1
  Sb  Sb31  1  0.50000000  0.70611000  0.00000000  1
  Sb  Sb32  1  0.50000000  0.20611000  0.50000000  1
  Sb  Sb33  1  0.50000000  0.29389000  0.00000000  1
  Sb  Sb34  1  0.00000000  0.29389000  0.50000000  1
  Sb  Sb35  1  0.00000000  0.20611000  0.00000000  1
