# generated using pymatgen
data_Ce(GePd)2
_symmetry_space_group_name_H-M   'P 1'
_cell_length_a   4.30875800
_cell_length_b   4.30875800
_cell_length_c   10.28231800
_cell_angle_alpha   90.00000000
_cell_angle_beta   90.00000000
_cell_angle_gamma   90.00000000
_symmetry_Int_Tables_number   1
_chemical_formula_structural   Ce(GePd)2
_chemical_formula_sum   'Ce2 Ge4 Pd4'
_cell_volume   190.89530035
_cell_formula_units_Z   2
loop_
 _symmetry_equiv_pos_site_id
 _symmetry_equiv_pos_as_xyz
  1  'x, y, z'
loop_
 _atom_site_type_symbol
 _atom_site_label
 _atom_site_symmetry_multiplicity
 _atom_site_fract_x
 _atom_site_fract_y
 _atom_site_fract_z
 _atom_site_occupancy
  Ce  Ce0  1  0.00000000  0.00000000  0.00000000  1
  Ce  Ce1  1  0.50000000  0.50000000  0.50000000  1
  Ge  Ge2  1  0.50000000  0.50000000  0.11981000  1
  Ge  Ge3  1  0.00000000  0.00000000  0.38019000  1
  Ge  Ge4  1  0.00000000  0.00000000  0.61981000  1
  Ge  Ge5  1  0.50000000  0.50000000  0.88019000  1
  Pd  Pd6  1  0.50000000  0.00000000  0.25000000  1
  Pd  Pd7  1  0.00000000  0.50000000  0.25000000  1
  Pd  Pd8  1  0.00000000  0.50000000  0.75000000  1
  Pd  Pd9  1  0.50000000  0.00000000  0.75000000  1
