# generated using pymatgen
data_RbLa(WO4)2
_symmetry_space_group_name_H-M   'P 1'
_cell_length_a   10.56256400
_cell_length_b   10.99424200
_cell_length_c   7.75638859
_cell_angle_alpha   90.00000000
_cell_angle_beta   125.35488359
_cell_angle_gamma   90.00000000
_symmetry_Int_Tables_number   1
_chemical_formula_structural   RbLa(WO4)2
_chemical_formula_sum   'Rb4 La4 W8 O32'
_cell_volume   734.61997793
_cell_formula_units_Z   4
loop_
 _symmetry_equiv_pos_site_id
 _symmetry_equiv_pos_as_xyz
  1  'x, y, z'
loop_
 _atom_site_type_symbol
 _atom_site_label
 _atom_site_symmetry_multiplicity
 _atom_site_fract_x
 _atom_site_fract_y
 _atom_site_fract_z
 _atom_site_occupancy
  Rb  Rb0  1  0.68595800  0.00000000  0.53348700  1
  Rb  Rb1  1  0.31404200  0.00000000  0.46651300  1
  Rb  Rb2  1  0.18595800  0.50000000  0.53348700  1
  Rb  Rb3  1  0.81404200  0.50000000  0.46651300  1
  La  La4  1  0.50000000  0.20131800  0.00000000  1
  La  La5  1  0.50000000  0.79868200  0.00000000  1
  La  La6  1  0.00000000  0.70131800  0.00000000  1
  La  La7  1  0.00000000  0.29868200  0.00000000  1
  W  W8  1  0.79888700  0.00000000  0.06828000  1
  W  W9  1  0.20111300  0.00000000  0.93172000  1
  W  W10  1  0.50000000  0.66107000  0.50000000  1
  W  W11  1  0.50000000  0.33893000  0.50000000  1
  W  W12  1  0.29888700  0.50000000  0.06828000  1
  W  W13  1  0.70111300  0.50000000  0.93172000  1
  W  W14  1  0.00000000  0.16107000  0.50000000  1
  W  W15  1  0.00000000  0.83893000  0.50000000  1
  O  O16  1  0.01523200  0.00000000  0.34728900  1
  O  O17  1  0.98476800  0.00000000  0.65271100  1
  O  O18  1  0.83529300  0.87354200  0.94905900  1
  O  O19  1  0.16470700  0.87354200  0.05094100  1
  O  O20  1  0.16470700  0.12645800  0.05094100  1
  O  O21  1  0.83529300  0.12645800  0.94905900  1
  O  O22  1  0.41841000  0.00000000  0.09441500  1
  O  O23  1  0.58159000  0.00000000  0.90558500  1
  O  O24  1  0.21626650  0.87325550  0.73368800  1
  O  O25  1  0.78373350  0.87325550  0.26631200  1
  O  O26  1  0.78373350  0.12674450  0.26631200  1
  O  O27  1  0.21626650  0.12674450  0.73368800  1
  O  O28  1  0.45513700  0.76146500  0.64406300  1
  O  O29  1  0.54486300  0.76146500  0.35593700  1
  O  O30  1  0.54486300  0.23853500  0.35593700  1
  O  O31  1  0.45513700  0.23853500  0.64406300  1
  O  O32  1  0.51523200  0.50000000  0.34728900  1
  O  O33  1  0.48476800  0.50000000  0.65271100  1
  O  O34  1  0.33529300  0.37354200  0.94905900  1
  O  O35  1  0.66470700  0.37354200  0.05094100  1
  O  O36  1  0.66470700  0.62645800  0.05094100  1
  O  O37  1  0.33529300  0.62645800  0.94905900  1
  O  O38  1  0.91841000  0.50000000  0.09441500  1
  O  O39  1  0.08159000  0.50000000  0.90558500  1
  O  O40  1  0.71626650  0.37325550  0.73368800  1
  O  O41  1  0.28373350  0.37325550  0.26631200  1
  O  O42  1  0.28373350  0.62674450  0.26631200  1
  O  O43  1  0.71626650  0.62674450  0.73368800  1
  O  O44  1  0.95513700  0.26146500  0.64406300  1
  O  O45  1  0.04486300  0.26146500  0.35593700  1
  O  O46  1  0.04486300  0.73853500  0.35593700  1
  O  O47  1  0.95513700  0.73853500  0.64406300  1
