# generated using pymatgen
data_NdAl4Ge2Au
_symmetry_space_group_name_H-M   'P 1'
_cell_length_a   4.27610819
_cell_length_b   4.27610819
_cell_length_c   31.51708170
_cell_angle_alpha   90.00000000
_cell_angle_beta   90.00000000
_cell_angle_gamma   120.00000000
_symmetry_Int_Tables_number   1
_chemical_formula_structural   NdAl4Ge2Au
_chemical_formula_sum   'Nd3 Al12 Ge6 Au3'
_cell_volume   499.08440368
_cell_formula_units_Z   3
loop_
 _symmetry_equiv_pos_site_id
 _symmetry_equiv_pos_as_xyz
  1  'x, y, z'
loop_
 _atom_site_type_symbol
 _atom_site_label
 _atom_site_symmetry_multiplicity
 _atom_site_fract_x
 _atom_site_fract_y
 _atom_site_fract_z
 _atom_site_occupancy
  Nd  Nd0  1  0.33333333  0.66666667  0.16666667  1
  Nd  Nd1  1  1.00000000  1.00000000  0.50000000  1
  Nd  Nd2  1  0.66666667  0.33333333  0.83333333  1
  Al  Al3  1  0.00000000  0.00000000  0.08278300  1
  Al  Al4  1  0.00000000  0.00000000  0.30812300  1
  Al  Al5  1  0.66666667  0.33333333  0.25055033  1
  Al  Al6  1  0.66666667  0.33333333  0.02521033  1
  Al  Al7  1  0.66666667  0.33333333  0.41611633  1
  Al  Al8  1  0.66666667  0.33333333  0.64145633  1
  Al  Al9  1  0.33333333  0.66666667  0.58388367  1
  Al  Al10  1  0.33333333  0.66666667  0.35854367  1
  Al  Al11  1  0.33333333  0.66666667  0.74944967  1
  Al  Al12  1  0.33333333  0.66666667  0.97478967  1
  Al  Al13  1  0.00000000  0.00000000  0.91721700  1
  Al  Al14  1  0.00000000  0.00000000  0.69187700  1
  Ge  Ge15  1  0.00000000  0.00000000  0.22444600  1
  Ge  Ge16  1  0.66666667  0.33333333  0.10888733  1
  Ge  Ge17  1  0.66666667  0.33333333  0.55777933  1
  Ge  Ge18  1  0.33333333  0.66666667  0.44222067  1
  Ge  Ge19  1  0.33333333  0.66666667  0.89111267  1
  Ge  Ge20  1  0.00000000  0.00000000  0.77555400  1
  Au  Au21  1  0.00000000  0.00000000  0.00000000  1
  Au  Au22  1  0.66666667  0.33333333  0.33333333  1
  Au  Au23  1  0.33333333  0.66666667  0.66666667  1
