# generated using pymatgen
data_K3Na(RuO4)2
_symmetry_space_group_name_H-M   'P 1'
_cell_length_a   10.54860400
_cell_length_b   6.09449200
_cell_length_c   15.50981330
_cell_angle_alpha   90.00000000
_cell_angle_beta   90.39912061
_cell_angle_gamma   90.00000000
_symmetry_Int_Tables_number   1
_chemical_formula_structural   K3Na(RuO4)2
_chemical_formula_sum   'K12 Na4 Ru8 O32'
_cell_volume   997.07662115
_cell_formula_units_Z   4
loop_
 _symmetry_equiv_pos_site_id
 _symmetry_equiv_pos_as_xyz
  1  'x, y, z'
loop_
 _atom_site_type_symbol
 _atom_site_label
 _atom_site_symmetry_multiplicity
 _atom_site_fract_x
 _atom_site_fract_y
 _atom_site_fract_z
 _atom_site_occupancy
  K  K0  1  0.32922850  0.02646050  0.58417400  1
  K  K1  1  0.67077150  0.02646050  0.91582600  1
  K  K2  1  0.50000000  0.56467500  0.75000000  1
  K  K3  1  0.50000000  0.43532500  0.25000000  1
  K  K4  1  0.32922850  0.97353950  0.08417400  1
  K  K5  1  0.67077150  0.97353950  0.41582600  1
  K  K6  1  0.82922850  0.52646050  0.58417400  1
  K  K7  1  0.17077150  0.52646050  0.91582600  1
  K  K8  1  0.00000000  0.06467500  0.75000000  1
  K  K9  1  0.00000000  0.93532500  0.25000000  1
  K  K10  1  0.82922850  0.47353950  0.08417400  1
  K  K11  1  0.17077150  0.47353950  0.41582600  1
  Na  Na12  1  0.00000000  0.00000000  0.00000000  1
  Na  Na13  1  0.00000000  0.00000000  0.50000000  1
  Na  Na14  1  0.50000000  0.50000000  0.00000000  1
  Na  Na15  1  0.50000000  0.50000000  0.50000000  1
  Ru  Ru16  1  0.66168050  0.02407150  0.63994500  1
  Ru  Ru17  1  0.33831950  0.02407150  0.86005500  1
  Ru  Ru18  1  0.33831950  0.97592850  0.36005500  1
  Ru  Ru19  1  0.66168050  0.97592850  0.13994500  1
  Ru  Ru20  1  0.16168050  0.52407150  0.63994500  1
  Ru  Ru21  1  0.83831950  0.52407150  0.86005500  1
  Ru  Ru22  1  0.83831950  0.47592850  0.36005500  1
  Ru  Ru23  1  0.16168050  0.47592850  0.13994500  1
  O  O24  1  0.58213350  0.19037950  0.07893100  1
  O  O25  1  0.41786650  0.19037950  0.42106900  1
  O  O26  1  0.41786650  0.80962050  0.92106900  1
  O  O27  1  0.58213350  0.80962050  0.57893100  1
  O  O28  1  0.57203650  0.72893450  0.12201800  1
  O  O29  1  0.42796350  0.72893450  0.37798200  1
  O  O30  1  0.42796350  0.27106550  0.87798200  1
  O  O31  1  0.57203650  0.27106550  0.62201800  1
  O  O32  1  0.81385450  0.95408150  0.08809400  1
  O  O33  1  0.18614550  0.95408150  0.41190600  1
  O  O34  1  0.18614550  0.04591850  0.91190600  1
  O  O35  1  0.81385450  0.04591850  0.58809400  1
  O  O36  1  0.67287500  0.93502400  0.74891500  1
  O  O37  1  0.32712500  0.93502400  0.75108500  1
  O  O38  1  0.32712500  0.06497600  0.25108500  1
  O  O39  1  0.67287500  0.06497600  0.24891500  1
  O  O40  1  0.08213350  0.69037950  0.07893100  1
  O  O41  1  0.91786650  0.69037950  0.42106900  1
  O  O42  1  0.91786650  0.30962050  0.92106900  1
  O  O43  1  0.08213350  0.30962050  0.57893100  1
  O  O44  1  0.07203650  0.22893450  0.12201800  1
  O  O45  1  0.92796350  0.22893450  0.37798200  1
  O  O46  1  0.92796350  0.77106550  0.87798200  1
  O  O47  1  0.07203650  0.77106550  0.62201800  1
  O  O48  1  0.31385450  0.45408150  0.08809400  1
  O  O49  1  0.68614550  0.45408150  0.41190600  1
  O  O50  1  0.68614550  0.54591850  0.91190600  1
  O  O51  1  0.31385450  0.54591850  0.58809400  1
  O  O52  1  0.17287500  0.43502400  0.74891500  1
  O  O53  1  0.82712500  0.43502400  0.75108500  1
  O  O54  1  0.82712500  0.56497600  0.25108500  1
  O  O55  1  0.17287500  0.56497600  0.24891500  1
