# generated using pymatgen
data_BaLa2FeS5
_symmetry_space_group_name_H-M   'P 1'
_cell_length_a   8.01214200
_cell_length_b   8.01214200
_cell_length_c   13.51212600
_cell_angle_alpha   90.00000000
_cell_angle_beta   90.00000000
_cell_angle_gamma   90.00000000
_symmetry_Int_Tables_number   1
_chemical_formula_structural   BaLa2FeS5
_chemical_formula_sum   'Ba4 La8 Fe4 S20'
_cell_volume   867.40308381
_cell_formula_units_Z   4
loop_
 _symmetry_equiv_pos_site_id
 _symmetry_equiv_pos_as_xyz
  1  'x, y, z'
loop_
 _atom_site_type_symbol
 _atom_site_label
 _atom_site_symmetry_multiplicity
 _atom_site_fract_x
 _atom_site_fract_y
 _atom_site_fract_z
 _atom_site_occupancy
  Ba  Ba0  1  0.50000000  0.50000000  0.25000000  1
  Ba  Ba1  1  0.00000000  0.00000000  0.25000000  1
  Ba  Ba2  1  0.00000000  0.00000000  0.75000000  1
  Ba  Ba3  1  0.50000000  0.50000000  0.75000000  1
  La  La4  1  0.66285200  0.83714800  0.00000000  1
  La  La5  1  0.16285200  0.66285200  0.00000000  1
  La  La6  1  0.83714800  0.33714800  0.00000000  1
  La  La7  1  0.33714800  0.16285200  0.00000000  1
  La  La8  1  0.16285200  0.33714800  0.50000000  1
  La  La9  1  0.66285200  0.16285200  0.50000000  1
  La  La10  1  0.33714800  0.83714800  0.50000000  1
  La  La11  1  0.83714800  0.66285200  0.50000000  1
  Fe  Fe12  1  0.50000000  0.00000000  0.25000000  1
  Fe  Fe13  1  0.00000000  0.50000000  0.25000000  1
  Fe  Fe14  1  0.00000000  0.50000000  0.75000000  1
  Fe  Fe15  1  0.50000000  0.00000000  0.75000000  1
  S  S16  1  0.35196750  0.85196750  0.13720350  1
  S  S17  1  0.85196750  0.35196750  0.36279650  1
  S  S18  1  0.14803250  0.64803250  0.36279650  1
  S  S19  1  0.35196750  0.14803250  0.36279650  1
  S  S20  1  0.64803250  0.85196750  0.36279650  1
  S  S21  1  0.14803250  0.35196750  0.13720350  1
  S  S22  1  0.85196750  0.64803250  0.13720350  1
  S  S23  1  0.64803250  0.14803250  0.13720350  1
  S  S24  1  0.00000000  0.00000000  0.00000000  1
  S  S25  1  0.50000000  0.50000000  0.00000000  1
  S  S26  1  0.85196750  0.35196750  0.63720350  1
  S  S27  1  0.35196750  0.85196750  0.86279650  1
  S  S28  1  0.64803250  0.14803250  0.86279650  1
  S  S29  1  0.85196750  0.64803250  0.86279650  1
  S  S30  1  0.14803250  0.35196750  0.86279650  1
  S  S31  1  0.64803250  0.85196750  0.63720350  1
  S  S32  1  0.35196750  0.14803250  0.63720350  1
  S  S33  1  0.14803250  0.64803250  0.63720350  1
  S  S34  1  0.50000000  0.50000000  0.50000000  1
  S  S35  1  0.00000000  0.00000000  0.50000000  1
