# generated using pymatgen
data_Li2Ca2Ta3O10
_symmetry_space_group_name_H-M   'P 1'
_cell_length_a   3.98722200
_cell_length_b   3.98722200
_cell_length_c   26.53202800
_cell_angle_alpha   90.00000000
_cell_angle_beta   90.00000000
_cell_angle_gamma   90.00000000
_symmetry_Int_Tables_number   1
_chemical_formula_structural   Li2Ca2Ta3O10
_chemical_formula_sum   'Li4 Ca4 Ta6 O20'
_cell_volume   421.80457005
_cell_formula_units_Z   2
loop_
 _symmetry_equiv_pos_site_id
 _symmetry_equiv_pos_as_xyz
  1  'x, y, z'
loop_
 _atom_site_type_symbol
 _atom_site_label
 _atom_site_symmetry_multiplicity
 _atom_site_fract_x
 _atom_site_fract_y
 _atom_site_fract_z
 _atom_site_occupancy
  Li  Li0  1  0.50000000  0.00000000  0.25000000  1
  Li  Li1  1  0.00000000  0.50000000  0.25000000  1
  Li  Li2  1  0.00000000  0.50000000  0.75000000  1
  Li  Li3  1  0.50000000  0.00000000  0.75000000  1
  Ca  Ca4  1  0.00000000  0.00000000  0.41507000  1
  Ca  Ca5  1  0.50000000  0.50000000  0.08493000  1
  Ca  Ca6  1  0.50000000  0.50000000  0.91507000  1
  Ca  Ca7  1  0.00000000  0.00000000  0.58493000  1
  Ta  Ta8  1  0.50000000  0.50000000  0.34550000  1
  Ta  Ta9  1  0.00000000  0.00000000  0.00000000  1
  Ta  Ta10  1  0.00000000  0.00000000  0.15450000  1
  Ta  Ta11  1  0.00000000  0.00000000  0.84550000  1
  Ta  Ta12  1  0.50000000  0.50000000  0.50000000  1
  Ta  Ta13  1  0.50000000  0.50000000  0.65450000  1
  O  O14  1  0.50000000  0.00000000  0.35552300  1
  O  O15  1  0.50000000  0.50000000  0.27394500  1
  O  O16  1  0.00000000  0.00000000  0.22605500  1
  O  O17  1  0.00000000  0.50000000  0.00000000  1
  O  O18  1  0.00000000  0.50000000  0.35552300  1
  O  O19  1  0.50000000  0.00000000  0.00000000  1
  O  O20  1  0.50000000  0.50000000  0.42517500  1
  O  O21  1  0.00000000  0.00000000  0.07482500  1
  O  O22  1  0.50000000  0.00000000  0.14447700  1
  O  O23  1  0.00000000  0.50000000  0.14447700  1
  O  O24  1  0.00000000  0.50000000  0.85552300  1
  O  O25  1  0.00000000  0.00000000  0.77394500  1
  O  O26  1  0.50000000  0.50000000  0.72605500  1
  O  O27  1  0.50000000  0.00000000  0.50000000  1
  O  O28  1  0.50000000  0.00000000  0.85552300  1
  O  O29  1  0.00000000  0.50000000  0.50000000  1
  O  O30  1  0.00000000  0.00000000  0.92517500  1
  O  O31  1  0.50000000  0.50000000  0.57482500  1
  O  O32  1  0.00000000  0.50000000  0.64447700  1
  O  O33  1  0.50000000  0.00000000  0.64447700  1
