# generated using pymatgen
data_CeCrSe2O
_symmetry_space_group_name_H-M   'P 1'
_cell_length_a   11.54160665
_cell_length_b   3.92621028
_cell_length_c   8.39456352
_cell_angle_alpha   90.00000000
_cell_angle_beta   90.48560877
_cell_angle_gamma   90.00000000
_symmetry_Int_Tables_number   1
_chemical_formula_structural   CeCrSe2O
_chemical_formula_sum   'Ce4 Cr4 Se8 O4'
_cell_volume   380.38409148
_cell_formula_units_Z   4
loop_
 _symmetry_equiv_pos_site_id
 _symmetry_equiv_pos_as_xyz
  1  'x, y, z'
loop_
 _atom_site_type_symbol
 _atom_site_label
 _atom_site_symmetry_multiplicity
 _atom_site_fract_x
 _atom_site_fract_y
 _atom_site_fract_z
 _atom_site_occupancy
  Ce  Ce0  1  0.27194135  0.50000000  0.19183240  1
  Ce  Ce1  1  0.22805865  0.00000000  0.80816760  1
  Ce  Ce2  1  0.77194136  0.00000000  0.19183240  1
  Ce  Ce3  1  0.72805864  0.50000000  0.80816760  1
  Cr  Cr4  1  0.00000000  0.00000000  0.50000000  1
  Cr  Cr5  1  0.00000000  0.50000000  0.00000000  1
  Cr  Cr6  1  0.50000000  0.50000000  0.50000000  1
  Cr  Cr7  1  0.50000000  0.00000000  0.00000000  1
  Se  Se8  1  0.14547716  0.50000000  0.53577060  1
  Se  Se9  1  0.44780401  0.50000000  0.79666071  1
  Se  Se10  1  0.05219599  0.00000000  0.20333929  1
  Se  Se11  1  0.35452284  0.00000000  0.46422940  1
  Se  Se12  1  0.64547716  0.00000000  0.53577060  1
  Se  Se13  1  0.94780401  0.00000000  0.79666071  1
  Se  Se14  1  0.55219599  0.50000000  0.20333929  1
  Se  Se15  1  0.85452284  0.50000000  0.46422940  1
  O  O16  1  0.32756121  0.00000000  0.06300613  1
  O  O17  1  0.17243879  0.50000000  0.93699387  1
  O  O18  1  0.82756121  0.50000000  0.06300613  1
  O  O19  1  0.67243879  0.00000000  0.93699387  1
