# generated using pymatgen
data_Pr(PdO2)2
_symmetry_space_group_name_H-M   'P 1'
_cell_length_a   5.96757800
_cell_length_b   5.96757800
_cell_length_c   10.31638200
_cell_angle_alpha   90.00000000
_cell_angle_beta   90.00000000
_cell_angle_gamma   90.00000000
_symmetry_Int_Tables_number   1
_chemical_formula_structural   Pr(PdO2)2
_chemical_formula_sum   'Pr4 Pd8 O16'
_cell_volume   367.38686359
_cell_formula_units_Z   4
loop_
 _symmetry_equiv_pos_site_id
 _symmetry_equiv_pos_as_xyz
  1  'x, y, z'
loop_
 _atom_site_type_symbol
 _atom_site_label
 _atom_site_symmetry_multiplicity
 _atom_site_fract_x
 _atom_site_fract_y
 _atom_site_fract_z
 _atom_site_occupancy
  Pr  Pr0  1  0.00000000  0.00000000  0.00000000  1
  Pr  Pr1  1  0.00000000  0.50000000  0.25000000  1
  Pr  Pr2  1  0.50000000  0.50000000  0.50000000  1
  Pr  Pr3  1  0.50000000  0.00000000  0.75000000  1
  Pd  Pd4  1  0.50000000  0.25000000  0.12500000  1
  Pd  Pd5  1  0.75000000  0.00000000  0.37500000  1
  Pd  Pd6  1  0.25000000  0.00000000  0.37500000  1
  Pd  Pd7  1  0.50000000  0.75000000  0.12500000  1
  Pd  Pd8  1  0.00000000  0.75000000  0.62500000  1
  Pd  Pd9  1  0.25000000  0.50000000  0.87500000  1
  Pd  Pd10  1  0.75000000  0.50000000  0.87500000  1
  Pd  Pd11  1  0.00000000  0.25000000  0.62500000  1
  O  O12  1  0.65115350  0.70129950  0.30052450  1
  O  O13  1  0.79870050  0.65115350  0.05052450  1
  O  O14  1  0.20129950  0.34884650  0.05052450  1
  O  O15  1  0.34884650  0.29870050  0.30052450  1
  O  O16  1  0.84884650  0.29870050  0.44947550  1
  O  O17  1  0.20129950  0.84884650  0.19947550  1
  O  O18  1  0.15115350  0.70129950  0.44947550  1
  O  O19  1  0.79870050  0.15115350  0.19947550  1
  O  O20  1  0.15115350  0.20129950  0.80052450  1
  O  O21  1  0.29870050  0.15115350  0.55052450  1
  O  O22  1  0.70129950  0.84884650  0.55052450  1
  O  O23  1  0.84884650  0.79870050  0.80052450  1
  O  O24  1  0.34884650  0.79870050  0.94947550  1
  O  O25  1  0.70129950  0.34884650  0.69947550  1
  O  O26  1  0.65115350  0.20129950  0.94947550  1
  O  O27  1  0.29870050  0.65115350  0.69947550  1
