# generated using pymatgen
data_Cu2PPd2
_symmetry_space_group_name_H-M   'P 1'
_cell_length_a   7.01426800
_cell_length_b   7.24797400
_cell_length_c   5.49003800
_cell_angle_alpha   90.00000000
_cell_angle_beta   90.00000000
_cell_angle_gamma   90.00000000
_symmetry_Int_Tables_number   1
_chemical_formula_structural   Cu2PPd2
_chemical_formula_sum   'Cu8 P4 Pd8'
_cell_volume   279.10931608
_cell_formula_units_Z   4
loop_
 _symmetry_equiv_pos_site_id
 _symmetry_equiv_pos_as_xyz
  1  'x, y, z'
loop_
 _atom_site_type_symbol
 _atom_site_label
 _atom_site_symmetry_multiplicity
 _atom_site_fract_x
 _atom_site_fract_y
 _atom_site_fract_z
 _atom_site_occupancy
  Cu  Cu0  1  0.54486450  0.31160950  0.66333000  1
  Cu  Cu1  1  0.45513550  0.68839050  0.66333000  1
  Cu  Cu2  1  0.54486450  0.68839050  0.16333000  1
  Cu  Cu3  1  0.45513550  0.31160950  0.16333000  1
  Cu  Cu4  1  0.04486450  0.81160950  0.66333000  1
  Cu  Cu5  1  0.95513550  0.18839050  0.66333000  1
  Cu  Cu6  1  0.04486450  0.18839050  0.16333000  1
  Cu  Cu7  1  0.95513550  0.81160950  0.16333000  1
  P  P8  1  0.25000000  0.75000000  0.99233000  1
  P  P9  1  0.25000000  0.25000000  0.49233000  1
  P  P10  1  0.75000000  0.25000000  0.99233000  1
  P  P11  1  0.75000000  0.75000000  0.49233000  1
  Pd  Pd12  1  0.69826250  0.05320450  0.34050500  1
  Pd  Pd13  1  0.30173750  0.94679550  0.34050500  1
  Pd  Pd14  1  0.30173750  0.05320450  0.84050500  1
  Pd  Pd15  1  0.69826250  0.94679550  0.84050500  1
  Pd  Pd16  1  0.19826250  0.55320450  0.34050500  1
  Pd  Pd17  1  0.80173750  0.44679550  0.34050500  1
  Pd  Pd18  1  0.80173750  0.55320450  0.84050500  1
  Pd  Pd19  1  0.19826250  0.44679550  0.84050500  1
