# generated using pymatgen
data_Rh3(PbS)2
_symmetry_space_group_name_H-M   'P 1'
_cell_length_a   5.81034813
_cell_length_b   5.81034813
_cell_length_c   14.12741802
_cell_angle_alpha   90.00000000
_cell_angle_beta   90.00000000
_cell_angle_gamma   120.00000000
_symmetry_Int_Tables_number   1
_chemical_formula_structural   Rh3(PbS)2
_chemical_formula_sum   'Rh9 Pb6 S6'
_cell_volume   413.04534899
_cell_formula_units_Z   3
loop_
 _symmetry_equiv_pos_site_id
 _symmetry_equiv_pos_as_xyz
  1  'x, y, z'
loop_
 _atom_site_type_symbol
 _atom_site_label
 _atom_site_symmetry_multiplicity
 _atom_site_fract_x
 _atom_site_fract_y
 _atom_site_fract_z
 _atom_site_occupancy
  Rh  Rh0  1  0.83333333  0.16666667  0.16666667  1
  Rh  Rh1  1  0.16666667  0.33333333  0.83333333  1
  Rh  Rh2  1  0.33333333  0.16666667  0.16666667  1
  Rh  Rh3  1  0.50000000  0.50000000  0.50000000  1
  Rh  Rh4  1  0.83333333  0.66666667  0.16666667  1
  Rh  Rh5  1  0.00000000  0.50000000  0.50000000  1
  Rh  Rh6  1  0.16666667  0.83333333  0.83333333  1
  Rh  Rh7  1  0.50000000  0.00000000  0.50000000  1
  Rh  Rh8  1  0.66666667  0.83333333  0.83333333  1
  Pb  Pb9  1  0.33333333  0.66666667  0.16666667  1
  Pb  Pb10  1  0.00000000  0.00000000  0.00000000  1
  Pb  Pb11  1  1.00000000  1.00000000  0.50000000  1
  Pb  Pb12  1  0.66666667  0.33333333  0.33333333  1
  Pb  Pb13  1  0.66666667  0.33333333  0.83333333  1
  Pb  Pb14  1  0.33333333  0.66666667  0.66666667  1
  S  S15  1  0.33333333  0.66666667  0.38494967  1
  S  S16  1  0.33333333  0.66666667  0.94838367  1
  S  S17  1  0.00000000  0.00000000  0.71828300  1
  S  S18  1  0.00000000  0.00000000  0.28171700  1
  S  S19  1  0.66666667  0.33333333  0.05161633  1
  S  S20  1  0.66666667  0.33333333  0.61505033  1
