# generated using pymatgen
data_Pr2(ZnGe2)3
_symmetry_space_group_name_H-M   'P 1'
_cell_length_a   5.99905000
_cell_length_b   24.93129400
_cell_length_c   5.98998300
_cell_angle_alpha   90.00000000
_cell_angle_beta   90.00000000
_cell_angle_gamma   90.00000000
_symmetry_Int_Tables_number   1
_chemical_formula_structural   Pr2(ZnGe2)3
_chemical_formula_sum   'Pr8 Zn12 Ge24'
_cell_volume   895.88629224
_cell_formula_units_Z   4
loop_
 _symmetry_equiv_pos_site_id
 _symmetry_equiv_pos_as_xyz
  1  'x, y, z'
loop_
 _atom_site_type_symbol
 _atom_site_label
 _atom_site_symmetry_multiplicity
 _atom_site_fract_x
 _atom_site_fract_y
 _atom_site_fract_z
 _atom_site_occupancy
  Pr  Pr0  1  0.50000000  0.10624800  0.25000000  1
  Pr  Pr1  1  0.00000000  0.39375200  0.75000000  1
  Pr  Pr2  1  0.00000000  0.10577900  0.75000000  1
  Pr  Pr3  1  0.50000000  0.39422100  0.25000000  1
  Pr  Pr4  1  0.00000000  0.60624800  0.25000000  1
  Pr  Pr5  1  0.50000000  0.89375200  0.75000000  1
  Pr  Pr6  1  0.50000000  0.60577900  0.75000000  1
  Pr  Pr7  1  0.00000000  0.89422100  0.25000000  1
  Zn  Zn8  1  0.73494600  0.00000000  0.50000000  1
  Zn  Zn9  1  0.00000000  0.15994900  0.25000000  1
  Zn  Zn10  1  0.73494600  0.00000000  0.00000000  1
  Zn  Zn11  1  0.26505400  0.00000000  0.50000000  1
  Zn  Zn12  1  0.50000000  0.34005100  0.75000000  1
  Zn  Zn13  1  0.26505400  0.00000000  0.00000000  1
  Zn  Zn14  1  0.23494600  0.50000000  0.50000000  1
  Zn  Zn15  1  0.50000000  0.65994900  0.25000000  1
  Zn  Zn16  1  0.23494600  0.50000000  0.00000000  1
  Zn  Zn17  1  0.76505400  0.50000000  0.50000000  1
  Zn  Zn18  1  0.00000000  0.84005100  0.75000000  1
  Zn  Zn19  1  0.76505400  0.50000000  0.00000000  1
  Ge  Ge20  1  0.28410150  0.20109850  0.53400500  1
  Ge  Ge21  1  0.21589850  0.29890150  0.03400500  1
  Ge  Ge22  1  0.71589850  0.20109850  0.53400500  1
  Ge  Ge23  1  0.78410150  0.29890150  0.03400500  1
  Ge  Ge24  1  0.21589850  0.29890150  0.46599500  1
  Ge  Ge25  1  0.28410150  0.20109850  0.96599500  1
  Ge  Ge26  1  0.78410150  0.29890150  0.46599500  1
  Ge  Ge27  1  0.50000000  0.44195600  0.75000000  1
  Ge  Ge28  1  0.00000000  0.43085600  0.25000000  1
  Ge  Ge29  1  0.50000000  0.06914400  0.75000000  1
  Ge  Ge30  1  0.00000000  0.05804400  0.25000000  1
  Ge  Ge31  1  0.71589850  0.20109850  0.96599500  1
  Ge  Ge32  1  0.78410150  0.70109850  0.53400500  1
  Ge  Ge33  1  0.71589850  0.79890150  0.03400500  1
  Ge  Ge34  1  0.21589850  0.70109850  0.53400500  1
  Ge  Ge35  1  0.28410150  0.79890150  0.03400500  1
  Ge  Ge36  1  0.71589850  0.79890150  0.46599500  1
  Ge  Ge37  1  0.78410150  0.70109850  0.96599500  1
  Ge  Ge38  1  0.28410150  0.79890150  0.46599500  1
  Ge  Ge39  1  0.00000000  0.94195600  0.75000000  1
  Ge  Ge40  1  0.50000000  0.93085600  0.25000000  1
  Ge  Ge41  1  0.00000000  0.56914400  0.75000000  1
  Ge  Ge42  1  0.50000000  0.55804400  0.25000000  1
  Ge  Ge43  1  0.21589850  0.70109850  0.96599500  1
