# generated using pymatgen
data_Tb6Al3Si
_symmetry_space_group_name_H-M   'P 1'
_cell_length_a   11.62493200
_cell_length_b   11.62493200
_cell_length_c   15.33486800
_cell_angle_alpha   90.00000000
_cell_angle_beta   90.00000000
_cell_angle_gamma   90.00000000
_symmetry_Int_Tables_number   1
_chemical_formula_structural   Tb6Al3Si
_chemical_formula_sum   'Tb48 Al24 Si8'
_cell_volume   2072.33940146
_cell_formula_units_Z   8
loop_
 _symmetry_equiv_pos_site_id
 _symmetry_equiv_pos_as_xyz
  1  'x, y, z'
loop_
 _atom_site_type_symbol
 _atom_site_label
 _atom_site_symmetry_multiplicity
 _atom_site_fract_x
 _atom_site_fract_y
 _atom_site_fract_z
 _atom_site_occupancy
  Tb  Tb0  1  0.93592150  0.19585450  0.13421250  1
  Tb  Tb1  1  0.06407850  0.19585450  0.36578750  1
  Tb  Tb2  1  0.19585450  0.06407850  0.13421250  1
  Tb  Tb3  1  0.80414550  0.93592150  0.13421250  1
  Tb  Tb4  1  0.33106700  0.16893300  0.50000000  1
  Tb  Tb5  1  0.83106700  0.33106700  0.50000000  1
  Tb  Tb6  1  0.66893300  0.16893300  0.00000000  1
  Tb  Tb7  1  0.16893300  0.33106700  0.00000000  1
  Tb  Tb8  1  0.06407850  0.80414550  0.13421250  1
  Tb  Tb9  1  0.30414550  0.56407850  0.86578750  1
  Tb  Tb10  1  0.19585450  0.93592150  0.36578750  1
  Tb  Tb11  1  0.43592150  0.30414550  0.86578750  1
  Tb  Tb12  1  0.69585450  0.56407850  0.36578750  1
  Tb  Tb13  1  0.30414550  0.43592150  0.36578750  1
  Tb  Tb14  1  0.43592150  0.30414550  0.13421250  1
  Tb  Tb15  1  0.56407850  0.30414550  0.36578750  1
  Tb  Tb16  1  0.43592150  0.69585450  0.36578750  1
  Tb  Tb17  1  0.19585450  0.93592150  0.63421250  1
  Tb  Tb18  1  0.30414550  0.56407850  0.13421250  1
  Tb  Tb19  1  0.06407850  0.19585450  0.63421250  1
  Tb  Tb20  1  0.50000000  0.00000000  0.14844500  1
  Tb  Tb21  1  0.00000000  0.50000000  0.14844500  1
  Tb  Tb22  1  0.50000000  0.00000000  0.35155500  1
  Tb  Tb23  1  0.00000000  0.50000000  0.35155500  1
  Tb  Tb24  1  0.43592150  0.69585450  0.63421250  1
  Tb  Tb25  1  0.56407850  0.69585450  0.86578750  1
  Tb  Tb26  1  0.69585450  0.56407850  0.63421250  1
  Tb  Tb27  1  0.30414550  0.43592150  0.63421250  1
  Tb  Tb28  1  0.83106700  0.66893300  0.00000000  1
  Tb  Tb29  1  0.33106700  0.83106700  0.00000000  1
  Tb  Tb30  1  0.16893300  0.66893300  0.50000000  1
  Tb  Tb31  1  0.66893300  0.83106700  0.50000000  1
  Tb  Tb32  1  0.56407850  0.30414550  0.63421250  1
  Tb  Tb33  1  0.80414550  0.06407850  0.36578750  1
  Tb  Tb34  1  0.69585450  0.43592150  0.86578750  1
  Tb  Tb35  1  0.93592150  0.80414550  0.36578750  1
  Tb  Tb36  1  0.19585450  0.06407850  0.86578750  1
  Tb  Tb37  1  0.80414550  0.93592150  0.86578750  1
  Tb  Tb38  1  0.93592150  0.80414550  0.63421250  1
  Tb  Tb39  1  0.06407850  0.80414550  0.86578750  1
  Tb  Tb40  1  0.93592150  0.19585450  0.86578750  1
  Tb  Tb41  1  0.69585450  0.43592150  0.13421250  1
  Tb  Tb42  1  0.80414550  0.06407850  0.63421250  1
  Tb  Tb43  1  0.56407850  0.69585450  0.13421250  1
  Tb  Tb44  1  0.00000000  0.50000000  0.64844500  1
  Tb  Tb45  1  0.50000000  0.00000000  0.64844500  1
  Tb  Tb46  1  0.00000000  0.50000000  0.85155500  1
  Tb  Tb47  1  0.50000000  0.00000000  0.85155500  1
  Al  Al48  1  0.38040500  0.11959500  0.00000000  1
  Al  Al49  1  0.38040500  0.88040500  0.50000000  1
  Al  Al50  1  0.11959500  0.61959500  0.00000000  1
  Al  Al51  1  0.11959500  0.38040500  0.50000000  1
  Al  Al52  1  0.67818050  0.82181950  0.29543250  1
  Al  Al53  1  0.32181950  0.17818050  0.29543250  1
  Al  Al54  1  0.17818050  0.32181950  0.20456750  1
  Al  Al55  1  0.82181950  0.32181950  0.29543250  1
  Al  Al56  1  0.17818050  0.67818050  0.29543250  1
  Al  Al57  1  0.67818050  0.17818050  0.20456750  1
  Al  Al58  1  0.32181950  0.82181950  0.20456750  1
  Al  Al59  1  0.82181950  0.67818050  0.20456750  1
  Al  Al60  1  0.88040500  0.61959500  0.50000000  1
  Al  Al61  1  0.88040500  0.38040500  0.00000000  1
  Al  Al62  1  0.61959500  0.11959500  0.50000000  1
  Al  Al63  1  0.61959500  0.88040500  0.00000000  1
  Al  Al64  1  0.17818050  0.32181950  0.79543250  1
  Al  Al65  1  0.82181950  0.67818050  0.79543250  1
  Al  Al66  1  0.67818050  0.82181950  0.70456750  1
  Al  Al67  1  0.32181950  0.82181950  0.79543250  1
  Al  Al68  1  0.67818050  0.17818050  0.79543250  1
  Al  Al69  1  0.17818050  0.67818050  0.70456750  1
  Al  Al70  1  0.82181950  0.32181950  0.70456750  1
  Al  Al71  1  0.32181950  0.17818050  0.70456750  1
  Si  Si72  1  0.00000000  0.00000000  0.00000000  1
  Si  Si73  1  0.00000000  0.00000000  0.50000000  1
  Si  Si74  1  0.00000000  0.00000000  0.75000000  1
  Si  Si75  1  0.00000000  0.00000000  0.25000000  1
  Si  Si76  1  0.50000000  0.50000000  0.50000000  1
  Si  Si77  1  0.50000000  0.50000000  0.00000000  1
  Si  Si78  1  0.50000000  0.50000000  0.25000000  1
  Si  Si79  1  0.50000000  0.50000000  0.75000000  1
