# generated using pymatgen
data_Ba3NiSb2O9
_symmetry_space_group_name_H-M   'P 1'
_cell_length_a   5.87851695
_cell_length_b   5.87851695
_cell_length_c   14.52209300
_cell_angle_alpha   90.00000000
_cell_angle_beta   90.00000000
_cell_angle_gamma   120.00000000
_symmetry_Int_Tables_number   1
_chemical_formula_structural   Ba3NiSb2O9
_chemical_formula_sum   'Ba6 Ni2 Sb4 O18'
_cell_volume   434.60567684
_cell_formula_units_Z   2
loop_
 _symmetry_equiv_pos_site_id
 _symmetry_equiv_pos_as_xyz
  1  'x, y, z'
loop_
 _atom_site_type_symbol
 _atom_site_label
 _atom_site_symmetry_multiplicity
 _atom_site_fract_x
 _atom_site_fract_y
 _atom_site_fract_z
 _atom_site_occupancy
  Ba  Ba0  1  0.33333333  0.66666667  0.09047700  1
  Ba  Ba1  1  0.66666667  0.33333333  0.59047700  1
  Ba  Ba2  1  0.33333333  0.66666667  0.39370900  1
  Ba  Ba3  1  0.66666667  0.33333333  0.89370900  1
  Ba  Ba4  1  0.00000000  0.00000000  0.25610800  1
  Ba  Ba5  1  0.00000000  0.00000000  0.75610800  1
  Ni  Ni6  1  0.66666667  0.33333333  0.34991500  1
  Ni  Ni7  1  0.33333333  0.66666667  0.84991500  1
  Sb  Sb8  1  0.00000000  0.00000000  0.99848700  1
  Sb  Sb9  1  0.00000000  0.00000000  0.49848700  1
  Sb  Sb10  1  0.66666667  0.33333333  0.16363200  1
  Sb  Sb11  1  0.33333333  0.66666667  0.66363200  1
  O  O12  1  0.16477650  0.32955300  0.58454100  1
  O  O13  1  0.32955300  0.16477650  0.08454100  1
  O  O14  1  0.83522350  0.16477650  0.08454100  1
  O  O15  1  0.16477650  0.83522350  0.58454100  1
  O  O16  1  0.67044700  0.83522350  0.58454100  1
  O  O17  1  0.83522350  0.67044700  0.08454100  1
  O  O18  1  0.48858850  0.97717700  0.74661000  1
  O  O19  1  0.97717700  0.48858850  0.24661000  1
  O  O20  1  0.51141150  0.48858850  0.24661000  1
  O  O21  1  0.48858850  0.51141150  0.74661000  1
  O  O22  1  0.02282300  0.51141150  0.74661000  1
  O  O23  1  0.51141150  0.02282300  0.24661000  1
  O  O24  1  0.83873700  0.67747400  0.42441000  1
  O  O25  1  0.67747400  0.83873700  0.92441000  1
  O  O26  1  0.16126300  0.83873700  0.92441000  1
  O  O27  1  0.83873700  0.16126300  0.42441000  1
  O  O28  1  0.32252600  0.16126300  0.42441000  1
  O  O29  1  0.16126300  0.32252600  0.92441000  1
