# generated using pymatgen
data_Pu5Ru3
_symmetry_space_group_name_H-M   'P 1'
_cell_length_a   10.82287400
_cell_length_b   10.82287400
_cell_length_c   5.66909600
_cell_angle_alpha   90.00000000
_cell_angle_beta   90.00000000
_cell_angle_gamma   90.00000000
_symmetry_Int_Tables_number   1
_chemical_formula_structural   Pu5Ru3
_chemical_formula_sum   'Pu20 Ru12'
_cell_volume   664.04730150
_cell_formula_units_Z   4
loop_
 _symmetry_equiv_pos_site_id
 _symmetry_equiv_pos_as_xyz
  1  'x, y, z'
loop_
 _atom_site_type_symbol
 _atom_site_label
 _atom_site_symmetry_multiplicity
 _atom_site_fract_x
 _atom_site_fract_y
 _atom_site_fract_z
 _atom_site_occupancy
  Pu  Pu0  1  0.21808550  0.08795550  0.00000000  1
  Pu  Pu1  1  0.78191450  0.91204450  0.00000000  1
  Pu  Pu2  1  0.58795550  0.28191450  0.50000000  1
  Pu  Pu3  1  0.41204450  0.71808550  0.50000000  1
  Pu  Pu4  1  0.58795550  0.71808550  0.00000000  1
  Pu  Pu5  1  0.78191450  0.08795550  0.50000000  1
  Pu  Pu6  1  0.21808550  0.91204450  0.50000000  1
  Pu  Pu7  1  0.41204450  0.28191450  0.00000000  1
  Pu  Pu8  1  0.50000000  0.00000000  0.75000000  1
  Pu  Pu9  1  0.50000000  0.00000000  0.25000000  1
  Pu  Pu10  1  0.71808550  0.58795550  0.50000000  1
  Pu  Pu11  1  0.28191450  0.41204450  0.50000000  1
  Pu  Pu12  1  0.08795550  0.78191450  0.00000000  1
  Pu  Pu13  1  0.91204450  0.21808550  0.00000000  1
  Pu  Pu14  1  0.08795550  0.21808550  0.50000000  1
  Pu  Pu15  1  0.28191450  0.58795550  0.00000000  1
  Pu  Pu16  1  0.71808550  0.41204450  0.00000000  1
  Pu  Pu17  1  0.91204450  0.78191450  0.50000000  1
  Pu  Pu18  1  0.00000000  0.50000000  0.25000000  1
  Pu  Pu19  1  0.00000000  0.50000000  0.75000000  1
  Ru  Ru20  1  0.64722150  0.14722150  0.00000000  1
  Ru  Ru21  1  0.35277850  0.14722150  0.50000000  1
  Ru  Ru22  1  0.64722150  0.85277850  0.50000000  1
  Ru  Ru23  1  0.35277850  0.85277850  0.00000000  1
  Ru  Ru24  1  0.00000000  0.00000000  0.25000000  1
  Ru  Ru25  1  0.00000000  0.00000000  0.75000000  1
  Ru  Ru26  1  0.14722150  0.64722150  0.50000000  1
  Ru  Ru27  1  0.85277850  0.64722150  0.00000000  1
  Ru  Ru28  1  0.14722150  0.35277850  0.00000000  1
  Ru  Ru29  1  0.85277850  0.35277850  0.50000000  1
  Ru  Ru30  1  0.50000000  0.50000000  0.75000000  1
  Ru  Ru31  1  0.50000000  0.50000000  0.25000000  1
