# generated using pymatgen
data_Zr4Fe4Si7
_symmetry_space_group_name_H-M   'P 1'
_cell_length_a   13.08101800
_cell_length_b   13.08101800
_cell_length_c   5.04516600
_cell_angle_alpha   90.00000000
_cell_angle_beta   90.00000000
_cell_angle_gamma   90.00000000
_symmetry_Int_Tables_number   1
_chemical_formula_structural   Zr4Fe4Si7
_chemical_formula_sum   'Zr16 Fe16 Si28'
_cell_volume   863.29365078
_cell_formula_units_Z   4
loop_
 _symmetry_equiv_pos_site_id
 _symmetry_equiv_pos_as_xyz
  1  'x, y, z'
loop_
 _atom_site_type_symbol
 _atom_site_label
 _atom_site_symmetry_multiplicity
 _atom_site_fract_x
 _atom_site_fract_y
 _atom_site_fract_z
 _atom_site_occupancy
  Zr  Zr0  1  0.19645900  0.00000000  0.50000000  1
  Zr  Zr1  1  0.50000000  0.69645900  0.00000000  1
  Zr  Zr2  1  0.50000000  0.30354100  0.00000000  1
  Zr  Zr3  1  0.80354100  0.00000000  0.50000000  1
  Zr  Zr4  1  0.86193750  0.86193750  0.00000000  1
  Zr  Zr5  1  0.63806250  0.36193750  0.50000000  1
  Zr  Zr6  1  0.86193750  0.13806250  0.00000000  1
  Zr  Zr7  1  0.63806250  0.63806250  0.50000000  1
  Zr  Zr8  1  0.69645900  0.50000000  0.00000000  1
  Zr  Zr9  1  0.00000000  0.19645900  0.50000000  1
  Zr  Zr10  1  0.00000000  0.80354100  0.50000000  1
  Zr  Zr11  1  0.30354100  0.50000000  0.00000000  1
  Zr  Zr12  1  0.36193750  0.36193750  0.50000000  1
  Zr  Zr13  1  0.13806250  0.86193750  0.00000000  1
  Zr  Zr14  1  0.36193750  0.63806250  0.50000000  1
  Zr  Zr15  1  0.13806250  0.13806250  0.00000000  1
  Fe  Fe16  1  0.35215500  0.14784500  0.75000000  1
  Fe  Fe17  1  0.64784500  0.14784500  0.25000000  1
  Fe  Fe18  1  0.35215500  0.85215500  0.25000000  1
  Fe  Fe19  1  0.35215500  0.85215500  0.75000000  1
  Fe  Fe20  1  0.35215500  0.14784500  0.25000000  1
  Fe  Fe21  1  0.64784500  0.14784500  0.75000000  1
  Fe  Fe22  1  0.64784500  0.85215500  0.25000000  1
  Fe  Fe23  1  0.64784500  0.85215500  0.75000000  1
  Fe  Fe24  1  0.85215500  0.64784500  0.25000000  1
  Fe  Fe25  1  0.14784500  0.64784500  0.75000000  1
  Fe  Fe26  1  0.85215500  0.35215500  0.75000000  1
  Fe  Fe27  1  0.85215500  0.35215500  0.25000000  1
  Fe  Fe28  1  0.85215500  0.64784500  0.75000000  1
  Fe  Fe29  1  0.14784500  0.64784500  0.25000000  1
  Fe  Fe30  1  0.14784500  0.35215500  0.75000000  1
  Fe  Fe31  1  0.14784500  0.35215500  0.25000000  1
  Si  Si32  1  0.00000000  0.00000000  0.74991800  1
  Si  Si33  1  0.00000000  0.00000000  0.25008200  1
  Si  Si34  1  0.59122600  0.00000000  0.50000000  1
  Si  Si35  1  0.50000000  0.09122600  0.00000000  1
  Si  Si36  1  0.50000000  0.90877400  0.00000000  1
  Si  Si37  1  0.40877400  0.00000000  0.50000000  1
  Si  Si38  1  0.69955300  0.00000000  0.00000000  1
  Si  Si39  1  0.50000000  0.19955300  0.50000000  1
  Si  Si40  1  0.71046800  0.71046800  0.00000000  1
  Si  Si41  1  0.78953200  0.21046800  0.50000000  1
  Si  Si42  1  0.30044700  0.00000000  0.00000000  1
  Si  Si43  1  0.71046800  0.28953200  0.00000000  1
  Si  Si44  1  0.78953200  0.78953200  0.50000000  1
  Si  Si45  1  0.50000000  0.80044700  0.50000000  1
  Si  Si46  1  0.50000000  0.50000000  0.24991800  1
  Si  Si47  1  0.50000000  0.50000000  0.75008200  1
  Si  Si48  1  0.09122600  0.50000000  0.00000000  1
  Si  Si49  1  0.00000000  0.59122600  0.50000000  1
  Si  Si50  1  0.00000000  0.40877400  0.50000000  1
  Si  Si51  1  0.90877400  0.50000000  0.00000000  1
  Si  Si52  1  0.19955300  0.50000000  0.50000000  1
  Si  Si53  1  0.00000000  0.69955300  0.00000000  1
  Si  Si54  1  0.21046800  0.21046800  0.50000000  1
  Si  Si55  1  0.28953200  0.71046800  0.00000000  1
  Si  Si56  1  0.80044700  0.50000000  0.50000000  1
  Si  Si57  1  0.21046800  0.78953200  0.50000000  1
  Si  Si58  1  0.28953200  0.28953200  0.00000000  1
  Si  Si59  1  0.00000000  0.30044700  0.00000000  1
