# generated using pymatgen
data_Dy3(CuSi)4
_symmetry_space_group_name_H-M   'P 1'
_cell_length_a   4.14255200
_cell_length_b   6.54192400
_cell_length_c   13.71162800
_cell_angle_alpha   90.00000000
_cell_angle_beta   90.00000000
_cell_angle_gamma   90.00000000
_symmetry_Int_Tables_number   1
_chemical_formula_structural   Dy3(CuSi)4
_chemical_formula_sum   'Dy6 Cu8 Si8'
_cell_volume   371.58868862
_cell_formula_units_Z   2
loop_
 _symmetry_equiv_pos_site_id
 _symmetry_equiv_pos_as_xyz
  1  'x, y, z'
loop_
 _atom_site_type_symbol
 _atom_site_label
 _atom_site_symmetry_multiplicity
 _atom_site_fract_x
 _atom_site_fract_y
 _atom_site_fract_z
 _atom_site_occupancy
  Dy  Dy0  1  0.50000000  0.00000000  0.87024400  1
  Dy  Dy1  1  0.00000000  0.50000000  0.62975600  1
  Dy  Dy2  1  0.50000000  0.50000000  0.00000000  1
  Dy  Dy3  1  0.00000000  0.50000000  0.37024400  1
  Dy  Dy4  1  0.50000000  0.00000000  0.12975600  1
  Dy  Dy5  1  0.00000000  0.00000000  0.50000000  1
  Cu  Cu6  1  0.00000000  0.69018550  0.83150250  1
  Cu  Cu7  1  0.50000000  0.19018550  0.66849750  1
  Cu  Cu8  1  0.00000000  0.30981450  0.83150250  1
  Cu  Cu9  1  0.50000000  0.80981450  0.66849750  1
  Cu  Cu10  1  0.50000000  0.19018550  0.33150250  1
  Cu  Cu11  1  0.00000000  0.69018550  0.16849750  1
  Cu  Cu12  1  0.50000000  0.80981450  0.33150250  1
  Cu  Cu13  1  0.00000000  0.30981450  0.16849750  1
  Si  Si14  1  0.00000000  0.81566800  0.00000000  1
  Si  Si15  1  0.00000000  0.18433200  0.00000000  1
  Si  Si16  1  0.50000000  0.50000000  0.78380400  1
  Si  Si17  1  0.00000000  0.00000000  0.71619600  1
  Si  Si18  1  0.50000000  0.31566800  0.50000000  1
  Si  Si19  1  0.50000000  0.68433200  0.50000000  1
  Si  Si20  1  0.00000000  0.00000000  0.28380400  1
  Si  Si21  1  0.50000000  0.50000000  0.21619600  1
