# generated using pymatgen
data_Ba(Ni2B)6
_symmetry_space_group_name_H-M   'P 1'
_cell_length_a   9.67646123
_cell_length_b   9.67646123
_cell_length_c   7.45695433
_cell_angle_alpha   90.00000000
_cell_angle_beta   90.00000000
_cell_angle_gamma   120.00000000
_symmetry_Int_Tables_number   1
_chemical_formula_structural   Ba(Ni2B)6
_chemical_formula_sum   'Ba3 Ni36 B18'
_cell_volume   604.67948790
_cell_formula_units_Z   3
loop_
 _symmetry_equiv_pos_site_id
 _symmetry_equiv_pos_as_xyz
  1  'x, y, z'
loop_
 _atom_site_type_symbol
 _atom_site_label
 _atom_site_symmetry_multiplicity
 _atom_site_fract_x
 _atom_site_fract_y
 _atom_site_fract_z
 _atom_site_occupancy
  Ba  Ba0  1  0.00000000  0.00000000  0.00000000  1
  Ba  Ba1  1  0.66666667  0.33333333  0.33333333  1
  Ba  Ba2  1  0.33333333  0.66666667  0.66666667  1
  Ni  Ni3  1  0.00000000  0.36766700  0.50000000  1
  Ni  Ni4  1  0.09247767  0.18495533  0.37267033  1
  Ni  Ni5  1  0.36766700  0.00000000  0.50000000  1
  Ni  Ni6  1  0.81504467  0.90752233  0.37267033  1
  Ni  Ni7  1  0.18495533  0.09247767  0.62732967  1
  Ni  Ni8  1  0.90752233  0.81504467  0.62732967  1
  Ni  Ni9  1  0.90752233  0.09247767  0.62732967  1
  Ni  Ni10  1  0.63233300  0.00000000  0.50000000  1
  Ni  Ni11  1  0.00000000  0.63233300  0.50000000  1
  Ni  Ni12  1  0.36766700  0.36766700  0.50000000  1
  Ni  Ni13  1  0.09247767  0.90752233  0.37267033  1
  Ni  Ni14  1  0.63233300  0.63233300  0.50000000  1
  Ni  Ni15  1  0.66666667  0.70100033  0.83333333  1
  Ni  Ni16  1  0.75914433  0.51828867  0.70600367  1
  Ni  Ni17  1  0.03433367  0.33333333  0.83333333  1
  Ni  Ni18  1  0.48171133  0.24085567  0.70600367  1
  Ni  Ni19  1  0.85162200  0.42581100  0.96066300  1
  Ni  Ni20  1  0.57418900  0.14837800  0.96066300  1
  Ni  Ni21  1  0.57418900  0.42581100  0.96066300  1
  Ni  Ni22  1  0.29899967  0.33333333  0.83333333  1
  Ni  Ni23  1  0.66666667  0.96566633  0.83333333  1
  Ni  Ni24  1  0.03433367  0.70100033  0.83333333  1
  Ni  Ni25  1  0.75914433  0.24085567  0.70600367  1
  Ni  Ni26  1  0.29899967  0.96566633  0.83333333  1
  Ni  Ni27  1  0.33333333  0.03433367  0.16666667  1
  Ni  Ni28  1  0.42581100  0.85162200  0.03933700  1
  Ni  Ni29  1  0.70100033  0.66666667  0.16666667  1
  Ni  Ni30  1  0.14837800  0.57418900  0.03933700  1
  Ni  Ni31  1  0.51828867  0.75914433  0.29399633  1
  Ni  Ni32  1  0.24085567  0.48171133  0.29399633  1
  Ni  Ni33  1  0.24085567  0.75914433  0.29399633  1
  Ni  Ni34  1  0.96566633  0.66666667  0.16666667  1
  Ni  Ni35  1  0.33333333  0.29899967  0.16666667  1
  Ni  Ni36  1  0.70100033  0.03433367  0.16666667  1
  Ni  Ni37  1  0.42581100  0.57418900  0.03933700  1
  Ni  Ni38  1  0.96566633  0.29899967  0.16666667  1
  B  B39  1  0.13930700  0.86069300  0.62898400  1
  B  B40  1  0.27861400  0.13930700  0.37101600  1
  B  B41  1  0.86069300  0.13930700  0.37101600  1
  B  B42  1  0.86069300  0.72138600  0.37101600  1
  B  B43  1  0.13930700  0.27861400  0.62898400  1
  B  B44  1  0.72138600  0.86069300  0.62898400  1
  B  B45  1  0.80597367  0.19402633  0.96231733  1
  B  B46  1  0.94528067  0.47264033  0.70434933  1
  B  B47  1  0.52735967  0.47264033  0.70434933  1
  B  B48  1  0.52735967  0.05471933  0.70434933  1
  B  B49  1  0.80597367  0.61194733  0.96231733  1
  B  B50  1  0.38805267  0.19402633  0.96231733  1
  B  B51  1  0.47264033  0.52735967  0.29565067  1
  B  B52  1  0.61194733  0.80597367  0.03768267  1
  B  B53  1  0.19402633  0.80597367  0.03768267  1
  B  B54  1  0.19402633  0.38805267  0.03768267  1
  B  B55  1  0.47264033  0.94528067  0.29565067  1
  B  B56  1  0.05471933  0.52735967  0.29565067  1
