# generated using pymatgen
data_Ca2Co12P7
_symmetry_space_group_name_H-M   'P 1'
_cell_length_a   9.03137956
_cell_length_b   9.03137956
_cell_length_c   3.56186100
_cell_angle_alpha   90.00000000
_cell_angle_beta   90.00000000
_cell_angle_gamma   120.00000000
_symmetry_Int_Tables_number   1
_chemical_formula_structural   Ca2Co12P7
_chemical_formula_sum   'Ca2 Co12 P7'
_cell_volume   251.60298433
_cell_formula_units_Z   1
loop_
 _symmetry_equiv_pos_site_id
 _symmetry_equiv_pos_as_xyz
  1  'x, y, z'
loop_
 _atom_site_type_symbol
 _atom_site_label
 _atom_site_symmetry_multiplicity
 _atom_site_fract_x
 _atom_site_fract_y
 _atom_site_fract_z
 _atom_site_occupancy
  Ca  Ca0  1  0.66666667  0.33333333  0.50000000  1
  Ca  Ca1  1  0.33333333  0.66666667  0.00000000  1
  Co  Co2  1  0.38250067  0.43441733  0.50000000  1
  Co  Co3  1  0.05191667  0.61749933  0.50000000  1
  Co  Co4  1  0.23489967  0.10309533  0.50000000  1
  Co  Co5  1  0.86819567  0.76510033  0.50000000  1
  Co  Co6  1  0.89690467  0.13180433  0.50000000  1
  Co  Co7  1  0.72819367  0.88055033  0.00000000  1
  Co  Co8  1  0.11944967  0.84764333  0.00000000  1
  Co  Co9  1  0.15235667  0.27180633  0.00000000  1
  Co  Co10  1  0.94183167  0.37636933  0.00000000  1
  Co  Co11  1  0.62363067  0.56546233  0.00000000  1
  Co  Co12  1  0.43453767  0.05816833  0.00000000  1
  Co  Co13  1  0.56558267  0.94808333  0.50000000  1
  P  P14  1  0.00000000  0.00000000  0.00000000  1
  P  P15  1  0.40457867  0.29202233  0.00000000  1
  P  P16  1  0.59870967  0.70840133  0.50000000  1
  P  P17  1  0.29159867  0.89030833  0.50000000  1
  P  P18  1  0.10969167  0.40129033  0.50000000  1
  P  P19  1  0.70797767  0.11255633  0.00000000  1
  P  P20  1  0.88744367  0.59542133  0.00000000  1
