# generated using pymatgen
data_Yb11Sb10
_symmetry_space_group_name_H-M   'P 1'
_cell_length_a   11.98356600
_cell_length_b   11.98356600
_cell_length_c   17.28155400
_cell_angle_alpha   90.00000000
_cell_angle_beta   90.00000000
_cell_angle_gamma   90.00000000
_symmetry_Int_Tables_number   1
_chemical_formula_structural   Yb11Sb10
_chemical_formula_sum   'Yb44 Sb40'
_cell_volume   2481.73232194
_cell_formula_units_Z   4
loop_
 _symmetry_equiv_pos_site_id
 _symmetry_equiv_pos_as_xyz
  1  'x, y, z'
loop_
 _atom_site_type_symbol
 _atom_site_label
 _atom_site_symmetry_multiplicity
 _atom_site_fract_x
 _atom_site_fract_y
 _atom_site_fract_z
 _atom_site_occupancy
  Yb  Yb0  1  0.16226100  0.50000000  0.10329300  1
  Yb  Yb1  1  0.00000000  0.74820500  0.18896500  1
  Yb  Yb2  1  0.25179500  0.00000000  0.18896500  1
  Yb  Yb3  1  0.83374350  0.83374350  0.00000000  1
  Yb  Yb4  1  0.83773900  0.50000000  0.10329300  1
  Yb  Yb5  1  0.50000000  0.24820500  0.31103500  1
  Yb  Yb6  1  0.16625650  0.83374350  0.00000000  1
  Yb  Yb7  1  0.33773900  0.00000000  0.39670700  1
  Yb  Yb8  1  0.00000000  0.66226100  0.39670700  1
  Yb  Yb9  1  0.00000000  0.25179500  0.18896500  1
  Yb  Yb10  1  0.24820500  0.50000000  0.31103500  1
  Yb  Yb11  1  0.50000000  0.83773900  0.10329300  1
  Yb  Yb12  1  0.83374350  0.16625650  0.00000000  1
  Yb  Yb13  1  0.50000000  0.75179500  0.31103500  1
  Yb  Yb14  1  0.66226100  0.00000000  0.39670700  1
  Yb  Yb15  1  0.00000000  0.33773900  0.39670700  1
  Yb  Yb16  1  0.75179500  0.50000000  0.31103500  1
  Yb  Yb17  1  0.00000000  0.00000000  0.33690300  1
  Yb  Yb18  1  0.50000000  0.50000000  0.16309700  1
  Yb  Yb19  1  0.74820500  0.00000000  0.18896500  1
  Yb  Yb20  1  0.50000000  0.16226100  0.10329300  1
  Yb  Yb21  1  0.66625650  0.66625650  0.50000000  1
  Yb  Yb22  1  0.66226100  0.00000000  0.60329300  1
  Yb  Yb23  1  0.50000000  0.24820500  0.68896500  1
  Yb  Yb24  1  0.75179500  0.50000000  0.68896500  1
  Yb  Yb25  1  0.33374350  0.33374350  0.50000000  1
  Yb  Yb26  1  0.33773900  0.00000000  0.60329300  1
  Yb  Yb27  1  0.00000000  0.74820500  0.81103500  1
  Yb  Yb28  1  0.66625650  0.33374350  0.50000000  1
  Yb  Yb29  1  0.83773900  0.50000000  0.89670700  1
  Yb  Yb30  1  0.50000000  0.16226100  0.89670700  1
  Yb  Yb31  1  0.50000000  0.75179500  0.68896500  1
  Yb  Yb32  1  0.74820500  0.00000000  0.81103500  1
  Yb  Yb33  1  0.00000000  0.33773900  0.60329300  1
  Yb  Yb34  1  0.33374350  0.66625650  0.50000000  1
  Yb  Yb35  1  0.00000000  0.25179500  0.81103500  1
  Yb  Yb36  1  0.16226100  0.50000000  0.89670700  1
  Yb  Yb37  1  0.50000000  0.83773900  0.89670700  1
  Yb  Yb38  1  0.25179500  0.00000000  0.81103500  1
  Yb  Yb39  1  0.50000000  0.50000000  0.83690300  1
  Yb  Yb40  1  0.00000000  0.00000000  0.66309700  1
  Yb  Yb41  1  0.24820500  0.50000000  0.68896500  1
  Yb  Yb42  1  0.00000000  0.66226100  0.60329300  1
  Yb  Yb43  1  0.16625650  0.16625650  0.00000000  1
  Sb  Sb44  1  0.79314850  0.79314850  0.32373750  1
  Sb  Sb45  1  0.00000000  0.65009300  0.00000000  1
  Sb  Sb46  1  0.62632900  0.37367100  0.00000000  1
  Sb  Sb47  1  0.29314850  0.29314850  0.17626250  1
  Sb  Sb48  1  0.87367100  0.87367100  0.50000000  1
  Sb  Sb49  1  0.34990700  0.00000000  0.00000000  1
  Sb  Sb50  1  0.70685150  0.70685150  0.17626250  1
  Sb  Sb51  1  0.79314850  0.20685150  0.32373750  1
  Sb  Sb52  1  0.00000000  0.00000000  0.12787300  1
  Sb  Sb53  1  0.62632900  0.62632900  0.00000000  1
  Sb  Sb54  1  0.50000000  0.50000000  0.37212700  1
  Sb  Sb55  1  0.70685150  0.29314850  0.17626250  1
  Sb  Sb56  1  0.20685150  0.20685150  0.32373750  1
  Sb  Sb57  1  0.00000000  0.34990700  0.00000000  1
  Sb  Sb58  1  0.65009300  0.00000000  0.00000000  1
  Sb  Sb59  1  0.29314850  0.70685150  0.17626250  1
  Sb  Sb60  1  0.37367100  0.62632900  0.00000000  1
  Sb  Sb61  1  0.00000000  0.50000000  0.25000000  1
  Sb  Sb62  1  0.20685150  0.79314850  0.32373750  1
  Sb  Sb63  1  0.50000000  0.00000000  0.25000000  1
  Sb  Sb64  1  0.29314850  0.29314850  0.82373750  1
  Sb  Sb65  1  0.50000000  0.15009300  0.50000000  1
  Sb  Sb66  1  0.12632900  0.87367100  0.50000000  1
  Sb  Sb67  1  0.79314850  0.79314850  0.67626250  1
  Sb  Sb68  1  0.37367100  0.37367100  0.00000000  1
  Sb  Sb69  1  0.84990700  0.50000000  0.50000000  1
  Sb  Sb70  1  0.20685150  0.20685150  0.67626250  1
  Sb  Sb71  1  0.29314850  0.70685150  0.82373750  1
  Sb  Sb72  1  0.50000000  0.50000000  0.62787300  1
  Sb  Sb73  1  0.12632900  0.12632900  0.50000000  1
  Sb  Sb74  1  0.00000000  0.00000000  0.87212700  1
  Sb  Sb75  1  0.20685150  0.79314850  0.67626250  1
  Sb  Sb76  1  0.70685150  0.70685150  0.82373750  1
  Sb  Sb77  1  0.50000000  0.84990700  0.50000000  1
  Sb  Sb78  1  0.15009300  0.50000000  0.50000000  1
  Sb  Sb79  1  0.79314850  0.20685150  0.67626250  1
  Sb  Sb80  1  0.87367100  0.12632900  0.50000000  1
  Sb  Sb81  1  0.50000000  0.00000000  0.75000000  1
  Sb  Sb82  1  0.70685150  0.29314850  0.82373750  1
  Sb  Sb83  1  0.00000000  0.50000000  0.75000000  1
