# generated using pymatgen
data_BaSm2FeS5
_symmetry_space_group_name_H-M   'P 1'
_cell_length_a   7.82072800
_cell_length_b   7.82072800
_cell_length_c   13.48568200
_cell_angle_alpha   90.00000000
_cell_angle_beta   90.00000000
_cell_angle_gamma   90.00000000
_symmetry_Int_Tables_number   1
_chemical_formula_structural   BaSm2FeS5
_chemical_formula_sum   'Ba4 Sm8 Fe4 S20'
_cell_volume   824.83537398
_cell_formula_units_Z   4
loop_
 _symmetry_equiv_pos_site_id
 _symmetry_equiv_pos_as_xyz
  1  'x, y, z'
loop_
 _atom_site_type_symbol
 _atom_site_label
 _atom_site_symmetry_multiplicity
 _atom_site_fract_x
 _atom_site_fract_y
 _atom_site_fract_z
 _atom_site_occupancy
  Ba  Ba0  1  0.00000000  0.00000000  0.25000000  1
  Ba  Ba1  1  0.50000000  0.50000000  0.25000000  1
  Ba  Ba2  1  0.50000000  0.50000000  0.75000000  1
  Ba  Ba3  1  0.00000000  0.00000000  0.75000000  1
  Sm  Sm4  1  0.16187000  0.33813000  0.00000000  1
  Sm  Sm5  1  0.66187000  0.16187000  0.00000000  1
  Sm  Sm6  1  0.33813000  0.83813000  0.00000000  1
  Sm  Sm7  1  0.83813000  0.66187000  0.00000000  1
  Sm  Sm8  1  0.66187000  0.83813000  0.50000000  1
  Sm  Sm9  1  0.16187000  0.66187000  0.50000000  1
  Sm  Sm10  1  0.83813000  0.33813000  0.50000000  1
  Sm  Sm11  1  0.33813000  0.16187000  0.50000000  1
  Fe  Fe12  1  0.00000000  0.50000000  0.25000000  1
  Fe  Fe13  1  0.50000000  0.00000000  0.25000000  1
  Fe  Fe14  1  0.50000000  0.00000000  0.75000000  1
  Fe  Fe15  1  0.00000000  0.50000000  0.75000000  1
  S  S16  1  0.85236750  0.35236750  0.13387250  1
  S  S17  1  0.35236750  0.85236750  0.36612750  1
  S  S18  1  0.64763250  0.14763250  0.36612750  1
  S  S19  1  0.85236750  0.64763250  0.36612750  1
  S  S20  1  0.14763250  0.35236750  0.36612750  1
  S  S21  1  0.64763250  0.85236750  0.13387250  1
  S  S22  1  0.35236750  0.14763250  0.13387250  1
  S  S23  1  0.14763250  0.64763250  0.13387250  1
  S  S24  1  0.50000000  0.50000000  0.00000000  1
  S  S25  1  0.00000000  0.00000000  0.00000000  1
  S  S26  1  0.35236750  0.85236750  0.63387250  1
  S  S27  1  0.85236750  0.35236750  0.86612750  1
  S  S28  1  0.14763250  0.64763250  0.86612750  1
  S  S29  1  0.35236750  0.14763250  0.86612750  1
  S  S30  1  0.64763250  0.85236750  0.86612750  1
  S  S31  1  0.14763250  0.35236750  0.63387250  1
  S  S32  1  0.85236750  0.64763250  0.63387250  1
  S  S33  1  0.64763250  0.14763250  0.63387250  1
  S  S34  1  0.00000000  0.00000000  0.50000000  1
  S  S35  1  0.50000000  0.50000000  0.50000000  1
