# generated using pymatgen
data_Li3Co2(GeO4)3
_symmetry_space_group_name_H-M   'P 1'
_cell_length_a   11.86177600
_cell_length_b   11.86177600
_cell_length_c   11.86177600
_cell_angle_alpha   90.00000000
_cell_angle_beta   90.00000000
_cell_angle_gamma   90.00000000
_symmetry_Int_Tables_number   1
_chemical_formula_structural   Li3Co2(GeO4)3
_chemical_formula_sum   'Li24 Co16 Ge24 O96'
_cell_volume   1668.97240258
_cell_formula_units_Z   8
loop_
 _symmetry_equiv_pos_site_id
 _symmetry_equiv_pos_as_xyz
  1  'x, y, z'
loop_
 _atom_site_type_symbol
 _atom_site_label
 _atom_site_symmetry_multiplicity
 _atom_site_fract_x
 _atom_site_fract_y
 _atom_site_fract_z
 _atom_site_occupancy
  Li  Li0  1  0.37500000  0.50000000  0.25000000  1
  Li  Li1  1  0.62500000  0.00000000  0.25000000  1
  Li  Li2  1  0.25000000  0.62500000  0.00000000  1
  Li  Li3  1  0.25000000  0.37500000  0.50000000  1
  Li  Li4  1  0.00000000  0.25000000  0.62500000  1
  Li  Li5  1  0.50000000  0.25000000  0.37500000  1
  Li  Li6  1  0.12500000  0.00000000  0.25000000  1
  Li  Li7  1  0.87500000  0.50000000  0.25000000  1
  Li  Li8  1  0.25000000  0.87500000  0.50000000  1
  Li  Li9  1  0.25000000  0.12500000  0.00000000  1
  Li  Li10  1  0.50000000  0.25000000  0.87500000  1
  Li  Li11  1  0.00000000  0.25000000  0.12500000  1
  Li  Li12  1  0.87500000  0.00000000  0.75000000  1
  Li  Li13  1  0.12500000  0.50000000  0.75000000  1
  Li  Li14  1  0.75000000  0.12500000  0.50000000  1
  Li  Li15  1  0.75000000  0.87500000  0.00000000  1
  Li  Li16  1  0.50000000  0.75000000  0.12500000  1
  Li  Li17  1  0.00000000  0.75000000  0.87500000  1
  Li  Li18  1  0.62500000  0.50000000  0.75000000  1
  Li  Li19  1  0.37500000  0.00000000  0.75000000  1
  Li  Li20  1  0.75000000  0.37500000  0.00000000  1
  Li  Li21  1  0.75000000  0.62500000  0.50000000  1
  Li  Li22  1  0.00000000  0.75000000  0.37500000  1
  Li  Li23  1  0.50000000  0.75000000  0.62500000  1
  Co  Co24  1  0.00000000  0.50000000  0.00000000  1
  Co  Co25  1  0.25000000  0.75000000  0.25000000  1
  Co  Co26  1  0.25000000  0.25000000  0.25000000  1
  Co  Co27  1  0.25000000  0.25000000  0.75000000  1
  Co  Co28  1  0.00000000  0.00000000  0.00000000  1
  Co  Co29  1  0.50000000  0.00000000  0.00000000  1
  Co  Co30  1  0.00000000  0.00000000  0.50000000  1
  Co  Co31  1  0.75000000  0.25000000  0.25000000  1
  Co  Co32  1  0.50000000  0.00000000  0.50000000  1
  Co  Co33  1  0.75000000  0.25000000  0.75000000  1
  Co  Co34  1  0.75000000  0.75000000  0.75000000  1
  Co  Co35  1  0.75000000  0.75000000  0.25000000  1
  Co  Co36  1  0.50000000  0.50000000  0.50000000  1
  Co  Co37  1  0.00000000  0.50000000  0.50000000  1
  Co  Co38  1  0.50000000  0.50000000  0.00000000  1
  Co  Co39  1  0.25000000  0.75000000  0.75000000  1
  Ge  Ge40  1  0.50000000  0.25000000  0.12500000  1
  Ge  Ge41  1  0.00000000  0.25000000  0.37500000  1
  Ge  Ge42  1  0.25000000  0.12500000  0.50000000  1
  Ge  Ge43  1  0.37500000  0.50000000  0.75000000  1
  Ge  Ge44  1  0.75000000  0.37500000  0.50000000  1
  Ge  Ge45  1  0.12500000  0.50000000  0.25000000  1
  Ge  Ge46  1  0.37500000  0.00000000  0.25000000  1
  Ge  Ge47  1  0.12500000  0.00000000  0.75000000  1
  Ge  Ge48  1  0.75000000  0.12500000  0.00000000  1
  Ge  Ge49  1  0.25000000  0.37500000  0.00000000  1
  Ge  Ge50  1  0.00000000  0.75000000  0.12500000  1
  Ge  Ge51  1  0.50000000  0.75000000  0.37500000  1
  Ge  Ge52  1  0.00000000  0.75000000  0.62500000  1
  Ge  Ge53  1  0.50000000  0.75000000  0.87500000  1
  Ge  Ge54  1  0.75000000  0.62500000  0.00000000  1
  Ge  Ge55  1  0.87500000  0.00000000  0.25000000  1
  Ge  Ge56  1  0.25000000  0.87500000  0.00000000  1
  Ge  Ge57  1  0.62500000  0.00000000  0.75000000  1
  Ge  Ge58  1  0.87500000  0.50000000  0.75000000  1
  Ge  Ge59  1  0.62500000  0.50000000  0.25000000  1
  Ge  Ge60  1  0.25000000  0.62500000  0.50000000  1
  Ge  Ge61  1  0.75000000  0.87500000  0.50000000  1
  Ge  Ge62  1  0.50000000  0.25000000  0.62500000  1
  Ge  Ge63  1  0.00000000  0.25000000  0.87500000  1
  O  O64  1  0.35314500  0.47129100  0.05048100  1
  O  O65  1  0.05048100  0.35314500  0.47129100  1
  O  O66  1  0.52870900  0.44951900  0.35314500  1
  O  O67  1  0.14685500  0.47129100  0.94951900  1
  O  O68  1  0.80048100  0.27870900  0.60314500  1
  O  O69  1  0.05048100  0.64685500  0.02870900  1
  O  O70  1  0.19951900  0.22129100  0.60314500  1
  O  O71  1  0.47129100  0.05048100  0.35314500  1
  O  O72  1  0.30048100  0.22129100  0.39685500  1
  O  O73  1  0.60314500  0.19951900  0.22129100  1
  O  O74  1  0.27870900  0.60314500  0.80048100  1
  O  O75  1  0.77870900  0.89685500  0.19951900  1
  O  O76  1  0.89685500  0.19951900  0.77870900  1
  O  O77  1  0.22129100  0.60314500  0.19951900  1
  O  O78  1  0.39685500  0.30048100  0.22129100  1
  O  O79  1  0.22129100  0.39685500  0.30048100  1
  O  O80  1  0.60314500  0.80048100  0.27870900  1
  O  O81  1  0.35314500  0.52870900  0.44951900  1
  O  O82  1  0.64685500  0.02870900  0.05048100  1
  O  O83  1  0.19951900  0.27870900  0.10314500  1
  O  O84  1  0.94951900  0.14685500  0.47129100  1
  O  O85  1  0.47129100  0.94951900  0.14685500  1
  O  O86  1  0.02870900  0.05048100  0.64685500  1
  O  O87  1  0.19951900  0.77870900  0.89685500  1
  O  O88  1  0.14685500  0.02870900  0.44951900  1
  O  O89  1  0.44951900  0.14685500  0.02870900  1
  O  O90  1  0.97129100  0.05048100  0.14685500  1
  O  O91  1  0.35314500  0.02870900  0.55048100  1
  O  O92  1  0.69951900  0.22129100  0.89685500  1
  O  O93  1  0.44951900  0.85314500  0.47129100  1
  O  O94  1  0.30048100  0.27870900  0.89685500  1
  O  O95  1  0.02870900  0.44951900  0.14685500  1
  O  O96  1  0.30048100  0.72129100  0.60314500  1
  O  O97  1  0.47129100  0.44951900  0.85314500  1
  O  O98  1  0.02870900  0.55048100  0.35314500  1
  O  O99  1  0.05048100  0.14685500  0.97129100  1
  O  O100  1  0.55048100  0.35314500  0.02870900  1
  O  O101  1  0.85314500  0.47129100  0.44951900  1
  O  O102  1  0.14685500  0.97129100  0.05048100  1
  O  O103  1  0.89685500  0.69951900  0.22129100  1
  O  O104  1  0.27870900  0.10314500  0.19951900  1
  O  O105  1  0.10314500  0.19951900  0.27870900  1
  O  O106  1  0.27870900  0.89685500  0.30048100  1
  O  O107  1  0.60314500  0.30048100  0.72129100  1
  O  O108  1  0.72129100  0.60314500  0.30048100  1
  O  O109  1  0.22129100  0.89685500  0.69951900  1
  O  O110  1  0.89685500  0.30048100  0.27870900  1
  O  O111  1  0.44951900  0.35314500  0.52870900  1
  O  O112  1  0.85314500  0.97129100  0.55048100  1
  O  O113  1  0.55048100  0.85314500  0.97129100  1
  O  O114  1  0.02870900  0.94951900  0.85314500  1
  O  O115  1  0.64685500  0.97129100  0.44951900  1
  O  O116  1  0.30048100  0.77870900  0.10314500  1
  O  O117  1  0.55048100  0.14685500  0.52870900  1
  O  O118  1  0.69951900  0.72129100  0.10314500  1
  O  O119  1  0.97129100  0.55048100  0.85314500  1
  O  O120  1  0.80048100  0.72129100  0.89685500  1
  O  O121  1  0.10314500  0.69951900  0.72129100  1
  O  O122  1  0.77870900  0.10314500  0.30048100  1
  O  O123  1  0.27870900  0.39685500  0.69951900  1
  O  O124  1  0.39685500  0.69951900  0.27870900  1
  O  O125  1  0.72129100  0.10314500  0.69951900  1
  O  O126  1  0.89685500  0.80048100  0.72129100  1
  O  O127  1  0.72129100  0.89685500  0.80048100  1
  O  O128  1  0.10314500  0.30048100  0.77870900  1
  O  O129  1  0.85314500  0.02870900  0.94951900  1
  O  O130  1  0.14685500  0.52870900  0.55048100  1
  O  O131  1  0.69951900  0.77870900  0.60314500  1
  O  O132  1  0.44951900  0.64685500  0.97129100  1
  O  O133  1  0.97129100  0.44951900  0.64685500  1
  O  O134  1  0.52870900  0.55048100  0.14685500  1
  O  O135  1  0.69951900  0.27870900  0.39685500  1
  O  O136  1  0.64685500  0.52870900  0.94951900  1
  O  O137  1  0.94951900  0.64685500  0.52870900  1
  O  O138  1  0.47129100  0.55048100  0.64685500  1
  O  O139  1  0.85314500  0.52870900  0.05048100  1
  O  O140  1  0.19951900  0.72129100  0.39685500  1
  O  O141  1  0.94951900  0.35314500  0.97129100  1
  O  O142  1  0.80048100  0.77870900  0.39685500  1
  O  O143  1  0.52870900  0.94951900  0.64685500  1
  O  O144  1  0.80048100  0.22129100  0.10314500  1
  O  O145  1  0.97129100  0.94951900  0.35314500  1
  O  O146  1  0.52870900  0.05048100  0.85314500  1
  O  O147  1  0.55048100  0.64685500  0.47129100  1
  O  O148  1  0.05048100  0.85314500  0.52870900  1
  O  O149  1  0.35314500  0.97129100  0.94951900  1
  O  O150  1  0.64685500  0.47129100  0.55048100  1
  O  O151  1  0.39685500  0.19951900  0.72129100  1
  O  O152  1  0.77870900  0.60314500  0.69951900  1
  O  O153  1  0.60314500  0.69951900  0.77870900  1
  O  O154  1  0.77870900  0.39685500  0.80048100  1
  O  O155  1  0.10314500  0.80048100  0.22129100  1
  O  O156  1  0.22129100  0.10314500  0.80048100  1
  O  O157  1  0.72129100  0.39685500  0.19951900  1
  O  O158  1  0.39685500  0.80048100  0.77870900  1
  O  O159  1  0.94951900  0.85314500  0.02870900  1
