# generated using pymatgen
data_LaVO3
_symmetry_space_group_name_H-M   'P 1'
_cell_length_a   5.59090362
_cell_length_b   5.67741363
_cell_length_c   7.94167489
_cell_angle_alpha   90.00000000
_cell_angle_beta   90.00000000
_cell_angle_gamma   90.00000000
_symmetry_Int_Tables_number   1
_chemical_formula_structural   LaVO3
_chemical_formula_sum   'La4 V4 O12'
_cell_volume   252.08363097
_cell_formula_units_Z   4
loop_
 _symmetry_equiv_pos_site_id
 _symmetry_equiv_pos_as_xyz
  1  'x, y, z'
loop_
 _atom_site_type_symbol
 _atom_site_label
 _atom_site_symmetry_multiplicity
 _atom_site_fract_x
 _atom_site_fract_y
 _atom_site_fract_z
 _atom_site_occupancy
  La  La0  1  0.01126350  0.45622100  0.25000000  1
  La  La1  1  0.51126350  0.04377900  0.75000000  1
  La  La2  1  0.48873650  0.95622100  0.25000000  1
  La  La3  1  0.98873650  0.54377900  0.75000000  1
  V  V4  1  0.00000000  0.00000000  0.00000000  1
  V  V5  1  0.00000000  0.00000000  0.50000000  1
  V  V6  1  0.50000000  0.50000000  0.00000000  1
  V  V7  1  0.50000000  0.50000000  0.50000000  1
  O  O8  1  0.08738950  0.98165200  0.75000000  1
  O  O9  1  0.58738950  0.51834800  0.25000000  1
  O  O10  1  0.41261050  0.48165200  0.75000000  1
  O  O11  1  0.91261050  0.01834800  0.25000000  1
  O  O12  1  0.20754950  0.71400200  0.45485050  1
  O  O13  1  0.70754950  0.78599800  0.54514950  1
  O  O14  1  0.29245050  0.21400200  0.04514950  1
  O  O15  1  0.79245050  0.28599800  0.95485050  1
  O  O16  1  0.79245050  0.28599800  0.54514950  1
  O  O17  1  0.29245050  0.21400200  0.45485050  1
  O  O18  1  0.70754950  0.78599800  0.95485050  1
  O  O19  1  0.20754950  0.71400200  0.04514950  1
