# generated using pymatgen
data_Y(BRu)4
_symmetry_space_group_name_H-M   'P 1'
_cell_length_a   7.49765600
_cell_length_b   7.49765600
_cell_length_c   15.06145400
_cell_angle_alpha   90.00000000
_cell_angle_beta   90.00000000
_cell_angle_gamma   90.00000000
_symmetry_Int_Tables_number   1
_chemical_formula_structural   Y(BRu)4
_chemical_formula_sum   'Y8 B32 Ru32'
_cell_volume   846.67730953
_cell_formula_units_Z   8
loop_
 _symmetry_equiv_pos_site_id
 _symmetry_equiv_pos_as_xyz
  1  'x, y, z'
loop_
 _atom_site_type_symbol
 _atom_site_label
 _atom_site_symmetry_multiplicity
 _atom_site_fract_x
 _atom_site_fract_y
 _atom_site_fract_z
 _atom_site_occupancy
  Y  Y0  1  0.50000000  0.50000000  0.25000000  1
  Y  Y1  1  0.00000000  0.50000000  0.00000000  1
  Y  Y2  1  0.50000000  0.00000000  0.00000000  1
  Y  Y3  1  0.00000000  0.00000000  0.25000000  1
  Y  Y4  1  0.00000000  0.00000000  0.75000000  1
  Y  Y5  1  0.50000000  0.00000000  0.50000000  1
  Y  Y6  1  0.00000000  0.50000000  0.50000000  1
  Y  Y7  1  0.50000000  0.50000000  0.75000000  1
  B  B8  1  0.33185550  0.85946050  0.16848050  1
  B  B9  1  0.85946050  0.33185550  0.33151950  1
  B  B10  1  0.14053950  0.66814450  0.33151950  1
  B  B11  1  0.83185550  0.14053950  0.08151950  1
  B  B12  1  0.16814450  0.85946050  0.08151950  1
  B  B13  1  0.14053950  0.83185550  0.41848050  1
  B  B14  1  0.85946050  0.16814450  0.41848050  1
  B  B15  1  0.66814450  0.14053950  0.16848050  1
  B  B16  1  0.66814450  0.64053950  0.08151950  1
  B  B17  1  0.64053950  0.66814450  0.41848050  1
  B  B18  1  0.35946050  0.33185550  0.41848050  1
  B  B19  1  0.16814450  0.35946050  0.16848050  1
  B  B20  1  0.83185550  0.64053950  0.16848050  1
  B  B21  1  0.35946050  0.16814450  0.33151950  1
  B  B22  1  0.64053950  0.83185550  0.33151950  1
  B  B23  1  0.33185550  0.35946050  0.08151950  1
  B  B24  1  0.83185550  0.35946050  0.66848050  1
  B  B25  1  0.35946050  0.83185550  0.83151950  1
  B  B26  1  0.64053950  0.16814450  0.83151950  1
  B  B27  1  0.33185550  0.64053950  0.58151950  1
  B  B28  1  0.66814450  0.35946050  0.58151950  1
  B  B29  1  0.64053950  0.33185550  0.91848050  1
  B  B30  1  0.35946050  0.66814450  0.91848050  1
  B  B31  1  0.16814450  0.64053950  0.66848050  1
  B  B32  1  0.16814450  0.14053950  0.58151950  1
  B  B33  1  0.14053950  0.16814450  0.91848050  1
  B  B34  1  0.85946050  0.83185550  0.91848050  1
  B  B35  1  0.66814450  0.85946050  0.66848050  1
  B  B36  1  0.33185550  0.14053950  0.66848050  1
  B  B37  1  0.85946050  0.66814450  0.83151950  1
  B  B38  1  0.14053950  0.33185550  0.83151950  1
  B  B39  1  0.83185550  0.85946050  0.58151950  1
  Ru  Ru40  1  0.11550250  0.64800950  0.18820250  1
  Ru  Ru41  1  0.64800950  0.11550250  0.31179750  1
  Ru  Ru42  1  0.35199050  0.88449750  0.31179750  1
  Ru  Ru43  1  0.61550250  0.35199050  0.06179750  1
  Ru  Ru44  1  0.38449750  0.64800950  0.06179750  1
  Ru  Ru45  1  0.35199050  0.61550250  0.43820250  1
  Ru  Ru46  1  0.64800950  0.38449750  0.43820250  1
  Ru  Ru47  1  0.88449750  0.35199050  0.18820250  1
  Ru  Ru48  1  0.88449750  0.85199050  0.06179750  1
  Ru  Ru49  1  0.85199050  0.88449750  0.43820250  1
  Ru  Ru50  1  0.14800950  0.11550250  0.43820250  1
  Ru  Ru51  1  0.38449750  0.14800950  0.18820250  1
  Ru  Ru52  1  0.61550250  0.85199050  0.18820250  1
  Ru  Ru53  1  0.14800950  0.38449750  0.31179750  1
  Ru  Ru54  1  0.85199050  0.61550250  0.31179750  1
  Ru  Ru55  1  0.11550250  0.14800950  0.06179750  1
  Ru  Ru56  1  0.61550250  0.14800950  0.68820250  1
  Ru  Ru57  1  0.14800950  0.61550250  0.81179750  1
  Ru  Ru58  1  0.85199050  0.38449750  0.81179750  1
  Ru  Ru59  1  0.11550250  0.85199050  0.56179750  1
  Ru  Ru60  1  0.88449750  0.14800950  0.56179750  1
  Ru  Ru61  1  0.85199050  0.11550250  0.93820250  1
  Ru  Ru62  1  0.14800950  0.88449750  0.93820250  1
  Ru  Ru63  1  0.38449750  0.85199050  0.68820250  1
  Ru  Ru64  1  0.38449750  0.35199050  0.56179750  1
  Ru  Ru65  1  0.35199050  0.38449750  0.93820250  1
  Ru  Ru66  1  0.64800950  0.61550250  0.93820250  1
  Ru  Ru67  1  0.88449750  0.64800950  0.68820250  1
  Ru  Ru68  1  0.11550250  0.35199050  0.68820250  1
  Ru  Ru69  1  0.64800950  0.88449750  0.81179750  1
  Ru  Ru70  1  0.35199050  0.11550250  0.81179750  1
  Ru  Ru71  1  0.61550250  0.64800950  0.56179750  1
