# generated using pymatgen
data_Tb(Ni2B)6
_symmetry_space_group_name_H-M   'P 1'
_cell_length_a   7.35686000
_cell_length_b   9.54815800
_cell_length_c   10.96144600
_cell_angle_alpha   90.00000000
_cell_angle_beta   90.00000000
_cell_angle_gamma   90.00000000
_symmetry_Int_Tables_number   1
_chemical_formula_structural   Tb(Ni2B)6
_chemical_formula_sum   'Tb4 Ni48 B24'
_cell_volume   769.98087333
_cell_formula_units_Z   4
loop_
 _symmetry_equiv_pos_site_id
 _symmetry_equiv_pos_as_xyz
  1  'x, y, z'
loop_
 _atom_site_type_symbol
 _atom_site_label
 _atom_site_symmetry_multiplicity
 _atom_site_fract_x
 _atom_site_fract_y
 _atom_site_fract_z
 _atom_site_occupancy
  Tb  Tb0  1  0.83320100  0.00000000  0.00357600  1
  Tb  Tb1  1  0.16679900  0.00000000  0.50357600  1
  Tb  Tb2  1  0.33320100  0.50000000  0.00357600  1
  Tb  Tb3  1  0.66679900  0.50000000  0.50357600  1
  Ni  Ni4  1  0.81465000  0.18294400  0.56273200  1
  Ni  Ni5  1  0.53664500  0.19404300  0.43217500  1
  Ni  Ni6  1  0.53664500  0.80595700  0.43217500  1
  Ni  Ni7  1  0.46335500  0.19404300  0.93217500  1
  Ni  Ni8  1  0.18535000  0.81705600  0.06273200  1
  Ni  Ni9  1  0.18535000  0.18294400  0.06273200  1
  Ni  Ni10  1  0.81465000  0.81705600  0.56273200  1
  Ni  Ni11  1  0.43320700  0.00000000  0.08154500  1
  Ni  Ni12  1  0.34325700  0.86926400  0.72348700  1
  Ni  Ni13  1  0.65674300  0.13073600  0.22348700  1
  Ni  Ni14  1  0.65674300  0.86926400  0.22348700  1
  Ni  Ni15  1  0.34325700  0.13073600  0.72348700  1
  Ni  Ni16  1  0.56679300  0.00000000  0.58154500  1
  Ni  Ni17  1  0.21761600  0.00000000  0.90082100  1
  Ni  Ni18  1  0.51404800  0.63172400  0.74435700  1
  Ni  Ni19  1  0.48595200  0.36827600  0.24435700  1
  Ni  Ni20  1  0.48595200  0.63172400  0.24435700  1
  Ni  Ni21  1  0.51404800  0.36827600  0.74435700  1
  Ni  Ni22  1  0.67489400  0.86931900  0.76676200  1
  Ni  Ni23  1  0.32510600  0.13068100  0.26676200  1
  Ni  Ni24  1  0.32510600  0.86931900  0.26676200  1
  Ni  Ni25  1  0.67489400  0.13068100  0.76676200  1
  Ni  Ni26  1  0.78238400  0.00000000  0.40082100  1
  Ni  Ni27  1  0.46335500  0.80595700  0.93217500  1
  Ni  Ni28  1  0.31465000  0.68294400  0.56273200  1
  Ni  Ni29  1  0.03664500  0.69404300  0.43217500  1
  Ni  Ni30  1  0.03664500  0.30595700  0.43217500  1
  Ni  Ni31  1  0.96335500  0.69404300  0.93217500  1
  Ni  Ni32  1  0.68535000  0.31705600  0.06273200  1
  Ni  Ni33  1  0.68535000  0.68294400  0.06273200  1
  Ni  Ni34  1  0.31465000  0.31705600  0.56273200  1
  Ni  Ni35  1  0.93320700  0.50000000  0.08154500  1
  Ni  Ni36  1  0.84325700  0.36926400  0.72348700  1
  Ni  Ni37  1  0.15674300  0.63073600  0.22348700  1
  Ni  Ni38  1  0.15674300  0.36926400  0.22348700  1
  Ni  Ni39  1  0.84325700  0.63073600  0.72348700  1
  Ni  Ni40  1  0.06679300  0.50000000  0.58154500  1
  Ni  Ni41  1  0.71761600  0.50000000  0.90082100  1
  Ni  Ni42  1  0.01404800  0.13172400  0.74435700  1
  Ni  Ni43  1  0.98595200  0.86827600  0.24435700  1
  Ni  Ni44  1  0.98595200  0.13172400  0.24435700  1
  Ni  Ni45  1  0.01404800  0.86827600  0.74435700  1
  Ni  Ni46  1  0.17489400  0.36931900  0.76676200  1
  Ni  Ni47  1  0.82510600  0.63068100  0.26676200  1
  Ni  Ni48  1  0.82510600  0.36931900  0.26676200  1
  Ni  Ni49  1  0.17489400  0.63068100  0.76676200  1
  Ni  Ni50  1  0.28238400  0.50000000  0.40082100  1
  Ni  Ni51  1  0.96335500  0.30595700  0.93217500  1
  B  B52  1  0.69381300  0.70629100  0.87746400  1
  B  B53  1  0.30618700  0.29370900  0.37746400  1
  B  B54  1  0.30618700  0.70629100  0.37746400  1
  B  B55  1  0.69381300  0.29370900  0.87746400  1
  B  B56  1  0.54309850  0.78449250  0.61513400  1
  B  B57  1  0.45690150  0.21550750  0.11513400  1
  B  B58  1  0.45690150  0.78449250  0.11513400  1
  B  B59  1  0.54309850  0.21550750  0.61513400  1
  B  B60  1  0.51232900  0.00000000  0.34479600  1
  B  B61  1  0.48767100  0.00000000  0.84479600  1
  B  B62  1  0.16344400  0.00000000  0.16204100  1
  B  B63  1  0.83655600  0.00000000  0.66204100  1
  B  B64  1  0.19381300  0.20629100  0.87746400  1
  B  B65  1  0.80618700  0.79370900  0.37746400  1
  B  B66  1  0.80618700  0.20629100  0.37746400  1
  B  B67  1  0.19381300  0.79370900  0.87746400  1
  B  B68  1  0.04309850  0.28449250  0.61513400  1
  B  B69  1  0.95690150  0.71550750  0.11513400  1
  B  B70  1  0.95690150  0.28449250  0.11513400  1
  B  B71  1  0.04309850  0.71550750  0.61513400  1
  B  B72  1  0.01232900  0.50000000  0.34479600  1
  B  B73  1  0.98767100  0.50000000  0.84479600  1
  B  B74  1  0.66344400  0.50000000  0.16204100  1
  B  B75  1  0.33655600  0.50000000  0.66204100  1
