# generated using pymatgen
data_Sm3ReO7
_symmetry_space_group_name_H-M   'P 1'
_cell_length_a   7.46130600
_cell_length_b   10.81780800
_cell_length_c   7.57179700
_cell_angle_alpha   90.00000000
_cell_angle_beta   90.00000000
_cell_angle_gamma   90.00000000
_symmetry_Int_Tables_number   1
_chemical_formula_structural   Sm3ReO7
_chemical_formula_sum   'Sm12 Re4 O28'
_cell_volume   611.15741114
_cell_formula_units_Z   4
loop_
 _symmetry_equiv_pos_site_id
 _symmetry_equiv_pos_as_xyz
  1  'x, y, z'
loop_
 _atom_site_type_symbol
 _atom_site_label
 _atom_site_symmetry_multiplicity
 _atom_site_fract_x
 _atom_site_fract_y
 _atom_site_fract_z
 _atom_site_occupancy
  Sm  Sm0  1  0.29763000  0.72455700  0.25000000  1
  Sm  Sm1  1  0.70237000  0.27544300  0.75000000  1
  Sm  Sm2  1  0.50000000  0.00000000  0.50000000  1
  Sm  Sm3  1  0.50000000  0.00000000  0.00000000  1
  Sm  Sm4  1  0.70237000  0.72455700  0.75000000  1
  Sm  Sm5  1  0.29763000  0.27544300  0.25000000  1
  Sm  Sm6  1  0.79763000  0.22455700  0.25000000  1
  Sm  Sm7  1  0.20237000  0.77544300  0.75000000  1
  Sm  Sm8  1  0.00000000  0.50000000  0.50000000  1
  Sm  Sm9  1  0.00000000  0.50000000  0.00000000  1
  Sm  Sm10  1  0.20237000  0.22455700  0.75000000  1
  Sm  Sm11  1  0.79763000  0.77544300  0.25000000  1
  Re  Re12  1  0.00000000  0.00000000  0.00000000  1
  Re  Re13  1  0.00000000  0.00000000  0.50000000  1
  Re  Re14  1  0.50000000  0.50000000  0.00000000  1
  Re  Re15  1  0.50000000  0.50000000  0.50000000  1
  O  O16  1  0.47694900  0.13203100  0.75000000  1
  O  O17  1  0.52305100  0.86796900  0.25000000  1
  O  O18  1  0.47694900  0.86796900  0.75000000  1
  O  O19  1  0.52305100  0.13203100  0.25000000  1
  O  O20  1  0.18765950  0.12705450  0.03693300  1
  O  O21  1  0.81234050  0.87294550  0.53693300  1
  O  O22  1  0.18765950  0.87294550  0.46306700  1
  O  O23  1  0.81234050  0.12705450  0.96306700  1
  O  O24  1  0.91874300  0.00000000  0.25000000  1
  O  O25  1  0.08125700  0.00000000  0.75000000  1
  O  O26  1  0.18765950  0.87294550  0.03693300  1
  O  O27  1  0.81234050  0.12705450  0.53693300  1
  O  O28  1  0.18765950  0.12705450  0.46306700  1
  O  O29  1  0.81234050  0.87294550  0.96306700  1
  O  O30  1  0.97694900  0.63203100  0.75000000  1
  O  O31  1  0.02305100  0.36796900  0.25000000  1
  O  O32  1  0.97694900  0.36796900  0.75000000  1
  O  O33  1  0.02305100  0.63203100  0.25000000  1
  O  O34  1  0.68765950  0.62705450  0.03693300  1
  O  O35  1  0.31234050  0.37294550  0.53693300  1
  O  O36  1  0.68765950  0.37294550  0.46306700  1
  O  O37  1  0.31234050  0.62705450  0.96306700  1
  O  O38  1  0.41874300  0.50000000  0.25000000  1
  O  O39  1  0.58125700  0.50000000  0.75000000  1
  O  O40  1  0.68765950  0.37294550  0.03693300  1
  O  O41  1  0.31234050  0.62705450  0.53693300  1
  O  O42  1  0.68765950  0.62705450  0.46306700  1
  O  O43  1  0.31234050  0.37294550  0.96306700  1
