# generated using pymatgen
data_Cs2NaTiF6
_symmetry_space_group_name_H-M   'P 1'
_cell_length_a   6.38677945
_cell_length_b   6.38677945
_cell_length_c   31.38836214
_cell_angle_alpha   90.00000000
_cell_angle_beta   90.00000000
_cell_angle_gamma   120.00000000
_symmetry_Int_Tables_number   1
_chemical_formula_structural   Cs2NaTiF6
_chemical_formula_sum   'Cs12 Na6 Ti6 F36'
_cell_volume   1108.82529360
_cell_formula_units_Z   6
loop_
 _symmetry_equiv_pos_site_id
 _symmetry_equiv_pos_as_xyz
  1  'x, y, z'
loop_
 _atom_site_type_symbol
 _atom_site_label
 _atom_site_symmetry_multiplicity
 _atom_site_fract_x
 _atom_site_fract_y
 _atom_site_fract_z
 _atom_site_occupancy
  Cs  Cs0  1  0.66666667  0.33333333  0.05177533  1
  Cs  Cs1  1  0.00000000  0.00000000  0.28155800  1
  Cs  Cs2  1  0.66666667  0.33333333  0.20534633  1
  Cs  Cs3  1  0.00000000  0.00000000  0.12798700  1
  Cs  Cs4  1  0.33333333  0.66666667  0.38510867  1
  Cs  Cs5  1  0.66666667  0.33333333  0.61489133  1
  Cs  Cs6  1  0.33333333  0.66666667  0.53867967  1
  Cs  Cs7  1  0.66666667  0.33333333  0.46132033  1
  Cs  Cs8  1  0.00000000  0.00000000  0.71844200  1
  Cs  Cs9  1  0.33333333  0.66666667  0.94822467  1
  Cs  Cs10  1  0.00000000  0.00000000  0.87201300  1
  Cs  Cs11  1  0.33333333  0.66666667  0.79465367  1
  Na  Na12  1  0.33333333  0.66666667  0.06944667  1
  Na  Na13  1  0.33333333  0.66666667  0.26388667  1
  Na  Na14  1  0.00000000  0.00000000  0.40278000  1
  Na  Na15  1  0.00000000  0.00000000  0.59722000  1
  Na  Na16  1  0.66666667  0.33333333  0.73611333  1
  Na  Na17  1  0.66666667  0.33333333  0.93055333  1
  Ti  Ti18  1  0.00000000  0.00000000  0.00000000  1
  Ti  Ti19  1  0.33333333  0.66666667  0.16666667  1
  Ti  Ti20  1  0.66666667  0.33333333  0.33333333  1
  Ti  Ti21  1  1.00000000  1.00000000  0.50000000  1
  Ti  Ti22  1  0.33333333  0.66666667  0.66666667  1
  Ti  Ti23  1  0.66666667  0.33333333  0.83333333  1
  F  F24  1  0.14872233  0.85127767  0.03680367  1
  F  F25  1  0.14872233  0.29744467  0.03680367  1
  F  F26  1  0.70255533  0.85127767  0.03680367  1
  F  F27  1  0.96411133  0.48205567  0.29652967  1
  F  F28  1  0.51794433  0.48205567  0.29652967  1
  F  F29  1  0.51794433  0.03588867  0.29652967  1
  F  F30  1  0.19009900  0.80990100  0.20541900  1
  F  F31  1  0.19009900  0.38019800  0.20541900  1
  F  F32  1  0.47656767  0.95313533  0.12791433  1
  F  F33  1  0.47656767  0.52343233  0.12791433  1
  F  F34  1  0.04686467  0.52343233  0.12791433  1
  F  F35  1  0.61980200  0.80990100  0.20541900  1
  F  F36  1  0.81538900  0.18461100  0.37013700  1
  F  F37  1  0.81538900  0.63077800  0.37013700  1
  F  F38  1  0.36922200  0.18461100  0.37013700  1
  F  F39  1  0.63077800  0.81538900  0.62986300  1
  F  F40  1  0.18461100  0.81538900  0.62986300  1
  F  F41  1  0.18461100  0.36922200  0.62986300  1
  F  F42  1  0.85676567  0.14323433  0.53875233  1
  F  F43  1  0.85676567  0.71353133  0.53875233  1
  F  F44  1  0.14323433  0.28646867  0.46124767  1
  F  F45  1  0.14323433  0.85676567  0.46124767  1
  F  F46  1  0.71353133  0.85676567  0.46124767  1
  F  F47  1  0.28646867  0.14323433  0.53875233  1
  F  F48  1  0.48205567  0.51794433  0.70347033  1
  F  F49  1  0.48205567  0.96411133  0.70347033  1
  F  F50  1  0.03588867  0.51794433  0.70347033  1
  F  F51  1  0.29744467  0.14872233  0.96319633  1
  F  F52  1  0.85127767  0.14872233  0.96319633  1
  F  F53  1  0.85127767  0.70255533  0.96319633  1
  F  F54  1  0.52343233  0.47656767  0.87208567  1
  F  F55  1  0.52343233  0.04686467  0.87208567  1
  F  F56  1  0.80990100  0.61980200  0.79458100  1
  F  F57  1  0.80990100  0.19009900  0.79458100  1
  F  F58  1  0.38019800  0.19009900  0.79458100  1
  F  F59  1  0.95313533  0.47656767  0.87208567  1
