# generated using pymatgen
data_ThCo9Si2
_symmetry_space_group_name_H-M   'P 1'
_cell_length_a   9.72964400
_cell_length_b   9.72964400
_cell_length_c   6.28916800
_cell_angle_alpha   90.00000000
_cell_angle_beta   90.00000000
_cell_angle_gamma   90.00000000
_symmetry_Int_Tables_number   1
_chemical_formula_structural   ThCo9Si2
_chemical_formula_sum   'Th4 Co36 Si8'
_cell_volume   595.37020410
_cell_formula_units_Z   4
loop_
 _symmetry_equiv_pos_site_id
 _symmetry_equiv_pos_as_xyz
  1  'x, y, z'
loop_
 _atom_site_type_symbol
 _atom_site_label
 _atom_site_symmetry_multiplicity
 _atom_site_fract_x
 _atom_site_fract_y
 _atom_site_fract_z
 _atom_site_occupancy
  Th  Th0  1  0.50000000  0.00000000  0.25000000  1
  Th  Th1  1  0.00000000  0.00000000  0.00000000  1
  Th  Th2  1  0.00000000  0.50000000  0.75000000  1
  Th  Th3  1  0.50000000  0.50000000  0.50000000  1
  Co  Co4  1  0.00000000  0.00000000  0.50000000  1
  Co  Co5  1  0.20617000  0.12451700  0.31119100  1
  Co  Co6  1  0.79383000  0.87548300  0.31119100  1
  Co  Co7  1  0.87548300  0.70617000  0.06119100  1
  Co  Co8  1  0.70617000  0.87548300  0.93880900  1
  Co  Co9  1  0.29383000  0.12451700  0.93880900  1
  Co  Co10  1  0.12451700  0.29383000  0.06119100  1
  Co  Co11  1  0.12451700  0.20617000  0.68880900  1
  Co  Co12  1  0.87548300  0.20617000  0.68880900  1
  Co  Co13  1  0.29383000  0.87548300  0.93880900  1
  Co  Co14  1  0.70617000  0.12451700  0.93880900  1
  Co  Co15  1  0.12451700  0.79383000  0.68880900  1
  Co  Co16  1  0.79383000  0.12451700  0.31119100  1
  Co  Co17  1  0.20617000  0.87548300  0.31119100  1
  Co  Co18  1  0.12451700  0.70617000  0.06119100  1
  Co  Co19  1  0.87548300  0.29383000  0.06119100  1
  Co  Co20  1  0.87548300  0.79383000  0.68880900  1
  Co  Co21  1  0.50000000  0.00000000  0.75000000  1
  Co  Co22  1  0.50000000  0.50000000  0.00000000  1
  Co  Co23  1  0.70617000  0.62451700  0.81119100  1
  Co  Co24  1  0.29383000  0.37548300  0.81119100  1
  Co  Co25  1  0.37548300  0.20617000  0.56119100  1
  Co  Co26  1  0.20617000  0.37548300  0.43880900  1
  Co  Co27  1  0.79383000  0.62451700  0.43880900  1
  Co  Co28  1  0.62451700  0.79383000  0.56119100  1
  Co  Co29  1  0.62451700  0.70617000  0.18880900  1
  Co  Co30  1  0.37548300  0.70617000  0.18880900  1
  Co  Co31  1  0.79383000  0.37548300  0.43880900  1
  Co  Co32  1  0.20617000  0.62451700  0.43880900  1
  Co  Co33  1  0.62451700  0.29383000  0.18880900  1
  Co  Co34  1  0.29383000  0.62451700  0.81119100  1
  Co  Co35  1  0.70617000  0.37548300  0.81119100  1
  Co  Co36  1  0.62451700  0.20617000  0.56119100  1
  Co  Co37  1  0.37548300  0.79383000  0.56119100  1
  Co  Co38  1  0.37548300  0.29383000  0.18880900  1
  Co  Co39  1  0.00000000  0.50000000  0.25000000  1
  Si  Si40  1  0.00000000  0.75000000  0.37500000  1
  Si  Si41  1  0.75000000  0.00000000  0.62500000  1
  Si  Si42  1  0.25000000  0.00000000  0.62500000  1
  Si  Si43  1  0.00000000  0.25000000  0.37500000  1
  Si  Si44  1  0.50000000  0.25000000  0.87500000  1
  Si  Si45  1  0.25000000  0.50000000  0.12500000  1
  Si  Si46  1  0.75000000  0.50000000  0.12500000  1
  Si  Si47  1  0.50000000  0.75000000  0.87500000  1
