# generated using pymatgen
data_PrTe3
_symmetry_space_group_name_H-M   'P 1'
_cell_length_a   4.40477200
_cell_length_b   27.66102200
_cell_length_c   4.40740500
_cell_angle_alpha   90.00000000
_cell_angle_beta   90.00000000
_cell_angle_gamma   90.00000000
_symmetry_Int_Tables_number   1
_chemical_formula_structural   PrTe3
_chemical_formula_sum   'Pr4 Te12'
_cell_volume   537.00040773
_cell_formula_units_Z   4
loop_
 _symmetry_equiv_pos_site_id
 _symmetry_equiv_pos_as_xyz
  1  'x, y, z'
loop_
 _atom_site_type_symbol
 _atom_site_label
 _atom_site_symmetry_multiplicity
 _atom_site_fract_x
 _atom_site_fract_y
 _atom_site_fract_z
 _atom_site_occupancy
  Pr  Pr0  1  0.00000000  0.67180700  0.25000000  1
  Pr  Pr1  1  0.50000000  0.82819300  0.75000000  1
  Pr  Pr2  1  0.50000000  0.17180700  0.25000000  1
  Pr  Pr3  1  0.00000000  0.32819300  0.75000000  1
  Te  Te4  1  0.00000000  0.92194800  0.75000000  1
  Te  Te5  1  0.50000000  0.57805200  0.25000000  1
  Te  Te6  1  0.50000000  0.70719000  0.75000000  1
  Te  Te7  1  0.00000000  0.79281000  0.25000000  1
  Te  Te8  1  0.50000000  0.92195600  0.25000000  1
  Te  Te9  1  0.00000000  0.57804400  0.75000000  1
  Te  Te10  1  0.50000000  0.42194800  0.75000000  1
  Te  Te11  1  0.00000000  0.07805200  0.25000000  1
  Te  Te12  1  0.00000000  0.20719000  0.75000000  1
  Te  Te13  1  0.50000000  0.29281000  0.25000000  1
  Te  Te14  1  0.00000000  0.42195600  0.25000000  1
  Te  Te15  1  0.50000000  0.07804400  0.75000000  1
