# generated using pymatgen
data_BaTi18Mn3O38
_symmetry_space_group_name_H-M   'P 1'
_cell_length_a   10.50854839
_cell_length_b   10.50854839
_cell_length_c   21.15174123
_cell_angle_alpha   90.00000000
_cell_angle_beta   90.00000000
_cell_angle_gamma   120.00000000
_symmetry_Int_Tables_number   1
_chemical_formula_structural   BaTi18Mn3O38
_chemical_formula_sum   'Ba3 Ti54 Mn9 O114'
_cell_volume   2022.84317007
_cell_formula_units_Z   3
loop_
 _symmetry_equiv_pos_site_id
 _symmetry_equiv_pos_as_xyz
  1  'x, y, z'
loop_
 _atom_site_type_symbol
 _atom_site_label
 _atom_site_symmetry_multiplicity
 _atom_site_fract_x
 _atom_site_fract_y
 _atom_site_fract_z
 _atom_site_occupancy
  Ba  Ba0  1  0.00000000  0.00000000  0.00000000  1
  Ba  Ba1  1  0.66666667  0.33333333  0.33333333  1
  Ba  Ba2  1  0.33333333  0.66666667  0.66666667  1
  Ti  Ti3  1  0.09137967  0.73569133  0.26844533  1
  Ti  Ti4  1  0.26430867  0.35568833  0.26844533  1
  Ti  Ti5  1  0.64431167  0.90862033  0.26844533  1
  Ti  Ti6  1  0.57528700  0.59764200  0.06488800  1
  Ti  Ti7  1  0.40235800  0.97764500  0.06488800  1
  Ti  Ti8  1  0.02235500  0.42471300  0.06488800  1
  Ti  Ti9  1  0.57653600  0.58851000  0.27389700  1
  Ti  Ti10  1  0.41149000  0.98802600  0.27389700  1
  Ti  Ti11  1  0.01197400  0.42346400  0.27389700  1
  Ti  Ti12  1  0.09013067  0.74482333  0.05943633  1
  Ti  Ti13  1  0.25517667  0.34530733  0.05943633  1
  Ti  Ti14  1  0.65469267  0.90986933  0.05943633  1
  Ti  Ti15  1  0.47697833  0.85055467  0.50239767  1
  Ti  Ti16  1  0.14944533  0.62642367  0.50239767  1
  Ti  Ti17  1  0.37357633  0.52302167  0.50239767  1
  Ti  Ti18  1  0.18968833  0.48277867  0.83093567  1
  Ti  Ti19  1  0.51722133  0.70690967  0.83093567  1
  Ti  Ti20  1  0.29309033  0.81031167  0.83093567  1
  Ti  Ti21  1  0.75804633  0.06902467  0.60177867  1
  Ti  Ti22  1  0.93097533  0.68902167  0.60177867  1
  Ti  Ti23  1  0.31097833  0.24195367  0.60177867  1
  Ti  Ti24  1  0.24195367  0.93097533  0.39822133  1
  Ti  Ti25  1  0.06902467  0.31097833  0.39822133  1
  Ti  Ti26  1  0.68902167  0.75804633  0.39822133  1
  Ti  Ti27  1  0.24320267  0.92184333  0.60723033  1
  Ti  Ti28  1  0.07815667  0.32135933  0.60723033  1
  Ti  Ti29  1  0.67864067  0.75679733  0.60723033  1
  Ti  Ti30  1  0.75679733  0.07815667  0.39276967  1
  Ti  Ti31  1  0.92184333  0.67864067  0.39276967  1
  Ti  Ti32  1  0.32135933  0.24320267  0.39276967  1
  Ti  Ti33  1  0.14364500  0.18388800  0.83573100  1
  Ti  Ti34  1  0.81611200  0.95975700  0.83573100  1
  Ti  Ti35  1  0.04024300  0.85635500  0.83573100  1
  Ti  Ti36  1  0.85635500  0.81611200  0.16426900  1
  Ti  Ti37  1  0.18388800  0.04024300  0.16426900  1
  Ti  Ti38  1  0.95975700  0.14364500  0.16426900  1
  Ti  Ti39  1  0.42471300  0.40235800  0.93511200  1
  Ti  Ti40  1  0.59764200  0.02235500  0.93511200  1
  Ti  Ti41  1  0.97764500  0.57528700  0.93511200  1
  Ti  Ti42  1  0.90862033  0.26430867  0.73155467  1
  Ti  Ti43  1  0.73569133  0.64431167  0.73155467  1
  Ti  Ti44  1  0.35568833  0.09137967  0.73155467  1
  Ti  Ti45  1  0.90986933  0.25517667  0.94056367  1
  Ti  Ti46  1  0.74482333  0.65469267  0.94056367  1
  Ti  Ti47  1  0.34530733  0.09013067  0.94056367  1
  Ti  Ti48  1  0.42346400  0.41149000  0.72610300  1
  Ti  Ti49  1  0.58851000  0.01197400  0.72610300  1
  Ti  Ti50  1  0.98802600  0.57653600  0.72610300  1
  Ti  Ti51  1  0.81031167  0.51722133  0.16906433  1
  Ti  Ti52  1  0.48277867  0.29309033  0.16906433  1
  Ti  Ti53  1  0.70690967  0.18968833  0.16906433  1
  Ti  Ti54  1  0.52302167  0.14944533  0.49760233  1
  Ti  Ti55  1  0.85055467  0.37357633  0.49760233  1
  Ti  Ti56  1  0.62642367  0.47697833  0.49760233  1
  Mn  Mn57  1  0.33333333  0.66666667  0.16666667  1
  Mn  Mn58  1  0.33333333  0.66666667  0.35627267  1
  Mn  Mn59  1  0.33333333  0.66666667  0.97706067  1
  Mn  Mn60  1  1.00000000  0.00000000  0.50000000  1
  Mn  Mn61  1  0.00000000  0.00000000  0.68960600  1
  Mn  Mn62  1  0.00000000  0.00000000  0.31039400  1
  Mn  Mn63  1  0.66666667  0.33333333  0.83333333  1
  Mn  Mn64  1  0.66666667  0.33333333  0.02293933  1
  Mn  Mn65  1  0.66666667  0.33333333  0.64372733  1
  O  O66  1  0.33333333  0.66666667  0.45486967  1
  O  O67  1  0.33333333  0.66666667  0.87846367  1
  O  O68  1  0.59999467  0.03073933  0.32522733  1
  O  O69  1  0.96926067  0.56925533  0.32522733  1
  O  O70  1  0.43074467  0.40000533  0.32522733  1
  O  O71  1  0.06667200  0.30259400  0.00810600  1
  O  O72  1  0.69740600  0.76407800  0.00810600  1
  O  O73  1  0.23592200  0.93332800  0.00810600  1
  O  O74  1  0.53953200  0.72123000  0.32839300  1
  O  O75  1  0.27877000  0.81830200  0.32839300  1
  O  O76  1  0.18169800  0.46046800  0.32839300  1
  O  O77  1  0.12713467  0.61210333  0.00494033  1
  O  O78  1  0.38789667  0.51503133  0.00494033  1
  O  O79  1  0.48496867  0.87286533  0.00494033  1
  O  O80  1  0.43707767  0.40463733  0.10681533  1
  O  O81  1  0.89345233  0.26208267  0.11788167  1
  O  O82  1  0.36863033  0.10654767  0.11788167  1
  O  O83  1  0.77321433  0.07125067  0.21545167  1
  O  O84  1  0.92874933  0.70196367  0.21545167  1
  O  O85  1  0.29803633  0.22678567  0.21545167  1
  O  O86  1  0.59536267  0.03244033  0.10681533  1
  O  O87  1  0.96755967  0.56292233  0.10681533  1
  O  O88  1  0.52441467  0.72685733  0.10317933  1
  O  O89  1  0.20244267  0.47558533  0.10317933  1
  O  O90  1  0.27314267  0.79755733  0.10317933  1
  O  O91  1  0.14225200  0.60647600  0.23015400  1
  O  O92  1  0.46422400  0.85774800  0.23015400  1
  O  O93  1  0.39352400  0.53577600  0.23015400  1
  O  O94  1  0.12822100  0.17163300  0.11060200  1
  O  O95  1  0.04341200  0.87177900  0.11060200  1
  O  O96  1  0.82836700  0.95658800  0.11060200  1
  O  O97  1  0.53844567  0.16170033  0.22273133  1
  O  O98  1  0.62325467  0.46155433  0.22273133  1
  O  O99  1  0.83829967  0.37674533  0.22273133  1
  O  O100  1  0.22958900  0.92869600  0.22651800  1
  O  O101  1  0.69910700  0.77041100  0.22651800  1
  O  O102  1  0.07130400  0.30089300  0.22651800  1
  O  O103  1  0.73791733  0.63136967  0.11788167  1
  O  O104  1  0.00000000  0.00000000  0.78820300  1
  O  O105  1  0.00000000  0.00000000  0.21179700  1
  O  O106  1  0.26666133  0.36407267  0.65856067  1
  O  O107  1  0.63592733  0.90258867  0.65856067  1
  O  O108  1  0.09741133  0.73333867  0.65856067  1
  O  O109  1  0.73333867  0.63592733  0.34143933  1
  O  O110  1  0.36407267  0.09741133  0.34143933  1
  O  O111  1  0.90258867  0.26666133  0.34143933  1
  O  O112  1  0.20619867  0.05456333  0.66172633  1
  O  O113  1  0.94543667  0.15163533  0.66172633  1
  O  O114  1  0.84836467  0.79380133  0.66172633  1
  O  O115  1  0.79380133  0.94543667  0.33827367  1
  O  O116  1  0.05456333  0.84836467  0.33827367  1
  O  O117  1  0.15163533  0.20619867  0.33827367  1
  O  O118  1  0.10374433  0.73797067  0.44014867  1
  O  O119  1  0.56011900  0.59541600  0.45121500  1
  O  O120  1  0.03529700  0.43988100  0.45121500  1
  O  O121  1  0.43988100  0.40458400  0.54878500  1
  O  O122  1  0.59541600  0.03529700  0.54878500  1
  O  O123  1  0.96470300  0.56011900  0.54878500  1
  O  O124  1  0.26202933  0.36577367  0.44014867  1
  O  O125  1  0.63422633  0.89625567  0.44014867  1
  O  O126  1  0.19108133  0.06019067  0.43651267  1
  O  O127  1  0.86910933  0.80891867  0.43651267  1
  O  O128  1  0.93980933  0.13089067  0.43651267  1
  O  O129  1  0.80891867  0.93980933  0.56348733  1
  O  O130  1  0.13089067  0.19108133  0.56348733  1
  O  O131  1  0.06019067  0.86910933  0.56348733  1
  O  O132  1  0.79488767  0.50496633  0.44393533  1
  O  O133  1  0.71007867  0.20511233  0.44393533  1
  O  O134  1  0.49503367  0.28992133  0.44393533  1
  O  O135  1  0.20511233  0.49503367  0.55606467  1
  O  O136  1  0.28992133  0.79488767  0.55606467  1
  O  O137  1  0.50496633  0.71007867  0.55606467  1
  O  O138  1  0.89625567  0.26202933  0.55985133  1
  O  O139  1  0.36577367  0.10374433  0.55985133  1
  O  O140  1  0.73797067  0.63422633  0.55985133  1
  O  O141  1  0.40458400  0.96470300  0.45121500  1
  O  O142  1  0.66666667  0.33333333  0.12153633  1
  O  O143  1  0.66666667  0.33333333  0.54513033  1
  O  O144  1  0.93332800  0.69740600  0.99189400  1
  O  O145  1  0.30259400  0.23592200  0.99189400  1
  O  O146  1  0.76407800  0.06667200  0.99189400  1
  O  O147  1  0.40000533  0.96926067  0.67477267  1
  O  O148  1  0.03073933  0.43074467  0.67477267  1
  O  O149  1  0.56925533  0.59999467  0.67477267  1
  O  O150  1  0.87286533  0.38789667  0.99505967  1
  O  O151  1  0.61210333  0.48496867  0.99505967  1
  O  O152  1  0.51503133  0.12713467  0.99505967  1
  O  O153  1  0.46046800  0.27877000  0.67160700  1
  O  O154  1  0.72123000  0.18169800  0.67160700  1
  O  O155  1  0.81830200  0.53953200  0.67160700  1
  O  O156  1  0.77041100  0.07130400  0.77348200  1
  O  O157  1  0.22678567  0.92874933  0.78454833  1
  O  O158  1  0.70196367  0.77321433  0.78454833  1
  O  O159  1  0.10654767  0.73791733  0.88211833  1
  O  O160  1  0.26208267  0.36863033  0.88211833  1
  O  O161  1  0.63136967  0.89345233  0.88211833  1
  O  O162  1  0.92869600  0.69910700  0.77348200  1
  O  O163  1  0.30089300  0.22958900  0.77348200  1
  O  O164  1  0.85774800  0.39352400  0.76984600  1
  O  O165  1  0.53577600  0.14225200  0.76984600  1
  O  O166  1  0.60647600  0.46422400  0.76984600  1
  O  O167  1  0.47558533  0.27314267  0.89682067  1
  O  O168  1  0.79755733  0.52441467  0.89682067  1
  O  O169  1  0.72685733  0.20244267  0.89682067  1
  O  O170  1  0.46155433  0.83829967  0.77726867  1
  O  O171  1  0.37674533  0.53844567  0.77726867  1
  O  O172  1  0.16170033  0.62325467  0.77726867  1
  O  O173  1  0.87177900  0.82836700  0.88939800  1
  O  O174  1  0.95658800  0.12822100  0.88939800  1
  O  O175  1  0.17163300  0.04341200  0.88939800  1
  O  O176  1  0.56292233  0.59536267  0.89318467  1
  O  O177  1  0.03244033  0.43707767  0.89318467  1
  O  O178  1  0.40463733  0.96755967  0.89318467  1
  O  O179  1  0.07125067  0.29803633  0.78454833  1
