# generated using pymatgen
data_Cu3As
_symmetry_space_group_name_H-M   'P 1'
_cell_length_a   9.64704400
_cell_length_b   9.64704400
_cell_length_c   9.64704400
_cell_angle_alpha   90.00000000
_cell_angle_beta   90.00000000
_cell_angle_gamma   90.00000000
_symmetry_Int_Tables_number   1
_chemical_formula_structural   Cu3As
_chemical_formula_sum   'Cu48 As16'
_cell_volume   897.80656761
_cell_formula_units_Z   16
loop_
 _symmetry_equiv_pos_site_id
 _symmetry_equiv_pos_as_xyz
  1  'x, y, z'
loop_
 _atom_site_type_symbol
 _atom_site_label
 _atom_site_symmetry_multiplicity
 _atom_site_fract_x
 _atom_site_fract_y
 _atom_site_fract_z
 _atom_site_occupancy
  Cu  Cu0  1  0.56348050  0.13141850  0.22073150  1
  Cu  Cu1  1  0.86858150  0.27926850  0.56348050  1
  Cu  Cu2  1  0.77926850  0.93651950  0.13141850  1
  Cu  Cu3  1  0.43651950  0.36858150  0.22073150  1
  Cu  Cu4  1  0.36858150  0.22073150  0.43651950  1
  Cu  Cu5  1  0.22073150  0.43651950  0.36858150  1
  Cu  Cu6  1  0.38141850  0.81348050  0.47073150  1
  Cu  Cu7  1  0.61858150  0.31348050  0.02926850  1
  Cu  Cu8  1  0.11858150  0.18651950  0.97073150  1
  Cu  Cu9  1  0.27926850  0.56348050  0.86858150  1
  Cu  Cu10  1  0.22073150  0.56348050  0.13141850  1
  Cu  Cu11  1  0.13141850  0.22073150  0.56348050  1
  Cu  Cu12  1  0.13141850  0.77926850  0.93651950  1
  Cu  Cu13  1  0.93651950  0.13141850  0.77926850  1
  Cu  Cu14  1  0.56348050  0.86858150  0.27926850  1
  Cu  Cu15  1  0.18651950  0.02926850  0.38141850  1
  Cu  Cu16  1  0.02926850  0.61858150  0.31348050  1
  Cu  Cu17  1  0.81348050  0.47073150  0.38141850  1
  Cu  Cu18  1  0.02926850  0.38141850  0.18651950  1
  Cu  Cu19  1  0.31348050  0.02926850  0.61858150  1
  Cu  Cu20  1  0.47073150  0.38141850  0.81348050  1
  Cu  Cu21  1  0.97073150  0.11858150  0.18651950  1
  Cu  Cu22  1  0.18651950  0.97073150  0.11858150  1
  Cu  Cu23  1  0.38141850  0.18651950  0.02926850  1
  Cu  Cu24  1  0.06348050  0.63141850  0.72073150  1
  Cu  Cu25  1  0.36858150  0.77926850  0.06348050  1
  Cu  Cu26  1  0.27926850  0.43651950  0.63141850  1
  Cu  Cu27  1  0.93651950  0.86858150  0.72073150  1
  Cu  Cu28  1  0.86858150  0.72073150  0.93651950  1
  Cu  Cu29  1  0.72073150  0.93651950  0.86858150  1
  Cu  Cu30  1  0.88141850  0.31348050  0.97073150  1
  Cu  Cu31  1  0.11858150  0.81348050  0.52926850  1
  Cu  Cu32  1  0.61858150  0.68651950  0.47073150  1
  Cu  Cu33  1  0.77926850  0.06348050  0.36858150  1
  Cu  Cu34  1  0.72073150  0.06348050  0.63141850  1
  Cu  Cu35  1  0.63141850  0.72073150  0.06348050  1
  Cu  Cu36  1  0.63141850  0.27926850  0.43651950  1
  Cu  Cu37  1  0.43651950  0.63141850  0.27926850  1
  Cu  Cu38  1  0.06348050  0.36858150  0.77926850  1
  Cu  Cu39  1  0.68651950  0.52926850  0.88141850  1
  Cu  Cu40  1  0.52926850  0.11858150  0.81348050  1
  Cu  Cu41  1  0.31348050  0.97073150  0.88141850  1
  Cu  Cu42  1  0.52926850  0.88141850  0.68651950  1
  Cu  Cu43  1  0.81348050  0.52926850  0.11858150  1
  Cu  Cu44  1  0.97073150  0.88141850  0.31348050  1
  Cu  Cu45  1  0.47073150  0.61858150  0.68651950  1
  Cu  Cu46  1  0.68651950  0.47073150  0.61858150  1
  Cu  Cu47  1  0.88141850  0.68651950  0.52926850  1
  As  As48  1  0.21862800  0.21862800  0.21862800  1
  As  As49  1  0.03137200  0.53137200  0.96862800  1
  As  As50  1  0.53137200  0.96862800  0.03137200  1
  As  As51  1  0.96862800  0.03137200  0.53137200  1
  As  As52  1  0.28137200  0.21862800  0.78137200  1
  As  As53  1  0.21862800  0.78137200  0.28137200  1
  As  As54  1  0.78137200  0.28137200  0.21862800  1
  As  As55  1  0.46862800  0.46862800  0.46862800  1
  As  As56  1  0.71862800  0.71862800  0.71862800  1
  As  As57  1  0.53137200  0.03137200  0.46862800  1
  As  As58  1  0.03137200  0.46862800  0.53137200  1
  As  As59  1  0.46862800  0.53137200  0.03137200  1
  As  As60  1  0.78137200  0.71862800  0.28137200  1
  As  As61  1  0.71862800  0.28137200  0.78137200  1
  As  As62  1  0.28137200  0.78137200  0.71862800  1
  As  As63  1  0.96862800  0.96862800  0.96862800  1
