# generated using pymatgen
data_La3Al11
_symmetry_space_group_name_H-M   'P 1'
_cell_length_a   4.44621600
_cell_length_b   10.12242200
_cell_length_c   13.15390400
_cell_angle_alpha   90.00000000
_cell_angle_beta   90.00000000
_cell_angle_gamma   90.00000000
_symmetry_Int_Tables_number   1
_chemical_formula_structural   La3Al11
_chemical_formula_sum   'La6 Al22'
_cell_volume   592.01084699
_cell_formula_units_Z   2
loop_
 _symmetry_equiv_pos_site_id
 _symmetry_equiv_pos_as_xyz
  1  'x, y, z'
loop_
 _atom_site_type_symbol
 _atom_site_label
 _atom_site_symmetry_multiplicity
 _atom_site_fract_x
 _atom_site_fract_y
 _atom_site_fract_z
 _atom_site_occupancy
  La  La0  1  0.00000000  0.00000000  0.00000000  1
  La  La1  1  0.50000000  0.50000000  0.18377500  1
  La  La2  1  0.50000000  0.50000000  0.81622500  1
  La  La3  1  0.50000000  0.50000000  0.50000000  1
  La  La4  1  0.00000000  0.00000000  0.68377500  1
  La  La5  1  0.00000000  0.00000000  0.31622500  1
  Al  Al6  1  0.00000000  0.50000000  0.00000000  1
  Al  Al7  1  0.50000000  0.71448700  0.00000000  1
  Al  Al8  1  0.50000000  0.28551300  0.00000000  1
  Al  Al9  1  0.00000000  0.36796600  0.66507600  1
  Al  Al10  1  0.00000000  0.63203400  0.33492400  1
  Al  Al11  1  0.00000000  0.36796600  0.33492400  1
  Al  Al12  1  0.00000000  0.63203400  0.66507600  1
  Al  Al13  1  0.00000000  0.27378800  0.86201100  1
  Al  Al14  1  0.00000000  0.72621200  0.13798900  1
  Al  Al15  1  0.00000000  0.27378800  0.13798900  1
  Al  Al16  1  0.00000000  0.72621200  0.86201100  1
  Al  Al17  1  0.50000000  0.00000000  0.50000000  1
  Al  Al18  1  0.00000000  0.21448700  0.50000000  1
  Al  Al19  1  0.00000000  0.78551300  0.50000000  1
  Al  Al20  1  0.50000000  0.86796600  0.16507600  1
  Al  Al21  1  0.50000000  0.13203400  0.83492400  1
  Al  Al22  1  0.50000000  0.86796600  0.83492400  1
  Al  Al23  1  0.50000000  0.13203400  0.16507600  1
  Al  Al24  1  0.50000000  0.77378800  0.36201100  1
  Al  Al25  1  0.50000000  0.22621200  0.63798900  1
  Al  Al26  1  0.50000000  0.77378800  0.63798900  1
  Al  Al27  1  0.50000000  0.22621200  0.36201100  1
