# generated using pymatgen
data_SmSi3Ni
_symmetry_space_group_name_H-M   'P 1'
_cell_length_a   3.97628600
_cell_length_b   21.20394600
_cell_length_c   4.01434600
_cell_angle_alpha   90.00000000
_cell_angle_beta   90.00000000
_cell_angle_gamma   90.00000000
_symmetry_Int_Tables_number   1
_chemical_formula_structural   SmSi3Ni
_chemical_formula_sum   'Sm4 Si12 Ni4'
_cell_volume   338.46136813
_cell_formula_units_Z   4
loop_
 _symmetry_equiv_pos_site_id
 _symmetry_equiv_pos_as_xyz
  1  'x, y, z'
loop_
 _atom_site_type_symbol
 _atom_site_label
 _atom_site_symmetry_multiplicity
 _atom_site_fract_x
 _atom_site_fract_y
 _atom_site_fract_z
 _atom_site_occupancy
  Sm  Sm0  1  0.50000000  0.83148000  0.50000000  1
  Sm  Sm1  1  0.00000000  0.66852000  0.50000000  1
  Sm  Sm2  1  0.00000000  0.33148000  0.50000000  1
  Sm  Sm3  1  0.50000000  0.16852000  0.50000000  1
  Si  Si4  1  0.50000000  0.94440800  0.00000000  1
  Si  Si5  1  0.00000000  0.55559200  0.00000000  1
  Si  Si6  1  0.50000000  0.71761100  0.00000000  1
  Si  Si7  1  0.00000000  0.78238900  0.00000000  1
  Si  Si8  1  0.00000000  0.94437600  0.50000000  1
  Si  Si9  1  0.50000000  0.55562400  0.50000000  1
  Si  Si10  1  0.00000000  0.44440800  0.00000000  1
  Si  Si11  1  0.50000000  0.05559200  0.00000000  1
  Si  Si12  1  0.00000000  0.21761100  0.00000000  1
  Si  Si13  1  0.50000000  0.28238900  0.00000000  1
  Si  Si14  1  0.50000000  0.44437600  0.50000000  1
  Si  Si15  1  0.00000000  0.05562400  0.50000000  1
  Ni  Ni16  1  0.50000000  0.60891600  0.00000000  1
  Ni  Ni17  1  0.00000000  0.89108400  0.00000000  1
  Ni  Ni18  1  0.00000000  0.10891600  0.00000000  1
  Ni  Ni19  1  0.50000000  0.39108400  0.00000000  1
