# generated using pymatgen
data_KSb5S8
_symmetry_space_group_name_H-M   'P 1'
_cell_length_a   8.64863400
_cell_length_b   19.71886500
_cell_length_c   12.57252462
_cell_angle_alpha   90.00000000
_cell_angle_beta   133.28959911
_cell_angle_gamma   90.00000000
_symmetry_Int_Tables_number   1
_chemical_formula_structural   KSb5S8
_chemical_formula_sum   'K4 Sb20 S32'
_cell_volume   1560.70923858
_cell_formula_units_Z   4
loop_
 _symmetry_equiv_pos_site_id
 _symmetry_equiv_pos_as_xyz
  1  'x, y, z'
loop_
 _atom_site_type_symbol
 _atom_site_label
 _atom_site_symmetry_multiplicity
 _atom_site_fract_x
 _atom_site_fract_y
 _atom_site_fract_z
 _atom_site_occupancy
  K  K0  1  0.07820900  0.05064500  0.76557100  1
  K  K1  1  0.07820900  0.94935500  0.26557100  1
  K  K2  1  0.01721000  0.44650500  0.50131900  1
  K  K3  1  0.01721000  0.55349500  0.00131900  1
  Sb  Sb4  1  0.39917900  0.15295500  0.46414600  1
  Sb  Sb5  1  0.39917900  0.84704500  0.96414600  1
  Sb  Sb6  1  0.56681800  0.04472800  0.29692500  1
  Sb  Sb7  1  0.56681800  0.95527200  0.79692500  1
  Sb  Sb8  1  0.99894000  0.12983500  0.02766000  1
  Sb  Sb9  1  0.99894000  0.87016500  0.52766000  1
  Sb  Sb10  1  0.64322600  0.36937000  0.70564900  1
  Sb  Sb11  1  0.64322600  0.63063000  0.20564900  1
  Sb  Sb12  1  0.80035000  0.26218000  0.50650400  1
  Sb  Sb13  1  0.80035000  0.73782000  0.00650400  1
  Sb  Sb14  1  0.37519100  0.21589800  0.75419800  1
  Sb  Sb15  1  0.37519100  0.78410200  0.25419800  1
  Sb  Sb16  1  0.21085600  0.28676800  0.94955000  1
  Sb  Sb17  1  0.21085600  0.71323200  0.44955000  1
  Sb  Sb18  1  0.58063900  0.46063600  0.04755400  1
  Sb  Sb19  1  0.58063900  0.53936400  0.54755400  1
  Sb  Sb20  1  0.14548500  0.35042700  0.22787200  1
  Sb  Sb21  1  0.14548500  0.64957300  0.72787200  1
  Sb  Sb22  1  0.79414500  0.23008100  0.20036100  1
  Sb  Sb23  1  0.79414500  0.76991900  0.70036100  1
  S  S24  1  0.55606900  0.03736100  0.48716600  1
  S  S25  1  0.55606900  0.96263900  0.98716600  1
  S  S26  1  0.63785400  0.08241900  0.80609600  1
  S  S27  1  0.63785400  0.91758100  0.30609600  1
  S  S28  1  0.18565800  0.01922400  0.07469800  1
  S  S29  1  0.18565800  0.98077600  0.57469800  1
  S  S30  1  0.54854200  0.49177500  0.71438900  1
  S  S31  1  0.54854200  0.50822500  0.21438900  1
  S  S32  1  0.60535200  0.40475200  0.50083000  1
  S  S33  1  0.60535200  0.59524800  0.00083000  1
  S  S34  1  0.43293200  0.19746200  0.29583300  1
  S  S35  1  0.43293200  0.80253800  0.79583300  1
  S  S36  1  0.77622800  0.22675800  0.68084400  1
  S  S37  1  0.77622800  0.77324200  0.18084400  1
  S  S38  1  0.01846600  0.16247700  0.54303100  1
  S  S39  1  0.01846600  0.83752300  0.04303100  1
  S  S40  1  0.02549700  0.39695400  0.91546500  1
  S  S41  1  0.02549700  0.60304600  0.41546500  1
  S  S42  1  0.20481100  0.32337200  0.75327600  1
  S  S43  1  0.20481100  0.67662800  0.25327600  1
  S  S44  1  0.97714500  0.46000200  0.21138200  1
  S  S45  1  0.97714500  0.53999800  0.71138200  1
  S  S46  1  0.56825000  0.34057300  0.15942800  1
  S  S47  1  0.56825000  0.65942700  0.65942800  1
  S  S48  1  0.81692400  0.72163900  0.52875500  1
  S  S49  1  0.81692400  0.27836100  0.02875500  1
  S  S50  1  0.16133000  0.70667300  0.91103000  1
  S  S51  1  0.16133000  0.29332700  0.41103000  1
  S  S52  1  0.99950500  0.88828500  0.72244000  1
  S  S53  1  0.99950500  0.11171500  0.22244000  1
  S  S54  1  0.42288900  0.83160500  0.45413000  1
  S  S55  1  0.42288900  0.16839500  0.95413000  1
