# generated using pymatgen
data_Zr5Al3
_symmetry_space_group_name_H-M   'P 1'
_cell_length_a   11.10027400
_cell_length_b   11.10027400
_cell_length_c   5.39672800
_cell_angle_alpha   90.00000000
_cell_angle_beta   90.00000000
_cell_angle_gamma   90.00000000
_symmetry_Int_Tables_number   1
_chemical_formula_structural   Zr5Al3
_chemical_formula_sum   'Zr20 Al12'
_cell_volume   664.96368450
_cell_formula_units_Z   4
loop_
 _symmetry_equiv_pos_site_id
 _symmetry_equiv_pos_as_xyz
  1  'x, y, z'
loop_
 _atom_site_type_symbol
 _atom_site_label
 _atom_site_symmetry_multiplicity
 _atom_site_fract_x
 _atom_site_fract_y
 _atom_site_fract_z
 _atom_site_occupancy
  Zr  Zr0  1  0.50000000  0.00000000  0.25000000  1
  Zr  Zr1  1  0.50000000  0.00000000  0.75000000  1
  Zr  Zr2  1  0.78065000  0.92123800  0.50000000  1
  Zr  Zr3  1  0.42123800  0.71935000  0.00000000  1
  Zr  Zr4  1  0.57876200  0.28065000  0.00000000  1
  Zr  Zr5  1  0.21935000  0.07876200  0.50000000  1
  Zr  Zr6  1  0.57876200  0.71935000  0.50000000  1
  Zr  Zr7  1  0.42123800  0.28065000  0.50000000  1
  Zr  Zr8  1  0.78065000  0.07876200  0.00000000  1
  Zr  Zr9  1  0.21935000  0.92123800  0.00000000  1
  Zr  Zr10  1  0.00000000  0.50000000  0.75000000  1
  Zr  Zr11  1  0.00000000  0.50000000  0.25000000  1
  Zr  Zr12  1  0.28065000  0.42123800  0.00000000  1
  Zr  Zr13  1  0.92123800  0.21935000  0.50000000  1
  Zr  Zr14  1  0.07876200  0.78065000  0.50000000  1
  Zr  Zr15  1  0.71935000  0.57876200  0.00000000  1
  Zr  Zr16  1  0.07876200  0.21935000  0.00000000  1
  Zr  Zr17  1  0.92123800  0.78065000  0.00000000  1
  Zr  Zr18  1  0.28065000  0.57876200  0.50000000  1
  Zr  Zr19  1  0.71935000  0.42123800  0.50000000  1
  Al  Al20  1  0.00000000  0.00000000  0.25000000  1
  Al  Al21  1  0.00000000  0.00000000  0.75000000  1
  Al  Al22  1  0.33666900  0.83666900  0.50000000  1
  Al  Al23  1  0.33666900  0.16333100  0.00000000  1
  Al  Al24  1  0.66333100  0.83666900  0.00000000  1
  Al  Al25  1  0.66333100  0.16333100  0.50000000  1
  Al  Al26  1  0.50000000  0.50000000  0.75000000  1
  Al  Al27  1  0.50000000  0.50000000  0.25000000  1
  Al  Al28  1  0.83666900  0.33666900  0.00000000  1
  Al  Al29  1  0.83666900  0.66333100  0.50000000  1
  Al  Al30  1  0.16333100  0.33666900  0.50000000  1
  Al  Al31  1  0.16333100  0.66333100  0.00000000  1
