# generated using pymatgen
data_LiNi2P3O10
_symmetry_space_group_name_H-M   'P 1'
_cell_length_a   4.63218000
_cell_length_b   8.47071600
_cell_length_c   9.00151261
_cell_angle_alpha   90.00000000
_cell_angle_beta   98.01163155
_cell_angle_gamma   90.00000000
_symmetry_Int_Tables_number   1
_chemical_formula_structural   LiNi2P3O10
_chemical_formula_sum   'Li2 Ni4 P6 O20'
_cell_volume   349.75297555
_cell_formula_units_Z   2
loop_
 _symmetry_equiv_pos_site_id
 _symmetry_equiv_pos_as_xyz
  1  'x, y, z'
loop_
 _atom_site_type_symbol
 _atom_site_label
 _atom_site_symmetry_multiplicity
 _atom_site_fract_x
 _atom_site_fract_y
 _atom_site_fract_z
 _atom_site_occupancy
  Li  Li0  1  0.00000000  0.50000000  0.00000000  1
  Li  Li1  1  0.00000000  0.00000000  0.00000000  1
  Ni  Ni2  1  0.96374800  0.43067300  0.66380400  1
  Ni  Ni3  1  0.03625200  0.93067300  0.33619600  1
  Ni  Ni4  1  0.03625200  0.56932700  0.33619600  1
  Ni  Ni5  1  0.96374800  0.06932700  0.66380400  1
  P  P6  1  0.60203600  0.75000000  0.53482600  1
  P  P7  1  0.39796400  0.25000000  0.46517400  1
  P  P8  1  0.32930300  0.75000000  0.82118400  1
  P  P9  1  0.67069700  0.25000000  0.17881600  1
  P  P10  1  0.46215200  0.75000000  0.14603200  1
  P  P11  1  0.53784800  0.25000000  0.85396800  1
  O  O12  1  0.29514700  0.75000000  0.44477800  1
  O  O13  1  0.70485300  0.25000000  0.55522200  1
  O  O14  1  0.22792500  0.40236600  0.48578200  1
  O  O15  1  0.77207500  0.90236600  0.51421800  1
  O  O16  1  0.77207500  0.59763400  0.51421800  1
  O  O17  1  0.22792500  0.09763400  0.48578200  1
  O  O18  1  0.84248200  0.40188900  0.18785400  1
  O  O19  1  0.15751800  0.90188900  0.81214600  1
  O  O20  1  0.71157200  0.09875100  0.83972000  1
  O  O21  1  0.28842800  0.59875100  0.16028000  1
  O  O22  1  0.28842800  0.90124900  0.16028000  1
  O  O23  1  0.71157200  0.40124900  0.83972000  1
  O  O24  1  0.23278400  0.25000000  0.76097200  1
  O  O25  1  0.76721600  0.75000000  0.23902800  1
  O  O26  1  0.43507900  0.25000000  0.28984000  1
  O  O27  1  0.56492100  0.75000000  0.71016000  1
  O  O28  1  0.44857500  0.25000000  0.02459000  1
  O  O29  1  0.55142500  0.75000000  0.97541000  1
  O  O30  1  0.84248200  0.09811100  0.18785400  1
  O  O31  1  0.15751800  0.59811100  0.81214600  1
