# generated using pymatgen
data_SmCo9Si2
_symmetry_space_group_name_H-M   'P 1'
_cell_length_a   9.69754400
_cell_length_b   9.69754400
_cell_length_c   6.29966600
_cell_angle_alpha   90.00000000
_cell_angle_beta   90.00000000
_cell_angle_gamma   90.00000000
_symmetry_Int_Tables_number   1
_chemical_formula_structural   SmCo9Si2
_chemical_formula_sum   'Sm4 Co36 Si8'
_cell_volume   592.43545553
_cell_formula_units_Z   4
loop_
 _symmetry_equiv_pos_site_id
 _symmetry_equiv_pos_as_xyz
  1  'x, y, z'
loop_
 _atom_site_type_symbol
 _atom_site_label
 _atom_site_symmetry_multiplicity
 _atom_site_fract_x
 _atom_site_fract_y
 _atom_site_fract_z
 _atom_site_occupancy
  Sm  Sm0  1  0.00000000  0.00000000  0.50000000  1
  Sm  Sm1  1  0.50000000  0.00000000  0.75000000  1
  Sm  Sm2  1  0.50000000  0.50000000  0.00000000  1
  Sm  Sm3  1  0.00000000  0.50000000  0.25000000  1
  Co  Co4  1  0.00000000  0.00000000  0.00000000  1
  Co  Co5  1  0.20595000  0.87606900  0.81000400  1
  Co  Co6  1  0.79405000  0.12393100  0.81000400  1
  Co  Co7  1  0.12393100  0.70595000  0.56000400  1
  Co  Co8  1  0.70595000  0.12393100  0.43999600  1
  Co  Co9  1  0.29405000  0.87606900  0.43999600  1
  Co  Co10  1  0.87606900  0.29405000  0.56000400  1
  Co  Co11  1  0.87606900  0.20595000  0.18999600  1
  Co  Co12  1  0.12393100  0.20595000  0.18999600  1
  Co  Co13  1  0.29405000  0.12393100  0.43999600  1
  Co  Co14  1  0.70595000  0.87606900  0.43999600  1
  Co  Co15  1  0.87606900  0.79405000  0.18999600  1
  Co  Co16  1  0.79405000  0.87606900  0.81000400  1
  Co  Co17  1  0.20595000  0.12393100  0.81000400  1
  Co  Co18  1  0.87606900  0.70595000  0.56000400  1
  Co  Co19  1  0.12393100  0.29405000  0.56000400  1
  Co  Co20  1  0.12393100  0.79405000  0.18999600  1
  Co  Co21  1  0.50000000  0.00000000  0.25000000  1
  Co  Co22  1  0.50000000  0.50000000  0.50000000  1
  Co  Co23  1  0.70595000  0.37606900  0.31000400  1
  Co  Co24  1  0.29405000  0.62393100  0.31000400  1
  Co  Co25  1  0.62393100  0.20595000  0.06000400  1
  Co  Co26  1  0.20595000  0.62393100  0.93999600  1
  Co  Co27  1  0.79405000  0.37606900  0.93999600  1
  Co  Co28  1  0.37606900  0.79405000  0.06000400  1
  Co  Co29  1  0.37606900  0.70595000  0.68999600  1
  Co  Co30  1  0.62393100  0.70595000  0.68999600  1
  Co  Co31  1  0.79405000  0.62393100  0.93999600  1
  Co  Co32  1  0.20595000  0.37606900  0.93999600  1
  Co  Co33  1  0.37606900  0.29405000  0.68999600  1
  Co  Co34  1  0.29405000  0.37606900  0.31000400  1
  Co  Co35  1  0.70595000  0.62393100  0.31000400  1
  Co  Co36  1  0.37606900  0.20595000  0.06000400  1
  Co  Co37  1  0.62393100  0.79405000  0.06000400  1
  Co  Co38  1  0.62393100  0.29405000  0.68999600  1
  Co  Co39  1  0.00000000  0.50000000  0.75000000  1
  Si  Si40  1  0.00000000  0.25000000  0.87500000  1
  Si  Si41  1  0.25000000  0.00000000  0.12500000  1
  Si  Si42  1  0.75000000  0.00000000  0.12500000  1
  Si  Si43  1  0.00000000  0.75000000  0.87500000  1
  Si  Si44  1  0.50000000  0.75000000  0.37500000  1
  Si  Si45  1  0.75000000  0.50000000  0.62500000  1
  Si  Si46  1  0.25000000  0.50000000  0.62500000  1
  Si  Si47  1  0.50000000  0.25000000  0.37500000  1
