# generated using pymatgen
data_Yb2Ge2Ir
_symmetry_space_group_name_H-M   'P 1'
_cell_length_a   10.92388400
_cell_length_b   4.32038800
_cell_length_c   10.31633654
_cell_angle_alpha   90.00000000
_cell_angle_beta   119.23223431
_cell_angle_gamma   90.00000000
_symmetry_Int_Tables_number   1
_chemical_formula_structural   Yb2Ge2Ir
_chemical_formula_sum   'Yb8 Ge8 Ir4'
_cell_volume   424.87792455
_cell_formula_units_Z   4
loop_
 _symmetry_equiv_pos_site_id
 _symmetry_equiv_pos_as_xyz
  1  'x, y, z'
loop_
 _atom_site_type_symbol
 _atom_site_label
 _atom_site_symmetry_multiplicity
 _atom_site_fract_x
 _atom_site_fract_y
 _atom_site_fract_z
 _atom_site_occupancy
  Yb  Yb0  1  0.18392700  0.00000000  0.11040500  1
  Yb  Yb1  1  0.49685000  0.50000000  0.32534400  1
  Yb  Yb2  1  0.81607300  0.00000000  0.88959500  1
  Yb  Yb3  1  0.50315000  0.50000000  0.67465600  1
  Yb  Yb4  1  0.68392700  0.50000000  0.11040500  1
  Yb  Yb5  1  0.99685000  0.00000000  0.32534400  1
  Yb  Yb6  1  0.31607300  0.50000000  0.88959500  1
  Yb  Yb7  1  0.00315000  0.00000000  0.67465600  1
  Ge  Ge8  1  0.50964200  0.00000000  0.87884900  1
  Ge  Ge9  1  0.64791100  0.00000000  0.56276300  1
  Ge  Ge10  1  0.49035800  0.00000000  0.12115100  1
  Ge  Ge11  1  0.35208900  0.00000000  0.43723700  1
  Ge  Ge12  1  0.00964200  0.50000000  0.87884900  1
  Ge  Ge13  1  0.14791100  0.50000000  0.56276300  1
  Ge  Ge14  1  0.99035800  0.50000000  0.12115100  1
  Ge  Ge15  1  0.85208900  0.50000000  0.43723700  1
  Ir  Ir16  1  0.77567700  0.50000000  0.63097000  1
  Ir  Ir17  1  0.22432300  0.50000000  0.36903000  1
  Ir  Ir18  1  0.27567700  0.00000000  0.63097000  1
  Ir  Ir19  1  0.72432300  0.00000000  0.36903000  1
