# generated using pymatgen
data_Ba2LaIrO6
_symmetry_space_group_name_H-M   'P 1'
_cell_length_a   10.56930200
_cell_length_b   6.09227800
_cell_length_c   6.14650335
_cell_angle_alpha   90.00000000
_cell_angle_beta   125.26425998
_cell_angle_gamma   90.00000000
_symmetry_Int_Tables_number   1
_chemical_formula_structural   Ba2LaIrO6
_chemical_formula_sum   'Ba4 La2 Ir2 O12'
_cell_volume   323.15375593
_cell_formula_units_Z   2
loop_
 _symmetry_equiv_pos_site_id
 _symmetry_equiv_pos_as_xyz
  1  'x, y, z'
loop_
 _atom_site_type_symbol
 _atom_site_label
 _atom_site_symmetry_multiplicity
 _atom_site_fract_x
 _atom_site_fract_y
 _atom_site_fract_z
 _atom_site_occupancy
  Ba  Ba0  1  0.74815400  0.00000000  0.74584500  1
  Ba  Ba1  1  0.25184600  0.00000000  0.25415500  1
  Ba  Ba2  1  0.24815400  0.50000000  0.74584500  1
  Ba  Ba3  1  0.75184600  0.50000000  0.25415500  1
  La  La4  1  0.00000000  0.50000000  0.00000000  1
  La  La5  1  0.50000000  0.00000000  0.00000000  1
  Ir  Ir6  1  0.50000000  0.50000000  0.50000000  1
  Ir  Ir7  1  0.00000000  0.00000000  0.50000000  1
  O  O8  1  0.72848900  0.50000000  0.77108900  1
  O  O9  1  0.27151100  0.50000000  0.22891100  1
  O  O10  1  0.47762150  0.73055950  0.70545900  1
  O  O11  1  0.52237850  0.73055950  0.29454100  1
  O  O12  1  0.52237850  0.26944050  0.29454100  1
  O  O13  1  0.47762150  0.26944050  0.70545900  1
  O  O14  1  0.22848900  0.00000000  0.77108900  1
  O  O15  1  0.77151100  0.00000000  0.22891100  1
  O  O16  1  0.97762150  0.23055950  0.70545900  1
  O  O17  1  0.02237850  0.23055950  0.29454100  1
  O  O18  1  0.02237850  0.76944050  0.29454100  1
  O  O19  1  0.97762150  0.76944050  0.70545900  1
