# generated using pymatgen
data_Eu3Re
_symmetry_space_group_name_H-M   'P 1'
_cell_length_a   7.49639400
_cell_length_b   7.49639400
_cell_length_c   7.49639400
_cell_angle_alpha   90.00000000
_cell_angle_beta   90.00000000
_cell_angle_gamma   90.00000000
_symmetry_Int_Tables_number   1
_chemical_formula_structural   Eu3Re
_chemical_formula_sum   'Eu12 Re4'
_cell_volume   421.26678003
_cell_formula_units_Z   4
loop_
 _symmetry_equiv_pos_site_id
 _symmetry_equiv_pos_as_xyz
  1  'x, y, z'
loop_
 _atom_site_type_symbol
 _atom_site_label
 _atom_site_symmetry_multiplicity
 _atom_site_fract_x
 _atom_site_fract_y
 _atom_site_fract_z
 _atom_site_occupancy
  Eu  Eu0  1  0.25000000  0.75000000  0.75000000  1
  Eu  Eu1  1  0.25000000  0.25000000  0.75000000  1
  Eu  Eu2  1  0.50000000  0.00000000  0.00000000  1
  Eu  Eu3  1  0.25000000  0.25000000  0.25000000  1
  Eu  Eu4  1  0.25000000  0.75000000  0.25000000  1
  Eu  Eu5  1  0.50000000  0.50000000  0.50000000  1
  Eu  Eu6  1  0.75000000  0.75000000  0.25000000  1
  Eu  Eu7  1  0.75000000  0.25000000  0.25000000  1
  Eu  Eu8  1  0.00000000  0.00000000  0.50000000  1
  Eu  Eu9  1  0.75000000  0.25000000  0.75000000  1
  Eu  Eu10  1  0.75000000  0.75000000  0.75000000  1
  Eu  Eu11  1  0.00000000  0.50000000  0.00000000  1
  Re  Re12  1  0.00000000  0.00000000  0.00000000  1
  Re  Re13  1  0.00000000  0.50000000  0.50000000  1
  Re  Re14  1  0.50000000  0.00000000  0.50000000  1
  Re  Re15  1  0.50000000  0.50000000  0.00000000  1
