# generated using pymatgen
data_Ba(Cu2P)4
_symmetry_space_group_name_H-M   'P 1'
_cell_length_a   10.20176600
_cell_length_b   10.20176600
_cell_length_c   3.86506600
_cell_angle_alpha   90.00000000
_cell_angle_beta   90.00000000
_cell_angle_gamma   90.00000000
_symmetry_Int_Tables_number   1
_chemical_formula_structural   Ba(Cu2P)4
_chemical_formula_sum   'Ba2 Cu16 P8'
_cell_volume   402.26072311
_cell_formula_units_Z   2
loop_
 _symmetry_equiv_pos_site_id
 _symmetry_equiv_pos_as_xyz
  1  'x, y, z'
loop_
 _atom_site_type_symbol
 _atom_site_label
 _atom_site_symmetry_multiplicity
 _atom_site_fract_x
 _atom_site_fract_y
 _atom_site_fract_z
 _atom_site_occupancy
  Ba  Ba0  1  0.00000000  0.00000000  0.00000000  1
  Ba  Ba1  1  0.50000000  0.50000000  0.50000000  1
  Cu  Cu2  1  0.72903500  0.83860500  0.50000000  1
  Cu  Cu3  1  0.66139500  0.22903500  0.00000000  1
  Cu  Cu4  1  0.48635800  0.86563000  0.50000000  1
  Cu  Cu5  1  0.51364200  0.13437000  0.50000000  1
  Cu  Cu6  1  0.36563000  0.01364200  0.00000000  1
  Cu  Cu7  1  0.33860500  0.77096500  0.00000000  1
  Cu  Cu8  1  0.63437000  0.98635800  0.00000000  1
  Cu  Cu9  1  0.27096500  0.16139500  0.50000000  1
  Cu  Cu10  1  0.22903500  0.33860500  0.00000000  1
  Cu  Cu11  1  0.16139500  0.72903500  0.50000000  1
  Cu  Cu12  1  0.98635800  0.36563000  0.00000000  1
  Cu  Cu13  1  0.01364200  0.63437000  0.00000000  1
  Cu  Cu14  1  0.86563000  0.51364200  0.50000000  1
  Cu  Cu15  1  0.83860500  0.27096500  0.50000000  1
  Cu  Cu16  1  0.13437000  0.48635800  0.50000000  1
  Cu  Cu17  1  0.77096500  0.66139500  0.00000000  1
  P  P18  1  0.42484900  0.23364400  0.00000000  1
  P  P19  1  0.57515100  0.76635600  0.00000000  1
  P  P20  1  0.73364400  0.07515100  0.50000000  1
  P  P21  1  0.26635600  0.92484900  0.50000000  1
  P  P22  1  0.92484900  0.73364400  0.50000000  1
  P  P23  1  0.07515100  0.26635600  0.50000000  1
  P  P24  1  0.23364400  0.57515100  0.00000000  1
  P  P25  1  0.76635600  0.42484900  0.00000000  1
