# generated using pymatgen
data_Ba3Cr2O8
_symmetry_space_group_name_H-M   'P 1'
_cell_length_a   5.83700135
_cell_length_b   5.83700135
_cell_length_c   21.64420038
_cell_angle_alpha   90.00000000
_cell_angle_beta   90.00000000
_cell_angle_gamma   120.00000000
_symmetry_Int_Tables_number   1
_chemical_formula_structural   Ba3Cr2O8
_chemical_formula_sum   'Ba9 Cr6 O24'
_cell_volume   638.63360133
_cell_formula_units_Z   3
loop_
 _symmetry_equiv_pos_site_id
 _symmetry_equiv_pos_as_xyz
  1  'x, y, z'
loop_
 _atom_site_type_symbol
 _atom_site_label
 _atom_site_symmetry_multiplicity
 _atom_site_fract_x
 _atom_site_fract_y
 _atom_site_fract_z
 _atom_site_occupancy
  Ba  Ba0  1  0.00000000  0.00000000  0.79344133  1
  Ba  Ba1  1  0.33333333  0.66666667  0.87322533  1
  Ba  Ba2  1  0.00000000  0.00000000  0.00000000  1
  Ba  Ba3  1  0.66666667  0.33333333  0.12677467  1
  Ba  Ba4  1  0.00000000  0.00000000  0.20655867  1
  Ba  Ba5  1  0.66666667  0.33333333  0.33333333  1
  Ba  Ba6  1  0.33333333  0.66666667  0.46010800  1
  Ba  Ba7  1  0.66666667  0.33333333  0.53989200  1
  Ba  Ba8  1  0.33333333  0.66666667  0.66666667  1
  Cr  Cr9  1  0.66666667  0.33333333  0.92588333  1
  Cr  Cr10  1  0.66666667  0.33333333  0.74078333  1
  Cr  Cr11  1  0.33333333  0.66666667  0.25921667  1
  Cr  Cr12  1  0.33333333  0.66666667  0.07411667  1
  Cr  Cr13  1  0.00000000  0.00000000  0.59255000  1
  Cr  Cr14  1  0.00000000  0.00000000  0.40745000  1
  O  O15  1  0.00000000  0.00000000  0.67150700  1
  O  O16  1  0.33333333  0.66666667  0.99515967  1
  O  O17  1  0.50561617  0.01123233  0.76652133  1
  O  O18  1  0.50561617  0.49438383  0.76652133  1
  O  O19  1  0.98876767  0.49438383  0.76652133  1
  O  O20  1  0.82771717  0.17228283  0.90014533  1
  O  O21  1  0.82771717  0.65543433  0.90014533  1
  O  O22  1  0.34456567  0.17228283  0.90014533  1
  O  O23  1  0.66666667  0.33333333  0.00484033  1
  O  O24  1  0.00000000  0.00000000  0.32849300  1
  O  O25  1  0.17228283  0.34456567  0.09985467  1
  O  O26  1  0.17228283  0.82771717  0.09985467  1
  O  O27  1  0.65543433  0.82771717  0.09985467  1
  O  O28  1  0.49438383  0.50561617  0.23347867  1
  O  O29  1  0.49438383  0.98876767  0.23347867  1
  O  O30  1  0.01123233  0.50561617  0.23347867  1
  O  O31  1  0.33333333  0.66666667  0.33817367  1
  O  O32  1  0.66666667  0.33333333  0.66182633  1
  O  O33  1  0.83894950  0.67789900  0.43318800  1
  O  O34  1  0.83894950  0.16105050  0.43318800  1
  O  O35  1  0.32210100  0.16105050  0.43318800  1
  O  O36  1  0.16105050  0.83894950  0.56681200  1
  O  O37  1  0.16105050  0.32210100  0.56681200  1
  O  O38  1  0.67789900  0.83894950  0.56681200  1
