# generated using pymatgen
data_Pr2Ti2O7
_symmetry_space_group_name_H-M   'P 1'
_cell_length_a   7.74419600
_cell_length_b   5.56015000
_cell_length_c   13.29877201
_cell_angle_alpha   90.00000000
_cell_angle_beta   98.46897352
_cell_angle_gamma   90.00000000
_symmetry_Int_Tables_number   1
_chemical_formula_structural   Pr2Ti2O7
_chemical_formula_sum   'Pr8 Ti8 O28'
_cell_volume   566.38628014
_cell_formula_units_Z   4
loop_
 _symmetry_equiv_pos_site_id
 _symmetry_equiv_pos_as_xyz
  1  'x, y, z'
loop_
 _atom_site_type_symbol
 _atom_site_label
 _atom_site_symmetry_multiplicity
 _atom_site_fract_x
 _atom_site_fract_y
 _atom_site_fract_z
 _atom_site_occupancy
  Pr  Pr0  1  0.14592200  0.86406000  0.57120500  1
  Pr  Pr1  1  0.85407800  0.36406000  0.42879500  1
  Pr  Pr2  1  0.64975300  0.79433200  0.61838000  1
  Pr  Pr3  1  0.35024700  0.29433200  0.38162000  1
  Pr  Pr4  1  0.22985100  0.26186400  0.91182000  1
  Pr  Pr5  1  0.77014900  0.76186400  0.08818000  1
  Pr  Pr6  1  0.71861000  0.25047100  0.87854700  1
  Pr  Pr7  1  0.28139000  0.75047100  0.12145300  1
  Ti  Ti8  1  0.41593600  0.30388800  0.67413700  1
  Ti  Ti9  1  0.58406400  0.80388800  0.32586300  1
  Ti  Ti10  1  0.92975600  0.29511000  0.67971900  1
  Ti  Ti11  1  0.07024400  0.79511000  0.32028100  1
  Ti  Ti12  1  0.47187200  0.76484500  0.87678900  1
  Ti  Ti13  1  0.52812800  0.26484500  0.12321100  1
  Ti  Ti14  1  0.96830800  0.76688700  0.87943900  1
  Ti  Ti15  1  0.03169200  0.26688700  0.12056100  1
  O  O16  1  0.17375900  0.20227000  0.69374200  1
  O  O17  1  0.82624100  0.70227000  0.30625800  1
  O  O18  1  0.67219200  0.35649600  0.69364900  1
  O  O19  1  0.32780800  0.85649600  0.30635100  1
  O  O20  1  0.40965100  0.09470400  0.55939100  1
  O  O21  1  0.59034900  0.59470400  0.44060900  1
  O  O22  1  0.87019900  0.07810000  0.57216000  1
  O  O23  1  0.12980100  0.57810000  0.42784000  1
  O  O24  1  0.37365900  0.58493400  0.61186000  1
  O  O25  1  0.62634100  0.08493400  0.38814000  1
  O  O26  1  0.92254500  0.56105200  0.59471300  1
  O  O27  1  0.07745500  0.06105200  0.40528700  1
  O  O28  1  0.43219000  0.44447200  0.81855400  1
  O  O29  1  0.56781000  0.94447200  0.18144600  1
  O  O30  1  0.97767700  0.44798200  0.81685200  1
  O  O31  1  0.02232300  0.94798200  0.18314800  1
  O  O32  1  0.77750200  0.31636500  0.11011500  1
  O  O33  1  0.22249800  0.81636500  0.88988500  1
  O  O34  1  0.27299700  0.17331400  0.09257000  1
  O  O35  1  0.72700300  0.67331400  0.90743000  1
  O  O36  1  0.04383900  0.51967600  0.02031200  1
  O  O37  1  0.95616100  0.01967600  0.97968800  1
  O  O38  1  0.46705100  0.51910900  0.02238100  1
  O  O39  1  0.53294900  0.01910900  0.97761900  1
  O  O40  1  0.11613100  0.45998400  0.22769300  1
  O  O41  1  0.88386900  0.95998400  0.77230700  1
  O  O42  1  0.49706700  0.45548700  0.23067600  1
  O  O43  1  0.50293300  0.95548700  0.76932400  1
