# generated using pymatgen
data_Sr3Cr2O8
_symmetry_space_group_name_H-M   'P 1'
_cell_length_a   5.67168445
_cell_length_b   5.67168445
_cell_length_c   20.33047909
_cell_angle_alpha   90.00000000
_cell_angle_beta   90.00000000
_cell_angle_gamma   120.00000000
_symmetry_Int_Tables_number   1
_chemical_formula_structural   Sr3Cr2O8
_chemical_formula_sum   'Sr9 Cr6 O24'
_cell_volume   566.37277018
_cell_formula_units_Z   3
loop_
 _symmetry_equiv_pos_site_id
 _symmetry_equiv_pos_as_xyz
  1  'x, y, z'
loop_
 _atom_site_type_symbol
 _atom_site_label
 _atom_site_symmetry_multiplicity
 _atom_site_fract_x
 _atom_site_fract_y
 _atom_site_fract_z
 _atom_site_occupancy
  Sr  Sr0  1  0.66666667  0.33333333  0.12993100  1
  Sr  Sr1  1  0.00000000  0.00000000  0.20340233  1
  Sr  Sr2  1  0.00000000  0.00000000  0.00000000  1
  Sr  Sr3  1  0.33333333  0.66666667  0.46326433  1
  Sr  Sr4  1  0.66666667  0.33333333  0.53673567  1
  Sr  Sr5  1  0.66666667  0.33333333  0.33333333  1
  Sr  Sr6  1  0.00000000  0.00000000  0.79659767  1
  Sr  Sr7  1  0.33333333  0.66666667  0.87006900  1
  Sr  Sr8  1  0.33333333  0.66666667  0.66666667  1
  Cr  Cr9  1  0.33333333  0.66666667  0.26026167  1
  Cr  Cr10  1  0.33333333  0.66666667  0.07307167  1
  Cr  Cr11  1  0.00000000  0.00000000  0.59359500  1
  Cr  Cr12  1  0.00000000  0.00000000  0.40640500  1
  Cr  Cr13  1  0.66666667  0.33333333  0.92692833  1
  Cr  Cr14  1  0.66666667  0.33333333  0.73973833  1
  O  O15  1  0.16692933  0.33385867  0.10113167  1
  O  O16  1  0.16692933  0.83307067  0.10113167  1
  O  O17  1  0.66614133  0.83307067  0.10113167  1
  O  O18  1  0.00052533  0.50026267  0.23220167  1
  O  O19  1  0.49973733  0.99947467  0.23220167  1
  O  O20  1  0.00000000  0.00000000  0.32166800  1
  O  O21  1  0.66666667  0.33333333  0.01166533  1
  O  O22  1  0.49973733  0.50026267  0.23220167  1
  O  O23  1  0.83359600  0.66719200  0.43446500  1
  O  O24  1  0.83359600  0.16640400  0.43446500  1
  O  O25  1  0.33280800  0.16640400  0.43446500  1
  O  O26  1  0.66719200  0.83359600  0.56553500  1
  O  O27  1  0.16640400  0.33280800  0.56553500  1
  O  O28  1  0.66666667  0.33333333  0.65500133  1
  O  O29  1  0.33333333  0.66666667  0.34499867  1
  O  O30  1  0.16640400  0.83359600  0.56553500  1
  O  O31  1  0.50026267  0.00052533  0.76779833  1
  O  O32  1  0.50026267  0.49973733  0.76779833  1
  O  O33  1  0.99947467  0.49973733  0.76779833  1
  O  O34  1  0.33385867  0.16692933  0.89886833  1
  O  O35  1  0.83307067  0.66614133  0.89886833  1
  O  O36  1  0.33333333  0.66666667  0.98833467  1
  O  O37  1  0.00000000  0.00000000  0.67833200  1
  O  O38  1  0.83307067  0.16692933  0.89886833  1
