# generated using pymatgen
data_Zn11Ni2
_symmetry_space_group_name_H-M   'P 1'
_cell_length_a   8.96429800
_cell_length_b   8.96429800
_cell_length_c   8.96429800
_cell_angle_alpha   90.00000000
_cell_angle_beta   90.00000000
_cell_angle_gamma   90.00000000
_symmetry_Int_Tables_number   1
_chemical_formula_structural   Zn11Ni2
_chemical_formula_sum   'Zn44 Ni8'
_cell_volume   720.35878358
_cell_formula_units_Z   4
loop_
 _symmetry_equiv_pos_site_id
 _symmetry_equiv_pos_as_xyz
  1  'x, y, z'
loop_
 _atom_site_type_symbol
 _atom_site_label
 _atom_site_symmetry_multiplicity
 _atom_site_fract_x
 _atom_site_fract_y
 _atom_site_fract_z
 _atom_site_occupancy
  Zn  Zn0  1  0.89491150  0.10508850  0.10508850  1
  Zn  Zn1  1  0.10508850  0.89491150  0.10508850  1
  Zn  Zn2  1  0.10508850  0.10508850  0.89491150  1
  Zn  Zn3  1  0.39491150  0.39491150  0.39491150  1
  Zn  Zn4  1  0.64407900  0.00000000  0.00000000  1
  Zn  Zn5  1  0.00000000  0.35592100  0.00000000  1
  Zn  Zn6  1  0.00000000  0.00000000  0.35592100  1
  Zn  Zn7  1  0.35592100  0.00000000  0.00000000  1
  Zn  Zn8  1  0.00000000  0.64407900  0.00000000  1
  Zn  Zn9  1  0.00000000  0.00000000  0.64407900  1
  Zn  Zn10  1  0.19270200  0.80729800  0.54396400  1
  Zn  Zn11  1  0.95603600  0.30729800  0.30729800  1
  Zn  Zn12  1  0.19270200  0.54396400  0.80729800  1
  Zn  Zn13  1  0.80729800  0.19270200  0.54396400  1
  Zn  Zn14  1  0.54396400  0.19270200  0.80729800  1
  Zn  Zn15  1  0.30729800  0.95603600  0.30729800  1
  Zn  Zn16  1  0.30729800  0.30729800  0.95603600  1
  Zn  Zn17  1  0.54396400  0.80729800  0.19270200  1
  Zn  Zn18  1  0.80729800  0.54396400  0.19270200  1
  Zn  Zn19  1  0.19270200  0.19270200  0.45603600  1
  Zn  Zn20  1  0.45603600  0.19270200  0.19270200  1
  Zn  Zn21  1  0.19270200  0.45603600  0.19270200  1
  Zn  Zn22  1  0.39491150  0.60508850  0.60508850  1
  Zn  Zn23  1  0.60508850  0.39491150  0.60508850  1
  Zn  Zn24  1  0.60508850  0.60508850  0.39491150  1
  Zn  Zn25  1  0.89491150  0.89491150  0.89491150  1
  Zn  Zn26  1  0.14407900  0.50000000  0.50000000  1
  Zn  Zn27  1  0.50000000  0.85592100  0.50000000  1
  Zn  Zn28  1  0.50000000  0.50000000  0.85592100  1
  Zn  Zn29  1  0.85592100  0.50000000  0.50000000  1
  Zn  Zn30  1  0.50000000  0.14407900  0.50000000  1
  Zn  Zn31  1  0.50000000  0.50000000  0.14407900  1
  Zn  Zn32  1  0.69270200  0.30729800  0.04396400  1
  Zn  Zn33  1  0.45603600  0.80729800  0.80729800  1
  Zn  Zn34  1  0.69270200  0.04396400  0.30729800  1
  Zn  Zn35  1  0.30729800  0.69270200  0.04396400  1
  Zn  Zn36  1  0.04396400  0.69270200  0.30729800  1
  Zn  Zn37  1  0.80729800  0.45603600  0.80729800  1
  Zn  Zn38  1  0.80729800  0.80729800  0.45603600  1
  Zn  Zn39  1  0.04396400  0.30729800  0.69270200  1
  Zn  Zn40  1  0.30729800  0.04396400  0.69270200  1
  Zn  Zn41  1  0.69270200  0.69270200  0.95603600  1
  Zn  Zn42  1  0.95603600  0.69270200  0.69270200  1
  Zn  Zn43  1  0.69270200  0.95603600  0.69270200  1
  Ni  Ni44  1  0.67079300  0.32920700  0.32920700  1
  Ni  Ni45  1  0.32920700  0.67079300  0.32920700  1
  Ni  Ni46  1  0.32920700  0.32920700  0.67079300  1
  Ni  Ni47  1  0.17079300  0.17079300  0.17079300  1
  Ni  Ni48  1  0.17079300  0.82920700  0.82920700  1
  Ni  Ni49  1  0.82920700  0.17079300  0.82920700  1
  Ni  Ni50  1  0.82920700  0.82920700  0.17079300  1
  Ni  Ni51  1  0.67079300  0.67079300  0.67079300  1
