# generated using pymatgen
data_Tm5Mg24
_symmetry_space_group_name_H-M   'P 1'
_cell_length_a   11.21009000
_cell_length_b   11.21009000
_cell_length_c   11.21009000
_cell_angle_alpha   90.00000000
_cell_angle_beta   90.00000000
_cell_angle_gamma   90.00000000
_symmetry_Int_Tables_number   1
_chemical_formula_structural   Tm5Mg24
_chemical_formula_sum   'Tm10 Mg48'
_cell_volume   1408.72849058
_cell_formula_units_Z   2
loop_
 _symmetry_equiv_pos_site_id
 _symmetry_equiv_pos_as_xyz
  1  'x, y, z'
loop_
 _atom_site_type_symbol
 _atom_site_label
 _atom_site_symmetry_multiplicity
 _atom_site_fract_x
 _atom_site_fract_y
 _atom_site_fract_z
 _atom_site_occupancy
  Tm  Tm0  1  0.18584150  0.18584150  0.18584150  1
  Tm  Tm1  1  0.31415850  0.68584150  0.31415850  1
  Tm  Tm2  1  0.68584150  0.31415850  0.31415850  1
  Tm  Tm3  1  0.31415850  0.31415850  0.68584150  1
  Tm  Tm4  1  0.00000000  0.00000000  0.00000000  1
  Tm  Tm5  1  0.68584150  0.68584150  0.68584150  1
  Tm  Tm6  1  0.81415850  0.18584150  0.81415850  1
  Tm  Tm7  1  0.18584150  0.81415850  0.81415850  1
  Tm  Tm8  1  0.81415850  0.81415850  0.18584150  1
  Tm  Tm9  1  0.50000000  0.50000000  0.50000000  1
  Mg  Mg10  1  0.40964150  0.40964150  0.21915450  1
  Mg  Mg11  1  0.28084550  0.09035850  0.90964150  1
  Mg  Mg12  1  0.09035850  0.28084550  0.90964150  1
  Mg  Mg13  1  0.09035850  0.71915450  0.09035850  1
  Mg  Mg14  1  0.71915450  0.09035850  0.09035850  1
  Mg  Mg15  1  0.35652550  0.35652550  0.96637750  1
  Mg  Mg16  1  0.14347450  0.85652550  0.53362250  1
  Mg  Mg17  1  0.85652550  0.14347450  0.53362250  1
  Mg  Mg18  1  0.14347450  0.46637750  0.14347450  1
  Mg  Mg19  1  0.14347450  0.53362250  0.85652550  1
  Mg  Mg20  1  0.53362250  0.14347450  0.85652550  1
  Mg  Mg21  1  0.46637750  0.14347450  0.14347450  1
  Mg  Mg22  1  0.96637750  0.35652550  0.35652550  1
  Mg  Mg23  1  0.35652550  0.96637750  0.35652550  1
  Mg  Mg24  1  0.85652550  0.53362250  0.14347450  1
  Mg  Mg25  1  0.53362250  0.85652550  0.14347450  1
  Mg  Mg26  1  0.14347450  0.14347450  0.46637750  1
  Mg  Mg27  1  0.09035850  0.09035850  0.71915450  1
  Mg  Mg28  1  0.90964150  0.09035850  0.28084550  1
  Mg  Mg29  1  0.09035850  0.90964150  0.28084550  1
  Mg  Mg30  1  0.40964150  0.21915450  0.40964150  1
  Mg  Mg31  1  0.90964150  0.28084550  0.09035850  1
  Mg  Mg32  1  0.28084550  0.90964150  0.09035850  1
  Mg  Mg33  1  0.21915450  0.40964150  0.40964150  1
  Mg  Mg34  1  0.90964150  0.90964150  0.71915450  1
  Mg  Mg35  1  0.78084550  0.59035850  0.40964150  1
  Mg  Mg36  1  0.59035850  0.78084550  0.40964150  1
  Mg  Mg37  1  0.59035850  0.21915450  0.59035850  1
  Mg  Mg38  1  0.21915450  0.59035850  0.59035850  1
  Mg  Mg39  1  0.85652550  0.85652550  0.46637750  1
  Mg  Mg40  1  0.64347450  0.35652550  0.03362250  1
  Mg  Mg41  1  0.35652550  0.64347450  0.03362250  1
  Mg  Mg42  1  0.64347450  0.96637750  0.64347450  1
  Mg  Mg43  1  0.64347450  0.03362250  0.35652550  1
  Mg  Mg44  1  0.03362250  0.64347450  0.35652550  1
  Mg  Mg45  1  0.96637750  0.64347450  0.64347450  1
  Mg  Mg46  1  0.46637750  0.85652550  0.85652550  1
  Mg  Mg47  1  0.85652550  0.46637750  0.85652550  1
  Mg  Mg48  1  0.35652550  0.03362250  0.64347450  1
  Mg  Mg49  1  0.03362250  0.35652550  0.64347450  1
  Mg  Mg50  1  0.64347450  0.64347450  0.96637750  1
  Mg  Mg51  1  0.59035850  0.59035850  0.21915450  1
  Mg  Mg52  1  0.40964150  0.59035850  0.78084550  1
  Mg  Mg53  1  0.59035850  0.40964150  0.78084550  1
  Mg  Mg54  1  0.90964150  0.71915450  0.90964150  1
  Mg  Mg55  1  0.40964150  0.78084550  0.59035850  1
  Mg  Mg56  1  0.78084550  0.40964150  0.59035850  1
  Mg  Mg57  1  0.71915450  0.90964150  0.90964150  1
