# generated using pymatgen
data_Y3B7W
_symmetry_space_group_name_H-M   'P 1'
_cell_length_a   3.47319800
_cell_length_b   16.01776400
_cell_length_c   9.49972600
_cell_angle_alpha   90.00000000
_cell_angle_beta   90.00000000
_cell_angle_gamma   90.00000000
_symmetry_Int_Tables_number   1
_chemical_formula_structural   Y3B7W
_chemical_formula_sum   'Y12 B28 W4'
_cell_volume   528.49698254
_cell_formula_units_Z   4
loop_
 _symmetry_equiv_pos_site_id
 _symmetry_equiv_pos_as_xyz
  1  'x, y, z'
loop_
 _atom_site_type_symbol
 _atom_site_label
 _atom_site_symmetry_multiplicity
 _atom_site_fract_x
 _atom_site_fract_y
 _atom_site_fract_z
 _atom_site_occupancy
  Y  Y0  1  0.00000000  0.10662400  0.43967300  1
  Y  Y1  1  0.50000000  0.39337600  0.56032700  1
  Y  Y2  1  0.00000000  0.24385800  0.75000000  1
  Y  Y3  1  0.50000000  0.25614200  0.25000000  1
  Y  Y4  1  0.00000000  0.10662400  0.06032700  1
  Y  Y5  1  0.50000000  0.39337600  0.93967300  1
  Y  Y6  1  0.50000000  0.60662400  0.43967300  1
  Y  Y7  1  0.00000000  0.89337600  0.56032700  1
  Y  Y8  1  0.50000000  0.74385800  0.75000000  1
  Y  Y9  1  0.00000000  0.75614200  0.25000000  1
  Y  Y10  1  0.50000000  0.60662400  0.06032700  1
  Y  Y11  1  0.00000000  0.89337600  0.93967300  1
  B  B12  1  0.00000000  0.45619600  0.75000000  1
  B  B13  1  0.50000000  0.04380400  0.25000000  1
  B  B14  1  0.00000000  0.48026300  0.40795200  1
  B  B15  1  0.50000000  0.01973700  0.59204800  1
  B  B16  1  0.50000000  0.01973700  0.90795200  1
  B  B17  1  0.00000000  0.48026300  0.09204800  1
  B  B18  1  0.00000000  0.36512100  0.35266600  1
  B  B19  1  0.50000000  0.13487900  0.64733400  1
  B  B20  1  0.00000000  0.27253700  0.46709400  1
  B  B21  1  0.50000000  0.22746300  0.53290600  1
  B  B22  1  0.50000000  0.22746300  0.96709400  1
  B  B23  1  0.00000000  0.27253700  0.03290600  1
  B  B24  1  0.00000000  0.36512100  0.14733400  1
  B  B25  1  0.50000000  0.13487900  0.85266600  1
  B  B26  1  0.50000000  0.95619600  0.75000000  1
  B  B27  1  0.00000000  0.54380400  0.25000000  1
  B  B28  1  0.50000000  0.98026300  0.40795200  1
  B  B29  1  0.00000000  0.51973700  0.59204800  1
  B  B30  1  0.00000000  0.51973700  0.90795200  1
  B  B31  1  0.50000000  0.98026300  0.09204800  1
  B  B32  1  0.50000000  0.86512100  0.35266600  1
  B  B33  1  0.00000000  0.63487900  0.64733400  1
  B  B34  1  0.50000000  0.77253700  0.46709400  1
  B  B35  1  0.00000000  0.72746300  0.53290600  1
  B  B36  1  0.00000000  0.72746300  0.96709400  1
  B  B37  1  0.50000000  0.77253700  0.03290600  1
  B  B38  1  0.50000000  0.86512100  0.14733400  1
  B  B39  1  0.00000000  0.63487900  0.85266600  1
  W  W40  1  0.50000000  0.44646900  0.25000000  1
  W  W41  1  0.00000000  0.05353100  0.75000000  1
  W  W42  1  0.00000000  0.94646900  0.25000000  1
  W  W43  1  0.50000000  0.55353100  0.75000000  1
