# generated using pymatgen
data_RbMo6Se7
_symmetry_space_group_name_H-M   'P 1'
_cell_length_a   9.75671193
_cell_length_b   9.75671193
_cell_length_c   24.87640381
_cell_angle_alpha   90.00000000
_cell_angle_beta   90.00000000
_cell_angle_gamma   120.00000000
_symmetry_Int_Tables_number   1
_chemical_formula_structural   RbMo6Se7
_chemical_formula_sum   'Rb6 Mo36 Se42'
_cell_volume   2050.80890510
_cell_formula_units_Z   6
loop_
 _symmetry_equiv_pos_site_id
 _symmetry_equiv_pos_as_xyz
  1  'x, y, z'
loop_
 _atom_site_type_symbol
 _atom_site_label
 _atom_site_symmetry_multiplicity
 _atom_site_fract_x
 _atom_site_fract_y
 _atom_site_fract_z
 _atom_site_occupancy
  Rb  Rb0  1  0.00000000  0.00000000  0.13143600  1
  Rb  Rb1  1  0.66666667  0.33333333  0.20189733  1
  Rb  Rb2  1  0.66666667  0.33333333  0.46476933  1
  Rb  Rb3  1  0.33333333  0.66666667  0.53523067  1
  Rb  Rb4  1  0.33333333  0.66666667  0.79810267  1
  Rb  Rb5  1  0.00000000  0.00000000  0.86856400  1
  Mo  Mo6  1  0.49983200  0.68250600  0.12200800  1
  Mo  Mo7  1  0.18267400  0.50016800  0.12200800  1
  Mo  Mo8  1  0.31749400  0.81732600  0.12200800  1
  Mo  Mo9  1  0.16683467  0.65082733  0.21132533  1
  Mo  Mo10  1  0.48399267  0.83316533  0.21132533  1
  Mo  Mo11  1  0.34917267  0.51600733  0.21132533  1
  Mo  Mo12  1  0.35523700  0.52087100  0.02842400  1
  Mo  Mo13  1  0.16563400  0.64476300  0.02842400  1
  Mo  Mo14  1  0.47912900  0.83436600  0.02842400  1
  Mo  Mo15  1  0.31142967  0.81246233  0.30490933  1
  Mo  Mo16  1  0.50103267  0.68857033  0.30490933  1
  Mo  Mo17  1  0.18753767  0.49896733  0.30490933  1
  Mo  Mo18  1  0.16649867  0.01583933  0.45534133  1
  Mo  Mo19  1  0.84934067  0.83350133  0.45534133  1
  Mo  Mo20  1  0.98416067  0.15065933  0.45534133  1
  Mo  Mo21  1  0.83350133  0.98416067  0.54465867  1
  Mo  Mo22  1  0.15065933  0.16649867  0.54465867  1
  Mo  Mo23  1  0.01583933  0.84934067  0.54465867  1
  Mo  Mo24  1  0.02190367  0.85420433  0.36175733  1
  Mo  Mo25  1  0.83230067  0.97809633  0.36175733  1
  Mo  Mo26  1  0.14579567  0.16769933  0.36175733  1
  Mo  Mo27  1  0.97809633  0.14579567  0.63824267  1
  Mo  Mo28  1  0.16769933  0.02190367  0.63824267  1
  Mo  Mo29  1  0.85420433  0.83230067  0.63824267  1
  Mo  Mo30  1  0.83316533  0.34917267  0.78867467  1
  Mo  Mo31  1  0.51600733  0.16683467  0.78867467  1
  Mo  Mo32  1  0.65082733  0.48399267  0.78867467  1
  Mo  Mo33  1  0.50016800  0.31749400  0.87799200  1
  Mo  Mo34  1  0.81732600  0.49983200  0.87799200  1
  Mo  Mo35  1  0.68250600  0.18267400  0.87799200  1
  Mo  Mo36  1  0.68857033  0.18753767  0.69509067  1
  Mo  Mo37  1  0.49896733  0.31142967  0.69509067  1
  Mo  Mo38  1  0.81246233  0.50103267  0.69509067  1
  Mo  Mo39  1  0.64476300  0.47912900  0.97157600  1
  Mo  Mo40  1  0.83436600  0.35523700  0.97157600  1
  Mo  Mo41  1  0.52087100  0.16563400  0.97157600  1
  Se  Se42  1  0.37177733  0.37722467  0.29701167  1
  Se  Se43  1  0.04389133  0.33878067  0.03632167  1
  Se  Se44  1  0.00000000  0.00000000  0.28042800  1
  Se  Se45  1  0.66666667  0.33333333  0.05290533  1
  Se  Se46  1  0.65688600  0.69796300  0.21398800  1
  Se  Se47  1  0.04107700  0.34311400  0.21398800  1
  Se  Se48  1  0.30203700  0.95892300  0.21398800  1
  Se  Se49  1  0.00978067  0.63537033  0.11934533  1
  Se  Se50  1  0.62558967  0.99021933  0.11934533  1
  Se  Se51  1  0.36462967  0.37441033  0.11934533  1
  Se  Se52  1  0.29488933  0.95610867  0.03632167  1
  Se  Se53  1  0.66121933  0.70511067  0.03632167  1
  Se  Se54  1  0.62277533  0.99455267  0.29701167  1
  Se  Se55  1  0.00544733  0.62822267  0.29701167  1
  Se  Se56  1  0.03844400  0.71055800  0.63034500  1
  Se  Se57  1  0.71055800  0.67211400  0.36965500  1
  Se  Se58  1  0.66666667  0.33333333  0.61376133  1
  Se  Se59  1  0.33333333  0.66666667  0.38623867  1
  Se  Se60  1  0.32355267  0.03129633  0.54732133  1
  Se  Se61  1  0.70774367  0.67644733  0.54732133  1
  Se  Se62  1  0.96870367  0.29225633  0.54732133  1
  Se  Se63  1  0.67644733  0.96870367  0.45267867  1
  Se  Se64  1  0.29225633  0.32355267  0.45267867  1
  Se  Se65  1  0.03129633  0.70774367  0.45267867  1
  Se  Se66  1  0.96155600  0.28944200  0.36965500  1
  Se  Se67  1  0.32788600  0.03844400  0.36965500  1
  Se  Se68  1  0.28944200  0.32788600  0.63034500  1
  Se  Se69  1  0.67211400  0.96155600  0.63034500  1
  Se  Se70  1  0.70511067  0.04389133  0.96367833  1
  Se  Se71  1  0.37722467  0.00544733  0.70298833  1
  Se  Se72  1  0.33333333  0.66666667  0.94709467  1
  Se  Se73  1  0.00000000  0.00000000  0.71957200  1
  Se  Se74  1  0.99021933  0.36462967  0.88065467  1
  Se  Se75  1  0.37441033  0.00978067  0.88065467  1
  Se  Se76  1  0.63537033  0.62558967  0.88065467  1
  Se  Se77  1  0.34311400  0.30203700  0.78601200  1
  Se  Se78  1  0.95892300  0.65688600  0.78601200  1
  Se  Se79  1  0.69796300  0.04107700  0.78601200  1
  Se  Se80  1  0.62822267  0.62277533  0.70298833  1
  Se  Se81  1  0.99455267  0.37177733  0.70298833  1
  Se  Se82  1  0.95610867  0.66121933  0.96367833  1
  Se  Se83  1  0.33878067  0.29488933  0.96367833  1
