# generated using pymatgen
data_YbGa4Ni
_symmetry_space_group_name_H-M   'P 1'
_cell_length_a   4.10814600
_cell_length_b   15.33253400
_cell_length_c   6.57167400
_cell_angle_alpha   90.00000000
_cell_angle_beta   90.00000000
_cell_angle_gamma   90.00000000
_symmetry_Int_Tables_number   1
_chemical_formula_structural   YbGa4Ni
_chemical_formula_sum   'Yb4 Ga16 Ni4'
_cell_volume   413.93849601
_cell_formula_units_Z   4
loop_
 _symmetry_equiv_pos_site_id
 _symmetry_equiv_pos_as_xyz
  1  'x, y, z'
loop_
 _atom_site_type_symbol
 _atom_site_label
 _atom_site_symmetry_multiplicity
 _atom_site_fract_x
 _atom_site_fract_y
 _atom_site_fract_z
 _atom_site_occupancy
  Yb  Yb0  1  0.50000000  0.87558300  0.75000000  1
  Yb  Yb1  1  0.00000000  0.62441700  0.25000000  1
  Yb  Yb2  1  0.00000000  0.37558300  0.75000000  1
  Yb  Yb3  1  0.50000000  0.12441700  0.25000000  1
  Ga  Ga4  1  0.00000000  0.81431600  0.44967500  1
  Ga  Ga5  1  0.50000000  0.68568400  0.55032500  1
  Ga  Ga6  1  0.00000000  0.00000000  0.00000000  1
  Ga  Ga7  1  0.00000000  0.00000000  0.50000000  1
  Ga  Ga8  1  0.50000000  0.93144500  0.25000000  1
  Ga  Ga9  1  0.00000000  0.56855500  0.75000000  1
  Ga  Ga10  1  0.00000000  0.81431600  0.05032500  1
  Ga  Ga11  1  0.50000000  0.68568400  0.94967500  1
  Ga  Ga12  1  0.50000000  0.31431600  0.44967500  1
  Ga  Ga13  1  0.00000000  0.18568400  0.55032500  1
  Ga  Ga14  1  0.50000000  0.50000000  0.00000000  1
  Ga  Ga15  1  0.50000000  0.50000000  0.50000000  1
  Ga  Ga16  1  0.00000000  0.43144500  0.25000000  1
  Ga  Ga17  1  0.50000000  0.06855500  0.75000000  1
  Ga  Ga18  1  0.50000000  0.31431600  0.05032500  1
  Ga  Ga19  1  0.00000000  0.18568400  0.94967500  1
  Ni  Ni20  1  0.50000000  0.77691000  0.25000000  1
  Ni  Ni21  1  0.00000000  0.72309000  0.75000000  1
  Ni  Ni22  1  0.00000000  0.27691000  0.25000000  1
  Ni  Ni23  1  0.50000000  0.22309000  0.75000000  1
