# generated using pymatgen
data_Zn8Cu5
_symmetry_space_group_name_H-M   'P 1'
_cell_length_a   8.85347400
_cell_length_b   8.85347400
_cell_length_c   8.85347400
_cell_angle_alpha   90.00000000
_cell_angle_beta   90.00000000
_cell_angle_gamma   90.00000000
_symmetry_Int_Tables_number   1
_chemical_formula_structural   Zn8Cu5
_chemical_formula_sum   'Zn32 Cu20'
_cell_volume   693.97072256
_cell_formula_units_Z   4
loop_
 _symmetry_equiv_pos_site_id
 _symmetry_equiv_pos_as_xyz
  1  'x, y, z'
loop_
 _atom_site_type_symbol
 _atom_site_label
 _atom_site_symmetry_multiplicity
 _atom_site_fract_x
 _atom_site_fract_y
 _atom_site_fract_z
 _atom_site_occupancy
  Zn  Zn0  1  0.89078000  0.10922000  0.10922000  1
  Zn  Zn1  1  0.10922000  0.89078000  0.10922000  1
  Zn  Zn2  1  0.10922000  0.10922000  0.89078000  1
  Zn  Zn3  1  0.39078000  0.39078000  0.39078000  1
  Zn  Zn4  1  0.18699850  0.81300150  0.53652050  1
  Zn  Zn5  1  0.96347950  0.31300150  0.31300150  1
  Zn  Zn6  1  0.18699850  0.53652050  0.81300150  1
  Zn  Zn7  1  0.81300150  0.18699850  0.53652050  1
  Zn  Zn8  1  0.53652050  0.18699850  0.81300150  1
  Zn  Zn9  1  0.31300150  0.96347950  0.31300150  1
  Zn  Zn10  1  0.31300150  0.31300150  0.96347950  1
  Zn  Zn11  1  0.53652050  0.81300150  0.18699850  1
  Zn  Zn12  1  0.81300150  0.53652050  0.18699850  1
  Zn  Zn13  1  0.18699850  0.18699850  0.46347950  1
  Zn  Zn14  1  0.46347950  0.18699850  0.18699850  1
  Zn  Zn15  1  0.18699850  0.46347950  0.18699850  1
  Zn  Zn16  1  0.39078000  0.60922000  0.60922000  1
  Zn  Zn17  1  0.60922000  0.39078000  0.60922000  1
  Zn  Zn18  1  0.60922000  0.60922000  0.39078000  1
  Zn  Zn19  1  0.89078000  0.89078000  0.89078000  1
  Zn  Zn20  1  0.68699850  0.31300150  0.03652050  1
  Zn  Zn21  1  0.46347950  0.81300150  0.81300150  1
  Zn  Zn22  1  0.68699850  0.03652050  0.31300150  1
  Zn  Zn23  1  0.31300150  0.68699850  0.03652050  1
  Zn  Zn24  1  0.03652050  0.68699850  0.31300150  1
  Zn  Zn25  1  0.81300150  0.46347950  0.81300150  1
  Zn  Zn26  1  0.81300150  0.81300150  0.46347950  1
  Zn  Zn27  1  0.03652050  0.31300150  0.68699850  1
  Zn  Zn28  1  0.31300150  0.03652050  0.68699850  1
  Zn  Zn29  1  0.68699850  0.68699850  0.96347950  1
  Zn  Zn30  1  0.96347950  0.68699850  0.68699850  1
  Zn  Zn31  1  0.68699850  0.96347950  0.68699850  1
  Cu  Cu32  1  0.67210950  0.32789050  0.32789050  1
  Cu  Cu33  1  0.32789050  0.67210950  0.32789050  1
  Cu  Cu34  1  0.32789050  0.32789050  0.67210950  1
  Cu  Cu35  1  0.17210950  0.17210950  0.17210950  1
  Cu  Cu36  1  0.64364400  0.00000000  0.00000000  1
  Cu  Cu37  1  0.00000000  0.35635600  0.00000000  1
  Cu  Cu38  1  0.00000000  0.00000000  0.35635600  1
  Cu  Cu39  1  0.35635600  0.00000000  0.00000000  1
  Cu  Cu40  1  0.00000000  0.64364400  0.00000000  1
  Cu  Cu41  1  0.00000000  0.00000000  0.64364400  1
  Cu  Cu42  1  0.17210950  0.82789050  0.82789050  1
  Cu  Cu43  1  0.82789050  0.17210950  0.82789050  1
  Cu  Cu44  1  0.82789050  0.82789050  0.17210950  1
  Cu  Cu45  1  0.67210950  0.67210950  0.67210950  1
  Cu  Cu46  1  0.14364400  0.50000000  0.50000000  1
  Cu  Cu47  1  0.50000000  0.85635600  0.50000000  1
  Cu  Cu48  1  0.50000000  0.50000000  0.85635600  1
  Cu  Cu49  1  0.85635600  0.50000000  0.50000000  1
  Cu  Cu50  1  0.50000000  0.14364400  0.50000000  1
  Cu  Cu51  1  0.50000000  0.50000000  0.14364400  1
