# generated using pymatgen
data_CeAl4Ge2Au
_symmetry_space_group_name_H-M   'P 1'
_cell_length_a   4.26442811
_cell_length_b   4.26442811
_cell_length_c   31.46958057
_cell_angle_alpha   90.00000000
_cell_angle_beta   90.00000000
_cell_angle_gamma   120.00000000
_symmetry_Int_Tables_number   1
_chemical_formula_structural   CeAl4Ge2Au
_chemical_formula_sum   'Ce3 Al12 Ge6 Au3'
_cell_volume   495.61356109
_cell_formula_units_Z   3
loop_
 _symmetry_equiv_pos_site_id
 _symmetry_equiv_pos_as_xyz
  1  'x, y, z'
loop_
 _atom_site_type_symbol
 _atom_site_label
 _atom_site_symmetry_multiplicity
 _atom_site_fract_x
 _atom_site_fract_y
 _atom_site_fract_z
 _atom_site_occupancy
  Ce  Ce0  1  0.33333333  0.66666667  0.16666667  1
  Ce  Ce1  1  1.00000000  1.00000000  0.50000000  1
  Ce  Ce2  1  0.66666667  0.33333333  0.83333333  1
  Al  Al3  1  0.00000000  0.00000000  0.08345400  1
  Al  Al4  1  0.00000000  0.00000000  0.30763400  1
  Al  Al5  1  0.66666667  0.33333333  0.24987933  1
  Al  Al6  1  0.66666667  0.33333333  0.02569933  1
  Al  Al7  1  0.66666667  0.33333333  0.41678733  1
  Al  Al8  1  0.66666667  0.33333333  0.64096733  1
  Al  Al9  1  0.33333333  0.66666667  0.58321267  1
  Al  Al10  1  0.33333333  0.66666667  0.35903267  1
  Al  Al11  1  0.33333333  0.66666667  0.75012067  1
  Al  Al12  1  0.33333333  0.66666667  0.97430067  1
  Al  Al13  1  0.00000000  0.00000000  0.91654600  1
  Al  Al14  1  0.00000000  0.00000000  0.69236600  1
  Ge  Ge15  1  0.00000000  0.00000000  0.22367200  1
  Ge  Ge16  1  0.66666667  0.33333333  0.10966133  1
  Ge  Ge17  1  0.66666667  0.33333333  0.55700533  1
  Ge  Ge18  1  0.33333333  0.66666667  0.44299467  1
  Ge  Ge19  1  0.33333333  0.66666667  0.89033867  1
  Ge  Ge20  1  0.00000000  0.00000000  0.77632800  1
  Au  Au21  1  0.00000000  0.00000000  0.00000000  1
  Au  Au22  1  0.66666667  0.33333333  0.33333333  1
  Au  Au23  1  0.33333333  0.66666667  0.66666667  1
