# generated using pymatgen
data_Sb8Te3
_symmetry_space_group_name_H-M   'P 1'
_cell_length_a   4.37496813
_cell_length_b   4.37496813
_cell_length_c   64.82588781
_cell_angle_alpha   90.00000000
_cell_angle_beta   90.00000000
_cell_angle_gamma   120.00000000
_symmetry_Int_Tables_number   1
_chemical_formula_structural   Sb8Te3
_chemical_formula_sum   'Sb24 Te9'
_cell_volume   1074.55560276
_cell_formula_units_Z   3
loop_
 _symmetry_equiv_pos_site_id
 _symmetry_equiv_pos_as_xyz
  1  'x, y, z'
loop_
 _atom_site_type_symbol
 _atom_site_label
 _atom_site_symmetry_multiplicity
 _atom_site_fract_x
 _atom_site_fract_y
 _atom_site_fract_z
 _atom_site_occupancy
  Sb  Sb0  1  0.66666667  0.33333333  0.15494433  1
  Sb  Sb1  1  0.33333333  0.66666667  0.30294767  1
  Sb  Sb2  1  0.33333333  0.66666667  0.03038567  1
  Sb  Sb3  1  0.00000000  0.00000000  0.17838900  1
  Sb  Sb4  1  0.33333333  0.66666667  0.11896567  1
  Sb  Sb5  1  0.66666667  0.33333333  0.23797233  1
  Sb  Sb6  1  0.00000000  0.00000000  0.09536100  1
  Sb  Sb7  1  0.33333333  0.66666667  0.21436767  1
  Sb  Sb8  1  0.33333333  0.66666667  0.48827767  1
  Sb  Sb9  1  0.00000000  0.00000000  0.63628100  1
  Sb  Sb10  1  0.00000000  0.00000000  0.36371900  1
  Sb  Sb11  1  0.66666667  0.33333333  0.51172233  1
  Sb  Sb12  1  0.00000000  0.00000000  0.45229900  1
  Sb  Sb13  1  0.33333333  0.66666667  0.57130567  1
  Sb  Sb14  1  0.66666667  0.33333333  0.42869433  1
  Sb  Sb15  1  0.00000000  0.00000000  0.54770100  1
  Sb  Sb16  1  0.00000000  0.00000000  0.82161100  1
  Sb  Sb17  1  0.66666667  0.33333333  0.96961433  1
  Sb  Sb18  1  0.66666667  0.33333333  0.69705233  1
  Sb  Sb19  1  0.33333333  0.66666667  0.84505567  1
  Sb  Sb20  1  0.66666667  0.33333333  0.78563233  1
  Sb  Sb21  1  0.00000000  0.00000000  0.90463900  1
  Sb  Sb22  1  0.33333333  0.66666667  0.76202767  1
  Sb  Sb23  1  0.66666667  0.33333333  0.88103433  1
  Te  Te24  1  0.66666667  0.33333333  0.05649833  1
  Te  Te25  1  0.00000000  0.00000000  0.27683500  1
  Te  Te26  1  0.00000000  0.00000000  0.00000000  1
  Te  Te27  1  0.33333333  0.66666667  0.38983167  1
  Te  Te28  1  0.66666667  0.33333333  0.61016833  1
  Te  Te29  1  0.66666667  0.33333333  0.33333333  1
  Te  Te30  1  0.00000000  0.00000000  0.72316500  1
  Te  Te31  1  0.33333333  0.66666667  0.94350167  1
  Te  Te32  1  0.33333333  0.66666667  0.66666667  1
