# generated using pymatgen
data_SrCr10O15
_symmetry_space_group_name_H-M   'P 1'
_cell_length_a   10.46235000
_cell_length_b   11.67531200
_cell_length_c   9.54359800
_cell_angle_alpha   90.00000000
_cell_angle_beta   90.00000000
_cell_angle_gamma   90.00000000
_symmetry_Int_Tables_number   1
_chemical_formula_structural   SrCr10O15
_chemical_formula_sum   'Sr4 Cr40 O60'
_cell_volume   1165.76195282
_cell_formula_units_Z   4
loop_
 _symmetry_equiv_pos_site_id
 _symmetry_equiv_pos_as_xyz
  1  'x, y, z'
loop_
 _atom_site_type_symbol
 _atom_site_label
 _atom_site_symmetry_multiplicity
 _atom_site_fract_x
 _atom_site_fract_y
 _atom_site_fract_z
 _atom_site_occupancy
  Sr  Sr0  1  0.50000000  0.00000000  0.50000000  1
  Sr  Sr1  1  0.00000000  0.00000000  0.00000000  1
  Sr  Sr2  1  0.00000000  0.50000000  0.50000000  1
  Sr  Sr3  1  0.50000000  0.50000000  0.00000000  1
  Cr  Cr4  1  0.81485300  0.00000000  0.63412100  1
  Cr  Cr5  1  0.68514700  0.00000000  0.13412100  1
  Cr  Cr6  1  0.31485300  0.00000000  0.86587900  1
  Cr  Cr7  1  0.18514700  0.00000000  0.36587900  1
  Cr  Cr8  1  0.41709050  0.37299150  0.35445000  1
  Cr  Cr9  1  0.58290950  0.12700850  0.85445000  1
  Cr  Cr10  1  0.41709050  0.12700850  0.14555000  1
  Cr  Cr11  1  0.58290950  0.37299150  0.64555000  1
  Cr  Cr12  1  0.58290950  0.62700850  0.64555000  1
  Cr  Cr13  1  0.41709050  0.87299150  0.14555000  1
  Cr  Cr14  1  0.58290950  0.87299150  0.85445000  1
  Cr  Cr15  1  0.41709050  0.62700850  0.35445000  1
  Cr  Cr16  1  0.66252450  0.25625250  0.11413000  1
  Cr  Cr17  1  0.33747550  0.24374750  0.61413000  1
  Cr  Cr18  1  0.66252450  0.24374750  0.38587000  1
  Cr  Cr19  1  0.33747550  0.25625250  0.88587000  1
  Cr  Cr20  1  0.33747550  0.74374750  0.88587000  1
  Cr  Cr21  1  0.66252450  0.75625250  0.38587000  1
  Cr  Cr22  1  0.33747550  0.75625250  0.61413000  1
  Cr  Cr23  1  0.66252450  0.74374750  0.11413000  1
  Cr  Cr24  1  0.31485300  0.50000000  0.63412100  1
  Cr  Cr25  1  0.18514700  0.50000000  0.13412100  1
  Cr  Cr26  1  0.81485300  0.50000000  0.86587900  1
  Cr  Cr27  1  0.68514700  0.50000000  0.36587900  1
  Cr  Cr28  1  0.91709050  0.87299150  0.35445000  1
  Cr  Cr29  1  0.08290950  0.62700850  0.85445000  1
  Cr  Cr30  1  0.91709050  0.62700850  0.14555000  1
  Cr  Cr31  1  0.08290950  0.87299150  0.64555000  1
  Cr  Cr32  1  0.08290950  0.12700850  0.64555000  1
  Cr  Cr33  1  0.91709050  0.37299150  0.14555000  1
  Cr  Cr34  1  0.08290950  0.37299150  0.85445000  1
  Cr  Cr35  1  0.91709050  0.12700850  0.35445000  1
  Cr  Cr36  1  0.16252450  0.75625250  0.11413000  1
  Cr  Cr37  1  0.83747550  0.74374750  0.61413000  1
  Cr  Cr38  1  0.16252450  0.74374750  0.38587000  1
  Cr  Cr39  1  0.83747550  0.75625250  0.88587000  1
  Cr  Cr40  1  0.83747550  0.24374750  0.88587000  1
  Cr  Cr41  1  0.16252450  0.25625250  0.38587000  1
  Cr  Cr42  1  0.83747550  0.25625250  0.61413000  1
  Cr  Cr43  1  0.16252450  0.24374750  0.11413000  1
  O  O44  1  0.00000000  0.00000000  0.50000000  1
  O  O45  1  0.50000000  0.00000000  0.00000000  1
  O  O46  1  0.50000000  0.25420000  0.50000000  1
  O  O47  1  0.50000000  0.24580000  0.00000000  1
  O  O48  1  0.50000000  0.74580000  0.50000000  1
  O  O49  1  0.50000000  0.75420000  0.00000000  1
  O  O50  1  0.63838100  0.00000000  0.73087100  1
  O  O51  1  0.86161900  0.00000000  0.23087100  1
  O  O52  1  0.13838100  0.00000000  0.76912900  1
  O  O53  1  0.36161900  0.00000000  0.26912900  1
  O  O54  1  0.31492500  0.75000000  0.25000000  1
  O  O55  1  0.68507500  0.75000000  0.75000000  1
  O  O56  1  0.68507500  0.25000000  0.75000000  1
  O  O57  1  0.31492500  0.25000000  0.25000000  1
  O  O58  1  0.59188300  0.86885800  0.24153300  1
  O  O59  1  0.40811700  0.63114200  0.74153300  1
  O  O60  1  0.59188300  0.63114200  0.25846700  1
  O  O61  1  0.40811700  0.86885800  0.75846700  1
  O  O62  1  0.40811700  0.13114200  0.75846700  1
  O  O63  1  0.59188300  0.36885800  0.25846700  1
  O  O64  1  0.40811700  0.36885800  0.74153300  1
  O  O65  1  0.59188300  0.13114200  0.24153300  1
  O  O66  1  0.23352950  0.12964850  0.50706400  1
  O  O67  1  0.26647050  0.87035150  0.00706400  1
  O  O68  1  0.73352950  0.87035150  0.99293600  1
  O  O69  1  0.76647050  0.12964850  0.49293600  1
  O  O70  1  0.76647050  0.87035150  0.49293600  1
  O  O71  1  0.73352950  0.12964850  0.99293600  1
  O  O72  1  0.26647050  0.12964850  0.00706400  1
  O  O73  1  0.23352950  0.87035150  0.50706400  1
  O  O74  1  0.50000000  0.50000000  0.50000000  1
  O  O75  1  0.00000000  0.50000000  0.00000000  1
  O  O76  1  0.00000000  0.75420000  0.50000000  1
  O  O77  1  0.00000000  0.74580000  0.00000000  1
  O  O78  1  0.00000000  0.24580000  0.50000000  1
  O  O79  1  0.00000000  0.25420000  0.00000000  1
  O  O80  1  0.13838100  0.50000000  0.73087100  1
  O  O81  1  0.36161900  0.50000000  0.23087100  1
  O  O82  1  0.63838100  0.50000000  0.76912900  1
  O  O83  1  0.86161900  0.50000000  0.26912900  1
  O  O84  1  0.81492500  0.25000000  0.25000000  1
  O  O85  1  0.18507500  0.25000000  0.75000000  1
  O  O86  1  0.18507500  0.75000000  0.75000000  1
  O  O87  1  0.81492500  0.75000000  0.25000000  1
  O  O88  1  0.09188300  0.36885800  0.24153300  1
  O  O89  1  0.90811700  0.13114200  0.74153300  1
  O  O90  1  0.09188300  0.13114200  0.25846700  1
  O  O91  1  0.90811700  0.36885800  0.75846700  1
  O  O92  1  0.90811700  0.63114200  0.75846700  1
  O  O93  1  0.09188300  0.86885800  0.25846700  1
  O  O94  1  0.90811700  0.86885800  0.74153300  1
  O  O95  1  0.09188300  0.63114200  0.24153300  1
  O  O96  1  0.73352950  0.62964850  0.50706400  1
  O  O97  1  0.76647050  0.37035150  0.00706400  1
  O  O98  1  0.23352950  0.37035150  0.99293600  1
  O  O99  1  0.26647050  0.62964850  0.49293600  1
  O  O100  1  0.26647050  0.37035150  0.49293600  1
  O  O101  1  0.23352950  0.62964850  0.99293600  1
  O  O102  1  0.76647050  0.62964850  0.00706400  1
  O  O103  1  0.73352950  0.37035150  0.50706400  1
