# generated using pymatgen
data_SrNi2(PO4)2
_symmetry_space_group_name_H-M   'P 1'
_cell_length_a   5.51209342
_cell_length_b   6.88776023
_cell_length_c   9.26204259
_cell_angle_alpha   111.28777912
_cell_angle_beta   100.98888644
_cell_angle_gamma   98.11348985
_symmetry_Int_Tables_number   1
_chemical_formula_structural   SrNi2(PO4)2
_chemical_formula_sum   'Sr2 Ni4 P4 O16'
_cell_volume   313.02193115
_cell_formula_units_Z   2
loop_
 _symmetry_equiv_pos_site_id
 _symmetry_equiv_pos_as_xyz
  1  'x, y, z'
loop_
 _atom_site_type_symbol
 _atom_site_label
 _atom_site_symmetry_multiplicity
 _atom_site_fract_x
 _atom_site_fract_y
 _atom_site_fract_z
 _atom_site_occupancy
  Sr  Sr0  1  0.24108316  0.75265091  0.44685755  1
  Sr  Sr1  1  0.75891684  0.24734909  0.55314245  1
  Ni  Ni2  1  0.51176237  0.76420346  0.83953836  1
  Ni  Ni3  1  0.14184707  0.79505182  0.06119346  1
  Ni  Ni4  1  0.85815293  0.20494818  0.93880654  1
  Ni  Ni5  1  0.48823763  0.23579654  0.16046164  1
  P  P6  1  0.89167017  0.68658413  0.74214676  1
  P  P7  1  0.10832983  0.31341587  0.25785324  1
  P  P8  1  0.34658147  0.22074148  0.80572571  1
  P  P9  1  0.65341853  0.77925852  0.19427429  1
  O  O10  1  0.66316042  0.82810952  0.62553143  1
  O  O11  1  0.33683958  0.17189048  0.37446857  1
  O  O12  1  0.24677160  0.37419261  0.63558396  1
  O  O13  1  0.75322840  0.62580739  0.36441604  1
  O  O14  1  0.14649812  0.78087669  0.70181294  1
  O  O15  1  0.85350188  0.21912331  0.29818706  1
  O  O16  1  0.84291671  0.46361462  0.73711358  1
  O  O17  1  0.15708329  0.53638538  0.26288642  1
  O  O18  1  0.54504067  0.07720994  0.80313521  1
  O  O19  1  0.45495933  0.92279006  0.19686479  1
  O  O20  1  0.11869896  0.31283466  0.09137233  1
  O  O21  1  0.88130104  0.68716534  0.90862767  1
  O  O22  1  0.49198583  0.67443411  0.07040721  1
  O  O23  1  0.12168541  0.08459919  0.86903742  1
  O  O24  1  0.87831459  0.91540081  0.13096258  1
  O  O25  1  0.50801417  0.32556589  0.92959279  1
