# generated using pymatgen
data_RbUAgS3
_symmetry_space_group_name_H-M   'P 1'
_cell_length_a   4.12002600
_cell_length_b   14.88952200
_cell_length_c   10.53495000
_cell_angle_alpha   90.00000000
_cell_angle_beta   90.00000000
_cell_angle_gamma   90.00000000
_symmetry_Int_Tables_number   1
_chemical_formula_structural   RbUAgS3
_chemical_formula_sum   'Rb4 U4 Ag4 S12'
_cell_volume   646.26880192
_cell_formula_units_Z   4
loop_
 _symmetry_equiv_pos_site_id
 _symmetry_equiv_pos_as_xyz
  1  'x, y, z'
loop_
 _atom_site_type_symbol
 _atom_site_label
 _atom_site_symmetry_multiplicity
 _atom_site_fract_x
 _atom_site_fract_y
 _atom_site_fract_z
 _atom_site_occupancy
  Rb  Rb0  1  0.50000000  0.23805000  0.75000000  1
  Rb  Rb1  1  0.00000000  0.26195000  0.25000000  1
  Rb  Rb2  1  0.00000000  0.73805000  0.75000000  1
  Rb  Rb3  1  0.50000000  0.76195000  0.25000000  1
  U  U4  1  0.00000000  0.00000000  0.50000000  1
  U  U5  1  0.00000000  0.00000000  0.00000000  1
  U  U6  1  0.50000000  0.50000000  0.50000000  1
  U  U7  1  0.50000000  0.50000000  0.00000000  1
  Ag  Ag8  1  0.50000000  0.04701800  0.25000000  1
  Ag  Ag9  1  0.00000000  0.45298200  0.75000000  1
  Ag  Ag10  1  0.00000000  0.54701800  0.25000000  1
  Ag  Ag11  1  0.50000000  0.95298200  0.75000000  1
  S  S12  1  0.00000000  0.38118500  0.53713400  1
  S  S13  1  0.50000000  0.11881500  0.46286600  1
  S  S14  1  0.50000000  0.11881500  0.03713400  1
  S  S15  1  0.00000000  0.05633800  0.75000000  1
  S  S16  1  0.50000000  0.44366200  0.25000000  1
  S  S17  1  0.00000000  0.38118500  0.96286600  1
  S  S18  1  0.50000000  0.88118500  0.53713400  1
  S  S19  1  0.00000000  0.61881500  0.46286600  1
  S  S20  1  0.00000000  0.61881500  0.03713400  1
  S  S21  1  0.50000000  0.55633800  0.75000000  1
  S  S22  1  0.00000000  0.94366200  0.25000000  1
  S  S23  1  0.50000000  0.88118500  0.96286600  1
