# generated using pymatgen
data_Nd2Ge5Rh3
_symmetry_space_group_name_H-M   'P 1'
_cell_length_a   6.08748000
_cell_length_b   10.18332400
_cell_length_c   12.12560200
_cell_angle_alpha   90.00000000
_cell_angle_beta   90.00000000
_cell_angle_gamma   90.00000000
_symmetry_Int_Tables_number   1
_chemical_formula_structural   Nd2Ge5Rh3
_chemical_formula_sum   'Nd8 Ge20 Rh12'
_cell_volume   751.67554030
_cell_formula_units_Z   4
loop_
 _symmetry_equiv_pos_site_id
 _symmetry_equiv_pos_as_xyz
  1  'x, y, z'
loop_
 _atom_site_type_symbol
 _atom_site_label
 _atom_site_symmetry_multiplicity
 _atom_site_fract_x
 _atom_site_fract_y
 _atom_site_fract_z
 _atom_site_occupancy
  Nd  Nd0  1  0.00000000  0.26893000  0.13353500  1
  Nd  Nd1  1  0.50000000  0.73107000  0.13353500  1
  Nd  Nd2  1  0.00000000  0.73107000  0.86646500  1
  Nd  Nd3  1  0.50000000  0.26893000  0.86646500  1
  Nd  Nd4  1  0.50000000  0.76893000  0.63353500  1
  Nd  Nd5  1  0.00000000  0.23107000  0.63353500  1
  Nd  Nd6  1  0.50000000  0.23107000  0.36646500  1
  Nd  Nd7  1  0.00000000  0.76893000  0.36646500  1
  Ge  Ge8  1  0.25000000  0.50000000  0.00000000  1
  Ge  Ge9  1  0.75000000  0.50000000  0.00000000  1
  Ge  Ge10  1  0.50000000  0.83991900  0.90113300  1
  Ge  Ge11  1  0.00000000  0.16008100  0.90113300  1
  Ge  Ge12  1  0.50000000  0.16008100  0.09886700  1
  Ge  Ge13  1  0.00000000  0.83991900  0.09886700  1
  Ge  Ge14  1  0.25000000  0.50000000  0.27759000  1
  Ge  Ge15  1  0.75000000  0.50000000  0.27759000  1
  Ge  Ge16  1  0.25000000  0.50000000  0.72241000  1
  Ge  Ge17  1  0.75000000  0.50000000  0.72241000  1
  Ge  Ge18  1  0.75000000  0.00000000  0.50000000  1
  Ge  Ge19  1  0.25000000  0.00000000  0.50000000  1
  Ge  Ge20  1  0.00000000  0.33991900  0.40113300  1
  Ge  Ge21  1  0.50000000  0.66008100  0.40113300  1
  Ge  Ge22  1  0.00000000  0.66008100  0.59886700  1
  Ge  Ge23  1  0.50000000  0.33991900  0.59886700  1
  Ge  Ge24  1  0.75000000  0.00000000  0.77759000  1
  Ge  Ge25  1  0.25000000  0.00000000  0.77759000  1
  Ge  Ge26  1  0.75000000  0.00000000  0.22241000  1
  Ge  Ge27  1  0.25000000  0.00000000  0.22241000  1
  Rh  Rh28  1  0.25000000  0.00000000  0.00000000  1
  Rh  Rh29  1  0.00000000  0.39354300  0.85972100  1
  Rh  Rh30  1  0.50000000  0.39354300  0.14027900  1
  Rh  Rh31  1  0.00000000  0.60645700  0.14027900  1
  Rh  Rh32  1  0.75000000  0.00000000  0.00000000  1
  Rh  Rh33  1  0.50000000  0.60645700  0.85972100  1
  Rh  Rh34  1  0.75000000  0.50000000  0.50000000  1
  Rh  Rh35  1  0.50000000  0.89354300  0.35972100  1
  Rh  Rh36  1  0.00000000  0.89354300  0.64027900  1
  Rh  Rh37  1  0.50000000  0.10645700  0.64027900  1
  Rh  Rh38  1  0.25000000  0.50000000  0.50000000  1
  Rh  Rh39  1  0.00000000  0.10645700  0.35972100  1
