# generated using pymatgen
data_Sc5Re24
_symmetry_space_group_name_H-M   'P 1'
_cell_length_a   9.76254000
_cell_length_b   9.76254000
_cell_length_c   9.76254000
_cell_angle_alpha   90.00000000
_cell_angle_beta   90.00000000
_cell_angle_gamma   90.00000000
_symmetry_Int_Tables_number   1
_chemical_formula_structural   Sc5Re24
_chemical_formula_sum   'Sc10 Re48'
_cell_volume   930.44022783
_cell_formula_units_Z   2
loop_
 _symmetry_equiv_pos_site_id
 _symmetry_equiv_pos_as_xyz
  1  'x, y, z'
loop_
 _atom_site_type_symbol
 _atom_site_label
 _atom_site_symmetry_multiplicity
 _atom_site_fract_x
 _atom_site_fract_y
 _atom_site_fract_z
 _atom_site_occupancy
  Sc  Sc0  1  0.18323500  0.18323500  0.18323500  1
  Sc  Sc1  1  0.31676500  0.68323500  0.31676500  1
  Sc  Sc2  1  0.68323500  0.31676500  0.31676500  1
  Sc  Sc3  1  0.31676500  0.31676500  0.68323500  1
  Sc  Sc4  1  0.00000000  0.00000000  0.00000000  1
  Sc  Sc5  1  0.68323500  0.68323500  0.68323500  1
  Sc  Sc6  1  0.81676500  0.18323500  0.81676500  1
  Sc  Sc7  1  0.18323500  0.81676500  0.81676500  1
  Sc  Sc8  1  0.81676500  0.81676500  0.18323500  1
  Sc  Sc9  1  0.50000000  0.50000000  0.50000000  1
  Re  Re10  1  0.53772550  0.13982350  0.86017650  1
  Re  Re11  1  0.46227450  0.13982350  0.13982350  1
  Re  Re12  1  0.96227450  0.36017650  0.36017650  1
  Re  Re13  1  0.36017650  0.96227450  0.36017650  1
  Re  Re14  1  0.86017650  0.53772550  0.13982350  1
  Re  Re15  1  0.53772550  0.86017650  0.13982350  1
  Re  Re16  1  0.13982350  0.13982350  0.46227450  1
  Re  Re17  1  0.09270750  0.09270750  0.71502250  1
  Re  Re18  1  0.90729250  0.09270750  0.28497750  1
  Re  Re19  1  0.09270750  0.90729250  0.28497750  1
  Re  Re20  1  0.40729250  0.21502250  0.40729250  1
  Re  Re21  1  0.90729250  0.28497750  0.09270750  1
  Re  Re22  1  0.28497750  0.90729250  0.09270750  1
  Re  Re23  1  0.21502250  0.40729250  0.40729250  1
  Re  Re24  1  0.71502250  0.09270750  0.09270750  1
  Re  Re25  1  0.09270750  0.71502250  0.09270750  1
  Re  Re26  1  0.09270750  0.28497750  0.90729250  1
  Re  Re27  1  0.28497750  0.09270750  0.90729250  1
  Re  Re28  1  0.40729250  0.40729250  0.21502250  1
  Re  Re29  1  0.13982350  0.53772550  0.86017650  1
  Re  Re30  1  0.13982350  0.46227450  0.13982350  1
  Re  Re31  1  0.86017650  0.13982350  0.53772550  1
  Re  Re32  1  0.13982350  0.86017650  0.53772550  1
  Re  Re33  1  0.36017650  0.36017650  0.96227450  1
  Re  Re34  1  0.03772550  0.63982350  0.36017650  1
  Re  Re35  1  0.96227450  0.63982350  0.63982350  1
  Re  Re36  1  0.46227450  0.86017650  0.86017650  1
  Re  Re37  1  0.86017650  0.46227450  0.86017650  1
  Re  Re38  1  0.36017650  0.03772550  0.63982350  1
  Re  Re39  1  0.03772550  0.36017650  0.63982350  1
  Re  Re40  1  0.63982350  0.63982350  0.96227450  1
  Re  Re41  1  0.59270750  0.59270750  0.21502250  1
  Re  Re42  1  0.40729250  0.59270750  0.78497750  1
  Re  Re43  1  0.59270750  0.40729250  0.78497750  1
  Re  Re44  1  0.90729250  0.71502250  0.90729250  1
  Re  Re45  1  0.40729250  0.78497750  0.59270750  1
  Re  Re46  1  0.78497750  0.40729250  0.59270750  1
  Re  Re47  1  0.71502250  0.90729250  0.90729250  1
  Re  Re48  1  0.21502250  0.59270750  0.59270750  1
  Re  Re49  1  0.59270750  0.21502250  0.59270750  1
  Re  Re50  1  0.59270750  0.78497750  0.40729250  1
  Re  Re51  1  0.78497750  0.59270750  0.40729250  1
  Re  Re52  1  0.90729250  0.90729250  0.71502250  1
  Re  Re53  1  0.63982350  0.03772550  0.36017650  1
  Re  Re54  1  0.63982350  0.96227450  0.63982350  1
  Re  Re55  1  0.36017650  0.63982350  0.03772550  1
  Re  Re56  1  0.63982350  0.36017650  0.03772550  1
  Re  Re57  1  0.86017650  0.86017650  0.46227450  1
