# generated using pymatgen
data_Sr3CuRhO6
_symmetry_space_group_name_H-M   'P 1'
_cell_length_a   9.41154200
_cell_length_b   9.80164200
_cell_length_c   6.73188464
_cell_angle_alpha   90.00000000
_cell_angle_beta   91.73427486
_cell_angle_gamma   90.00000000
_symmetry_Int_Tables_number   1
_chemical_formula_structural   Sr3CuRhO6
_chemical_formula_sum   'Sr12 Cu4 Rh4 O24'
_cell_volume   620.72223879
_cell_formula_units_Z   4
loop_
 _symmetry_equiv_pos_site_id
 _symmetry_equiv_pos_as_xyz
  1  'x, y, z'
loop_
 _atom_site_type_symbol
 _atom_site_label
 _atom_site_symmetry_multiplicity
 _atom_site_fract_x
 _atom_site_fract_y
 _atom_site_fract_z
 _atom_site_occupancy
  Sr  Sr0  1  0.50000000  0.39833100  0.75000000  1
  Sr  Sr1  1  0.50000000  0.60166900  0.25000000  1
  Sr  Sr2  1  0.68557750  0.92532850  0.37491400  1
  Sr  Sr3  1  0.31442250  0.92532850  0.12508600  1
  Sr  Sr4  1  0.31442250  0.07467150  0.62508600  1
  Sr  Sr5  1  0.68557750  0.07467150  0.87491400  1
  Sr  Sr6  1  0.00000000  0.89833100  0.75000000  1
  Sr  Sr7  1  0.00000000  0.10166900  0.25000000  1
  Sr  Sr8  1  0.18557750  0.42532850  0.37491400  1
  Sr  Sr9  1  0.81442250  0.42532850  0.12508600  1
  Sr  Sr10  1  0.81442250  0.57467150  0.62508600  1
  Sr  Sr11  1  0.18557750  0.57467150  0.87491400  1
  Cu  Cu12  1  0.50000000  0.80783800  0.75000000  1
  Cu  Cu13  1  0.50000000  0.19216200  0.25000000  1
  Cu  Cu14  1  0.00000000  0.30783800  0.75000000  1
  Cu  Cu15  1  0.00000000  0.69216200  0.25000000  1
  Rh  Rh16  1  0.75000000  0.75000000  0.00000000  1
  Rh  Rh17  1  0.75000000  0.25000000  0.50000000  1
  Rh  Rh18  1  0.25000000  0.25000000  0.00000000  1
  Rh  Rh19  1  0.25000000  0.75000000  0.50000000  1
  O  O20  1  0.44502800  0.16172800  0.96497300  1
  O  O21  1  0.55497200  0.16172800  0.53502700  1
  O  O22  1  0.55497200  0.83827200  0.03502700  1
  O  O23  1  0.44502800  0.83827200  0.46497300  1
  O  O24  1  0.14689300  0.07267900  0.93085800  1
  O  O25  1  0.85310700  0.07267900  0.56914200  1
  O  O26  1  0.85310700  0.92732100  0.06914200  1
  O  O27  1  0.14689300  0.92732100  0.43085800  1
  O  O28  1  0.29226700  0.18419200  0.28558300  1
  O  O29  1  0.70773300  0.18419200  0.21441700  1
  O  O30  1  0.29226700  0.81580800  0.78558300  1
  O  O31  1  0.70773300  0.81580800  0.71441700  1
  O  O32  1  0.94502800  0.66172800  0.96497300  1
  O  O33  1  0.05497200  0.66172800  0.53502700  1
  O  O34  1  0.05497200  0.33827200  0.03502700  1
  O  O35  1  0.94502800  0.33827200  0.46497300  1
  O  O36  1  0.64689300  0.57267900  0.93085800  1
  O  O37  1  0.35310700  0.57267900  0.56914200  1
  O  O38  1  0.35310700  0.42732100  0.06914200  1
  O  O39  1  0.64689300  0.42732100  0.43085800  1
  O  O40  1  0.79226700  0.68419200  0.28558300  1
  O  O41  1  0.20773300  0.68419200  0.21441700  1
  O  O42  1  0.79226700  0.31580800  0.78558300  1
  O  O43  1  0.20773300  0.31580800  0.71441700  1
