# generated using pymatgen
data_CuSnF6
_symmetry_space_group_name_H-M   'P 1'
_cell_length_a   5.30689624
_cell_length_b   5.30689624
_cell_length_c   14.00156720
_cell_angle_alpha   90.00000000
_cell_angle_beta   90.00000000
_cell_angle_gamma   120.00000000
_symmetry_Int_Tables_number   1
_chemical_formula_structural   CuSnF6
_chemical_formula_sum   'Cu3 Sn3 F18'
_cell_volume   341.49824369
_cell_formula_units_Z   3
loop_
 _symmetry_equiv_pos_site_id
 _symmetry_equiv_pos_as_xyz
  1  'x, y, z'
loop_
 _atom_site_type_symbol
 _atom_site_label
 _atom_site_symmetry_multiplicity
 _atom_site_fract_x
 _atom_site_fract_y
 _atom_site_fract_z
 _atom_site_occupancy
  Cu  Cu0  1  0.33333333  0.66666667  0.16666667  1
  Cu  Cu1  1  1.00000000  0.00000000  0.50000000  1
  Cu  Cu2  1  0.66666667  0.33333333  0.83333333  1
  Sn  Sn3  1  0.00000000  0.00000000  0.00000000  1
  Sn  Sn4  1  0.66666667  0.33333333  0.33333333  1
  Sn  Sn5  1  0.33333333  0.66666667  0.66666667  1
  F  F6  1  0.27996667  0.94781733  0.08264733  1
  F  F7  1  0.66785067  0.72003333  0.08264733  1
  F  F8  1  0.61448400  0.00118400  0.25068600  1
  F  F9  1  0.99881600  0.61330000  0.25068600  1
  F  F10  1  0.38670000  0.38551600  0.25068600  1
  F  F11  1  0.05218267  0.33214933  0.08264733  1
  F  F12  1  0.94663333  0.28115067  0.41598067  1
  F  F13  1  0.33451733  0.05336667  0.41598067  1
  F  F14  1  0.28115067  0.33451733  0.58401933  1
  F  F15  1  0.66548267  0.94663333  0.58401933  1
  F  F16  1  0.05336667  0.71884933  0.58401933  1
  F  F17  1  0.71884933  0.66548267  0.41598067  1
  F  F18  1  0.61330000  0.61448400  0.74931400  1
  F  F19  1  0.00118400  0.38670000  0.74931400  1
  F  F20  1  0.94781733  0.66785067  0.91735267  1
  F  F21  1  0.33214933  0.27996667  0.91735267  1
  F  F22  1  0.72003333  0.05218267  0.91735267  1
  F  F23  1  0.38551600  0.99881600  0.74931400  1
