# generated using pymatgen
data_Ca3Mn2O7
_symmetry_space_group_name_H-M   'P 1'
_cell_length_a   5.43970400
_cell_length_b   19.27368400
_cell_length_c   5.33646500
_cell_angle_alpha   90.00000000
_cell_angle_beta   90.00000000
_cell_angle_gamma   90.00000000
_symmetry_Int_Tables_number   1
_chemical_formula_structural   Ca3Mn2O7
_chemical_formula_sum   'Ca12 Mn8 O28'
_cell_volume   559.49172548
_cell_formula_units_Z   4
loop_
 _symmetry_equiv_pos_site_id
 _symmetry_equiv_pos_as_xyz
  1  'x, y, z'
loop_
 _atom_site_type_symbol
 _atom_site_label
 _atom_site_symmetry_multiplicity
 _atom_site_fract_x
 _atom_site_fract_y
 _atom_site_fract_z
 _atom_site_occupancy
  Ca  Ca0  1  0.25891100  0.00000000  0.25000000  1
  Ca  Ca1  1  0.74108900  0.00000000  0.75000000  1
  Ca  Ca2  1  0.76275650  0.31379350  0.25000000  1
  Ca  Ca3  1  0.26275650  0.18620650  0.25000000  1
  Ca  Ca4  1  0.23724350  0.31379350  0.75000000  1
  Ca  Ca5  1  0.73724350  0.18620650  0.75000000  1
  Ca  Ca6  1  0.75891100  0.50000000  0.25000000  1
  Ca  Ca7  1  0.24108900  0.50000000  0.75000000  1
  Ca  Ca8  1  0.26275650  0.81379350  0.25000000  1
  Ca  Ca9  1  0.76275650  0.68620650  0.25000000  1
  Ca  Ca10  1  0.73724350  0.81379350  0.75000000  1
  Ca  Ca11  1  0.23724350  0.68620650  0.75000000  1
  Mn  Mn12  1  0.75178250  0.09885050  0.25000000  1
  Mn  Mn13  1  0.25178250  0.40114950  0.25000000  1
  Mn  Mn14  1  0.74821750  0.40114950  0.75000000  1
  Mn  Mn15  1  0.24821750  0.09885050  0.75000000  1
  Mn  Mn16  1  0.25178250  0.59885050  0.25000000  1
  Mn  Mn17  1  0.75178250  0.90114950  0.25000000  1
  Mn  Mn18  1  0.24821750  0.90114950  0.75000000  1
  Mn  Mn19  1  0.74821750  0.59885050  0.75000000  1
  O  O20  1  0.31042100  0.19677700  0.75000000  1
  O  O21  1  0.81042100  0.30322300  0.75000000  1
  O  O22  1  0.18957900  0.30322300  0.25000000  1
  O  O23  1  0.68957900  0.19677700  0.25000000  1
  O  O24  1  0.50000000  0.08181800  0.50000000  1
  O  O25  1  0.00000000  0.41818200  0.00000000  1
  O  O26  1  0.00000000  0.41818200  0.50000000  1
  O  O27  1  0.50000000  0.08181800  0.00000000  1
  O  O28  1  0.00000000  0.11617000  0.50000000  1
  O  O29  1  0.50000000  0.38383000  0.00000000  1
  O  O30  1  0.83194900  0.00000000  0.25000000  1
  O  O31  1  0.16805100  0.00000000  0.75000000  1
  O  O32  1  0.00000000  0.11617000  0.00000000  1
  O  O33  1  0.50000000  0.38383000  0.50000000  1
  O  O34  1  0.81042100  0.69677700  0.75000000  1
  O  O35  1  0.31042100  0.80322300  0.75000000  1
  O  O36  1  0.68957900  0.80322300  0.25000000  1
  O  O37  1  0.18957900  0.69677700  0.25000000  1
  O  O38  1  0.00000000  0.58181800  0.50000000  1
  O  O39  1  0.50000000  0.91818200  0.00000000  1
  O  O40  1  0.50000000  0.91818200  0.50000000  1
  O  O41  1  0.00000000  0.58181800  0.00000000  1
  O  O42  1  0.50000000  0.61617000  0.50000000  1
  O  O43  1  0.00000000  0.88383000  0.00000000  1
  O  O44  1  0.33194900  0.50000000  0.25000000  1
  O  O45  1  0.66805100  0.50000000  0.75000000  1
  O  O46  1  0.50000000  0.61617000  0.00000000  1
  O  O47  1  0.00000000  0.88383000  0.50000000  1
