# generated using pymatgen
data_Ho2Ge2Rh
_symmetry_space_group_name_H-M   'P 1'
_cell_length_a   10.49943200
_cell_length_b   4.29309000
_cell_length_c   10.26618499
_cell_angle_alpha   90.00000000
_cell_angle_beta   117.05738754
_cell_angle_gamma   90.00000000
_symmetry_Int_Tables_number   1
_chemical_formula_structural   Ho2Ge2Rh
_chemical_formula_sum   'Ho8 Ge8 Rh4'
_cell_volume   412.10117703
_cell_formula_units_Z   4
loop_
 _symmetry_equiv_pos_site_id
 _symmetry_equiv_pos_as_xyz
  1  'x, y, z'
loop_
 _atom_site_type_symbol
 _atom_site_label
 _atom_site_symmetry_multiplicity
 _atom_site_fract_x
 _atom_site_fract_y
 _atom_site_fract_z
 _atom_site_occupancy
  Ho  Ho0  1  0.81252600  0.00000000  0.88407400  1
  Ho  Ho1  1  0.18747400  0.00000000  0.11592600  1
  Ho  Ho2  1  0.49242000  0.50000000  0.66985500  1
  Ho  Ho3  1  0.50758000  0.50000000  0.33014500  1
  Ho  Ho4  1  0.31252600  0.50000000  0.88407400  1
  Ho  Ho5  1  0.68747400  0.50000000  0.11592600  1
  Ho  Ho6  1  0.99242000  0.00000000  0.66985500  1
  Ho  Ho7  1  0.00758000  0.00000000  0.33014500  1
  Ge  Ge8  1  0.52189100  0.00000000  0.88377500  1
  Ge  Ge9  1  0.47810900  0.00000000  0.11622500  1
  Ge  Ge10  1  0.64335900  0.00000000  0.55800900  1
  Ge  Ge11  1  0.35664100  0.00000000  0.44199100  1
  Ge  Ge12  1  0.02189100  0.50000000  0.88377500  1
  Ge  Ge13  1  0.97810900  0.50000000  0.11622500  1
  Ge  Ge14  1  0.14335900  0.50000000  0.55800900  1
  Ge  Ge15  1  0.85664100  0.50000000  0.44199100  1
  Rh  Rh16  1  0.77354000  0.50000000  0.65721800  1
  Rh  Rh17  1  0.22646000  0.50000000  0.34278200  1
  Rh  Rh18  1  0.27354000  0.00000000  0.65721800  1
  Rh  Rh19  1  0.72646000  0.00000000  0.34278200  1
