# generated using pymatgen
data_Dy2Al6Si4Au
_symmetry_space_group_name_H-M   'P 1'
_cell_length_a   4.20827812
_cell_length_b   4.20827812
_cell_length_c   50.34441119
_cell_angle_alpha   90.00000000
_cell_angle_beta   90.00000000
_cell_angle_gamma   120.00000000
_symmetry_Int_Tables_number   1
_chemical_formula_structural   Dy2Al6Si4Au
_chemical_formula_sum   'Dy6 Al18 Si12 Au3'
_cell_volume   772.13060449
_cell_formula_units_Z   3
loop_
 _symmetry_equiv_pos_site_id
 _symmetry_equiv_pos_as_xyz
  1  'x, y, z'
loop_
 _atom_site_type_symbol
 _atom_site_label
 _atom_site_symmetry_multiplicity
 _atom_site_fract_x
 _atom_site_fract_y
 _atom_site_fract_z
 _atom_site_occupancy
  Dy  Dy0  1  0.33333333  0.66666667  0.10120067  1
  Dy  Dy1  1  0.33333333  0.66666667  0.23213267  1
  Dy  Dy2  1  0.00000000  0.00000000  0.43453400  1
  Dy  Dy3  1  0.00000000  0.00000000  0.56546600  1
  Dy  Dy4  1  0.66666667  0.33333333  0.76786733  1
  Dy  Dy5  1  0.66666667  0.33333333  0.89879933  1
  Al  Al6  1  0.66666667  0.33333333  0.14785333  1
  Al  Al7  1  0.00000000  0.00000000  0.18548000  1
  Al  Al8  1  0.00000000  0.00000000  0.05227900  1
  Al  Al9  1  0.00000000  0.00000000  0.31684900  1
  Al  Al10  1  0.66666667  0.33333333  0.01648433  1
  Al  Al11  1  0.66666667  0.33333333  0.28105433  1
  Al  Al12  1  0.33333333  0.66666667  0.48118667  1
  Al  Al13  1  0.66666667  0.33333333  0.51881333  1
  Al  Al14  1  0.66666667  0.33333333  0.38561233  1
  Al  Al15  1  0.66666667  0.33333333  0.65018233  1
  Al  Al16  1  0.33333333  0.66666667  0.34981767  1
  Al  Al17  1  0.33333333  0.66666667  0.61438767  1
  Al  Al18  1  0.00000000  0.00000000  0.81452000  1
  Al  Al19  1  0.33333333  0.66666667  0.85214667  1
  Al  Al20  1  0.33333333  0.66666667  0.71894567  1
  Al  Al21  1  0.33333333  0.66666667  0.98351567  1
  Al  Al22  1  0.00000000  0.00000000  0.68315100  1
  Al  Al23  1  0.00000000  0.00000000  0.94772100  1
  Si  Si24  1  0.66666667  0.33333333  0.06766233  1
  Si  Si25  1  0.66666667  0.33333333  0.19820833  1
  Si  Si26  1  0.00000000  0.00000000  0.13512500  1
  Si  Si27  1  0.00000000  0.00000000  0.26567100  1
  Si  Si28  1  0.33333333  0.66666667  0.40099567  1
  Si  Si29  1  0.33333333  0.66666667  0.53154167  1
  Si  Si30  1  0.66666667  0.33333333  0.46845833  1
  Si  Si31  1  0.66666667  0.33333333  0.59900433  1
  Si  Si32  1  0.00000000  0.00000000  0.73432900  1
  Si  Si33  1  0.00000000  0.00000000  0.86487500  1
  Si  Si34  1  0.33333333  0.66666667  0.80179167  1
  Si  Si35  1  0.33333333  0.66666667  0.93233767  1
  Au  Au36  1  0.00000000  0.00000000  0.00000000  1
  Au  Au37  1  0.66666667  0.33333333  0.33333333  1
  Au  Au38  1  0.33333333  0.66666667  0.66666667  1
