# generated using pymatgen
data_Ce2Al2Co15
_symmetry_space_group_name_H-M   'P 1'
_cell_length_a   8.34253916
_cell_length_b   8.34253916
_cell_length_c   12.30284460
_cell_angle_alpha   90.00000000
_cell_angle_beta   90.00000000
_cell_angle_gamma   120.00000000
_symmetry_Int_Tables_number   1
_chemical_formula_structural   Ce2Al2Co15
_chemical_formula_sum   'Ce6 Al6 Co45'
_cell_volume   741.53674759
_cell_formula_units_Z   3
loop_
 _symmetry_equiv_pos_site_id
 _symmetry_equiv_pos_as_xyz
  1  'x, y, z'
loop_
 _atom_site_type_symbol
 _atom_site_label
 _atom_site_symmetry_multiplicity
 _atom_site_fract_x
 _atom_site_fract_y
 _atom_site_fract_z
 _atom_site_occupancy
  Ce  Ce0  1  0.66666667  0.33333333  0.68761633  1
  Ce  Ce1  1  0.66666667  0.33333333  0.97905033  1
  Ce  Ce2  1  0.33333333  0.66666667  0.02094967  1
  Ce  Ce3  1  0.33333333  0.66666667  0.31238367  1
  Ce  Ce4  1  0.00000000  0.00000000  0.35428300  1
  Ce  Ce5  1  0.00000000  0.00000000  0.64571700  1
  Al  Al6  1  0.66666667  0.33333333  0.43888233  1
  Al  Al7  1  0.66666667  0.33333333  0.22778433  1
  Al  Al8  1  0.33333333  0.66666667  0.77221567  1
  Al  Al9  1  0.33333333  0.66666667  0.56111767  1
  Al  Al10  1  0.00000000  0.00000000  0.10554900  1
  Al  Al11  1  0.00000000  0.00000000  0.89445100  1
  Co  Co12  1  0.00000000  0.28594700  0.00000000  1
  Co  Co13  1  0.49929167  0.99858333  0.85189933  1
  Co  Co14  1  0.83333333  0.66666667  0.16666667  1
  Co  Co15  1  0.66666667  0.83333333  0.83333333  1
  Co  Co16  1  0.16666667  0.83333333  0.83333333  1
  Co  Co17  1  0.61928033  0.66666667  0.66666667  1
  Co  Co18  1  0.71405300  0.71405300  0.00000000  1
  Co  Co19  1  0.00000000  0.71405300  0.00000000  1
  Co  Co20  1  0.04738633  0.66666667  0.66666667  1
  Co  Co21  1  0.00141667  0.50070833  0.85189933  1
  Co  Co22  1  0.28594700  0.28594700  0.00000000  1
  Co  Co23  1  0.83404167  0.16595833  0.81476733  1
  Co  Co24  1  0.83404167  0.66808333  0.81476733  1
  Co  Co25  1  0.33191667  0.16595833  0.81476733  1
  Co  Co26  1  0.49929167  0.50070833  0.85189933  1
  Co  Co27  1  0.66666667  0.61928033  0.33333333  1
  Co  Co28  1  0.16595833  0.33191667  0.18523267  1
  Co  Co29  1  0.50000000  0.00000000  0.50000000  1
  Co  Co30  1  0.33333333  0.16666667  0.16666667  1
  Co  Co31  1  0.83333333  0.16666667  0.16666667  1
  Co  Co32  1  0.28594700  0.00000000  0.00000000  1
  Co  Co33  1  0.38071967  0.04738633  0.33333333  1
  Co  Co34  1  0.66666667  0.04738633  0.33333333  1
  Co  Co35  1  0.71405300  0.00000000  0.00000000  1
  Co  Co36  1  0.66808333  0.83404167  0.18523267  1
  Co  Co37  1  0.95261367  0.61928033  0.33333333  1
  Co  Co38  1  0.50070833  0.49929167  0.14810067  1
  Co  Co39  1  0.50070833  0.00141667  0.14810067  1
  Co  Co40  1  0.99858333  0.49929167  0.14810067  1
  Co  Co41  1  0.16595833  0.83404167  0.18523267  1
  Co  Co42  1  0.33333333  0.95261367  0.66666667  1
  Co  Co43  1  0.83262500  0.66525000  0.51856600  1
  Co  Co44  1  0.16666667  0.33333333  0.83333333  1
  Co  Co45  1  0.00000000  0.50000000  0.50000000  1
  Co  Co46  1  0.50000000  0.50000000  0.50000000  1
  Co  Co47  1  0.95261367  0.33333333  0.33333333  1
  Co  Co48  1  0.04738633  0.38071967  0.66666667  1
  Co  Co49  1  0.33333333  0.38071967  0.66666667  1
  Co  Co50  1  0.38071967  0.33333333  0.33333333  1
  Co  Co51  1  0.33475000  0.16737500  0.51856600  1
  Co  Co52  1  0.61928033  0.95261367  0.66666667  1
  Co  Co53  1  0.16737500  0.83262500  0.48143400  1
  Co  Co54  1  0.16737500  0.33475000  0.48143400  1
  Co  Co55  1  0.66525000  0.83262500  0.48143400  1
  Co  Co56  1  0.83262500  0.16737500  0.51856600  1
