# generated using pymatgen
data_TbAl7Au3
_symmetry_space_group_name_H-M   'P 1'
_cell_length_a   8.10874645
_cell_length_b   8.10874645
_cell_length_c   21.15627300
_cell_angle_alpha   90.00000000
_cell_angle_beta   90.00000000
_cell_angle_gamma   120.00000000
_symmetry_Int_Tables_number   1
_chemical_formula_structural   TbAl7Au3
_chemical_formula_sum   'Tb6 Al42 Au18'
_cell_volume   1204.69535404
_cell_formula_units_Z   6
loop_
 _symmetry_equiv_pos_site_id
 _symmetry_equiv_pos_as_xyz
  1  'x, y, z'
loop_
 _atom_site_type_symbol
 _atom_site_label
 _atom_site_symmetry_multiplicity
 _atom_site_fract_x
 _atom_site_fract_y
 _atom_site_fract_z
 _atom_site_occupancy
  Tb  Tb0  1  0.00000000  0.00000000  0.00000000  1
  Tb  Tb1  1  0.33333333  0.66666667  0.16666667  1
  Tb  Tb2  1  0.66666667  0.33333333  0.33333333  1
  Tb  Tb3  1  0.00000000  0.00000000  0.50000000  1
  Tb  Tb4  1  0.33333333  0.66666667  0.66666667  1
  Tb  Tb5  1  0.66666667  0.33333333  0.83333333  1
  Al  Al6  1  0.65614400  0.52922000  0.19661400  1
  Al  Al7  1  0.87307600  0.34385600  0.19661400  1
  Al  Al8  1  0.47078000  0.12692400  0.19661400  1
  Al  Al9  1  0.52922000  0.65614400  0.30338600  1
  Al  Al10  1  0.12692400  0.47078000  0.30338600  1
  Al  Al11  1  0.34385600  0.87307600  0.30338600  1
  Al  Al12  1  0.01052267  0.80411333  0.13671933  1
  Al  Al13  1  0.79359067  0.98947733  0.13671933  1
  Al  Al14  1  0.00000000  0.00000000  0.25000000  1
  Al  Al15  1  0.66666667  0.33333333  0.08333333  1
  Al  Al16  1  0.32281067  0.46025733  0.02994733  1
  Al  Al17  1  0.53974267  0.86255333  0.02994733  1
  Al  Al18  1  0.13744667  0.67718933  0.02994733  1
  Al  Al19  1  0.19588667  0.20640933  0.13671933  1
  Al  Al20  1  0.32281067  0.86255333  0.52994733  1
  Al  Al21  1  0.53974267  0.67718933  0.52994733  1
  Al  Al22  1  0.13744667  0.46025733  0.52994733  1
  Al  Al23  1  0.19588667  0.98947733  0.63671933  1
  Al  Al24  1  0.79359067  0.80411333  0.63671933  1
  Al  Al25  1  0.01052267  0.20640933  0.63671933  1
  Al  Al26  1  0.67718933  0.13744667  0.47005267  1
  Al  Al27  1  0.46025733  0.32281067  0.47005267  1
  Al  Al28  1  0.66666667  0.33333333  0.58333333  1
  Al  Al29  1  0.33333333  0.66666667  0.41666667  1
  Al  Al30  1  0.98947733  0.79359067  0.36328067  1
  Al  Al31  1  0.20640933  0.19588667  0.36328067  1
  Al  Al32  1  0.80411333  0.01052267  0.36328067  1
  Al  Al33  1  0.86255333  0.53974267  0.47005267  1
  Al  Al34  1  0.98947733  0.19588667  0.86328067  1
  Al  Al35  1  0.20640933  0.01052267  0.86328067  1
  Al  Al36  1  0.80411333  0.79359067  0.86328067  1
  Al  Al37  1  0.86255333  0.32281067  0.97005267  1
  Al  Al38  1  0.46025733  0.13744667  0.97005267  1
  Al  Al39  1  0.67718933  0.53974267  0.97005267  1
  Al  Al40  1  0.34385600  0.47078000  0.80338600  1
  Al  Al41  1  0.12692400  0.65614400  0.80338600  1
  Al  Al42  1  0.33333333  0.66666667  0.91666667  1
  Al  Al43  1  0.00000000  0.00000000  0.75000000  1
  Al  Al44  1  0.65614400  0.12692400  0.69661400  1
  Al  Al45  1  0.87307600  0.52922000  0.69661400  1
  Al  Al46  1  0.47078000  0.34385600  0.69661400  1
  Al  Al47  1  0.52922000  0.87307600  0.80338600  1
  Au  Au48  1  0.34327867  0.00994533  0.08333333  1
  Au  Au49  1  0.66666667  0.65672133  0.08333333  1
  Au  Au50  1  0.99005467  0.33333333  0.08333333  1
  Au  Au51  1  0.32338800  0.32338800  0.25000000  1
  Au  Au52  1  0.00000000  0.67661200  0.25000000  1
  Au  Au53  1  0.67661200  1.00000000  0.25000000  1
  Au  Au54  1  0.00994533  0.34327867  0.41666667  1
  Au  Au55  1  0.33333333  0.99005467  0.41666667  1
  Au  Au56  1  0.65672133  0.66666667  0.41666667  1
  Au  Au57  1  0.99005467  0.65672133  0.58333333  1
  Au  Au58  1  0.66666667  0.00994533  0.58333333  1
  Au  Au59  1  0.34327867  0.33333333  0.58333333  1
  Au  Au60  1  0.67661200  0.67661200  0.75000000  1
  Au  Au61  1  0.00000000  0.32338800  0.75000000  1
  Au  Au62  1  0.32338800  0.00000000  0.75000000  1
  Au  Au63  1  0.65672133  0.99005467  0.91666667  1
  Au  Au64  1  0.33333333  0.34327867  0.91666667  1
  Au  Au65  1  0.00994533  0.66666667  0.91666667  1
