# generated using pymatgen
data_SmAl7Au3
_symmetry_space_group_name_H-M   'P 1'
_cell_length_a   8.13763403
_cell_length_b   8.13763403
_cell_length_c   21.21476624
_cell_angle_alpha   90.00000000
_cell_angle_beta   90.00000000
_cell_angle_gamma   120.00000000
_symmetry_Int_Tables_number   1
_chemical_formula_structural   SmAl7Au3
_chemical_formula_sum   'Sm6 Al42 Au18'
_cell_volume   1216.64868664
_cell_formula_units_Z   6
loop_
 _symmetry_equiv_pos_site_id
 _symmetry_equiv_pos_as_xyz
  1  'x, y, z'
loop_
 _atom_site_type_symbol
 _atom_site_label
 _atom_site_symmetry_multiplicity
 _atom_site_fract_x
 _atom_site_fract_y
 _atom_site_fract_z
 _atom_site_occupancy
  Sm  Sm0  1  0.00000000  0.00000000  0.00000000  1
  Sm  Sm1  1  0.33333333  0.66666667  0.16666667  1
  Sm  Sm2  1  0.66666667  0.33333333  0.33333333  1
  Sm  Sm3  1  0.00000000  0.00000000  0.50000000  1
  Sm  Sm4  1  0.33333333  0.66666667  0.66666667  1
  Sm  Sm5  1  0.66666667  0.33333333  0.83333333  1
  Al  Al6  1  0.47118500  0.12725700  0.19666700  1
  Al  Al7  1  0.65607200  0.52881500  0.19666700  1
  Al  Al8  1  0.87274300  0.34392800  0.19666700  1
  Al  Al9  1  0.34392800  0.87274300  0.30333300  1
  Al  Al10  1  0.52881500  0.65607200  0.30333300  1
  Al  Al11  1  0.12725700  0.47118500  0.30333300  1
  Al  Al12  1  0.19548167  0.20607633  0.13666633  1
  Al  Al13  1  0.01059467  0.80451833  0.13666633  1
  Al  Al14  1  0.00000000  0.00000000  0.25000000  1
  Al  Al15  1  0.66666667  0.33333333  0.08333333  1
  Al  Al16  1  0.53940967  0.86214833  0.03000033  1
  Al  Al17  1  0.13785167  0.67726133  0.03000033  1
  Al  Al18  1  0.32273867  0.46059033  0.03000033  1
  Al  Al19  1  0.79392367  0.98940533  0.13666633  1
  Al  Al20  1  0.13785167  0.46059033  0.53000033  1
  Al  Al21  1  0.32273867  0.86214833  0.53000033  1
  Al  Al22  1  0.53940967  0.67726133  0.53000033  1
  Al  Al23  1  0.01059467  0.20607633  0.63666633  1
  Al  Al24  1  0.19548167  0.98940533  0.63666633  1
  Al  Al25  1  0.79392367  0.80451833  0.63666633  1
  Al  Al26  1  0.86214833  0.53940967  0.46999967  1
  Al  Al27  1  0.67726133  0.13785167  0.46999967  1
  Al  Al28  1  0.66666667  0.33333333  0.58333333  1
  Al  Al29  1  0.33333333  0.66666667  0.41666667  1
  Al  Al30  1  0.20607633  0.19548167  0.36333367  1
  Al  Al31  1  0.80451833  0.01059467  0.36333367  1
  Al  Al32  1  0.98940533  0.79392367  0.36333367  1
  Al  Al33  1  0.46059033  0.32273867  0.46999967  1
  Al  Al34  1  0.80451833  0.79392367  0.86333367  1
  Al  Al35  1  0.98940533  0.19548167  0.86333367  1
  Al  Al36  1  0.20607633  0.01059467  0.86333367  1
  Al  Al37  1  0.67726133  0.53940967  0.96999967  1
  Al  Al38  1  0.86214833  0.32273867  0.96999967  1
  Al  Al39  1  0.46059033  0.13785167  0.96999967  1
  Al  Al40  1  0.52881500  0.87274300  0.80333300  1
  Al  Al41  1  0.34392800  0.47118500  0.80333300  1
  Al  Al42  1  0.33333333  0.66666667  0.91666667  1
  Al  Al43  1  0.00000000  0.00000000  0.75000000  1
  Al  Al44  1  0.87274300  0.52881500  0.69666700  1
  Al  Al45  1  0.47118500  0.34392800  0.69666700  1
  Al  Al46  1  0.65607200  0.12725700  0.69666700  1
  Al  Al47  1  0.12725700  0.65607200  0.80333300  1
  Au  Au48  1  0.98866767  0.33333333  0.08333333  1
  Au  Au49  1  0.34466567  0.01133233  0.08333333  1
  Au  Au50  1  0.66666667  0.65533433  0.08333333  1
  Au  Au51  1  0.67799900  0.00000000  0.25000000  1
  Au  Au52  1  0.32200100  0.32200100  0.25000000  1
  Au  Au53  1  0.00000000  0.67799900  0.25000000  1
  Au  Au54  1  0.65533433  0.66666667  0.41666667  1
  Au  Au55  1  0.01133233  0.34466567  0.41666667  1
  Au  Au56  1  0.33333333  0.98866767  0.41666667  1
  Au  Au57  1  0.34466567  0.33333333  0.58333333  1
  Au  Au58  1  0.98866767  0.65533433  0.58333333  1
  Au  Au59  1  0.66666667  0.01133233  0.58333333  1
  Au  Au60  1  0.32200100  0.00000000  0.75000000  1
  Au  Au61  1  0.67799900  0.67799900  0.75000000  1
  Au  Au62  1  0.00000000  0.32200100  0.75000000  1
  Au  Au63  1  0.01133233  0.66666667  0.91666667  1
  Au  Au64  1  0.65533433  0.98866767  0.91666667  1
  Au  Au65  1  0.33333333  0.34466567  0.91666667  1
