# generated using pymatgen
data_Ag2Te2O7
_symmetry_space_group_name_H-M   'P 1'
_cell_length_a   7.41682200
_cell_length_b   7.68934400
_cell_length_c   10.38845600
_cell_angle_alpha   90.00000000
_cell_angle_beta   90.00000000
_cell_angle_gamma   90.00000000
_symmetry_Int_Tables_number   1
_chemical_formula_structural   Ag2Te2O7
_chemical_formula_sum   'Ag8 Te8 O28'
_cell_volume   592.45879570
_cell_formula_units_Z   4
loop_
 _symmetry_equiv_pos_site_id
 _symmetry_equiv_pos_as_xyz
  1  'x, y, z'
loop_
 _atom_site_type_symbol
 _atom_site_label
 _atom_site_symmetry_multiplicity
 _atom_site_fract_x
 _atom_site_fract_y
 _atom_site_fract_z
 _atom_site_occupancy
  Ag  Ag0  1  0.50000000  0.00000000  0.00000000  1
  Ag  Ag1  1  0.50000000  0.00000000  0.50000000  1
  Ag  Ag2  1  0.25000000  0.25000000  0.25000000  1
  Ag  Ag3  1  0.75000000  0.25000000  0.25000000  1
  Ag  Ag4  1  0.00000000  0.50000000  0.50000000  1
  Ag  Ag5  1  0.00000000  0.50000000  0.00000000  1
  Ag  Ag6  1  0.75000000  0.75000000  0.75000000  1
  Ag  Ag7  1  0.25000000  0.75000000  0.75000000  1
  Te  Te8  1  0.00000000  0.00000000  0.50000000  1
  Te  Te9  1  0.00000000  0.00000000  0.00000000  1
  Te  Te10  1  0.25000000  0.75000000  0.25000000  1
  Te  Te11  1  0.75000000  0.75000000  0.25000000  1
  Te  Te12  1  0.50000000  0.50000000  0.00000000  1
  Te  Te13  1  0.50000000  0.50000000  0.50000000  1
  Te  Te14  1  0.75000000  0.25000000  0.75000000  1
  Te  Te15  1  0.25000000  0.25000000  0.75000000  1
  O  O16  1  0.79593150  0.07112150  0.61968150  1
  O  O17  1  0.79593150  0.92887850  0.38031850  1
  O  O18  1  0.20406850  0.07112150  0.88031850  1
  O  O19  1  0.20406850  0.92887850  0.11968150  1
  O  O20  1  0.20406850  0.92887850  0.38031850  1
  O  O21  1  0.20406850  0.07112150  0.61968150  1
  O  O22  1  0.79593150  0.92887850  0.11968150  1
  O  O23  1  0.79593150  0.07112150  0.88031850  1
  O  O24  1  0.50000000  0.15910700  0.75000000  1
  O  O25  1  0.50000000  0.84089300  0.25000000  1
  O  O26  1  0.00000000  0.21938700  0.41421700  1
  O  O27  1  0.00000000  0.78061300  0.58578300  1
  O  O28  1  0.50000000  0.71938700  0.58578300  1
  O  O29  1  0.50000000  0.28061300  0.41421700  1
  O  O30  1  0.29593150  0.57112150  0.11968150  1
  O  O31  1  0.29593150  0.42887850  0.88031850  1
  O  O32  1  0.70406850  0.57112150  0.38031850  1
  O  O33  1  0.70406850  0.42887850  0.61968150  1
  O  O34  1  0.70406850  0.42887850  0.88031850  1
  O  O35  1  0.70406850  0.57112150  0.11968150  1
  O  O36  1  0.29593150  0.42887850  0.61968150  1
  O  O37  1  0.29593150  0.57112150  0.38031850  1
  O  O38  1  0.00000000  0.65910700  0.25000000  1
  O  O39  1  0.00000000  0.34089300  0.75000000  1
  O  O40  1  0.50000000  0.71938700  0.91421700  1
  O  O41  1  0.50000000  0.28061300  0.08578300  1
  O  O42  1  0.00000000  0.21938700  0.08578300  1
  O  O43  1  0.00000000  0.78061300  0.91421700  1
