# generated using pymatgen
data_Gd2AgRh
_symmetry_space_group_name_H-M   'P 1'
_cell_length_a   7.13383800
_cell_length_b   7.13383800
_cell_length_c   7.13383800
_cell_angle_alpha   90.00000000
_cell_angle_beta   90.00000000
_cell_angle_gamma   90.00000000
_symmetry_Int_Tables_number   1
_chemical_formula_structural   Gd2AgRh
_chemical_formula_sum   'Gd8 Ag4 Rh4'
_cell_volume   363.05274820
_cell_formula_units_Z   4
loop_
 _symmetry_equiv_pos_site_id
 _symmetry_equiv_pos_as_xyz
  1  'x, y, z'
loop_
 _atom_site_type_symbol
 _atom_site_label
 _atom_site_symmetry_multiplicity
 _atom_site_fract_x
 _atom_site_fract_y
 _atom_site_fract_z
 _atom_site_occupancy
  Gd  Gd0  1  0.25000000  0.75000000  0.75000000  1
  Gd  Gd1  1  0.25000000  0.25000000  0.75000000  1
  Gd  Gd2  1  0.25000000  0.25000000  0.25000000  1
  Gd  Gd3  1  0.25000000  0.75000000  0.25000000  1
  Gd  Gd4  1  0.75000000  0.75000000  0.25000000  1
  Gd  Gd5  1  0.75000000  0.25000000  0.25000000  1
  Gd  Gd6  1  0.75000000  0.25000000  0.75000000  1
  Gd  Gd7  1  0.75000000  0.75000000  0.75000000  1
  Ag  Ag8  1  0.50000000  0.00000000  0.00000000  1
  Ag  Ag9  1  0.50000000  0.50000000  0.50000000  1
  Ag  Ag10  1  0.00000000  0.00000000  0.50000000  1
  Ag  Ag11  1  0.00000000  0.50000000  0.00000000  1
  Rh  Rh12  1  0.00000000  0.00000000  0.00000000  1
  Rh  Rh13  1  0.00000000  0.50000000  0.50000000  1
  Rh  Rh14  1  0.50000000  0.00000000  0.50000000  1
  Rh  Rh15  1  0.50000000  0.50000000  0.00000000  1
