# generated using pymatgen
data_Ba4Ir3O10
_symmetry_space_group_name_H-M   'P 1'
_cell_length_a   5.83852000
_cell_length_b   13.40738000
_cell_length_c   13.51752300
_cell_angle_alpha   90.00000000
_cell_angle_beta   90.00000000
_cell_angle_gamma   90.00000000
_symmetry_Int_Tables_number   1
_chemical_formula_structural   Ba4Ir3O10
_chemical_formula_sum   'Ba16 Ir12 O40'
_cell_volume   1058.14164716
_cell_formula_units_Z   4
loop_
 _symmetry_equiv_pos_site_id
 _symmetry_equiv_pos_as_xyz
  1  'x, y, z'
loop_
 _atom_site_type_symbol
 _atom_site_label
 _atom_site_symmetry_multiplicity
 _atom_site_fract_x
 _atom_site_fract_y
 _atom_site_fract_z
 _atom_site_occupancy
  Ba  Ba0  1  0.50000000  0.75730200  0.37918400  1
  Ba  Ba1  1  0.00000000  0.74269800  0.62081600  1
  Ba  Ba2  1  0.50000000  0.74269800  0.87918400  1
  Ba  Ba3  1  0.00000000  0.75730200  0.12081600  1
  Ba  Ba4  1  0.00000000  0.96067300  0.36033000  1
  Ba  Ba5  1  0.50000000  0.53932700  0.63967000  1
  Ba  Ba6  1  0.50000000  0.96067300  0.13967000  1
  Ba  Ba7  1  0.00000000  0.53932700  0.86033000  1
  Ba  Ba8  1  0.00000000  0.25730200  0.37918400  1
  Ba  Ba9  1  0.50000000  0.24269800  0.62081600  1
  Ba  Ba10  1  0.00000000  0.24269800  0.87918400  1
  Ba  Ba11  1  0.50000000  0.25730200  0.12081600  1
  Ba  Ba12  1  0.50000000  0.46067300  0.36033000  1
  Ba  Ba13  1  0.00000000  0.03932700  0.63967000  1
  Ba  Ba14  1  0.00000000  0.46067300  0.13967000  1
  Ba  Ba15  1  0.50000000  0.03932700  0.86033000  1
  Ir  Ir16  1  0.00000000  0.50000000  0.50000000  1
  Ir  Ir17  1  0.50000000  0.50000000  0.00000000  1
  Ir  Ir18  1  0.00000000  0.62046200  0.35044700  1
  Ir  Ir19  1  0.50000000  0.87953800  0.64955300  1
  Ir  Ir20  1  0.00000000  0.87953800  0.85044700  1
  Ir  Ir21  1  0.50000000  0.62046200  0.14955300  1
  Ir  Ir22  1  0.50000000  0.00000000  0.50000000  1
  Ir  Ir23  1  0.00000000  0.00000000  0.00000000  1
  Ir  Ir24  1  0.50000000  0.12046200  0.35044700  1
  Ir  Ir25  1  0.00000000  0.37953800  0.64955300  1
  Ir  Ir26  1  0.50000000  0.37953800  0.85044700  1
  Ir  Ir27  1  0.00000000  0.12046200  0.14955300  1
  O  O28  1  0.25000000  0.60216300  0.25000000  1
  O  O29  1  0.75000000  0.89783700  0.75000000  1
  O  O30  1  0.25000000  0.89783700  0.75000000  1
  O  O31  1  0.75000000  0.60216300  0.25000000  1
  O  O32  1  0.50000000  0.76855700  0.16447800  1
  O  O33  1  0.00000000  0.73144300  0.83552200  1
  O  O34  1  0.50000000  0.73144300  0.66447800  1
  O  O35  1  0.00000000  0.76855700  0.33552200  1
  O  O36  1  0.77162650  0.88738750  0.96605800  1
  O  O37  1  0.27162650  0.61261250  0.03394200  1
  O  O38  1  0.22837350  0.61261250  0.46605800  1
  O  O39  1  0.72837350  0.88738750  0.53394200  1
  O  O40  1  0.72837350  0.61261250  0.03394200  1
  O  O41  1  0.22837350  0.88738750  0.96605800  1
  O  O42  1  0.50000000  0.95979000  0.35301000  1
  O  O43  1  0.00000000  0.54021000  0.64699000  1
  O  O44  1  0.50000000  0.54021000  0.85301000  1
  O  O45  1  0.00000000  0.95979000  0.14699000  1
  O  O46  1  0.77162650  0.61261250  0.46605800  1
  O  O47  1  0.27162650  0.88738750  0.53394200  1
  O  O48  1  0.75000000  0.10216300  0.25000000  1
  O  O49  1  0.25000000  0.39783700  0.75000000  1
  O  O50  1  0.75000000  0.39783700  0.75000000  1
  O  O51  1  0.25000000  0.10216300  0.25000000  1
  O  O52  1  0.00000000  0.26855700  0.16447800  1
  O  O53  1  0.50000000  0.23144300  0.83552200  1
  O  O54  1  0.00000000  0.23144300  0.66447800  1
  O  O55  1  0.50000000  0.26855700  0.33552200  1
  O  O56  1  0.27162650  0.38738750  0.96605800  1
  O  O57  1  0.77162650  0.11261250  0.03394200  1
  O  O58  1  0.72837350  0.11261250  0.46605800  1
  O  O59  1  0.22837350  0.38738750  0.53394200  1
  O  O60  1  0.22837350  0.11261250  0.03394200  1
  O  O61  1  0.72837350  0.38738750  0.96605800  1
  O  O62  1  0.00000000  0.45979000  0.35301000  1
  O  O63  1  0.50000000  0.04021000  0.64699000  1
  O  O64  1  0.00000000  0.04021000  0.85301000  1
  O  O65  1  0.50000000  0.45979000  0.14699000  1
  O  O66  1  0.27162650  0.11261250  0.46605800  1
  O  O67  1  0.77162650  0.38738750  0.53394200  1
