# generated using pymatgen
data_Fe12As5
_symmetry_space_group_name_H-M   'P 1'
_cell_length_a   6.75400590
_cell_length_b   6.75400590
_cell_length_c   16.18693666
_cell_angle_alpha   90.00000000
_cell_angle_beta   90.00000000
_cell_angle_gamma   120.00000000
_symmetry_Int_Tables_number   1
_chemical_formula_structural   Fe12As5
_chemical_formula_sum   'Fe36 As15'
_cell_volume   639.46704893
_cell_formula_units_Z   3
loop_
 _symmetry_equiv_pos_site_id
 _symmetry_equiv_pos_as_xyz
  1  'x, y, z'
loop_
 _atom_site_type_symbol
 _atom_site_label
 _atom_site_symmetry_multiplicity
 _atom_site_fract_x
 _atom_site_fract_y
 _atom_site_fract_z
 _atom_site_occupancy
  Fe  Fe0  1  0.57019533  0.66666667  0.16666667  1
  Fe  Fe1  1  0.33333333  0.90352867  0.16666667  1
  Fe  Fe2  1  0.09647133  0.42980467  0.16666667  1
  Fe  Fe3  1  0.59947233  0.90972067  0.91462067  1
  Fe  Fe4  1  0.09027933  0.68975167  0.91462067  1
  Fe  Fe5  1  0.33333333  0.66666667  0.04885467  1
  Fe  Fe6  1  0.33333333  0.66666667  0.28447867  1
  Fe  Fe7  1  0.00000000  0.00000000  0.00000000  1
  Fe  Fe8  1  0.35641833  0.42361267  0.41871267  1
  Fe  Fe9  1  0.06719433  0.64358167  0.41871267  1
  Fe  Fe10  1  0.57638733  0.93280567  0.41871267  1
  Fe  Fe11  1  0.31024833  0.40052767  0.91462067  1
  Fe  Fe12  1  0.23686200  0.00000000  0.50000000  1
  Fe  Fe13  1  0.00000000  0.23686200  0.50000000  1
  Fe  Fe14  1  0.76313800  0.76313800  0.50000000  1
  Fe  Fe15  1  0.26613900  0.24305400  0.24795400  1
  Fe  Fe16  1  0.75694600  0.02308500  0.24795400  1
  Fe  Fe17  1  0.00000000  0.00000000  0.38218800  1
  Fe  Fe18  1  1.00000000  0.00000000  0.61781200  1
  Fe  Fe19  1  0.66666667  0.33333333  0.33333333  1
  Fe  Fe20  1  0.02308500  0.75694600  0.75204600  1
  Fe  Fe21  1  0.73386100  0.97691500  0.75204600  1
  Fe  Fe22  1  0.24305400  0.26613900  0.75204600  1
  Fe  Fe23  1  0.97691500  0.73386100  0.24795400  1
  Fe  Fe24  1  0.90352867  0.33333333  0.83333333  1
  Fe  Fe25  1  0.66666667  0.57019533  0.83333333  1
  Fe  Fe26  1  0.42980467  0.09647133  0.83333333  1
  Fe  Fe27  1  0.93280567  0.57638733  0.58128733  1
  Fe  Fe28  1  0.42361267  0.35641833  0.58128733  1
  Fe  Fe29  1  0.66666667  0.33333333  0.71552133  1
  Fe  Fe30  1  0.66666667  0.33333333  0.95114533  1
  Fe  Fe31  1  0.33333333  0.66666667  0.66666667  1
  Fe  Fe32  1  0.68975167  0.09027933  0.08537933  1
  Fe  Fe33  1  0.40052767  0.31024833  0.08537933  1
  Fe  Fe34  1  0.90972067  0.59947233  0.08537933  1
  Fe  Fe35  1  0.64358167  0.06719433  0.58128733  1
  As  As36  1  0.00000000  0.34596700  0.00000000  1
  As  As37  1  0.65403300  0.65403300  0.00000000  1
  As  As38  1  0.01263367  0.33333333  0.33333333  1
  As  As39  1  0.33333333  0.66666667  0.52297267  1
  As  As40  1  0.33333333  0.66666667  0.81036067  1
  As  As41  1  0.66666667  0.67930033  0.33333333  1
  As  As42  1  0.32069967  0.98736633  0.33333333  1
  As  As43  1  0.67930033  0.66666667  0.66666667  1
  As  As44  1  0.00000000  0.00000000  0.85630600  1
  As  As45  1  1.00000000  0.00000000  0.14369400  1
  As  As46  1  0.33333333  0.01263367  0.66666667  1
  As  As47  1  0.98736633  0.32069967  0.66666667  1
  As  As48  1  0.34596700  0.00000000  0.00000000  1
  As  As49  1  0.66666667  0.33333333  0.18963933  1
  As  As50  1  0.66666667  0.33333333  0.47702733  1
