# generated using pymatgen
data_Sm2Fe17
_symmetry_space_group_name_H-M   'P 1'
_cell_length_a   8.52814615
_cell_length_b   8.52814615
_cell_length_c   12.44489910
_cell_angle_alpha   90.00000000
_cell_angle_beta   90.00000000
_cell_angle_gamma   120.00000000
_symmetry_Int_Tables_number   1
_chemical_formula_structural   Sm2Fe17
_chemical_formula_sum   'Sm6 Fe51'
_cell_volume   783.84696328
_cell_formula_units_Z   3
loop_
 _symmetry_equiv_pos_site_id
 _symmetry_equiv_pos_as_xyz
  1  'x, y, z'
loop_
 _atom_site_type_symbol
 _atom_site_label
 _atom_site_symmetry_multiplicity
 _atom_site_fract_x
 _atom_site_fract_y
 _atom_site_fract_z
 _atom_site_occupancy
  Sm  Sm0  1  0.33333333  0.66666667  0.32547667  1
  Sm  Sm1  1  0.33333333  0.66666667  0.00785667  1
  Sm  Sm2  1  0.00000000  0.00000000  0.65881000  1
  Sm  Sm3  1  0.00000000  0.00000000  0.34119000  1
  Sm  Sm4  1  0.66666667  0.33333333  0.99214333  1
  Sm  Sm5  1  0.66666667  0.33333333  0.67452333  1
  Fe  Fe6  1  0.16666667  0.83333333  0.83333333  1
  Fe  Fe7  1  0.83333333  0.66666667  0.16666667  1
  Fe  Fe8  1  0.33333333  0.16666667  0.16666667  1
  Fe  Fe9  1  0.95797367  0.62464033  0.33333333  1
  Fe  Fe10  1  0.70869300  1.00000000  0.00000000  1
  Fe  Fe11  1  0.00000000  0.70869300  0.00000000  1
  Fe  Fe12  1  0.29130700  1.00000000  0.00000000  1
  Fe  Fe13  1  0.00000000  0.29130700  0.00000000  1
  Fe  Fe14  1  0.37535967  0.04202633  0.33333333  1
  Fe  Fe15  1  0.16580933  0.83419067  0.17698067  1
  Fe  Fe16  1  0.16580933  0.33161867  0.17698067  1
  Fe  Fe17  1  0.66838133  0.83419067  0.17698067  1
  Fe  Fe18  1  0.50085733  0.49914267  0.15635267  1
  Fe  Fe19  1  0.50085733  0.00171467  0.15635267  1
  Fe  Fe20  1  0.99828533  0.49914267  0.15635267  1
  Fe  Fe21  1  0.33333333  0.66666667  0.57015467  1
  Fe  Fe22  1  0.33333333  0.66666667  0.76317867  1
  Fe  Fe23  1  0.83333333  0.16666667  0.16666667  1
  Fe  Fe24  1  0.50000000  0.00000000  0.50000000  1
  Fe  Fe25  1  0.00000000  0.50000000  0.50000000  1
  Fe  Fe26  1  0.62464033  0.95797367  0.66666667  1
  Fe  Fe27  1  0.37535967  0.33333333  0.33333333  1
  Fe  Fe28  1  0.66666667  0.04202633  0.33333333  1
  Fe  Fe29  1  0.95797367  0.33333333  0.33333333  1
  Fe  Fe30  1  0.66666667  0.62464033  0.33333333  1
  Fe  Fe31  1  0.04202633  0.37535967  0.66666667  1
  Fe  Fe32  1  0.83247600  0.16752400  0.51031400  1
  Fe  Fe33  1  0.83247600  0.66495200  0.51031400  1
  Fe  Fe34  1  0.33504800  0.16752400  0.51031400  1
  Fe  Fe35  1  0.16752400  0.83247600  0.48968600  1
  Fe  Fe36  1  0.16752400  0.33504800  0.48968600  1
  Fe  Fe37  1  0.66495200  0.83247600  0.48968600  1
  Fe  Fe38  1  0.00000000  0.00000000  0.90348800  1
  Fe  Fe39  1  0.00000000  0.00000000  0.09651200  1
  Fe  Fe40  1  0.50000000  0.50000000  0.50000000  1
  Fe  Fe41  1  0.16666667  0.33333333  0.83333333  1
  Fe  Fe42  1  0.66666667  0.83333333  0.83333333  1
  Fe  Fe43  1  0.29130700  0.29130700  0.00000000  1
  Fe  Fe44  1  0.04202633  0.66666667  0.66666667  1
  Fe  Fe45  1  0.33333333  0.37535967  0.66666667  1
  Fe  Fe46  1  0.62464033  0.66666667  0.66666667  1
  Fe  Fe47  1  0.33333333  0.95797367  0.66666667  1
  Fe  Fe48  1  0.70869300  0.70869300  0.00000000  1
  Fe  Fe49  1  0.49914267  0.50085733  0.84364733  1
  Fe  Fe50  1  0.49914267  0.99828533  0.84364733  1
  Fe  Fe51  1  0.00171467  0.50085733  0.84364733  1
  Fe  Fe52  1  0.83419067  0.16580933  0.82301933  1
  Fe  Fe53  1  0.83419067  0.66838133  0.82301933  1
  Fe  Fe54  1  0.33161867  0.16580933  0.82301933  1
  Fe  Fe55  1  0.66666667  0.33333333  0.23682133  1
  Fe  Fe56  1  0.66666667  0.33333333  0.42984533  1
