# generated using pymatgen
data_Sc2Cr4Si5
_symmetry_space_group_name_H-M   'P 1'
_cell_length_a   4.89786200
_cell_length_b   7.56052600
_cell_length_c   16.12974800
_cell_angle_alpha   90.00000000
_cell_angle_beta   90.00000000
_cell_angle_gamma   90.00000000
_symmetry_Int_Tables_number   1
_chemical_formula_structural   Sc2Cr4Si5
_chemical_formula_sum   'Sc8 Cr16 Si20'
_cell_volume   597.29122995
_cell_formula_units_Z   4
loop_
 _symmetry_equiv_pos_site_id
 _symmetry_equiv_pos_as_xyz
  1  'x, y, z'
loop_
 _atom_site_type_symbol
 _atom_site_label
 _atom_site_symmetry_multiplicity
 _atom_site_fract_x
 _atom_site_fract_y
 _atom_site_fract_z
 _atom_site_occupancy
  Sc  Sc0  1  0.50000000  0.88072700  0.14213100  1
  Sc  Sc1  1  0.00000000  0.11927300  0.14213100  1
  Sc  Sc2  1  0.50000000  0.38072700  0.35786900  1
  Sc  Sc3  1  0.00000000  0.61927300  0.35786900  1
  Sc  Sc4  1  0.00000000  0.38072700  0.64213100  1
  Sc  Sc5  1  0.50000000  0.61927300  0.64213100  1
  Sc  Sc6  1  0.00000000  0.88072700  0.85786900  1
  Sc  Sc7  1  0.50000000  0.11927300  0.85786900  1
  Cr  Cr8  1  0.25000000  0.50000000  0.19060700  1
  Cr  Cr9  1  0.75000000  0.50000000  0.19060700  1
  Cr  Cr10  1  0.25000000  0.00000000  0.30939300  1
  Cr  Cr11  1  0.50000000  0.75429400  0.43807600  1
  Cr  Cr12  1  0.00000000  0.74570600  0.06192400  1
  Cr  Cr13  1  0.50000000  0.25429400  0.06192400  1
  Cr  Cr14  1  0.00000000  0.24570600  0.43807600  1
  Cr  Cr15  1  0.75000000  0.00000000  0.30939300  1
  Cr  Cr16  1  0.75000000  0.00000000  0.69060700  1
  Cr  Cr17  1  0.25000000  0.00000000  0.69060700  1
  Cr  Cr18  1  0.75000000  0.50000000  0.80939300  1
  Cr  Cr19  1  0.00000000  0.25429400  0.93807600  1
  Cr  Cr20  1  0.50000000  0.24570600  0.56192400  1
  Cr  Cr21  1  0.00000000  0.75429400  0.56192400  1
  Cr  Cr22  1  0.50000000  0.74570600  0.93807600  1
  Cr  Cr23  1  0.25000000  0.50000000  0.80939300  1
  Si  Si24  1  0.75000000  0.00000000  0.00000000  1
  Si  Si25  1  0.00000000  0.29267000  0.28911000  1
  Si  Si26  1  0.50000000  0.20733000  0.21089000  1
  Si  Si27  1  0.00000000  0.79267000  0.21089000  1
  Si  Si28  1  0.25000000  0.00000000  0.00000000  1
  Si  Si29  1  0.50000000  0.57750650  0.06379050  1
  Si  Si30  1  0.00000000  0.92249350  0.43620950  1
  Si  Si31  1  0.50000000  0.07750650  0.43620950  1
  Si  Si32  1  0.00000000  0.42249350  0.06379050  1
  Si  Si33  1  0.50000000  0.70733000  0.28911000  1
  Si  Si34  1  0.25000000  0.50000000  0.50000000  1
  Si  Si35  1  0.50000000  0.79267000  0.78911000  1
  Si  Si36  1  0.00000000  0.70733000  0.71089000  1
  Si  Si37  1  0.50000000  0.29267000  0.71089000  1
  Si  Si38  1  0.75000000  0.50000000  0.50000000  1
  Si  Si39  1  0.00000000  0.07750650  0.56379050  1
  Si  Si40  1  0.50000000  0.42249350  0.93620950  1
  Si  Si41  1  0.00000000  0.57750650  0.93620950  1
  Si  Si42  1  0.50000000  0.92249350  0.56379050  1
  Si  Si43  1  0.00000000  0.20733000  0.78911000  1
