# generated using pymatgen
data_Cu(PO3)2
_symmetry_space_group_name_H-M   'P 1'
_cell_length_a   13.13997600
_cell_length_b   8.12314000
_cell_length_c   9.63970402
_cell_angle_alpha   90.00000000
_cell_angle_beta   118.47248211
_cell_angle_gamma   90.00000000
_symmetry_Int_Tables_number   1
_chemical_formula_structural   Cu(PO3)2
_chemical_formula_sum   'Cu8 P16 O48'
_cell_volume   904.46944684
_cell_formula_units_Z   8
loop_
 _symmetry_equiv_pos_site_id
 _symmetry_equiv_pos_as_xyz
  1  'x, y, z'
loop_
 _atom_site_type_symbol
 _atom_site_label
 _atom_site_symmetry_multiplicity
 _atom_site_fract_x
 _atom_site_fract_y
 _atom_site_fract_z
 _atom_site_occupancy
  Cu  Cu0  1  0.00000000  0.55317700  0.25000000  1
  Cu  Cu1  1  0.50000000  0.94682300  0.75000000  1
  Cu  Cu2  1  0.25000000  0.75000000  0.50000000  1
  Cu  Cu3  1  0.75000000  0.75000000  0.00000000  1
  Cu  Cu4  1  0.50000000  0.05317700  0.25000000  1
  Cu  Cu5  1  0.00000000  0.44682300  0.75000000  1
  Cu  Cu6  1  0.75000000  0.25000000  0.50000000  1
  Cu  Cu7  1  0.25000000  0.25000000  0.00000000  1
  P  P8  1  0.98929950  0.75657850  0.52270900  1
  P  P9  1  0.18367650  0.00389950  0.19313000  1
  P  P10  1  0.51070050  0.74342150  0.47729100  1
  P  P11  1  0.31632350  0.49610050  0.80687000  1
  P  P12  1  0.51070050  0.25657850  0.97729100  1
  P  P13  1  0.31632350  0.50389950  0.30687000  1
  P  P14  1  0.18367650  0.99610050  0.69313000  1
  P  P15  1  0.98929950  0.24342150  0.02270900  1
  P  P16  1  0.48929950  0.25657850  0.52270900  1
  P  P17  1  0.68367650  0.50389950  0.19313000  1
  P  P18  1  0.01070050  0.24342150  0.47729100  1
  P  P19  1  0.81632350  0.99610050  0.80687000  1
  P  P20  1  0.01070050  0.75657850  0.97729100  1
  P  P21  1  0.81632350  0.00389950  0.30687000  1
  P  P22  1  0.68367650  0.49610050  0.69313000  1
  P  P23  1  0.48929950  0.74342150  0.02270900  1
  O  O24  1  0.22499150  0.59072350  0.33285200  1
  O  O25  1  0.03568450  0.73138150  0.40718800  1
  O  O26  1  0.41963950  0.63000750  0.33498900  1
  O  O27  1  0.96431550  0.73138150  0.09281200  1
  O  O28  1  0.54300200  0.11261300  0.91129200  1
  O  O29  1  0.41963950  0.36999250  0.83498900  1
  O  O30  1  0.12387150  0.87176650  0.05284100  1
  O  O31  1  0.08036050  0.86999250  0.66501100  1
  O  O32  1  0.72499150  0.90927650  0.83285200  1
  O  O33  1  0.62387150  0.62823350  0.55284100  1
  O  O34  1  0.04300200  0.38738700  0.41129200  1
  O  O35  1  0.87612850  0.87176650  0.44715900  1
  O  O36  1  0.46431550  0.76861850  0.59281200  1
  O  O37  1  0.95699800  0.38738700  0.08870800  1
  O  O38  1  0.53568450  0.76861850  0.90718800  1
  O  O39  1  0.27500850  0.90927650  0.66714800  1
  O  O40  1  0.22456250  0.06916750  0.85222200  1
  O  O41  1  0.37612850  0.62823350  0.94715900  1
  O  O42  1  0.27543750  0.43083250  0.14777800  1
  O  O43  1  0.45699800  0.11261300  0.58870800  1
  O  O44  1  0.27543750  0.56916750  0.64777800  1
  O  O45  1  0.08036050  0.13000750  0.16501100  1
  O  O46  1  0.22456250  0.93083250  0.35222200  1
  O  O47  1  0.77500850  0.59072350  0.16714800  1
  O  O48  1  0.72499150  0.09072350  0.33285200  1
  O  O49  1  0.53568450  0.23138150  0.40718800  1
  O  O50  1  0.91963950  0.13000750  0.33498900  1
  O  O51  1  0.46431550  0.23138150  0.09281200  1
  O  O52  1  0.04300200  0.61261300  0.91129200  1
  O  O53  1  0.91963950  0.86999250  0.83498900  1
  O  O54  1  0.62387150  0.37176650  0.05284100  1
  O  O55  1  0.58036050  0.36999250  0.66501100  1
  O  O56  1  0.22499150  0.40927650  0.83285200  1
  O  O57  1  0.12387150  0.12823350  0.55284100  1
  O  O58  1  0.54300200  0.88738700  0.41129200  1
  O  O59  1  0.37612850  0.37176650  0.44715900  1
  O  O60  1  0.96431550  0.26861850  0.59281200  1
  O  O61  1  0.45699800  0.88738700  0.08870800  1
  O  O62  1  0.03568450  0.26861850  0.90718800  1
  O  O63  1  0.77500850  0.40927650  0.66714800  1
  O  O64  1  0.72456250  0.56916750  0.85222200  1
  O  O65  1  0.87612850  0.12823350  0.94715900  1
  O  O66  1  0.77543750  0.93083250  0.14777800  1
  O  O67  1  0.95699800  0.61261300  0.58870800  1
  O  O68  1  0.77543750  0.06916750  0.64777800  1
  O  O69  1  0.58036050  0.63000750  0.16501100  1
  O  O70  1  0.72456250  0.43083250  0.35222200  1
  O  O71  1  0.27500850  0.09072350  0.16714800  1
