# generated using pymatgen
data_Ho2NiGe6
_symmetry_space_group_name_H-M   'P 1'
_cell_length_a   3.98809000
_cell_length_b   21.43651400
_cell_length_c   4.05492500
_cell_angle_alpha   90.00000000
_cell_angle_beta   90.00000000
_cell_angle_gamma   90.00000000
_symmetry_Int_Tables_number   1
_chemical_formula_structural   Ho2NiGe6
_chemical_formula_sum   'Ho4 Ni2 Ge12'
_cell_volume   346.65856776
_cell_formula_units_Z   2
loop_
 _symmetry_equiv_pos_site_id
 _symmetry_equiv_pos_as_xyz
  1  'x, y, z'
loop_
 _atom_site_type_symbol
 _atom_site_label
 _atom_site_symmetry_multiplicity
 _atom_site_fract_x
 _atom_site_fract_y
 _atom_site_fract_z
 _atom_site_occupancy
  Ho  Ho0  1  0.50000000  0.83884500  0.00000000  1
  Ho  Ho1  1  0.50000000  0.50261500  0.00000000  1
  Ho  Ho2  1  0.00000000  0.33884500  0.00000000  1
  Ho  Ho3  1  0.00000000  0.00261500  0.00000000  1
  Ni  Ni4  1  0.00000000  0.78150700  0.50000000  1
  Ni  Ni5  1  0.50000000  0.28150700  0.50000000  1
  Ge  Ge6  1  0.00000000  0.72441600  0.00000000  1
  Ge  Ge7  1  0.50000000  0.72355500  0.50000000  1
  Ge  Ge8  1  0.50000000  0.60624900  0.50000000  1
  Ge  Ge9  1  0.00000000  0.60759000  0.00000000  1
  Ge  Ge10  1  0.50000000  0.96429500  0.50000000  1
  Ge  Ge11  1  0.00000000  0.88892700  0.50000000  1
  Ge  Ge12  1  0.50000000  0.22441600  0.00000000  1
  Ge  Ge13  1  0.00000000  0.22355500  0.50000000  1
  Ge  Ge14  1  0.00000000  0.10624900  0.50000000  1
  Ge  Ge15  1  0.50000000  0.10759000  0.00000000  1
  Ge  Ge16  1  0.00000000  0.46429500  0.50000000  1
  Ge  Ge17  1  0.50000000  0.38892700  0.50000000  1
