# generated using pymatgen
data_Ti6Ge5
_symmetry_space_group_name_H-M   'P 1'
_cell_length_a   5.23098400
_cell_length_b   7.97429800
_cell_length_c   16.99203400
_cell_angle_alpha   90.00000000
_cell_angle_beta   90.00000000
_cell_angle_gamma   90.00000000
_symmetry_Int_Tables_number   1
_chemical_formula_structural   Ti6Ge5
_chemical_formula_sum   'Ti24 Ge20'
_cell_volume   708.79594009
_cell_formula_units_Z   4
loop_
 _symmetry_equiv_pos_site_id
 _symmetry_equiv_pos_as_xyz
  1  'x, y, z'
loop_
 _atom_site_type_symbol
 _atom_site_label
 _atom_site_symmetry_multiplicity
 _atom_site_fract_x
 _atom_site_fract_y
 _atom_site_fract_z
 _atom_site_occupancy
  Ti  Ti0  1  0.50000000  0.61291300  0.35794000  1
  Ti  Ti1  1  0.00000000  0.88708700  0.14206000  1
  Ti  Ti2  1  0.50000000  0.11291300  0.14206000  1
  Ti  Ti3  1  0.00000000  0.38708700  0.35794000  1
  Ti  Ti4  1  0.50000000  0.74190450  0.06308750  1
  Ti  Ti5  1  0.00000000  0.75809550  0.43691250  1
  Ti  Ti6  1  0.50000000  0.24190450  0.43691250  1
  Ti  Ti7  1  0.00000000  0.25809550  0.06308750  1
  Ti  Ti8  1  0.75000000  0.50000000  0.19147300  1
  Ti  Ti9  1  0.25000000  0.00000000  0.30852700  1
  Ti  Ti10  1  0.75000000  0.00000000  0.30852700  1
  Ti  Ti11  1  0.25000000  0.50000000  0.19147300  1
  Ti  Ti12  1  0.00000000  0.11291300  0.85794000  1
  Ti  Ti13  1  0.50000000  0.38708700  0.64206000  1
  Ti  Ti14  1  0.00000000  0.61291300  0.64206000  1
  Ti  Ti15  1  0.50000000  0.88708700  0.85794000  1
  Ti  Ti16  1  0.00000000  0.24190450  0.56308750  1
  Ti  Ti17  1  0.50000000  0.25809550  0.93691250  1
  Ti  Ti18  1  0.00000000  0.74190450  0.93691250  1
  Ti  Ti19  1  0.50000000  0.75809550  0.56308750  1
  Ti  Ti20  1  0.25000000  0.00000000  0.69147300  1
  Ti  Ti21  1  0.75000000  0.50000000  0.80852700  1
  Ti  Ti22  1  0.25000000  0.50000000  0.80852700  1
  Ti  Ti23  1  0.75000000  0.00000000  0.69147300  1
  Ge  Ge24  1  0.50000000  0.79927800  0.21097500  1
  Ge  Ge25  1  0.00000000  0.70072200  0.28902500  1
  Ge  Ge26  1  0.50000000  0.29927800  0.28902500  1
  Ge  Ge27  1  0.00000000  0.20072200  0.21097500  1
  Ge  Ge28  1  0.50000000  0.90200150  0.43209350  1
  Ge  Ge29  1  0.00000000  0.59799850  0.06790650  1
  Ge  Ge30  1  0.50000000  0.40200150  0.06790650  1
  Ge  Ge31  1  0.00000000  0.09799850  0.43209350  1
  Ge  Ge32  1  0.25000000  0.00000000  0.00000000  1
  Ge  Ge33  1  0.75000000  0.00000000  0.00000000  1
  Ge  Ge34  1  0.00000000  0.29927800  0.71097500  1
  Ge  Ge35  1  0.50000000  0.20072200  0.78902500  1
  Ge  Ge36  1  0.00000000  0.79927800  0.78902500  1
  Ge  Ge37  1  0.50000000  0.70072200  0.71097500  1
  Ge  Ge38  1  0.00000000  0.40200150  0.93209350  1
  Ge  Ge39  1  0.50000000  0.09799850  0.56790650  1
  Ge  Ge40  1  0.00000000  0.90200150  0.56790650  1
  Ge  Ge41  1  0.50000000  0.59799850  0.93209350  1
  Ge  Ge42  1  0.75000000  0.50000000  0.50000000  1
  Ge  Ge43  1  0.25000000  0.50000000  0.50000000  1
