# generated using pymatgen
data_Ce2(SbPd3)3
_symmetry_space_group_name_H-M   'P 1'
_cell_length_a   8.09759200
_cell_length_b   13.94395200
_cell_length_c   9.41288900
_cell_angle_alpha   90.00000000
_cell_angle_beta   90.00000000
_cell_angle_gamma   90.00000000
_symmetry_Int_Tables_number   1
_chemical_formula_structural   Ce2(SbPd3)3
_chemical_formula_sum   'Ce8 Sb12 Pd36'
_cell_volume   1062.83220950
_cell_formula_units_Z   4
loop_
 _symmetry_equiv_pos_site_id
 _symmetry_equiv_pos_as_xyz
  1  'x, y, z'
loop_
 _atom_site_type_symbol
 _atom_site_label
 _atom_site_symmetry_multiplicity
 _atom_site_fract_x
 _atom_site_fract_y
 _atom_site_fract_z
 _atom_site_occupancy
  Ce  Ce0  1  0.17291650  0.15415550  0.75000000  1
  Ce  Ce1  1  0.82708350  0.84584450  0.25000000  1
  Ce  Ce2  1  0.17291650  0.84584450  0.75000000  1
  Ce  Ce3  1  0.82708350  0.15415550  0.25000000  1
  Ce  Ce4  1  0.67291650  0.65415550  0.75000000  1
  Ce  Ce5  1  0.32708350  0.34584450  0.25000000  1
  Ce  Ce6  1  0.67291650  0.34584450  0.75000000  1
  Ce  Ce7  1  0.32708350  0.65415550  0.25000000  1
  Sb  Sb8  1  0.00000000  0.00000000  0.50000000  1
  Sb  Sb9  1  0.50000000  0.17741400  0.00000000  1
  Sb  Sb10  1  0.50000000  0.82258600  0.50000000  1
  Sb  Sb11  1  0.50000000  0.82258600  0.00000000  1
  Sb  Sb12  1  0.00000000  0.00000000  0.00000000  1
  Sb  Sb13  1  0.50000000  0.17741400  0.50000000  1
  Sb  Sb14  1  0.50000000  0.50000000  0.50000000  1
  Sb  Sb15  1  0.00000000  0.67741400  0.00000000  1
  Sb  Sb16  1  0.00000000  0.32258600  0.50000000  1
  Sb  Sb17  1  0.00000000  0.32258600  0.00000000  1
  Sb  Sb18  1  0.50000000  0.50000000  0.00000000  1
  Sb  Sb19  1  0.00000000  0.67741400  0.50000000  1
  Pd  Pd20  1  0.33050800  0.00000000  0.96290500  1
  Pd  Pd21  1  0.53839300  0.90185300  0.75000000  1
  Pd  Pd22  1  0.46160700  0.09814700  0.25000000  1
  Pd  Pd23  1  0.53839300  0.09814700  0.75000000  1
  Pd  Pd24  1  0.17240950  0.82780150  0.08966200  1
  Pd  Pd25  1  0.82759050  0.17219850  0.58966200  1
  Pd  Pd26  1  0.17240950  0.17219850  0.41033800  1
  Pd  Pd27  1  0.82759050  0.82780150  0.91033800  1
  Pd  Pd28  1  0.82759050  0.17219850  0.91033800  1
  Pd  Pd29  1  0.17240950  0.82780150  0.41033800  1
  Pd  Pd30  1  0.82759050  0.82780150  0.58966200  1
  Pd  Pd31  1  0.85242700  0.00000000  0.75000000  1
  Pd  Pd32  1  0.33050800  0.00000000  0.53709500  1
  Pd  Pd33  1  0.66949200  0.00000000  0.03709500  1
  Pd  Pd34  1  0.17240950  0.17219850  0.08966200  1
  Pd  Pd35  1  0.66949200  0.00000000  0.46290500  1
  Pd  Pd36  1  0.14757300  0.00000000  0.25000000  1
  Pd  Pd37  1  0.46160700  0.90185300  0.25000000  1
  Pd  Pd38  1  0.83050800  0.50000000  0.96290500  1
  Pd  Pd39  1  0.03839300  0.40185300  0.75000000  1
  Pd  Pd40  1  0.96160700  0.59814700  0.25000000  1
  Pd  Pd41  1  0.03839300  0.59814700  0.75000000  1
  Pd  Pd42  1  0.67240950  0.32780150  0.08966200  1
  Pd  Pd43  1  0.32759050  0.67219850  0.58966200  1
  Pd  Pd44  1  0.67240950  0.67219850  0.41033800  1
  Pd  Pd45  1  0.32759050  0.32780150  0.91033800  1
  Pd  Pd46  1  0.32759050  0.67219850  0.91033800  1
  Pd  Pd47  1  0.67240950  0.32780150  0.41033800  1
  Pd  Pd48  1  0.32759050  0.32780150  0.58966200  1
  Pd  Pd49  1  0.35242700  0.50000000  0.75000000  1
  Pd  Pd50  1  0.83050800  0.50000000  0.53709500  1
  Pd  Pd51  1  0.16949200  0.50000000  0.03709500  1
  Pd  Pd52  1  0.67240950  0.67219850  0.08966200  1
  Pd  Pd53  1  0.16949200  0.50000000  0.46290500  1
  Pd  Pd54  1  0.64757300  0.50000000  0.25000000  1
  Pd  Pd55  1  0.96160700  0.40185300  0.25000000  1
