# generated using pymatgen
data_Sr11Sb10
_symmetry_space_group_name_H-M   'P 1'
_cell_length_a   12.56727400
_cell_length_b   12.56727400
_cell_length_c   18.48665400
_cell_angle_alpha   90.00000000
_cell_angle_beta   90.00000000
_cell_angle_gamma   90.00000000
_symmetry_Int_Tables_number   1
_chemical_formula_structural   Sr11Sb10
_chemical_formula_sum   'Sr44 Sb40'
_cell_volume   2919.71513326
_cell_formula_units_Z   4
loop_
 _symmetry_equiv_pos_site_id
 _symmetry_equiv_pos_as_xyz
  1  'x, y, z'
loop_
 _atom_site_type_symbol
 _atom_site_label
 _atom_site_symmetry_multiplicity
 _atom_site_fract_x
 _atom_site_fract_y
 _atom_site_fract_z
 _atom_site_occupancy
  Sr  Sr0  1  0.75034400  0.50000000  0.31027700  1
  Sr  Sr1  1  0.24965600  0.50000000  0.31027700  1
  Sr  Sr2  1  0.50000000  0.75034400  0.31027700  1
  Sr  Sr3  1  0.50000000  0.24965600  0.31027700  1
  Sr  Sr4  1  0.74965600  0.00000000  0.18972300  1
  Sr  Sr5  1  0.25034400  0.00000000  0.18972300  1
  Sr  Sr6  1  0.00000000  0.74965600  0.18972300  1
  Sr  Sr7  1  0.00000000  0.25034400  0.18972300  1
  Sr  Sr8  1  0.16910550  0.16910550  0.00000000  1
  Sr  Sr9  1  0.33089450  0.33089450  0.50000000  1
  Sr  Sr10  1  0.83089450  0.16910550  0.00000000  1
  Sr  Sr11  1  0.16910550  0.83089450  0.00000000  1
  Sr  Sr12  1  0.50000000  0.50000000  0.15527500  1
  Sr  Sr13  1  0.00000000  0.00000000  0.34472500  1
  Sr  Sr14  1  0.83471100  0.50000000  0.10487000  1
  Sr  Sr15  1  0.16528900  0.50000000  0.10487000  1
  Sr  Sr16  1  0.50000000  0.83471100  0.10487000  1
  Sr  Sr17  1  0.50000000  0.16528900  0.10487000  1
  Sr  Sr18  1  0.66528900  0.00000000  0.39513000  1
  Sr  Sr19  1  0.33471100  0.00000000  0.39513000  1
  Sr  Sr20  1  0.00000000  0.66528900  0.39513000  1
  Sr  Sr21  1  0.00000000  0.33471100  0.39513000  1
  Sr  Sr22  1  0.25034400  0.00000000  0.81027700  1
  Sr  Sr23  1  0.74965600  0.00000000  0.81027700  1
  Sr  Sr24  1  0.00000000  0.25034400  0.81027700  1
  Sr  Sr25  1  0.00000000  0.74965600  0.81027700  1
  Sr  Sr26  1  0.24965600  0.50000000  0.68972300  1
  Sr  Sr27  1  0.75034400  0.50000000  0.68972300  1
  Sr  Sr28  1  0.50000000  0.24965600  0.68972300  1
  Sr  Sr29  1  0.50000000  0.75034400  0.68972300  1
  Sr  Sr30  1  0.66910550  0.66910550  0.50000000  1
  Sr  Sr31  1  0.83089450  0.83089450  0.00000000  1
  Sr  Sr32  1  0.33089450  0.66910550  0.50000000  1
  Sr  Sr33  1  0.66910550  0.33089450  0.50000000  1
  Sr  Sr34  1  0.00000000  0.00000000  0.65527500  1
  Sr  Sr35  1  0.50000000  0.50000000  0.84472500  1
  Sr  Sr36  1  0.33471100  0.00000000  0.60487000  1
  Sr  Sr37  1  0.66528900  0.00000000  0.60487000  1
  Sr  Sr38  1  0.00000000  0.33471100  0.60487000  1
  Sr  Sr39  1  0.00000000  0.66528900  0.60487000  1
  Sr  Sr40  1  0.16528900  0.50000000  0.89513000  1
  Sr  Sr41  1  0.83471100  0.50000000  0.89513000  1
  Sr  Sr42  1  0.50000000  0.16528900  0.89513000  1
  Sr  Sr43  1  0.50000000  0.83471100  0.89513000  1
  Sb  Sb44  1  0.00000000  0.35369000  0.00000000  1
  Sb  Sb45  1  0.00000000  0.64631000  0.00000000  1
  Sb  Sb46  1  0.64631000  0.00000000  0.00000000  1
  Sb  Sb47  1  0.35369000  0.00000000  0.00000000  1
  Sb  Sb48  1  0.50000000  0.50000000  0.37809900  1
  Sb  Sb49  1  0.00000000  0.00000000  0.12190100  1
  Sb  Sb50  1  0.37880400  0.37880400  0.00000000  1
  Sb  Sb51  1  0.62119600  0.62119600  0.00000000  1
  Sb  Sb52  1  0.62119600  0.37880400  0.00000000  1
  Sb  Sb53  1  0.37880400  0.62119600  0.00000000  1
  Sb  Sb54  1  0.00000000  0.50000000  0.25000000  1
  Sb  Sb55  1  0.50000000  0.00000000  0.25000000  1
  Sb  Sb56  1  0.70973600  0.70973600  0.17935300  1
  Sb  Sb57  1  0.29026400  0.29026400  0.17935300  1
  Sb  Sb58  1  0.29026400  0.70973600  0.17935300  1
  Sb  Sb59  1  0.70973600  0.29026400  0.17935300  1
  Sb  Sb60  1  0.79026400  0.79026400  0.32064700  1
  Sb  Sb61  1  0.20973600  0.20973600  0.32064700  1
  Sb  Sb62  1  0.20973600  0.79026400  0.32064700  1
  Sb  Sb63  1  0.79026400  0.20973600  0.32064700  1
  Sb  Sb64  1  0.50000000  0.85369000  0.50000000  1
  Sb  Sb65  1  0.50000000  0.14631000  0.50000000  1
  Sb  Sb66  1  0.14631000  0.50000000  0.50000000  1
  Sb  Sb67  1  0.85369000  0.50000000  0.50000000  1
  Sb  Sb68  1  0.00000000  0.00000000  0.87809900  1
  Sb  Sb69  1  0.50000000  0.50000000  0.62190100  1
  Sb  Sb70  1  0.87880400  0.87880400  0.50000000  1
  Sb  Sb71  1  0.12119600  0.12119600  0.50000000  1
  Sb  Sb72  1  0.12119600  0.87880400  0.50000000  1
  Sb  Sb73  1  0.87880400  0.12119600  0.50000000  1
  Sb  Sb74  1  0.50000000  0.00000000  0.75000000  1
  Sb  Sb75  1  0.00000000  0.50000000  0.75000000  1
  Sb  Sb76  1  0.20973600  0.20973600  0.67935300  1
  Sb  Sb77  1  0.79026400  0.79026400  0.67935300  1
  Sb  Sb78  1  0.79026400  0.20973600  0.67935300  1
  Sb  Sb79  1  0.20973600  0.79026400  0.67935300  1
  Sb  Sb80  1  0.29026400  0.29026400  0.82064700  1
  Sb  Sb81  1  0.70973600  0.70973600  0.82064700  1
  Sb  Sb82  1  0.70973600  0.29026400  0.82064700  1
  Sb  Sb83  1  0.29026400  0.70973600  0.82064700  1
