# generated using pymatgen
data_IrF4
_symmetry_space_group_name_H-M   'P 1'
_cell_length_a   5.95828600
_cell_length_b   9.47844800
_cell_length_c   9.72902600
_cell_angle_alpha   90.00000000
_cell_angle_beta   90.00000000
_cell_angle_gamma   90.00000000
_symmetry_Int_Tables_number   1
_chemical_formula_structural   IrF4
_chemical_formula_sum   'Ir8 F32'
_cell_volume   549.44970117
_cell_formula_units_Z   8
loop_
 _symmetry_equiv_pos_site_id
 _symmetry_equiv_pos_as_xyz
  1  'x, y, z'
loop_
 _atom_site_type_symbol
 _atom_site_label
 _atom_site_symmetry_multiplicity
 _atom_site_fract_x
 _atom_site_fract_y
 _atom_site_fract_z
 _atom_site_occupancy
  Ir  Ir0  1  0.74311800  0.00000000  0.50000000  1
  Ir  Ir1  1  0.49311800  0.75000000  0.75000000  1
  Ir  Ir2  1  0.24311800  0.00000000  0.00000000  1
  Ir  Ir3  1  0.99311800  0.75000000  0.25000000  1
  Ir  Ir4  1  0.24311800  0.50000000  0.50000000  1
  Ir  Ir5  1  0.99311800  0.25000000  0.75000000  1
  Ir  Ir6  1  0.74311800  0.50000000  0.00000000  1
  Ir  Ir7  1  0.49311800  0.25000000  0.25000000  1
  F  F8  1  0.27957100  0.86571950  0.66093550  1
  F  F9  1  0.27957100  0.63428050  0.83906450  1
  F  F10  1  0.99387000  0.11582900  0.59063700  1
  F  F11  1  0.49387000  0.88417100  0.90936300  1
  F  F12  1  0.24387000  0.13417100  0.84063700  1
  F  F13  1  0.24387000  0.36582900  0.65936300  1
  F  F14  1  0.02957100  0.61571950  0.58906450  1
  F  F15  1  0.02957100  0.88428050  0.91093550  1
  F  F16  1  0.77957100  0.86571950  0.16093550  1
  F  F17  1  0.77957100  0.63428050  0.33906450  1
  F  F18  1  0.49387000  0.11582900  0.09063700  1
  F  F19  1  0.99387000  0.88417100  0.40936300  1
  F  F20  1  0.74387000  0.13417100  0.34063700  1
  F  F21  1  0.74387000  0.36582900  0.15936300  1
  F  F22  1  0.52957100  0.61571950  0.08906450  1
  F  F23  1  0.52957100  0.88428050  0.41093550  1
  F  F24  1  0.77957100  0.36571950  0.66093550  1
  F  F25  1  0.77957100  0.13428050  0.83906450  1
  F  F26  1  0.49387000  0.61582900  0.59063700  1
  F  F27  1  0.99387000  0.38417100  0.90936300  1
  F  F28  1  0.74387000  0.63417100  0.84063700  1
  F  F29  1  0.74387000  0.86582900  0.65936300  1
  F  F30  1  0.52957100  0.11571950  0.58906450  1
  F  F31  1  0.52957100  0.38428050  0.91093550  1
  F  F32  1  0.27957100  0.36571950  0.16093550  1
  F  F33  1  0.27957100  0.13428050  0.33906450  1
  F  F34  1  0.99387000  0.61582900  0.09063700  1
  F  F35  1  0.49387000  0.38417100  0.40936300  1
  F  F36  1  0.24387000  0.63417100  0.34063700  1
  F  F37  1  0.24387000  0.86582900  0.15936300  1
  F  F38  1  0.02957100  0.11571950  0.08906450  1
  F  F39  1  0.02957100  0.38428050  0.41093550  1
