# generated using pymatgen
data_Sm2Mn12P7
_symmetry_space_group_name_H-M   'P 1'
_cell_length_a   9.32432447
_cell_length_b   9.32432447
_cell_length_c   3.62999900
_cell_angle_alpha   90.00000000
_cell_angle_beta   90.00000000
_cell_angle_gamma   120.00000000
_symmetry_Int_Tables_number   1
_chemical_formula_structural   Sm2Mn12P7
_chemical_formula_sum   'Sm2 Mn12 P7'
_cell_volume   273.32030249
_cell_formula_units_Z   1
loop_
 _symmetry_equiv_pos_site_id
 _symmetry_equiv_pos_as_xyz
  1  'x, y, z'
loop_
 _atom_site_type_symbol
 _atom_site_label
 _atom_site_symmetry_multiplicity
 _atom_site_fract_x
 _atom_site_fract_y
 _atom_site_fract_z
 _atom_site_occupancy
  Sm  Sm0  1  0.66666667  0.33333333  0.00000000  1
  Sm  Sm1  1  0.33333333  0.66666667  0.50000000  1
  Mn  Mn2  1  0.42547767  0.04746633  0.50000000  1
  Mn  Mn3  1  0.95253367  0.37801133  0.50000000  1
  Mn  Mn4  1  0.62198867  0.57452233  0.50000000  1
  Mn  Mn5  1  0.15435267  0.27374133  0.50000000  1
  Mn  Mn6  1  0.72625867  0.88061133  0.50000000  1
  Mn  Mn7  1  0.11938867  0.84564733  0.50000000  1
  Mn  Mn8  1  0.39027267  0.43468233  0.00000000  1
  Mn  Mn9  1  0.56531767  0.95559033  0.00000000  1
  Mn  Mn10  1  0.04440967  0.60972733  0.00000000  1
  Mn  Mn11  1  0.22186267  0.10084633  0.00000000  1
  Mn  Mn12  1  0.89915367  0.12101633  0.00000000  1
  Mn  Mn13  1  0.87898367  0.77813733  0.00000000  1
  P  P14  1  0.12243167  0.40410833  0.00000000  1
  P  P15  1  0.59589167  0.71832333  0.00000000  1
  P  P16  1  0.28167667  0.87756833  0.00000000  1
  P  P17  1  0.00000000  0.00000000  0.50000000  1
  P  P18  1  0.40665267  0.28843533  0.50000000  1
  P  P19  1  0.71156467  0.11821733  0.50000000  1
  P  P20  1  0.88178267  0.59334733  0.50000000  1
