# generated using pymatgen
data_Hf6Zn6N
_symmetry_space_group_name_H-M   'P 1'
_cell_length_a   11.98226000
_cell_length_b   11.98226000
_cell_length_c   11.98226000
_cell_angle_alpha   90.00000000
_cell_angle_beta   90.00000000
_cell_angle_gamma   90.00000000
_symmetry_Int_Tables_number   1
_chemical_formula_structural   Hf6Zn6N
_chemical_formula_sum   'Hf48 Zn48 N8'
_cell_volume   1720.34764389
_cell_formula_units_Z   8
loop_
 _symmetry_equiv_pos_site_id
 _symmetry_equiv_pos_as_xyz
  1  'x, y, z'
loop_
 _atom_site_type_symbol
 _atom_site_label
 _atom_site_symmetry_multiplicity
 _atom_site_fract_x
 _atom_site_fract_y
 _atom_site_fract_z
 _atom_site_occupancy
  Hf  Hf0  1  0.50000000  0.68953500  0.50000000  1
  Hf  Hf1  1  0.25000000  0.93953500  0.25000000  1
  Hf  Hf2  1  0.06046500  0.75000000  0.25000000  1
  Hf  Hf3  1  0.25000000  0.75000000  0.43953500  1
  Hf  Hf4  1  0.81046500  0.00000000  0.50000000  1
  Hf  Hf5  1  0.25000000  0.56046500  0.25000000  1
  Hf  Hf6  1  0.00000000  0.00000000  0.31046500  1
  Hf  Hf7  1  0.43953500  0.75000000  0.25000000  1
  Hf  Hf8  1  0.50000000  0.00000000  0.18953500  1
  Hf  Hf9  1  0.18953500  0.00000000  0.50000000  1
  Hf  Hf10  1  0.50000000  0.31046500  0.50000000  1
  Hf  Hf11  1  0.25000000  0.75000000  0.06046500  1
  Hf  Hf12  1  0.50000000  0.18953500  0.00000000  1
  Hf  Hf13  1  0.25000000  0.43953500  0.75000000  1
  Hf  Hf14  1  0.06046500  0.25000000  0.75000000  1
  Hf  Hf15  1  0.25000000  0.25000000  0.93953500  1
  Hf  Hf16  1  0.81046500  0.50000000  0.00000000  1
  Hf  Hf17  1  0.25000000  0.06046500  0.75000000  1
  Hf  Hf18  1  0.00000000  0.50000000  0.81046500  1
  Hf  Hf19  1  0.43953500  0.25000000  0.75000000  1
  Hf  Hf20  1  0.50000000  0.50000000  0.68953500  1
  Hf  Hf21  1  0.18953500  0.50000000  0.00000000  1
  Hf  Hf22  1  0.50000000  0.81046500  0.00000000  1
  Hf  Hf23  1  0.25000000  0.25000000  0.56046500  1
  Hf  Hf24  1  0.00000000  0.68953500  0.00000000  1
  Hf  Hf25  1  0.75000000  0.93953500  0.75000000  1
  Hf  Hf26  1  0.56046500  0.75000000  0.75000000  1
  Hf  Hf27  1  0.75000000  0.75000000  0.93953500  1
  Hf  Hf28  1  0.31046500  0.00000000  0.00000000  1
  Hf  Hf29  1  0.75000000  0.56046500  0.75000000  1
  Hf  Hf30  1  0.50000000  0.00000000  0.81046500  1
  Hf  Hf31  1  0.93953500  0.75000000  0.75000000  1
  Hf  Hf32  1  0.00000000  0.00000000  0.68953500  1
  Hf  Hf33  1  0.68953500  0.00000000  0.00000000  1
  Hf  Hf34  1  0.00000000  0.31046500  0.00000000  1
  Hf  Hf35  1  0.75000000  0.75000000  0.56046500  1
  Hf  Hf36  1  0.00000000  0.18953500  0.50000000  1
  Hf  Hf37  1  0.75000000  0.43953500  0.25000000  1
  Hf  Hf38  1  0.56046500  0.25000000  0.25000000  1
  Hf  Hf39  1  0.75000000  0.25000000  0.43953500  1
  Hf  Hf40  1  0.31046500  0.50000000  0.50000000  1
  Hf  Hf41  1  0.75000000  0.06046500  0.25000000  1
  Hf  Hf42  1  0.50000000  0.50000000  0.31046500  1
  Hf  Hf43  1  0.93953500  0.25000000  0.25000000  1
  Hf  Hf44  1  0.00000000  0.50000000  0.18953500  1
  Hf  Hf45  1  0.68953500  0.50000000  0.50000000  1
  Hf  Hf46  1  0.00000000  0.81046500  0.50000000  1
  Hf  Hf47  1  0.75000000  0.25000000  0.06046500  1
  Zn  Zn48  1  0.16773233  0.33226767  0.16773233  1
  Zn  Zn49  1  0.58226767  0.08226767  0.41773233  1
  Zn  Zn50  1  0.91773233  0.08226767  0.08226767  1
  Zn  Zn51  1  0.41773233  0.91773233  0.41773233  1
  Zn  Zn52  1  0.16773233  0.16773233  0.33226767  1
  Zn  Zn53  1  0.08226767  0.91773233  0.08226767  1
  Zn  Zn54  1  0.33226767  0.33226767  0.33226767  1
  Zn  Zn55  1  0.33226767  0.16773233  0.16773233  1
  Zn  Zn56  1  0.37500000  0.12500000  0.37500000  1
  Zn  Zn57  1  0.87500000  0.87500000  0.12500000  1
  Zn  Zn58  1  0.62500000  0.87500000  0.37500000  1
  Zn  Zn59  1  0.12500000  0.12500000  0.12500000  1
  Zn  Zn60  1  0.16773233  0.83226767  0.66773233  1
  Zn  Zn61  1  0.58226767  0.58226767  0.91773233  1
  Zn  Zn62  1  0.91773233  0.58226767  0.58226767  1
  Zn  Zn63  1  0.41773233  0.41773233  0.91773233  1
  Zn  Zn64  1  0.16773233  0.66773233  0.83226767  1
  Zn  Zn65  1  0.08226767  0.41773233  0.58226767  1
  Zn  Zn66  1  0.33226767  0.83226767  0.83226767  1
  Zn  Zn67  1  0.33226767  0.66773233  0.66773233  1
  Zn  Zn68  1  0.37500000  0.62500000  0.87500000  1
  Zn  Zn69  1  0.87500000  0.37500000  0.62500000  1
  Zn  Zn70  1  0.62500000  0.37500000  0.87500000  1
  Zn  Zn71  1  0.12500000  0.62500000  0.62500000  1
  Zn  Zn72  1  0.66773233  0.33226767  0.66773233  1
  Zn  Zn73  1  0.08226767  0.08226767  0.91773233  1
  Zn  Zn74  1  0.41773233  0.08226767  0.58226767  1
  Zn  Zn75  1  0.91773233  0.91773233  0.91773233  1
  Zn  Zn76  1  0.66773233  0.16773233  0.83226767  1
  Zn  Zn77  1  0.58226767  0.91773233  0.58226767  1
  Zn  Zn78  1  0.83226767  0.33226767  0.83226767  1
  Zn  Zn79  1  0.83226767  0.16773233  0.66773233  1
  Zn  Zn80  1  0.87500000  0.12500000  0.87500000  1
  Zn  Zn81  1  0.37500000  0.87500000  0.62500000  1
  Zn  Zn82  1  0.12500000  0.87500000  0.87500000  1
  Zn  Zn83  1  0.62500000  0.12500000  0.62500000  1
  Zn  Zn84  1  0.66773233  0.83226767  0.16773233  1
  Zn  Zn85  1  0.08226767  0.58226767  0.41773233  1
  Zn  Zn86  1  0.41773233  0.58226767  0.08226767  1
  Zn  Zn87  1  0.91773233  0.41773233  0.41773233  1
  Zn  Zn88  1  0.66773233  0.66773233  0.33226767  1
  Zn  Zn89  1  0.58226767  0.41773233  0.08226767  1
  Zn  Zn90  1  0.83226767  0.83226767  0.33226767  1
  Zn  Zn91  1  0.83226767  0.66773233  0.16773233  1
  Zn  Zn92  1  0.87500000  0.62500000  0.37500000  1
  Zn  Zn93  1  0.37500000  0.37500000  0.12500000  1
  Zn  Zn94  1  0.12500000  0.37500000  0.37500000  1
  Zn  Zn95  1  0.62500000  0.62500000  0.12500000  1
  N  N96  1  0.00000000  0.00000000  0.50000000  1
  N  N97  1  0.25000000  0.75000000  0.25000000  1
  N  N98  1  0.00000000  0.50000000  0.00000000  1
  N  N99  1  0.25000000  0.25000000  0.75000000  1
  N  N100  1  0.50000000  0.00000000  0.00000000  1
  N  N101  1  0.75000000  0.75000000  0.75000000  1
  N  N102  1  0.50000000  0.50000000  0.50000000  1
  N  N103  1  0.75000000  0.25000000  0.25000000  1
