# generated using pymatgen
data_Ce4Si3Rh4
_symmetry_space_group_name_H-M   'P 1'
_cell_length_a   20.58699000
_cell_length_b   5.62855000
_cell_length_c   7.90445046
_cell_angle_alpha   90.00000000
_cell_angle_beta   110.14744583
_cell_angle_gamma   90.00000000
_symmetry_Int_Tables_number   1
_chemical_formula_structural   Ce4Si3Rh4
_chemical_formula_sum   'Ce16 Si12 Rh16'
_cell_volume   859.88123245
_cell_formula_units_Z   4
loop_
 _symmetry_equiv_pos_site_id
 _symmetry_equiv_pos_as_xyz
  1  'x, y, z'
loop_
 _atom_site_type_symbol
 _atom_site_label
 _atom_site_symmetry_multiplicity
 _atom_site_fract_x
 _atom_site_fract_y
 _atom_site_fract_z
 _atom_site_occupancy
  Ce  Ce0  1  0.16937850  0.38368350  0.40176200  1
  Ce  Ce1  1  0.33062150  0.88368350  0.09823800  1
  Ce  Ce2  1  0.33062150  0.11631650  0.59823800  1
  Ce  Ce3  1  0.16937850  0.61631650  0.90176200  1
  Ce  Ce4  1  0.43534500  0.63673900  0.82975200  1
  Ce  Ce5  1  0.06465500  0.13673900  0.67024800  1
  Ce  Ce6  1  0.06465500  0.86326100  0.17024800  1
  Ce  Ce7  1  0.43534500  0.36326100  0.32975200  1
  Ce  Ce8  1  0.66937850  0.88368350  0.40176200  1
  Ce  Ce9  1  0.83062150  0.38368350  0.09823800  1
  Ce  Ce10  1  0.83062150  0.61631650  0.59823800  1
  Ce  Ce11  1  0.66937850  0.11631650  0.90176200  1
  Ce  Ce12  1  0.93534500  0.13673900  0.82975200  1
  Ce  Ce13  1  0.56465500  0.63673900  0.67024800  1
  Ce  Ce14  1  0.56465500  0.36326100  0.17024800  1
  Ce  Ce15  1  0.93534500  0.86326100  0.32975200  1
  Si  Si16  1  0.32823150  0.38399350  0.94065000  1
  Si  Si17  1  0.17176850  0.88399350  0.55935000  1
  Si  Si18  1  0.17176850  0.11600650  0.05935000  1
  Si  Si19  1  0.32823150  0.61600650  0.44065000  1
  Si  Si20  1  0.00000000  0.35720400  0.25000000  1
  Si  Si21  1  0.00000000  0.64279600  0.75000000  1
  Si  Si22  1  0.82823150  0.88399350  0.94065000  1
  Si  Si23  1  0.67176850  0.38399350  0.55935000  1
  Si  Si24  1  0.67176850  0.61600650  0.05935000  1
  Si  Si25  1  0.82823150  0.11600650  0.44065000  1
  Si  Si26  1  0.50000000  0.85720400  0.25000000  1
  Si  Si27  1  0.50000000  0.14279600  0.75000000  1
  Rh  Rh28  1  0.43588050  0.86752350  0.47773600  1
  Rh  Rh29  1  0.06411950  0.36752350  0.02226400  1
  Rh  Rh30  1  0.06411950  0.63247650  0.52226400  1
  Rh  Rh31  1  0.43588050  0.13247650  0.97773600  1
  Rh  Rh32  1  0.27995150  0.64699550  0.68268400  1
  Rh  Rh33  1  0.22004850  0.14699550  0.81731600  1
  Rh  Rh34  1  0.22004850  0.85300450  0.31731600  1
  Rh  Rh35  1  0.27995150  0.35300450  0.18268400  1
  Rh  Rh36  1  0.93588050  0.36752350  0.47773600  1
  Rh  Rh37  1  0.56411950  0.86752350  0.02226400  1
  Rh  Rh38  1  0.56411950  0.13247650  0.52226400  1
  Rh  Rh39  1  0.93588050  0.63247650  0.97773600  1
  Rh  Rh40  1  0.77995150  0.14699550  0.68268400  1
  Rh  Rh41  1  0.72004850  0.64699550  0.81731600  1
  Rh  Rh42  1  0.72004850  0.35300450  0.31731600  1
  Rh  Rh43  1  0.77995150  0.85300450  0.18268400  1
