# generated using pymatgen
data_Ba2NiTeO6
_symmetry_space_group_name_H-M   'P 1'
_cell_length_a   5.88059221
_cell_length_b   5.88059221
_cell_length_c   28.98248461
_cell_angle_alpha   90.00000000
_cell_angle_beta   90.00000000
_cell_angle_gamma   120.00000000
_symmetry_Int_Tables_number   1
_chemical_formula_structural   Ba2NiTeO6
_chemical_formula_sum   'Ba12 Ni6 Te6 O36'
_cell_volume   867.97731440
_cell_formula_units_Z   6
loop_
 _symmetry_equiv_pos_site_id
 _symmetry_equiv_pos_as_xyz
  1  'x, y, z'
loop_
 _atom_site_type_symbol
 _atom_site_label
 _atom_site_symmetry_multiplicity
 _atom_site_fract_x
 _atom_site_fract_y
 _atom_site_fract_z
 _atom_site_occupancy
  Ba  Ba0  1  0.66666667  0.33333333  0.04890833  1
  Ba  Ba1  1  0.00000000  0.00000000  0.28442500  1
  Ba  Ba2  1  0.66666667  0.33333333  0.20728633  1
  Ba  Ba3  1  0.00000000  0.00000000  0.12604700  1
  Ba  Ba4  1  0.33333333  0.66666667  0.38224167  1
  Ba  Ba5  1  0.66666667  0.33333333  0.61775833  1
  Ba  Ba6  1  0.33333333  0.66666667  0.54061967  1
  Ba  Ba7  1  0.66666667  0.33333333  0.45938033  1
  Ba  Ba8  1  0.00000000  0.00000000  0.71557500  1
  Ba  Ba9  1  0.33333333  0.66666667  0.95109167  1
  Ba  Ba10  1  0.00000000  0.00000000  0.87395300  1
  Ba  Ba11  1  0.33333333  0.66666667  0.79271367  1
  Ni  Ni12  1  0.33333333  0.66666667  0.07310367  1
  Ni  Ni13  1  0.33333333  0.66666667  0.26022967  1
  Ni  Ni14  1  0.00000000  0.00000000  0.40643700  1
  Ni  Ni15  1  0.00000000  0.00000000  0.59356300  1
  Ni  Ni16  1  0.66666667  0.33333333  0.73977033  1
  Ni  Ni17  1  0.66666667  0.33333333  0.92689633  1
  Te  Te18  1  0.33333333  0.66666667  0.16666667  1
  Te  Te19  1  0.66666667  0.33333333  0.33333333  1
  Te  Te20  1  1.00000000  1.00000000  0.50000000  1
  Te  Te21  1  0.33333333  0.66666667  0.66666667  1
  Te  Te22  1  0.66666667  0.33333333  0.83333333  1
  Te  Te23  1  1.00000000  1.00000000  0.00000000  1
  O  O24  1  0.15591233  0.31182467  0.03922167  1
  O  O25  1  0.15591233  0.84408767  0.03922167  1
  O  O26  1  0.68817533  0.84408767  0.03922167  1
  O  O27  1  0.97849133  0.48924567  0.29411167  1
  O  O28  1  0.51075433  0.02150867  0.29411167  1
  O  O29  1  0.51075433  0.48924567  0.29411167  1
  O  O30  1  0.18088633  0.36177267  0.20766267  1
  O  O31  1  0.18088633  0.81911367  0.20766267  1
  O  O32  1  0.48578033  0.51421967  0.12567067  1
  O  O33  1  0.48578033  0.97156067  0.12567067  1
  O  O34  1  0.02843933  0.51421967  0.12567067  1
  O  O35  1  0.63822733  0.81911367  0.20766267  1
  O  O36  1  0.82257900  0.64515800  0.37255500  1
  O  O37  1  0.82257900  0.17742100  0.37255500  1
  O  O38  1  0.35484200  0.17742100  0.37255500  1
  O  O39  1  0.64515800  0.82257900  0.62744500  1
  O  O40  1  0.17742100  0.35484200  0.62744500  1
  O  O41  1  0.17742100  0.82257900  0.62744500  1
  O  O42  1  0.84755300  0.69510600  0.54099600  1
  O  O43  1  0.84755300  0.15244700  0.54099600  1
  O  O44  1  0.15244700  0.84755300  0.45900400  1
  O  O45  1  0.15244700  0.30489400  0.45900400  1
  O  O46  1  0.69510600  0.84755300  0.45900400  1
  O  O47  1  0.30489400  0.15244700  0.54099600  1
  O  O48  1  0.48924567  0.97849133  0.70588833  1
  O  O49  1  0.48924567  0.51075433  0.70588833  1
  O  O50  1  0.02150867  0.51075433  0.70588833  1
  O  O51  1  0.31182467  0.15591233  0.96077833  1
  O  O52  1  0.84408767  0.68817533  0.96077833  1
  O  O53  1  0.84408767  0.15591233  0.96077833  1
  O  O54  1  0.51421967  0.02843933  0.87432933  1
  O  O55  1  0.51421967  0.48578033  0.87432933  1
  O  O56  1  0.81911367  0.18088633  0.79233733  1
  O  O57  1  0.81911367  0.63822733  0.79233733  1
  O  O58  1  0.36177267  0.18088633  0.79233733  1
  O  O59  1  0.97156067  0.48578033  0.87432933  1
