# generated using pymatgen
data_Tb2Co3Ge5
_symmetry_space_group_name_H-M   'P 1'
_cell_length_a   11.09802800
_cell_length_b   11.79116000
_cell_length_c   5.73361276
_cell_angle_alpha   90.00000000
_cell_angle_beta   119.48029965
_cell_angle_gamma   90.00000000
_symmetry_Int_Tables_number   1
_chemical_formula_structural   Tb2Co3Ge5
_chemical_formula_sum   'Tb8 Co12 Ge20'
_cell_volume   653.14849878
_cell_formula_units_Z   4
loop_
 _symmetry_equiv_pos_site_id
 _symmetry_equiv_pos_as_xyz
  1  'x, y, z'
loop_
 _atom_site_type_symbol
 _atom_site_label
 _atom_site_symmetry_multiplicity
 _atom_site_fract_x
 _atom_site_fract_y
 _atom_site_fract_z
 _atom_site_occupancy
  Tb  Tb0  1  0.26782250  0.13931150  0.76715800  1
  Tb  Tb1  1  0.73217750  0.13931150  0.73284200  1
  Tb  Tb2  1  0.73217750  0.86068850  0.23284200  1
  Tb  Tb3  1  0.26782250  0.86068850  0.26715800  1
  Tb  Tb4  1  0.76782250  0.63931150  0.76715800  1
  Tb  Tb5  1  0.23217750  0.63931150  0.73284200  1
  Tb  Tb6  1  0.23217750  0.36068850  0.23284200  1
  Tb  Tb7  1  0.76782250  0.36068850  0.26715800  1
  Co  Co8  1  0.59853500  0.85929000  0.61727500  1
  Co  Co9  1  0.40146500  0.85929000  0.88272500  1
  Co  Co10  1  0.40146500  0.14071000  0.38272500  1
  Co  Co11  1  0.59853500  0.14071000  0.11727500  1
  Co  Co12  1  0.50000000  0.50217700  0.75000000  1
  Co  Co13  1  0.50000000  0.49782300  0.25000000  1
  Co  Co14  1  0.09853500  0.35929000  0.61727500  1
  Co  Co15  1  0.90146500  0.35929000  0.88272500  1
  Co  Co16  1  0.90146500  0.64071000  0.38272500  1
  Co  Co17  1  0.09853500  0.64071000  0.11727500  1
  Co  Co18  1  0.00000000  0.00217700  0.75000000  1
  Co  Co19  1  0.00000000  0.99782300  0.25000000  1
  Ge  Ge20  1  0.50000000  0.00755500  0.75000000  1
  Ge  Ge21  1  0.50000000  0.99244500  0.25000000  1
  Ge  Ge22  1  0.83055150  0.90787350  0.82808800  1
  Ge  Ge23  1  0.16944850  0.90787350  0.67191200  1
  Ge  Ge24  1  0.16944850  0.09212650  0.17191200  1
  Ge  Ge25  1  0.83055150  0.09212650  0.32808800  1
  Ge  Ge26  1  0.50000000  0.71483100  0.75000000  1
  Ge  Ge27  1  0.50000000  0.28516900  0.25000000  1
  Ge  Ge28  1  0.50000000  0.27415600  0.75000000  1
  Ge  Ge29  1  0.50000000  0.72584400  0.25000000  1
  Ge  Ge30  1  0.00000000  0.50755500  0.75000000  1
  Ge  Ge31  1  0.00000000  0.49244500  0.25000000  1
  Ge  Ge32  1  0.33055150  0.40787350  0.82808800  1
  Ge  Ge33  1  0.66944850  0.40787350  0.67191200  1
  Ge  Ge34  1  0.66944850  0.59212650  0.17191200  1
  Ge  Ge35  1  0.33055150  0.59212650  0.32808800  1
  Ge  Ge36  1  0.00000000  0.21483100  0.75000000  1
  Ge  Ge37  1  0.00000000  0.78516900  0.25000000  1
  Ge  Ge38  1  0.00000000  0.77415600  0.75000000  1
  Ge  Ge39  1  0.00000000  0.22584400  0.25000000  1
