# generated using pymatgen
data_HfGa2
_symmetry_space_group_name_H-M   'P 1'
_cell_length_a   4.06743000
_cell_length_b   4.06743000
_cell_length_c   25.61936200
_cell_angle_alpha   90.00000000
_cell_angle_beta   90.00000000
_cell_angle_gamma   90.00000000
_symmetry_Int_Tables_number   1
_chemical_formula_structural   HfGa2
_chemical_formula_sum   'Hf8 Ga16'
_cell_volume   423.84638688
_cell_formula_units_Z   8
loop_
 _symmetry_equiv_pos_site_id
 _symmetry_equiv_pos_as_xyz
  1  'x, y, z'
loop_
 _atom_site_type_symbol
 _atom_site_label
 _atom_site_symmetry_multiplicity
 _atom_site_fract_x
 _atom_site_fract_y
 _atom_site_fract_z
 _atom_site_occupancy
  Hf  Hf0  1  0.00000000  0.50000000  0.32558500  1
  Hf  Hf1  1  0.00000000  0.00000000  0.07558500  1
  Hf  Hf2  1  0.50000000  0.50000000  0.42441500  1
  Hf  Hf3  1  0.00000000  0.50000000  0.17441500  1
  Hf  Hf4  1  0.50000000  0.00000000  0.82558500  1
  Hf  Hf5  1  0.50000000  0.50000000  0.57558500  1
  Hf  Hf6  1  0.00000000  0.00000000  0.92441500  1
  Hf  Hf7  1  0.50000000  0.00000000  0.67441500  1
  Ga  Ga8  1  0.50000000  0.00000000  0.00065200  1
  Ga  Ga9  1  0.00000000  0.00000000  0.25065200  1
  Ga  Ga10  1  0.50000000  0.50000000  0.24934800  1
  Ga  Ga11  1  0.50000000  0.00000000  0.49934800  1
  Ga  Ga12  1  0.50000000  0.00000000  0.16163100  1
  Ga  Ga13  1  0.00000000  0.00000000  0.41163100  1
  Ga  Ga14  1  0.50000000  0.50000000  0.08836900  1
  Ga  Ga15  1  0.50000000  0.00000000  0.33836900  1
  Ga  Ga16  1  0.00000000  0.50000000  0.50065200  1
  Ga  Ga17  1  0.50000000  0.50000000  0.75065200  1
  Ga  Ga18  1  0.00000000  0.00000000  0.74934800  1
  Ga  Ga19  1  0.00000000  0.50000000  0.99934800  1
  Ga  Ga20  1  0.00000000  0.50000000  0.66163100  1
  Ga  Ga21  1  0.50000000  0.50000000  0.91163100  1
  Ga  Ga22  1  0.00000000  0.00000000  0.58836900  1
  Ga  Ga23  1  0.00000000  0.50000000  0.83836900  1
