# generated using pymatgen
data_La4Sb3
_symmetry_space_group_name_H-M   'P 1'
_cell_length_a   9.71726400
_cell_length_b   9.71726400
_cell_length_c   9.71726400
_cell_angle_alpha   90.00000000
_cell_angle_beta   90.00000000
_cell_angle_gamma   90.00000000
_symmetry_Int_Tables_number   1
_chemical_formula_structural   La4Sb3
_chemical_formula_sum   'La16 Sb12'
_cell_volume   917.55478756
_cell_formula_units_Z   4
loop_
 _symmetry_equiv_pos_site_id
 _symmetry_equiv_pos_as_xyz
  1  'x, y, z'
loop_
 _atom_site_type_symbol
 _atom_site_label
 _atom_site_symmetry_multiplicity
 _atom_site_fract_x
 _atom_site_fract_y
 _atom_site_fract_z
 _atom_site_occupancy
  La  La0  1  0.92895650  0.07104350  0.57104350  1
  La  La1  1  0.07104350  0.57104350  0.92895650  1
  La  La2  1  0.57104350  0.92895650  0.07104350  1
  La  La3  1  0.42895650  0.42895650  0.42895650  1
  La  La4  1  0.82104350  0.32104350  0.17895650  1
  La  La5  1  0.17895650  0.82104350  0.32104350  1
  La  La6  1  0.32104350  0.17895650  0.82104350  1
  La  La7  1  0.17895650  0.17895650  0.17895650  1
  La  La8  1  0.42895650  0.57104350  0.07104350  1
  La  La9  1  0.57104350  0.07104350  0.42895650  1
  La  La10  1  0.07104350  0.42895650  0.57104350  1
  La  La11  1  0.92895650  0.92895650  0.92895650  1
  La  La12  1  0.32104350  0.82104350  0.67895650  1
  La  La13  1  0.67895650  0.32104350  0.82104350  1
  La  La14  1  0.82104350  0.67895650  0.32104350  1
  La  La15  1  0.67895650  0.67895650  0.67895650  1
  Sb  Sb16  1  0.75000000  0.37500000  0.50000000  1
  Sb  Sb17  1  0.25000000  0.12500000  0.50000000  1
  Sb  Sb18  1  0.37500000  0.50000000  0.75000000  1
  Sb  Sb19  1  0.12500000  0.50000000  0.25000000  1
  Sb  Sb20  1  0.50000000  0.75000000  0.37500000  1
  Sb  Sb21  1  0.50000000  0.25000000  0.12500000  1
  Sb  Sb22  1  0.25000000  0.87500000  0.00000000  1
  Sb  Sb23  1  0.75000000  0.62500000  0.00000000  1
  Sb  Sb24  1  0.87500000  0.00000000  0.25000000  1
  Sb  Sb25  1  0.62500000  0.00000000  0.75000000  1
  Sb  Sb26  1  0.00000000  0.25000000  0.87500000  1
  Sb  Sb27  1  0.00000000  0.75000000  0.62500000  1
