# generated using pymatgen
data_ThRh
_symmetry_space_group_name_H-M   'P 1'
_cell_length_a   3.90350800
_cell_length_b   11.49831600
_cell_length_c   4.18803200
_cell_angle_alpha   90.00000000
_cell_angle_beta   90.00000000
_cell_angle_gamma   90.00000000
_symmetry_Int_Tables_number   1
_chemical_formula_structural   ThRh
_chemical_formula_sum   'Th4 Rh4'
_cell_volume   187.97465873
_cell_formula_units_Z   4
loop_
 _symmetry_equiv_pos_site_id
 _symmetry_equiv_pos_as_xyz
  1  'x, y, z'
loop_
 _atom_site_type_symbol
 _atom_site_label
 _atom_site_symmetry_multiplicity
 _atom_site_fract_x
 _atom_site_fract_y
 _atom_site_fract_z
 _atom_site_occupancy
  Th  Th0  1  0.50000000  0.63595400  0.25000000  1
  Th  Th1  1  0.00000000  0.86404600  0.75000000  1
  Th  Th2  1  0.00000000  0.13595400  0.25000000  1
  Th  Th3  1  0.50000000  0.36404600  0.75000000  1
  Rh  Rh4  1  0.50000000  0.90107500  0.25000000  1
  Rh  Rh5  1  0.00000000  0.59892500  0.75000000  1
  Rh  Rh6  1  0.00000000  0.40107500  0.25000000  1
  Rh  Rh7  1  0.50000000  0.09892500  0.75000000  1
