# generated using pymatgen
data_SrCu9Si4
_symmetry_space_group_name_H-M   'P 1'
_cell_length_a   8.15521400
_cell_length_b   8.15521400
_cell_length_c   11.62438000
_cell_angle_alpha   90.00000000
_cell_angle_beta   90.00000000
_cell_angle_gamma   90.00000000
_symmetry_Int_Tables_number   1
_chemical_formula_structural   SrCu9Si4
_chemical_formula_sum   'Sr4 Cu36 Si16'
_cell_volume   773.10863170
_cell_formula_units_Z   4
loop_
 _symmetry_equiv_pos_site_id
 _symmetry_equiv_pos_as_xyz
  1  'x, y, z'
loop_
 _atom_site_type_symbol
 _atom_site_label
 _atom_site_symmetry_multiplicity
 _atom_site_fract_x
 _atom_site_fract_y
 _atom_site_fract_z
 _atom_site_occupancy
  Sr  Sr0  1  0.00000000  0.00000000  0.25000000  1
  Sr  Sr1  1  0.50000000  0.50000000  0.25000000  1
  Sr  Sr2  1  0.50000000  0.50000000  0.75000000  1
  Sr  Sr3  1  0.00000000  0.00000000  0.75000000  1
  Cu  Cu4  1  0.20345300  0.93569000  0.00000000  1
  Cu  Cu5  1  0.06431000  0.20345300  0.00000000  1
  Cu  Cu6  1  0.93569000  0.79654700  0.00000000  1
  Cu  Cu7  1  0.29654700  0.43569000  0.00000000  1
  Cu  Cu8  1  0.79654700  0.06431000  0.00000000  1
  Cu  Cu9  1  0.87604650  0.62395350  0.18282450  1
  Cu  Cu10  1  0.12395350  0.37604650  0.18282450  1
  Cu  Cu11  1  0.62395350  0.87604650  0.31717550  1
  Cu  Cu12  1  0.37604650  0.12395350  0.31717550  1
  Cu  Cu13  1  0.12395350  0.62395350  0.31717550  1
  Cu  Cu14  1  0.87604650  0.37604650  0.31717550  1
  Cu  Cu15  1  0.37604650  0.87604650  0.18282450  1
  Cu  Cu16  1  0.43569000  0.70345300  0.00000000  1
  Cu  Cu17  1  0.70345300  0.56431000  0.00000000  1
  Cu  Cu18  1  0.00000000  0.50000000  0.00000000  1
  Cu  Cu19  1  0.50000000  0.00000000  0.00000000  1
  Cu  Cu20  1  0.62395350  0.12395350  0.18282450  1
  Cu  Cu21  1  0.56431000  0.29654700  0.00000000  1
  Cu  Cu22  1  0.70345300  0.43569000  0.50000000  1
  Cu  Cu23  1  0.56431000  0.70345300  0.50000000  1
  Cu  Cu24  1  0.43569000  0.29654700  0.50000000  1
  Cu  Cu25  1  0.79654700  0.93569000  0.50000000  1
  Cu  Cu26  1  0.29654700  0.56431000  0.50000000  1
  Cu  Cu27  1  0.37604650  0.12395350  0.68282450  1
  Cu  Cu28  1  0.62395350  0.87604650  0.68282450  1
  Cu  Cu29  1  0.12395350  0.37604650  0.81717550  1
  Cu  Cu30  1  0.87604650  0.62395350  0.81717550  1
  Cu  Cu31  1  0.62395350  0.12395350  0.81717550  1
  Cu  Cu32  1  0.37604650  0.87604650  0.81717550  1
  Cu  Cu33  1  0.87604650  0.37604650  0.68282450  1
  Cu  Cu34  1  0.93569000  0.20345300  0.50000000  1
  Cu  Cu35  1  0.20345300  0.06431000  0.50000000  1
  Cu  Cu36  1  0.50000000  0.00000000  0.50000000  1
  Cu  Cu37  1  0.00000000  0.50000000  0.50000000  1
  Cu  Cu38  1  0.12395350  0.62395350  0.68282450  1
  Cu  Cu39  1  0.06431000  0.79654700  0.50000000  1
  Si  Si40  1  0.17578550  0.67578550  0.11609250  1
  Si  Si41  1  0.67578550  0.17578550  0.38390750  1
  Si  Si42  1  0.82421450  0.67578550  0.38390750  1
  Si  Si43  1  0.32421450  0.17578550  0.11609250  1
  Si  Si44  1  0.67578550  0.82421450  0.11609250  1
  Si  Si45  1  0.82421450  0.32421450  0.11609250  1
  Si  Si46  1  0.32421450  0.82421450  0.38390750  1
  Si  Si47  1  0.17578550  0.32421450  0.38390750  1
  Si  Si48  1  0.67578550  0.17578550  0.61609250  1
  Si  Si49  1  0.17578550  0.67578550  0.88390750  1
  Si  Si50  1  0.32421450  0.17578550  0.88390750  1
  Si  Si51  1  0.82421450  0.67578550  0.61609250  1
  Si  Si52  1  0.17578550  0.32421450  0.61609250  1
  Si  Si53  1  0.32421450  0.82421450  0.61609250  1
  Si  Si54  1  0.82421450  0.32421450  0.88390750  1
  Si  Si55  1  0.67578550  0.82421450  0.88390750  1
