# generated using pymatgen
data_Rb2Cr2O7
_symmetry_space_group_name_H-M   'P 1'
_cell_length_a   13.80206200
_cell_length_b   7.84468200
_cell_length_c   7.87330766
_cell_angle_alpha   90.00000000
_cell_angle_beta   90.05525593
_cell_angle_gamma   90.00000000
_symmetry_Int_Tables_number   1
_chemical_formula_structural   Rb2Cr2O7
_chemical_formula_sum   'Rb8 Cr8 O28'
_cell_volume   852.46456961
_cell_formula_units_Z   4
loop_
 _symmetry_equiv_pos_site_id
 _symmetry_equiv_pos_as_xyz
  1  'x, y, z'
loop_
 _atom_site_type_symbol
 _atom_site_label
 _atom_site_symmetry_multiplicity
 _atom_site_fract_x
 _atom_site_fract_y
 _atom_site_fract_z
 _atom_site_occupancy
  Rb  Rb0  1  0.35296500  0.35309500  0.14771400  1
  Rb  Rb1  1  0.14703500  0.85309500  0.35228600  1
  Rb  Rb2  1  0.14703500  0.14690500  0.85228600  1
  Rb  Rb3  1  0.35296500  0.64690500  0.64771400  1
  Rb  Rb4  1  0.85296500  0.85309500  0.14771400  1
  Rb  Rb5  1  0.64703500  0.35309500  0.35228600  1
  Rb  Rb6  1  0.64703500  0.64690500  0.85228600  1
  Rb  Rb7  1  0.85296500  0.14690500  0.64771400  1
  Cr  Cr8  1  0.39988950  0.82343150  0.14275100  1
  Cr  Cr9  1  0.10011050  0.32343150  0.35724900  1
  Cr  Cr10  1  0.10011050  0.67656850  0.85724900  1
  Cr  Cr11  1  0.39988950  0.17656850  0.64275100  1
  Cr  Cr12  1  0.89988950  0.32343150  0.14275100  1
  Cr  Cr13  1  0.60011050  0.82343150  0.35724900  1
  Cr  Cr14  1  0.60011050  0.17656850  0.85724900  1
  Cr  Cr15  1  0.89988950  0.67656850  0.64275100  1
  O  O16  1  0.00000000  0.42078900  0.25000000  1
  O  O17  1  0.00000000  0.57921100  0.75000000  1
  O  O18  1  0.34051650  0.70429850  0.27872000  1
  O  O19  1  0.15948350  0.20429850  0.22128000  1
  O  O20  1  0.15948350  0.79570150  0.72128000  1
  O  O21  1  0.34051650  0.29570150  0.77872000  1
  O  O22  1  0.32891100  0.97269600  0.07028100  1
  O  O23  1  0.17108900  0.47269600  0.42971900  1
  O  O24  1  0.43905550  0.29904150  0.48847800  1
  O  O25  1  0.06094450  0.79904150  0.01152200  1
  O  O26  1  0.06094450  0.20095850  0.51152200  1
  O  O27  1  0.43905550  0.70095850  0.98847800  1
  O  O28  1  0.32891100  0.02730400  0.57028100  1
  O  O29  1  0.17108900  0.52730400  0.92971900  1
  O  O30  1  0.50000000  0.92078900  0.25000000  1
  O  O31  1  0.50000000  0.07921100  0.75000000  1
  O  O32  1  0.84051650  0.20429850  0.27872000  1
  O  O33  1  0.65948350  0.70429850  0.22128000  1
  O  O34  1  0.65948350  0.29570150  0.72128000  1
  O  O35  1  0.84051650  0.79570150  0.77872000  1
  O  O36  1  0.82891100  0.47269600  0.07028100  1
  O  O37  1  0.67108900  0.97269600  0.42971900  1
  O  O38  1  0.93905550  0.79904150  0.48847800  1
  O  O39  1  0.56094450  0.29904150  0.01152200  1
  O  O40  1  0.56094450  0.70095850  0.51152200  1
  O  O41  1  0.93905550  0.20095850  0.98847800  1
  O  O42  1  0.82891100  0.52730400  0.57028100  1
  O  O43  1  0.67108900  0.02730400  0.92971900  1
