# generated using pymatgen
data_PrNiGe3
_symmetry_space_group_name_H-M   'P 1'
_cell_length_a   4.17527000
_cell_length_b   21.97698400
_cell_length_c   4.20152300
_cell_angle_alpha   90.00000000
_cell_angle_beta   90.00000000
_cell_angle_gamma   90.00000000
_symmetry_Int_Tables_number   1
_chemical_formula_structural   PrNiGe3
_chemical_formula_sum   'Pr4 Ni4 Ge12'
_cell_volume   385.53108658
_cell_formula_units_Z   4
loop_
 _symmetry_equiv_pos_site_id
 _symmetry_equiv_pos_as_xyz
  1  'x, y, z'
loop_
 _atom_site_type_symbol
 _atom_site_label
 _atom_site_symmetry_multiplicity
 _atom_site_fract_x
 _atom_site_fract_y
 _atom_site_fract_z
 _atom_site_occupancy
  Pr  Pr0  1  0.50000000  0.83133400  0.50000000  1
  Pr  Pr1  1  0.00000000  0.66866600  0.50000000  1
  Pr  Pr2  1  0.00000000  0.33133400  0.50000000  1
  Pr  Pr3  1  0.50000000  0.16866600  0.50000000  1
  Ni  Ni4  1  0.50000000  0.60847000  0.00000000  1
  Ni  Ni5  1  0.00000000  0.89153000  0.00000000  1
  Ni  Ni6  1  0.00000000  0.10847000  0.00000000  1
  Ni  Ni7  1  0.50000000  0.39153000  0.00000000  1
  Ge  Ge8  1  0.00000000  0.55667300  0.00000000  1
  Ge  Ge9  1  0.50000000  0.94332700  0.00000000  1
  Ge  Ge10  1  0.00000000  0.94332500  0.50000000  1
  Ge  Ge11  1  0.50000000  0.55667500  0.50000000  1
  Ge  Ge12  1  0.00000000  0.78410400  0.00000000  1
  Ge  Ge13  1  0.50000000  0.71589600  0.00000000  1
  Ge  Ge14  1  0.50000000  0.05667300  0.00000000  1
  Ge  Ge15  1  0.00000000  0.44332700  0.00000000  1
  Ge  Ge16  1  0.50000000  0.44332500  0.50000000  1
  Ge  Ge17  1  0.00000000  0.05667500  0.50000000  1
  Ge  Ge18  1  0.50000000  0.28410400  0.00000000  1
  Ge  Ge19  1  0.00000000  0.21589600  0.00000000  1
