# generated using pymatgen
data_Nd3Au4
_symmetry_space_group_name_H-M   'P 1'
_cell_length_a   13.95505762
_cell_length_b   13.95505762
_cell_length_c   6.20553506
_cell_angle_alpha   90.00000000
_cell_angle_beta   90.00000000
_cell_angle_gamma   120.00000000
_symmetry_Int_Tables_number   1
_chemical_formula_structural   Nd3Au4
_chemical_formula_sum   'Nd18 Au24'
_cell_volume   1046.58169303
_cell_formula_units_Z   6
loop_
 _symmetry_equiv_pos_site_id
 _symmetry_equiv_pos_as_xyz
  1  'x, y, z'
loop_
 _atom_site_type_symbol
 _atom_site_label
 _atom_site_symmetry_multiplicity
 _atom_site_fract_x
 _atom_site_fract_y
 _atom_site_fract_z
 _atom_site_occupancy
  Nd  Nd0  1  0.49612833  0.37614067  0.10481667  1
  Nd  Nd1  1  0.29052600  0.45332100  0.43815000  1
  Nd  Nd2  1  0.21334567  0.17053833  0.77148333  1
  Nd  Nd3  1  0.17053833  0.95719267  0.22851667  1
  Nd  Nd4  1  0.37614067  0.88001233  0.89518333  1
  Nd  Nd5  1  0.45332100  0.16279500  0.56185000  1
  Nd  Nd6  1  0.16279500  0.70947400  0.43815000  1
  Nd  Nd7  1  0.95719267  0.78665433  0.77148333  1
  Nd  Nd8  1  0.88001233  0.50387167  0.10481667  1
  Nd  Nd9  1  0.83720500  0.29052600  0.56185000  1
  Nd  Nd10  1  0.04280733  0.21334567  0.22851667  1
  Nd  Nd11  1  0.11998767  0.49612833  0.89518333  1
  Nd  Nd12  1  0.82946167  0.04280733  0.77148333  1
  Nd  Nd13  1  0.62385933  0.11998767  0.10481667  1
  Nd  Nd14  1  0.54667900  0.83720500  0.43815000  1
  Nd  Nd15  1  0.50387167  0.62385933  0.89518333  1
  Nd  Nd16  1  0.70947400  0.54667900  0.56185000  1
  Nd  Nd17  1  0.78665433  0.82946167  0.22851667  1
  Au  Au18  1  0.27727567  0.39324233  0.95545333  1
  Au  Au19  1  0.27342433  0.21736667  0.28878667  1
  Au  Au20  1  0.44930000  0.38939100  0.62212000  1
  Au  Au21  1  0.38939100  0.94009100  0.37788000  1
  Au  Au22  1  0.39324233  0.11596667  0.04454667  1
  Au  Au23  1  0.21736667  0.94394233  0.71121333  1
  Au  Au24  1  0.00000000  0.00000000  0.50000000  1
  Au  Au25  1  0.00000000  0.00000000  0.00000000  1
  Au  Au26  1  0.94394233  0.72657567  0.28878667  1
  Au  Au27  1  0.94009100  0.55070000  0.62212000  1
  Au  Au28  1  0.11596667  0.72272433  0.95545333  1
  Au  Au29  1  0.05605767  0.27342433  0.71121333  1
  Au  Au30  1  0.05990900  0.44930000  0.37788000  1
  Au  Au31  1  0.88403333  0.27727567  0.04454667  1
  Au  Au32  1  0.66666667  0.33333333  0.83333333  1
  Au  Au33  1  0.66666667  0.33333333  0.33333333  1
  Au  Au34  1  0.61060900  0.05990900  0.62212000  1
  Au  Au35  1  0.60675767  0.88403333  0.95545333  1
  Au  Au36  1  0.78263333  0.05605767  0.28878667  1
  Au  Au37  1  0.72272433  0.60675767  0.04454667  1
  Au  Au38  1  0.72657567  0.78263333  0.71121333  1
  Au  Au39  1  0.55070000  0.61060900  0.37788000  1
  Au  Au40  1  0.33333333  0.66666667  0.16666667  1
  Au  Au41  1  0.33333333  0.66666667  0.66666667  1
