# generated using pymatgen
data_Th(AlC)4
_symmetry_space_group_name_H-M   'P 1'
_cell_length_a   8.24747200
_cell_length_b   8.24747200
_cell_length_c   3.34250000
_cell_angle_alpha   90.00000000
_cell_angle_beta   90.00000000
_cell_angle_gamma   90.00000000
_symmetry_Int_Tables_number   1
_chemical_formula_structural   Th(AlC)4
_chemical_formula_sum   'Th2 Al8 C8'
_cell_volume   227.35950525
_cell_formula_units_Z   2
loop_
 _symmetry_equiv_pos_site_id
 _symmetry_equiv_pos_as_xyz
  1  'x, y, z'
loop_
 _atom_site_type_symbol
 _atom_site_label
 _atom_site_symmetry_multiplicity
 _atom_site_fract_x
 _atom_site_fract_y
 _atom_site_fract_z
 _atom_site_occupancy
  Th  Th0  1  0.00000000  0.00000000  0.00000000  1
  Th  Th1  1  0.50000000  0.50000000  0.50000000  1
  Al  Al2  1  0.35851400  0.82097200  0.00000000  1
  Al  Al3  1  0.64148600  0.17902800  0.00000000  1
  Al  Al4  1  0.67902800  0.85851400  0.50000000  1
  Al  Al5  1  0.32097200  0.14148600  0.50000000  1
  Al  Al6  1  0.85851400  0.32097200  0.50000000  1
  Al  Al7  1  0.14148600  0.67902800  0.50000000  1
  Al  Al8  1  0.17902800  0.35851400  0.00000000  1
  Al  Al9  1  0.82097200  0.64148600  0.00000000  1
  C  C10  1  0.25165800  0.91102700  0.50000000  1
  C  C11  1  0.74834200  0.08897300  0.50000000  1
  C  C12  1  0.58897300  0.75165800  0.00000000  1
  C  C13  1  0.41102700  0.24834200  0.00000000  1
  C  C14  1  0.75165800  0.41102700  0.00000000  1
  C  C15  1  0.24834200  0.58897300  0.00000000  1
  C  C16  1  0.08897300  0.25165800  0.50000000  1
  C  C17  1  0.91102700  0.74834200  0.50000000  1
