# generated using pymatgen
data_ErAl7Au3
_symmetry_space_group_name_H-M   'P 1'
_cell_length_a   8.08654194
_cell_length_b   8.08654194
_cell_length_c   21.12316861
_cell_angle_alpha   90.00000000
_cell_angle_beta   90.00000000
_cell_angle_gamma   120.00000000
_symmetry_Int_Tables_number   1
_chemical_formula_structural   ErAl7Au3
_chemical_formula_sum   'Er6 Al42 Au18'
_cell_volume   1196.23191319
_cell_formula_units_Z   6
loop_
 _symmetry_equiv_pos_site_id
 _symmetry_equiv_pos_as_xyz
  1  'x, y, z'
loop_
 _atom_site_type_symbol
 _atom_site_label
 _atom_site_symmetry_multiplicity
 _atom_site_fract_x
 _atom_site_fract_y
 _atom_site_fract_z
 _atom_site_occupancy
  Er  Er0  1  0.33333333  0.66666667  0.16666667  1
  Er  Er1  1  0.00000000  0.00000000  0.00000000  1
  Er  Er2  1  1.00000000  0.00000000  0.50000000  1
  Er  Er3  1  0.66666667  0.33333333  0.33333333  1
  Er  Er4  1  0.66666667  0.33333333  0.83333333  1
  Er  Er5  1  0.33333333  0.66666667  0.66666667  1
  Al  Al6  1  0.12674467  0.47050033  0.30348633  1
  Al  Al7  1  0.52949967  0.65624433  0.30348633  1
  Al  Al8  1  0.34375567  0.87325533  0.30348633  1
  Al  Al9  1  0.87325533  0.34375567  0.19651367  1
  Al  Al10  1  0.65624433  0.52949967  0.19651367  1
  Al  Al11  1  0.47050033  0.12674467  0.19651367  1
  Al  Al12  1  0.53992200  0.86283300  0.02984700  1
  Al  Al13  1  0.13716700  0.67708900  0.02984700  1
  Al  Al14  1  0.00000000  0.00000000  0.25000000  1
  Al  Al15  1  0.66666667  0.33333333  0.08333333  1
  Al  Al16  1  0.19616633  0.20658867  0.13681967  1
  Al  Al17  1  0.01042233  0.80383367  0.13681967  1
  Al  Al18  1  0.79341133  0.98957767  0.13681967  1
  Al  Al19  1  0.32291100  0.46007800  0.02984700  1
  Al  Al20  1  0.79341133  0.80383367  0.63681967  1
  Al  Al21  1  0.19616633  0.98957767  0.63681967  1
  Al  Al22  1  0.01042233  0.20658867  0.63681967  1
  Al  Al23  1  0.53992200  0.67708900  0.52984700  1
  Al  Al24  1  0.32291100  0.86283300  0.52984700  1
  Al  Al25  1  0.13716700  0.46007800  0.52984700  1
  Al  Al26  1  0.20658867  0.19616633  0.36318033  1
  Al  Al27  1  0.80383367  0.01042233  0.36318033  1
  Al  Al28  1  0.66666667  0.33333333  0.58333333  1
  Al  Al29  1  0.33333333  0.66666667  0.41666667  1
  Al  Al30  1  0.86283300  0.53992200  0.47015300  1
  Al  Al31  1  0.67708900  0.13716700  0.47015300  1
  Al  Al32  1  0.46007800  0.32291100  0.47015300  1
  Al  Al33  1  0.98957767  0.79341133  0.36318033  1
  Al  Al34  1  0.46007800  0.13716700  0.97015300  1
  Al  Al35  1  0.86283300  0.32291100  0.97015300  1
  Al  Al36  1  0.67708900  0.53992200  0.97015300  1
  Al  Al37  1  0.20658867  0.01042233  0.86318033  1
  Al  Al38  1  0.98957767  0.19616633  0.86318033  1
  Al  Al39  1  0.80383367  0.79341133  0.86318033  1
  Al  Al40  1  0.87325533  0.52949967  0.69651367  1
  Al  Al41  1  0.47050033  0.34375567  0.69651367  1
  Al  Al42  1  0.33333333  0.66666667  0.91666667  1
  Al  Al43  1  0.00000000  0.00000000  0.75000000  1
  Al  Al44  1  0.52949967  0.87325533  0.80348633  1
  Al  Al45  1  0.34375567  0.47050033  0.80348633  1
  Al  Al46  1  0.12674467  0.65624433  0.80348633  1
  Al  Al47  1  0.65624433  0.12674467  0.69651367  1
  Au  Au48  1  0.66666667  0.65784733  0.08333333  1
  Au  Au49  1  0.34215267  0.00881933  0.08333333  1
  Au  Au50  1  0.99118067  0.33333333  0.08333333  1
  Au  Au51  1  0.00000000  0.67548600  0.25000000  1
  Au  Au52  1  0.32451400  0.32451400  0.25000000  1
  Au  Au53  1  0.67548600  0.00000000  0.25000000  1
  Au  Au54  1  0.33333333  0.99118067  0.41666667  1
  Au  Au55  1  0.00881933  0.34215267  0.41666667  1
  Au  Au56  1  0.65784733  0.66666667  0.41666667  1
  Au  Au57  1  0.66666667  0.00881933  0.58333333  1
  Au  Au58  1  0.99118067  0.65784733  0.58333333  1
  Au  Au59  1  0.34215267  0.33333333  0.58333333  1
  Au  Au60  1  0.00000000  0.32451400  0.75000000  1
  Au  Au61  1  0.67548600  0.67548600  0.75000000  1
  Au  Au62  1  0.32451400  0.00000000  0.75000000  1
  Au  Au63  1  0.33333333  0.34215267  0.91666667  1
  Au  Au64  1  0.65784733  0.99118067  0.91666667  1
  Au  Au65  1  0.00881933  0.66666667  0.91666667  1
