# generated using pymatgen
data_Lu5SbPd2
_symmetry_space_group_name_H-M   'P 1'
_cell_length_a   7.56343600
_cell_length_b   7.56343600
_cell_length_c   13.53262600
_cell_angle_alpha   90.00000000
_cell_angle_beta   90.00000000
_cell_angle_gamma   90.00000000
_symmetry_Int_Tables_number   1
_chemical_formula_structural   Lu5SbPd2
_chemical_formula_sum   'Lu20 Sb4 Pd8'
_cell_volume   774.14150444
_cell_formula_units_Z   4
loop_
 _symmetry_equiv_pos_site_id
 _symmetry_equiv_pos_as_xyz
  1  'x, y, z'
loop_
 _atom_site_type_symbol
 _atom_site_label
 _atom_site_symmetry_multiplicity
 _atom_site_fract_x
 _atom_site_fract_y
 _atom_site_fract_z
 _atom_site_occupancy
  Lu  Lu0  1  0.34424800  0.15575200  0.35671900  1
  Lu  Lu1  1  0.15575200  0.65575200  0.35671900  1
  Lu  Lu2  1  0.84424800  0.34424800  0.35671900  1
  Lu  Lu3  1  0.34424800  0.84424800  0.14328100  1
  Lu  Lu4  1  0.65575200  0.84424800  0.35671900  1
  Lu  Lu5  1  0.15575200  0.34424800  0.14328100  1
  Lu  Lu6  1  0.84424800  0.65575200  0.14328100  1
  Lu  Lu7  1  0.65575200  0.15575200  0.14328100  1
  Lu  Lu8  1  0.00000000  0.00000000  0.00000000  1
  Lu  Lu9  1  0.50000000  0.50000000  0.00000000  1
  Lu  Lu10  1  0.84424800  0.65575200  0.85671900  1
  Lu  Lu11  1  0.65575200  0.15575200  0.85671900  1
  Lu  Lu12  1  0.34424800  0.84424800  0.85671900  1
  Lu  Lu13  1  0.84424800  0.34424800  0.64328100  1
  Lu  Lu14  1  0.15575200  0.34424800  0.85671900  1
  Lu  Lu15  1  0.65575200  0.84424800  0.64328100  1
  Lu  Lu16  1  0.34424800  0.15575200  0.64328100  1
  Lu  Lu17  1  0.15575200  0.65575200  0.64328100  1
  Lu  Lu18  1  0.50000000  0.50000000  0.50000000  1
  Lu  Lu19  1  0.00000000  0.00000000  0.50000000  1
  Sb  Sb20  1  0.50000000  0.50000000  0.25000000  1
  Sb  Sb21  1  0.00000000  0.00000000  0.25000000  1
  Sb  Sb22  1  0.00000000  0.00000000  0.75000000  1
  Sb  Sb23  1  0.50000000  0.50000000  0.75000000  1
  Pd  Pd24  1  0.86176300  0.36176300  0.00000000  1
  Pd  Pd25  1  0.63823700  0.86176300  0.00000000  1
  Pd  Pd26  1  0.13823700  0.63823700  0.00000000  1
  Pd  Pd27  1  0.36176300  0.13823700  0.00000000  1
  Pd  Pd28  1  0.36176300  0.86176300  0.50000000  1
  Pd  Pd29  1  0.13823700  0.36176300  0.50000000  1
  Pd  Pd30  1  0.63823700  0.13823700  0.50000000  1
  Pd  Pd31  1  0.86176300  0.63823700  0.50000000  1
