# generated using pymatgen
data_Mn3Mo3C
_symmetry_space_group_name_H-M   'P 1'
_cell_length_a   11.12381000
_cell_length_b   11.12381000
_cell_length_c   11.12381000
_cell_angle_alpha   90.00000000
_cell_angle_beta   90.00000000
_cell_angle_gamma   90.00000000
_symmetry_Int_Tables_number   1
_chemical_formula_structural   Mn3Mo3C
_chemical_formula_sum   'Mn48 Mo48 C16'
_cell_volume   1376.45078210
_cell_formula_units_Z   16
loop_
 _symmetry_equiv_pos_site_id
 _symmetry_equiv_pos_as_xyz
  1  'x, y, z'
loop_
 _atom_site_type_symbol
 _atom_site_label
 _atom_site_symmetry_multiplicity
 _atom_site_fract_x
 _atom_site_fract_y
 _atom_site_fract_z
 _atom_site_occupancy
  Mn  Mn0  1  0.37500000  0.87500000  0.12500000  1
  Mn  Mn1  1  0.42169900  0.07830100  0.07830100  1
  Mn  Mn2  1  0.07830100  0.42169900  0.07830100  1
  Mn  Mn3  1  0.32830100  0.82830100  0.32830100  1
  Mn  Mn4  1  0.17169900  0.82830100  0.17169900  1
  Mn  Mn5  1  0.17169900  0.67169900  0.32830100  1
  Mn  Mn6  1  0.32830100  0.67169900  0.17169900  1
  Mn  Mn7  1  0.42169900  0.42169900  0.42169900  1
  Mn  Mn8  1  0.37500000  0.62500000  0.37500000  1
  Mn  Mn9  1  0.12500000  0.87500000  0.37500000  1
  Mn  Mn10  1  0.12500000  0.62500000  0.12500000  1
  Mn  Mn11  1  0.07830100  0.07830100  0.42169900  1
  Mn  Mn12  1  0.37500000  0.37500000  0.62500000  1
  Mn  Mn13  1  0.42169900  0.57830100  0.57830100  1
  Mn  Mn14  1  0.07830100  0.92169900  0.57830100  1
  Mn  Mn15  1  0.32830100  0.32830100  0.82830100  1
  Mn  Mn16  1  0.17169900  0.32830100  0.67169900  1
  Mn  Mn17  1  0.17169900  0.17169900  0.82830100  1
  Mn  Mn18  1  0.32830100  0.17169900  0.67169900  1
  Mn  Mn19  1  0.42169900  0.92169900  0.92169900  1
  Mn  Mn20  1  0.37500000  0.12500000  0.87500000  1
  Mn  Mn21  1  0.12500000  0.37500000  0.87500000  1
  Mn  Mn22  1  0.12500000  0.12500000  0.62500000  1
  Mn  Mn23  1  0.07830100  0.57830100  0.92169900  1
  Mn  Mn24  1  0.87500000  0.87500000  0.62500000  1
  Mn  Mn25  1  0.92169900  0.07830100  0.57830100  1
  Mn  Mn26  1  0.57830100  0.42169900  0.57830100  1
  Mn  Mn27  1  0.82830100  0.82830100  0.82830100  1
  Mn  Mn28  1  0.67169900  0.82830100  0.67169900  1
  Mn  Mn29  1  0.67169900  0.67169900  0.82830100  1
  Mn  Mn30  1  0.82830100  0.67169900  0.67169900  1
  Mn  Mn31  1  0.92169900  0.42169900  0.92169900  1
  Mn  Mn32  1  0.87500000  0.62500000  0.87500000  1
  Mn  Mn33  1  0.62500000  0.87500000  0.87500000  1
  Mn  Mn34  1  0.62500000  0.62500000  0.62500000  1
  Mn  Mn35  1  0.57830100  0.07830100  0.92169900  1
  Mn  Mn36  1  0.87500000  0.37500000  0.12500000  1
  Mn  Mn37  1  0.92169900  0.57830100  0.07830100  1
  Mn  Mn38  1  0.57830100  0.92169900  0.07830100  1
  Mn  Mn39  1  0.82830100  0.32830100  0.32830100  1
  Mn  Mn40  1  0.67169900  0.32830100  0.17169900  1
  Mn  Mn41  1  0.67169900  0.17169900  0.32830100  1
  Mn  Mn42  1  0.82830100  0.17169900  0.17169900  1
  Mn  Mn43  1  0.92169900  0.92169900  0.42169900  1
  Mn  Mn44  1  0.87500000  0.12500000  0.37500000  1
  Mn  Mn45  1  0.62500000  0.37500000  0.37500000  1
  Mn  Mn46  1  0.62500000  0.12500000  0.12500000  1
  Mn  Mn47  1  0.57830100  0.57830100  0.42169900  1
  Mo  Mo48  1  0.25000000  0.25000000  0.05235000  1
  Mo  Mo49  1  0.25000000  0.25000000  0.44765000  1
  Mo  Mo50  1  0.00000000  0.00000000  0.19765000  1
  Mo  Mo51  1  0.69765000  0.00000000  0.50000000  1
  Mo  Mo52  1  0.30235000  0.00000000  0.50000000  1
  Mo  Mo53  1  0.50000000  0.00000000  0.30235000  1
  Mo  Mo54  1  0.25000000  0.05235000  0.25000000  1
  Mo  Mo55  1  0.50000000  0.80235000  0.50000000  1
  Mo  Mo56  1  0.25000000  0.44765000  0.25000000  1
  Mo  Mo57  1  0.05235000  0.25000000  0.25000000  1
  Mo  Mo58  1  0.50000000  0.19765000  0.50000000  1
  Mo  Mo59  1  0.44765000  0.25000000  0.25000000  1
  Mo  Mo60  1  0.25000000  0.75000000  0.55235000  1
  Mo  Mo61  1  0.25000000  0.75000000  0.94765000  1
  Mo  Mo62  1  0.00000000  0.50000000  0.69765000  1
  Mo  Mo63  1  0.69765000  0.50000000  0.00000000  1
  Mo  Mo64  1  0.30235000  0.50000000  0.00000000  1
  Mo  Mo65  1  0.50000000  0.50000000  0.80235000  1
  Mo  Mo66  1  0.25000000  0.55235000  0.75000000  1
  Mo  Mo67  1  0.50000000  0.30235000  0.00000000  1
  Mo  Mo68  1  0.25000000  0.94765000  0.75000000  1
  Mo  Mo69  1  0.05235000  0.75000000  0.75000000  1
  Mo  Mo70  1  0.50000000  0.69765000  0.00000000  1
  Mo  Mo71  1  0.44765000  0.75000000  0.75000000  1
  Mo  Mo72  1  0.75000000  0.25000000  0.55235000  1
  Mo  Mo73  1  0.75000000  0.25000000  0.94765000  1
  Mo  Mo74  1  0.50000000  0.00000000  0.69765000  1
  Mo  Mo75  1  0.19765000  0.00000000  0.00000000  1
  Mo  Mo76  1  0.80235000  0.00000000  0.00000000  1
  Mo  Mo77  1  0.00000000  0.00000000  0.80235000  1
  Mo  Mo78  1  0.75000000  0.05235000  0.75000000  1
  Mo  Mo79  1  0.00000000  0.80235000  0.00000000  1
  Mo  Mo80  1  0.75000000  0.44765000  0.75000000  1
  Mo  Mo81  1  0.55235000  0.25000000  0.75000000  1
  Mo  Mo82  1  0.00000000  0.19765000  0.00000000  1
  Mo  Mo83  1  0.94765000  0.25000000  0.75000000  1
  Mo  Mo84  1  0.75000000  0.75000000  0.05235000  1
  Mo  Mo85  1  0.75000000  0.75000000  0.44765000  1
  Mo  Mo86  1  0.50000000  0.50000000  0.19765000  1
  Mo  Mo87  1  0.19765000  0.50000000  0.50000000  1
  Mo  Mo88  1  0.80235000  0.50000000  0.50000000  1
  Mo  Mo89  1  0.00000000  0.50000000  0.30235000  1
  Mo  Mo90  1  0.75000000  0.55235000  0.25000000  1
  Mo  Mo91  1  0.00000000  0.30235000  0.50000000  1
  Mo  Mo92  1  0.75000000  0.94765000  0.25000000  1
  Mo  Mo93  1  0.55235000  0.75000000  0.25000000  1
  Mo  Mo94  1  0.00000000  0.69765000  0.50000000  1
  Mo  Mo95  1  0.94765000  0.75000000  0.25000000  1
  C  C96  1  0.87500000  0.87500000  0.12500000  1
  C  C97  1  0.62500000  0.87500000  0.37500000  1
  C  C98  1  0.37500000  0.12500000  0.37500000  1
  C  C99  1  0.12500000  0.12500000  0.12500000  1
  C  C100  1  0.87500000  0.37500000  0.62500000  1
  C  C101  1  0.62500000  0.37500000  0.87500000  1
  C  C102  1  0.37500000  0.62500000  0.87500000  1
  C  C103  1  0.12500000  0.62500000  0.62500000  1
  C  C104  1  0.37500000  0.87500000  0.62500000  1
  C  C105  1  0.12500000  0.87500000  0.87500000  1
  C  C106  1  0.87500000  0.12500000  0.87500000  1
  C  C107  1  0.62500000  0.12500000  0.62500000  1
  C  C108  1  0.37500000  0.37500000  0.12500000  1
  C  C109  1  0.12500000  0.37500000  0.37500000  1
  C  C110  1  0.87500000  0.62500000  0.37500000  1
  C  C111  1  0.62500000  0.62500000  0.12500000  1
