# generated using pymatgen
data_Tc3P
_symmetry_space_group_name_H-M   'P 1'
_cell_length_a   9.56384200
_cell_length_b   9.56384200
_cell_length_c   4.85921200
_cell_angle_alpha   90.00000000
_cell_angle_beta   90.00000000
_cell_angle_gamma   90.00000000
_symmetry_Int_Tables_number   1
_chemical_formula_structural   Tc3P
_chemical_formula_sum   'Tc24 P8'
_cell_volume   444.45790262
_cell_formula_units_Z   8
loop_
 _symmetry_equiv_pos_site_id
 _symmetry_equiv_pos_as_xyz
  1  'x, y, z'
loop_
 _atom_site_type_symbol
 _atom_site_label
 _atom_site_symmetry_multiplicity
 _atom_site_fract_x
 _atom_site_fract_y
 _atom_site_fract_z
 _atom_site_occupancy
  Tc  Tc0  1  0.65135050  0.99749650  0.99554050  1
  Tc  Tc1  1  0.49749650  0.84864950  0.50445950  1
  Tc  Tc2  1  0.50250350  0.15135050  0.50445950  1
  Tc  Tc3  1  0.34864950  0.00250350  0.99554050  1
  Tc  Tc4  1  0.29846400  0.29311400  0.20552800  1
  Tc  Tc5  1  0.79311400  0.20153600  0.29447200  1
  Tc  Tc6  1  0.20688600  0.79846400  0.29447200  1
  Tc  Tc7  1  0.70153600  0.70688600  0.20552800  1
  Tc  Tc8  1  0.09888400  0.09823500  0.19361300  1
  Tc  Tc9  1  0.59823500  0.40111600  0.30638700  1
  Tc  Tc10  1  0.40176500  0.59888400  0.30638700  1
  Tc  Tc11  1  0.90111600  0.90176500  0.19361300  1
  Tc  Tc12  1  0.15135050  0.49749650  0.49554050  1
  Tc  Tc13  1  0.99749650  0.34864950  0.00445950  1
  Tc  Tc14  1  0.00250350  0.65135050  0.00445950  1
  Tc  Tc15  1  0.84864950  0.50250350  0.49554050  1
  Tc  Tc16  1  0.79846400  0.79311400  0.70552800  1
  Tc  Tc17  1  0.29311400  0.70153600  0.79447200  1
  Tc  Tc18  1  0.70688600  0.29846400  0.79447200  1
  Tc  Tc19  1  0.20153600  0.20688600  0.70552800  1
  Tc  Tc20  1  0.59888400  0.59823500  0.69361300  1
  Tc  Tc21  1  0.09823500  0.90111600  0.80638700  1
  Tc  Tc22  1  0.90176500  0.09888400  0.80638700  1
  Tc  Tc23  1  0.40111600  0.40176500  0.69361300  1
  P  P24  1  0.29106300  0.00297500  0.50007000  1
  P  P25  1  0.50297500  0.20893700  0.99993000  1
  P  P26  1  0.49702500  0.79106300  0.99993000  1
  P  P27  1  0.70893700  0.99702500  0.50007000  1
  P  P28  1  0.79106300  0.50297500  0.00007000  1
  P  P29  1  0.00297500  0.70893700  0.49993000  1
  P  P30  1  0.99702500  0.29106300  0.49993000  1
  P  P31  1  0.20893700  0.49702500  0.00007000  1
