# generated using pymatgen
data_BaIn2Rh
_symmetry_space_group_name_H-M   'P 1'
_cell_length_a   4.50953600
_cell_length_b   11.75369000
_cell_length_c   8.17366300
_cell_angle_alpha   90.00000000
_cell_angle_beta   90.00000000
_cell_angle_gamma   90.00000000
_symmetry_Int_Tables_number   1
_chemical_formula_structural   BaIn2Rh
_chemical_formula_sum   'Ba4 In8 Rh4'
_cell_volume   433.23428500
_cell_formula_units_Z   4
loop_
 _symmetry_equiv_pos_site_id
 _symmetry_equiv_pos_as_xyz
  1  'x, y, z'
loop_
 _atom_site_type_symbol
 _atom_site_label
 _atom_site_symmetry_multiplicity
 _atom_site_fract_x
 _atom_site_fract_y
 _atom_site_fract_z
 _atom_site_occupancy
  Ba  Ba0  1  0.50000000  0.44829900  0.75000000  1
  Ba  Ba1  1  0.00000000  0.05170100  0.25000000  1
  Ba  Ba2  1  0.00000000  0.94829900  0.75000000  1
  Ba  Ba3  1  0.50000000  0.55170100  0.25000000  1
  In  In4  1  0.00000000  0.33378700  0.05567300  1
  In  In5  1  0.50000000  0.16621300  0.94432700  1
  In  In6  1  0.00000000  0.33378700  0.44432700  1
  In  In7  1  0.50000000  0.16621300  0.55567300  1
  In  In8  1  0.50000000  0.83378700  0.05567300  1
  In  In9  1  0.00000000  0.66621300  0.94432700  1
  In  In10  1  0.50000000  0.83378700  0.44432700  1
  In  In11  1  0.00000000  0.66621300  0.55567300  1
  Rh  Rh12  1  0.50000000  0.28181900  0.25000000  1
  Rh  Rh13  1  0.00000000  0.21818100  0.75000000  1
  Rh  Rh14  1  0.00000000  0.78181900  0.25000000  1
  Rh  Rh15  1  0.50000000  0.71818100  0.75000000  1
