# generated using pymatgen
data_NpAl4
_symmetry_space_group_name_H-M   'P 1'
_cell_length_a   4.42214400
_cell_length_b   6.14396000
_cell_length_c   13.82533600
_cell_angle_alpha   90.00000000
_cell_angle_beta   90.00000000
_cell_angle_gamma   90.00000000
_symmetry_Int_Tables_number   1
_chemical_formula_structural   NpAl4
_chemical_formula_sum   'Np4 Al16'
_cell_volume   375.62713257
_cell_formula_units_Z   4
loop_
 _symmetry_equiv_pos_site_id
 _symmetry_equiv_pos_as_xyz
  1  'x, y, z'
loop_
 _atom_site_type_symbol
 _atom_site_label
 _atom_site_symmetry_multiplicity
 _atom_site_fract_x
 _atom_site_fract_y
 _atom_site_fract_z
 _atom_site_occupancy
  Np  Np0  1  0.00000000  0.75000000  0.89112500  1
  Np  Np1  1  0.50000000  0.75000000  0.60887500  1
  Np  Np2  1  0.50000000  0.25000000  0.39112500  1
  Np  Np3  1  0.00000000  0.25000000  0.10887500  1
  Al  Al4  1  0.50000000  0.50000000  0.00000000  1
  Al  Al5  1  0.50000000  0.00000000  0.00000000  1
  Al  Al6  1  0.50000000  0.25000000  0.61345300  1
  Al  Al7  1  0.00000000  0.25000000  0.88654700  1
  Al  Al8  1  0.00000000  0.01965750  0.69896250  1
  Al  Al9  1  0.50000000  0.48034250  0.80103750  1
  Al  Al10  1  0.50000000  0.01965750  0.80103750  1
  Al  Al11  1  0.00000000  0.48034250  0.69896250  1
  Al  Al12  1  0.00000000  0.00000000  0.50000000  1
  Al  Al13  1  0.00000000  0.50000000  0.50000000  1
  Al  Al14  1  0.00000000  0.75000000  0.11345300  1
  Al  Al15  1  0.50000000  0.75000000  0.38654700  1
  Al  Al16  1  0.50000000  0.51965750  0.19896250  1
  Al  Al17  1  0.00000000  0.98034250  0.30103750  1
  Al  Al18  1  0.00000000  0.51965750  0.30103750  1
  Al  Al19  1  0.50000000  0.98034250  0.19896250  1
