# generated using pymatgen
data_Ba2Li(CuO2)3
_symmetry_space_group_name_H-M   'P 1'
_cell_length_a   8.33532000
_cell_length_b   11.56489200
_cell_length_c   14.23650800
_cell_angle_alpha   90.00000000
_cell_angle_beta   90.00000000
_cell_angle_gamma   90.00000000
_symmetry_Int_Tables_number   1
_chemical_formula_structural   Ba2Li(CuO2)3
_chemical_formula_sum   'Ba16 Li8 Cu24 O48'
_cell_volume   1372.35773775
_cell_formula_units_Z   8
loop_
 _symmetry_equiv_pos_site_id
 _symmetry_equiv_pos_as_xyz
  1  'x, y, z'
loop_
 _atom_site_type_symbol
 _atom_site_label
 _atom_site_symmetry_multiplicity
 _atom_site_fract_x
 _atom_site_fract_y
 _atom_site_fract_z
 _atom_site_occupancy
  Ba  Ba0  1  0.75000000  0.25000000  0.25000000  1
  Ba  Ba1  1  0.75000000  0.75000000  0.25000000  1
  Ba  Ba2  1  0.50000000  0.73022000  0.00000000  1
  Ba  Ba3  1  0.50000000  0.26978000  0.00000000  1
  Ba  Ba4  1  0.75000000  0.75000000  0.75000000  1
  Ba  Ba5  1  0.75000000  0.25000000  0.75000000  1
  Ba  Ba6  1  0.50000000  0.23022000  0.50000000  1
  Ba  Ba7  1  0.50000000  0.76978000  0.50000000  1
  Ba  Ba8  1  0.25000000  0.25000000  0.75000000  1
  Ba  Ba9  1  0.25000000  0.75000000  0.75000000  1
  Ba  Ba10  1  0.00000000  0.73022000  0.50000000  1
  Ba  Ba11  1  0.00000000  0.26978000  0.50000000  1
  Ba  Ba12  1  0.25000000  0.75000000  0.25000000  1
  Ba  Ba13  1  0.25000000  0.25000000  0.25000000  1
  Ba  Ba14  1  0.00000000  0.23022000  0.00000000  1
  Ba  Ba15  1  0.00000000  0.76978000  0.00000000  1
  Li  Li16  1  0.50000000  0.00000000  0.16578700  1
  Li  Li17  1  0.00000000  0.00000000  0.33421300  1
  Li  Li18  1  0.50000000  0.50000000  0.66578700  1
  Li  Li19  1  0.00000000  0.50000000  0.83421300  1
  Li  Li20  1  0.00000000  0.00000000  0.66578700  1
  Li  Li21  1  0.50000000  0.00000000  0.83421300  1
  Li  Li22  1  0.00000000  0.50000000  0.16578700  1
  Li  Li23  1  0.50000000  0.50000000  0.33421300  1
  Cu  Cu24  1  0.15710200  0.00000000  0.15296500  1
  Cu  Cu25  1  0.65710200  0.00000000  0.34703500  1
  Cu  Cu26  1  0.34289800  0.00000000  0.34703500  1
  Cu  Cu27  1  0.84289800  0.00000000  0.15296500  1
  Cu  Cu28  1  0.32089900  0.00000000  0.00000000  1
  Cu  Cu29  1  0.67910100  0.00000000  0.00000000  1
  Cu  Cu30  1  0.15710200  0.50000000  0.65296500  1
  Cu  Cu31  1  0.65710200  0.50000000  0.84703500  1
  Cu  Cu32  1  0.34289800  0.50000000  0.84703500  1
  Cu  Cu33  1  0.84289800  0.50000000  0.65296500  1
  Cu  Cu34  1  0.32089900  0.50000000  0.50000000  1
  Cu  Cu35  1  0.67910100  0.50000000  0.50000000  1
  Cu  Cu36  1  0.65710200  0.00000000  0.65296500  1
  Cu  Cu37  1  0.15710200  0.00000000  0.84703500  1
  Cu  Cu38  1  0.84289800  0.00000000  0.84703500  1
  Cu  Cu39  1  0.34289800  0.00000000  0.65296500  1
  Cu  Cu40  1  0.82089900  0.00000000  0.50000000  1
  Cu  Cu41  1  0.17910100  0.00000000  0.50000000  1
  Cu  Cu42  1  0.65710200  0.50000000  0.15296500  1
  Cu  Cu43  1  0.15710200  0.50000000  0.34703500  1
  Cu  Cu44  1  0.84289800  0.50000000  0.34703500  1
  Cu  Cu45  1  0.34289800  0.50000000  0.15296500  1
  Cu  Cu46  1  0.82089900  0.50000000  0.00000000  1
  Cu  Cu47  1  0.17910100  0.50000000  0.00000000  1
  O  O48  1  0.30895850  0.10995700  0.09624350  1
  O  O49  1  0.80895850  0.89004300  0.40375650  1
  O  O50  1  0.30895850  0.89004300  0.09624350  1
  O  O51  1  0.80895850  0.10995700  0.40375650  1
  O  O52  1  0.19104150  0.89004300  0.40375650  1
  O  O53  1  0.69104150  0.10995700  0.09624350  1
  O  O54  1  0.50000000  0.11395200  0.30766900  1
  O  O55  1  0.00000000  0.88604800  0.19233100  1
  O  O56  1  0.19104150  0.10995700  0.40375650  1
  O  O57  1  0.69104150  0.89004300  0.09624350  1
  O  O58  1  0.50000000  0.88604800  0.30766900  1
  O  O59  1  0.00000000  0.11395200  0.19233100  1
  O  O60  1  0.30895850  0.60995700  0.59624350  1
  O  O61  1  0.80895850  0.39004300  0.90375650  1
  O  O62  1  0.30895850  0.39004300  0.59624350  1
  O  O63  1  0.80895850  0.60995700  0.90375650  1
  O  O64  1  0.19104150  0.39004300  0.90375650  1
  O  O65  1  0.69104150  0.60995700  0.59624350  1
  O  O66  1  0.50000000  0.61395200  0.80766900  1
  O  O67  1  0.00000000  0.38604800  0.69233100  1
  O  O68  1  0.19104150  0.60995700  0.90375650  1
  O  O69  1  0.69104150  0.39004300  0.59624350  1
  O  O70  1  0.50000000  0.38604800  0.80766900  1
  O  O71  1  0.00000000  0.61395200  0.69233100  1
  O  O72  1  0.80895850  0.10995700  0.59624350  1
  O  O73  1  0.30895850  0.89004300  0.90375650  1
  O  O74  1  0.80895850  0.89004300  0.59624350  1
  O  O75  1  0.30895850  0.10995700  0.90375650  1
  O  O76  1  0.69104150  0.89004300  0.90375650  1
  O  O77  1  0.19104150  0.10995700  0.59624350  1
  O  O78  1  0.00000000  0.11395200  0.80766900  1
  O  O79  1  0.50000000  0.88604800  0.69233100  1
  O  O80  1  0.69104150  0.10995700  0.90375650  1
  O  O81  1  0.19104150  0.89004300  0.59624350  1
  O  O82  1  0.00000000  0.88604800  0.80766900  1
  O  O83  1  0.50000000  0.11395200  0.69233100  1
  O  O84  1  0.80895850  0.60995700  0.09624350  1
  O  O85  1  0.30895850  0.39004300  0.40375650  1
  O  O86  1  0.80895850  0.39004300  0.09624350  1
  O  O87  1  0.30895850  0.60995700  0.40375650  1
  O  O88  1  0.69104150  0.39004300  0.40375650  1
  O  O89  1  0.19104150  0.60995700  0.09624350  1
  O  O90  1  0.00000000  0.61395200  0.30766900  1
  O  O91  1  0.50000000  0.38604800  0.19233100  1
  O  O92  1  0.69104150  0.60995700  0.40375650  1
  O  O93  1  0.19104150  0.39004300  0.09624350  1
  O  O94  1  0.00000000  0.38604800  0.30766900  1
  O  O95  1  0.50000000  0.61395200  0.19233100  1
