# generated using pymatgen
data_NdCu2
_symmetry_space_group_name_H-M   'P 1'
_cell_length_a   4.35360000
_cell_length_b   7.06450600
_cell_length_c   7.33180000
_cell_angle_alpha   90.00000000
_cell_angle_beta   90.00000000
_cell_angle_gamma   90.00000000
_symmetry_Int_Tables_number   1
_chemical_formula_structural   NdCu2
_chemical_formula_sum   'Nd4 Cu8'
_cell_volume   225.49708511
_cell_formula_units_Z   4
loop_
 _symmetry_equiv_pos_site_id
 _symmetry_equiv_pos_as_xyz
  1  'x, y, z'
loop_
 _atom_site_type_symbol
 _atom_site_label
 _atom_site_symmetry_multiplicity
 _atom_site_fract_x
 _atom_site_fract_y
 _atom_site_fract_z
 _atom_site_occupancy
  Nd  Nd0  1  0.00000000  0.75000000  0.45910400  1
  Nd  Nd1  1  0.00000000  0.25000000  0.54089600  1
  Nd  Nd2  1  0.50000000  0.25000000  0.95910400  1
  Nd  Nd3  1  0.50000000  0.75000000  0.04089600  1
  Cu  Cu4  1  0.50000000  0.05264200  0.33478200  1
  Cu  Cu5  1  0.50000000  0.94735800  0.66521800  1
  Cu  Cu6  1  0.00000000  0.05264200  0.16521800  1
  Cu  Cu7  1  0.00000000  0.94735800  0.83478200  1
  Cu  Cu8  1  0.00000000  0.55264200  0.83478200  1
  Cu  Cu9  1  0.00000000  0.44735800  0.16521800  1
  Cu  Cu10  1  0.50000000  0.55264200  0.66521800  1
  Cu  Cu11  1  0.50000000  0.44735800  0.33478200  1
