# generated using pymatgen
data_Pr2AlCo2
_symmetry_space_group_name_H-M   'P 1'
_cell_length_a   9.63591800
_cell_length_b   5.67209400
_cell_length_c   7.65230268
_cell_angle_alpha   90.00000000
_cell_angle_beta   103.56942244
_cell_angle_gamma   90.00000000
_symmetry_Int_Tables_number   1
_chemical_formula_structural   Pr2AlCo2
_chemical_formula_sum   'Pr8 Al4 Co8'
_cell_volume   406.56828784
_cell_formula_units_Z   4
loop_
 _symmetry_equiv_pos_site_id
 _symmetry_equiv_pos_as_xyz
  1  'x, y, z'
loop_
 _atom_site_type_symbol
 _atom_site_label
 _atom_site_symmetry_multiplicity
 _atom_site_fract_x
 _atom_site_fract_y
 _atom_site_fract_z
 _atom_site_occupancy
  Pr  Pr0  1  0.64592150  0.85601150  0.14658700  1
  Pr  Pr1  1  0.35407850  0.85601150  0.35341300  1
  Pr  Pr2  1  0.35407850  0.14398850  0.85341300  1
  Pr  Pr3  1  0.64592150  0.14398850  0.64658700  1
  Pr  Pr4  1  0.14592150  0.35601150  0.14658700  1
  Pr  Pr5  1  0.85407850  0.35601150  0.35341300  1
  Pr  Pr6  1  0.85407850  0.64398850  0.85341300  1
  Pr  Pr7  1  0.14592150  0.64398850  0.64658700  1
  Al  Al8  1  0.50000000  0.38280200  0.25000000  1
  Al  Al9  1  0.50000000  0.61719800  0.75000000  1
  Al  Al10  1  0.00000000  0.88280200  0.25000000  1
  Al  Al11  1  0.00000000  0.11719800  0.75000000  1
  Co  Co12  1  0.85705750  0.85839550  0.49500200  1
  Co  Co13  1  0.14294250  0.85839550  0.00499800  1
  Co  Co14  1  0.85705750  0.14160450  0.99500200  1
  Co  Co15  1  0.14294250  0.14160450  0.50499800  1
  Co  Co16  1  0.35705750  0.35839550  0.49500200  1
  Co  Co17  1  0.64294250  0.35839550  0.00499800  1
  Co  Co18  1  0.35705750  0.64160450  0.99500200  1
  Co  Co19  1  0.64294250  0.64160450  0.50499800  1
