# generated using pymatgen
data_ErAl3Ni2
_symmetry_space_group_name_H-M   'P 1'
_cell_length_a   8.96336023
_cell_length_b   8.96336023
_cell_length_c   4.07344600
_cell_angle_alpha   90.00000000
_cell_angle_beta   90.00000000
_cell_angle_gamma   120.00000000
_symmetry_Int_Tables_number   1
_chemical_formula_structural   ErAl3Ni2
_chemical_formula_sum   'Er3 Al9 Ni6'
_cell_volume   283.42248189
_cell_formula_units_Z   3
loop_
 _symmetry_equiv_pos_site_id
 _symmetry_equiv_pos_as_xyz
  1  'x, y, z'
loop_
 _atom_site_type_symbol
 _atom_site_label
 _atom_site_symmetry_multiplicity
 _atom_site_fract_x
 _atom_site_fract_y
 _atom_site_fract_z
 _atom_site_occupancy
  Er  Er0  1  0.33333333  0.66666667  0.00000000  1
  Er  Er1  1  0.66666667  0.33333333  0.00000000  1
  Er  Er2  1  0.00000000  0.00000000  0.50000000  1
  Al  Al3  1  0.00000000  0.50000000  0.50000000  1
  Al  Al4  1  0.50000000  0.50000000  0.50000000  1
  Al  Al5  1  0.50000000  0.00000000  0.50000000  1
  Al  Al6  1  0.00000000  0.70250550  0.00000000  1
  Al  Al7  1  0.29749450  0.00000000  0.00000000  1
  Al  Al8  1  0.70250550  0.70250550  0.00000000  1
  Al  Al9  1  0.29749450  0.29749450  0.00000000  1
  Al  Al10  1  0.70250550  0.00000000  0.00000000  1
  Al  Al11  1  0.00000000  0.29749450  0.00000000  1
  Ni  Ni12  1  0.63625300  0.81812650  0.50000000  1
  Ni  Ni13  1  0.81812650  0.18187350  0.50000000  1
  Ni  Ni14  1  0.81812650  0.63625300  0.50000000  1
  Ni  Ni15  1  0.36374700  0.18187350  0.50000000  1
  Ni  Ni16  1  0.18187350  0.36374700  0.50000000  1
  Ni  Ni17  1  0.18187350  0.81812650  0.50000000  1
