# generated using pymatgen
data_CeAlO3
_symmetry_space_group_name_H-M   'P 1'
_cell_length_a   5.37035200
_cell_length_b   5.40068200
_cell_length_c   7.55662200
_cell_angle_alpha   90.00000000
_cell_angle_beta   90.00000000
_cell_angle_gamma   90.00000000
_symmetry_Int_Tables_number   1
_chemical_formula_structural   CeAlO3
_chemical_formula_sum   'Ce4 Al4 O12'
_cell_volume   219.16896512
_cell_formula_units_Z   4
loop_
 _symmetry_equiv_pos_site_id
 _symmetry_equiv_pos_as_xyz
  1  'x, y, z'
loop_
 _atom_site_type_symbol
 _atom_site_label
 _atom_site_symmetry_multiplicity
 _atom_site_fract_x
 _atom_site_fract_y
 _atom_site_fract_z
 _atom_site_occupancy
  Ce  Ce0  1  0.50000000  0.00184000  0.25000000  1
  Ce  Ce1  1  0.00000000  0.49816000  0.25000000  1
  Ce  Ce2  1  0.00000000  0.50184000  0.75000000  1
  Ce  Ce3  1  0.50000000  0.99816000  0.75000000  1
  Al  Al4  1  0.00000000  0.00000000  0.00000000  1
  Al  Al5  1  0.00000000  0.00000000  0.50000000  1
  Al  Al6  1  0.50000000  0.50000000  0.50000000  1
  Al  Al7  1  0.50000000  0.50000000  0.00000000  1
  O  O8  1  0.25000000  0.75000000  0.97138300  1
  O  O9  1  0.75000000  0.75000000  0.52861700  1
  O  O10  1  0.25000000  0.75000000  0.52861700  1
  O  O11  1  0.25000000  0.25000000  0.47138300  1
  O  O12  1  0.00000000  0.94518200  0.25000000  1
  O  O13  1  0.50000000  0.55481800  0.25000000  1
  O  O14  1  0.75000000  0.25000000  0.47138300  1
  O  O15  1  0.25000000  0.25000000  0.02861700  1
  O  O16  1  0.75000000  0.25000000  0.02861700  1
  O  O17  1  0.75000000  0.75000000  0.97138300  1
  O  O18  1  0.50000000  0.44518200  0.75000000  1
  O  O19  1  0.00000000  0.05481800  0.75000000  1
