# generated using pymatgen
data_Yb3(GePd)4
_symmetry_space_group_name_H-M   'P 1'
_cell_length_a   4.19292800
_cell_length_b   7.17417600
_cell_length_c   13.91680000
_cell_angle_alpha   90.00000000
_cell_angle_beta   90.00000000
_cell_angle_gamma   90.00000000
_symmetry_Int_Tables_number   1
_chemical_formula_structural   Yb3(GePd)4
_chemical_formula_sum   'Yb6 Ge8 Pd8'
_cell_volume   418.62852514
_cell_formula_units_Z   2
loop_
 _symmetry_equiv_pos_site_id
 _symmetry_equiv_pos_as_xyz
  1  'x, y, z'
loop_
 _atom_site_type_symbol
 _atom_site_label
 _atom_site_symmetry_multiplicity
 _atom_site_fract_x
 _atom_site_fract_y
 _atom_site_fract_z
 _atom_site_occupancy
  Yb  Yb0  1  0.00000000  0.00000000  0.00000000  1
  Yb  Yb1  1  0.50000000  0.00000000  0.62689200  1
  Yb  Yb2  1  0.00000000  0.50000000  0.87310800  1
  Yb  Yb3  1  0.50000000  0.50000000  0.50000000  1
  Yb  Yb4  1  0.00000000  0.50000000  0.12689200  1
  Yb  Yb5  1  0.50000000  0.00000000  0.37310800  1
  Ge  Ge6  1  0.50000000  0.32259600  0.00000000  1
  Ge  Ge7  1  0.50000000  0.67740400  0.00000000  1
  Ge  Ge8  1  0.00000000  0.00000000  0.77943600  1
  Ge  Ge9  1  0.50000000  0.50000000  0.72056400  1
  Ge  Ge10  1  0.00000000  0.82259600  0.50000000  1
  Ge  Ge11  1  0.00000000  0.17740400  0.50000000  1
  Ge  Ge12  1  0.50000000  0.50000000  0.27943600  1
  Ge  Ge13  1  0.00000000  0.00000000  0.22056400  1
  Pd  Pd14  1  0.50000000  0.80096900  0.82533700  1
  Pd  Pd15  1  0.00000000  0.30096900  0.67466300  1
  Pd  Pd16  1  0.50000000  0.19903100  0.82533700  1
  Pd  Pd17  1  0.00000000  0.69903100  0.67466300  1
  Pd  Pd18  1  0.00000000  0.30096900  0.32533700  1
  Pd  Pd19  1  0.50000000  0.80096900  0.17466300  1
  Pd  Pd20  1  0.00000000  0.69903100  0.32533700  1
  Pd  Pd21  1  0.50000000  0.19903100  0.17466300  1
