# generated using pymatgen
data_NpSi
_symmetry_space_group_name_H-M   'P 1'
_cell_length_a   4.28072000
_cell_length_b   12.10005400
_cell_length_c   6.37602200
_cell_angle_alpha   90.00000000
_cell_angle_beta   90.00000000
_cell_angle_gamma   90.00000000
_symmetry_Int_Tables_number   1
_chemical_formula_structural   NpSi
_chemical_formula_sum   'Np8 Si8'
_cell_volume   330.25844911
_cell_formula_units_Z   8
loop_
 _symmetry_equiv_pos_site_id
 _symmetry_equiv_pos_as_xyz
  1  'x, y, z'
loop_
 _atom_site_type_symbol
 _atom_site_label
 _atom_site_symmetry_multiplicity
 _atom_site_fract_x
 _atom_site_fract_y
 _atom_site_fract_z
 _atom_site_occupancy
  Np  Np0  1  0.00000000  0.72762300  0.25000000  1
  Np  Np1  1  0.50000000  0.77237700  0.75000000  1
  Np  Np2  1  0.00000000  0.55607300  0.75000000  1
  Np  Np3  1  0.50000000  0.94392700  0.25000000  1
  Np  Np4  1  0.50000000  0.22762300  0.25000000  1
  Np  Np5  1  0.00000000  0.27237700  0.75000000  1
  Np  Np6  1  0.50000000  0.05607300  0.75000000  1
  Np  Np7  1  0.00000000  0.44392700  0.25000000  1
  Si  Si8  1  0.00000000  0.90383500  0.55933700  1
  Si  Si9  1  0.50000000  0.59616500  0.44066300  1
  Si  Si10  1  0.00000000  0.90383500  0.94066300  1
  Si  Si11  1  0.50000000  0.59616500  0.05933700  1
  Si  Si12  1  0.50000000  0.40383500  0.55933700  1
  Si  Si13  1  0.00000000  0.09616500  0.44066300  1
  Si  Si14  1  0.50000000  0.40383500  0.94066300  1
  Si  Si15  1  0.00000000  0.09616500  0.05933700  1
