# generated using pymatgen
data_Lu2C3
_symmetry_space_group_name_H-M   'P 1'
_cell_length_a   8.01144600
_cell_length_b   8.01144600
_cell_length_c   8.01144600
_cell_angle_alpha   90.00000000
_cell_angle_beta   90.00000000
_cell_angle_gamma   90.00000000
_symmetry_Int_Tables_number   1
_chemical_formula_structural   Lu2C3
_chemical_formula_sum   'Lu16 C24'
_cell_volume   514.20077776
_cell_formula_units_Z   8
loop_
 _symmetry_equiv_pos_site_id
 _symmetry_equiv_pos_as_xyz
  1  'x, y, z'
loop_
 _atom_site_type_symbol
 _atom_site_label
 _atom_site_symmetry_multiplicity
 _atom_site_fract_x
 _atom_site_fract_y
 _atom_site_fract_z
 _atom_site_occupancy
  Lu  Lu0  1  0.05014250  0.55014250  0.94985750  1
  Lu  Lu1  1  0.19985750  0.80014250  0.30014250  1
  Lu  Lu2  1  0.19985750  0.19985750  0.19985750  1
  Lu  Lu3  1  0.30014250  0.19985750  0.80014250  1
  Lu  Lu4  1  0.44985750  0.44985750  0.44985750  1
  Lu  Lu5  1  0.55014250  0.94985750  0.05014250  1
  Lu  Lu6  1  0.94985750  0.05014250  0.55014250  1
  Lu  Lu7  1  0.80014250  0.30014250  0.19985750  1
  Lu  Lu8  1  0.55014250  0.05014250  0.44985750  1
  Lu  Lu9  1  0.69985750  0.30014250  0.80014250  1
  Lu  Lu10  1  0.69985750  0.69985750  0.69985750  1
  Lu  Lu11  1  0.80014250  0.69985750  0.30014250  1
  Lu  Lu12  1  0.94985750  0.94985750  0.94985750  1
  Lu  Lu13  1  0.05014250  0.44985750  0.55014250  1
  Lu  Lu14  1  0.44985750  0.55014250  0.05014250  1
  Lu  Lu15  1  0.30014250  0.80014250  0.69985750  1
  C  C16  1  0.75000000  0.29102000  0.50000000  1
  C  C17  1  0.75000000  0.45898000  0.50000000  1
  C  C18  1  0.04102000  0.50000000  0.25000000  1
  C  C19  1  0.50000000  0.75000000  0.45898000  1
  C  C20  1  0.45898000  0.50000000  0.75000000  1
  C  C21  1  0.50000000  0.25000000  0.04102000  1
  C  C22  1  0.25000000  0.20898000  0.50000000  1
  C  C23  1  0.50000000  0.75000000  0.29102000  1
  C  C24  1  0.25000000  0.04102000  0.50000000  1
  C  C25  1  0.20898000  0.50000000  0.25000000  1
  C  C26  1  0.29102000  0.50000000  0.75000000  1
  C  C27  1  0.50000000  0.25000000  0.20898000  1
  C  C28  1  0.25000000  0.79102000  0.00000000  1
  C  C29  1  0.25000000  0.95898000  0.00000000  1
  C  C30  1  0.54102000  0.00000000  0.75000000  1
  C  C31  1  0.00000000  0.25000000  0.95898000  1
  C  C32  1  0.95898000  0.00000000  0.25000000  1
  C  C33  1  0.00000000  0.75000000  0.54102000  1
  C  C34  1  0.75000000  0.70898000  0.00000000  1
  C  C35  1  0.00000000  0.25000000  0.79102000  1
  C  C36  1  0.75000000  0.54102000  0.00000000  1
  C  C37  1  0.70898000  0.00000000  0.75000000  1
  C  C38  1  0.79102000  0.00000000  0.25000000  1
  C  C39  1  0.00000000  0.75000000  0.70898000  1
