# generated using pymatgen
data_KUCuS3
_symmetry_space_group_name_H-M   'P 1'
_cell_length_a   3.96195800
_cell_length_b   14.14847400
_cell_length_c   10.29570800
_cell_angle_alpha   90.00000000
_cell_angle_beta   90.00000000
_cell_angle_gamma   90.00000000
_symmetry_Int_Tables_number   1
_chemical_formula_structural   KUCuS3
_chemical_formula_sum   'K4 U4 Cu4 S12'
_cell_volume   577.13270455
_cell_formula_units_Z   4
loop_
 _symmetry_equiv_pos_site_id
 _symmetry_equiv_pos_as_xyz
  1  'x, y, z'
loop_
 _atom_site_type_symbol
 _atom_site_label
 _atom_site_symmetry_multiplicity
 _atom_site_fract_x
 _atom_site_fract_y
 _atom_site_fract_z
 _atom_site_occupancy
  K  K0  1  0.00000000  0.25662000  0.75000000  1
  K  K1  1  0.50000000  0.24338000  0.25000000  1
  K  K2  1  0.50000000  0.75662000  0.75000000  1
  K  K3  1  0.00000000  0.74338000  0.25000000  1
  U  U4  1  0.00000000  0.00000000  0.00000000  1
  U  U5  1  0.00000000  0.00000000  0.50000000  1
  U  U6  1  0.50000000  0.50000000  0.00000000  1
  U  U7  1  0.50000000  0.50000000  0.50000000  1
  Cu  Cu8  1  0.00000000  0.46727000  0.25000000  1
  Cu  Cu9  1  0.50000000  0.03273000  0.75000000  1
  Cu  Cu10  1  0.50000000  0.96727000  0.25000000  1
  Cu  Cu11  1  0.00000000  0.53273000  0.75000000  1
  S  S12  1  0.00000000  0.37759900  0.06286200  1
  S  S13  1  0.50000000  0.12240100  0.93713800  1
  S  S14  1  0.50000000  0.12240100  0.56286200  1
  S  S15  1  0.00000000  0.06139500  0.25000000  1
  S  S16  1  0.50000000  0.43860500  0.75000000  1
  S  S17  1  0.00000000  0.37759900  0.43713800  1
  S  S18  1  0.50000000  0.87759900  0.06286200  1
  S  S19  1  0.00000000  0.62240100  0.93713800  1
  S  S20  1  0.00000000  0.62240100  0.56286200  1
  S  S21  1  0.50000000  0.56139500  0.25000000  1
  S  S22  1  0.00000000  0.93860500  0.75000000  1
  S  S23  1  0.50000000  0.87759900  0.43713800  1
