# generated using pymatgen
data_LaMg2Pd
_symmetry_space_group_name_H-M   'P 1'
_cell_length_a   4.33861400
_cell_length_b   10.52696800
_cell_length_c   8.40615800
_cell_angle_alpha   90.00000000
_cell_angle_beta   90.00000000
_cell_angle_gamma   90.00000000
_symmetry_Int_Tables_number   1
_chemical_formula_structural   LaMg2Pd
_chemical_formula_sum   'La4 Mg8 Pd4'
_cell_volume   383.92983719
_cell_formula_units_Z   4
loop_
 _symmetry_equiv_pos_site_id
 _symmetry_equiv_pos_as_xyz
  1  'x, y, z'
loop_
 _atom_site_type_symbol
 _atom_site_label
 _atom_site_symmetry_multiplicity
 _atom_site_fract_x
 _atom_site_fract_y
 _atom_site_fract_z
 _atom_site_occupancy
  La  La0  1  0.50000000  0.06082400  0.75000000  1
  La  La1  1  0.00000000  0.43917600  0.25000000  1
  La  La2  1  0.00000000  0.56082400  0.75000000  1
  La  La3  1  0.50000000  0.93917600  0.25000000  1
  Mg  Mg4  1  0.50000000  0.34710800  0.94608400  1
  Mg  Mg5  1  0.00000000  0.15289200  0.05391600  1
  Mg  Mg6  1  0.00000000  0.15289200  0.44608400  1
  Mg  Mg7  1  0.50000000  0.34710800  0.55391600  1
  Mg  Mg8  1  0.00000000  0.84710800  0.94608400  1
  Mg  Mg9  1  0.50000000  0.65289200  0.05391600  1
  Mg  Mg10  1  0.50000000  0.65289200  0.44608400  1
  Mg  Mg11  1  0.00000000  0.84710800  0.55391600  1
  Pd  Pd12  1  0.00000000  0.27632200  0.75000000  1
  Pd  Pd13  1  0.50000000  0.22367800  0.25000000  1
  Pd  Pd14  1  0.50000000  0.77632200  0.75000000  1
  Pd  Pd15  1  0.00000000  0.72367800  0.25000000  1
