# generated using pymatgen
data_La2ZnNi2
_symmetry_space_group_name_H-M   'P 1'
_cell_length_a   4.38907400
_cell_length_b   5.53428400
_cell_length_c   8.48370800
_cell_angle_alpha   90.00000000
_cell_angle_beta   90.00000000
_cell_angle_gamma   90.00000000
_symmetry_Int_Tables_number   1
_chemical_formula_structural   La2ZnNi2
_chemical_formula_sum   'La4 Zn2 Ni4'
_cell_volume   206.07250821
_cell_formula_units_Z   2
loop_
 _symmetry_equiv_pos_site_id
 _symmetry_equiv_pos_as_xyz
  1  'x, y, z'
loop_
 _atom_site_type_symbol
 _atom_site_label
 _atom_site_symmetry_multiplicity
 _atom_site_fract_x
 _atom_site_fract_y
 _atom_site_fract_z
 _atom_site_occupancy
  La  La0  1  0.00000000  0.50000000  0.19915000  1
  La  La1  1  0.00000000  0.50000000  0.80085000  1
  La  La2  1  0.50000000  0.00000000  0.69915000  1
  La  La3  1  0.50000000  0.00000000  0.30085000  1
  Zn  Zn4  1  0.00000000  0.00000000  0.00000000  1
  Zn  Zn5  1  0.50000000  0.50000000  0.50000000  1
  Ni  Ni6  1  0.50000000  0.74223400  0.00000000  1
  Ni  Ni7  1  0.50000000  0.25776600  0.00000000  1
  Ni  Ni8  1  0.00000000  0.24223400  0.50000000  1
  Ni  Ni9  1  0.00000000  0.75776600  0.50000000  1
