# generated using pymatgen
data_Y5(FeTe)2
_symmetry_space_group_name_H-M   'P 1'
_cell_length_a   3.96225600
_cell_length_b   15.14591400
_cell_length_c   15.25044300
_cell_angle_alpha   90.00000000
_cell_angle_beta   90.00000000
_cell_angle_gamma   90.00000000
_symmetry_Int_Tables_number   1
_chemical_formula_structural   Y5(FeTe)2
_chemical_formula_sum   'Y20 Fe8 Te8'
_cell_volume   915.20941180
_cell_formula_units_Z   4
loop_
 _symmetry_equiv_pos_site_id
 _symmetry_equiv_pos_as_xyz
  1  'x, y, z'
loop_
 _atom_site_type_symbol
 _atom_site_label
 _atom_site_symmetry_multiplicity
 _atom_site_fract_x
 _atom_site_fract_y
 _atom_site_fract_z
 _atom_site_occupancy
  Y  Y0  1  0.00000000  0.03810700  0.88068300  1
  Y  Y1  1  0.50000000  0.46189300  0.11931700  1
  Y  Y2  1  0.50000000  0.46189300  0.38068300  1
  Y  Y3  1  0.00000000  0.03810700  0.61931700  1
  Y  Y4  1  0.00000000  0.25720300  0.12869000  1
  Y  Y5  1  0.50000000  0.24279700  0.87131000  1
  Y  Y6  1  0.50000000  0.24279700  0.62869000  1
  Y  Y7  1  0.00000000  0.25720300  0.37131000  1
  Y  Y8  1  0.50000000  0.10328800  0.25000000  1
  Y  Y9  1  0.00000000  0.39671200  0.75000000  1
  Y  Y10  1  0.50000000  0.53810700  0.88068300  1
  Y  Y11  1  0.00000000  0.96189300  0.11931700  1
  Y  Y12  1  0.00000000  0.96189300  0.38068300  1
  Y  Y13  1  0.50000000  0.53810700  0.61931700  1
  Y  Y14  1  0.50000000  0.75720300  0.12869000  1
  Y  Y15  1  0.00000000  0.74279700  0.87131000  1
  Y  Y16  1  0.00000000  0.74279700  0.62869000  1
  Y  Y17  1  0.50000000  0.75720300  0.37131000  1
  Y  Y18  1  0.00000000  0.60328800  0.25000000  1
  Y  Y19  1  0.50000000  0.89671200  0.75000000  1
  Fe  Fe20  1  0.00000000  0.16984400  0.75000000  1
  Fe  Fe21  1  0.50000000  0.33015600  0.25000000  1
  Fe  Fe22  1  0.50000000  0.09417100  0.75000000  1
  Fe  Fe23  1  0.00000000  0.40582900  0.25000000  1
  Fe  Fe24  1  0.50000000  0.66984400  0.75000000  1
  Fe  Fe25  1  0.00000000  0.83015600  0.25000000  1
  Fe  Fe26  1  0.00000000  0.59417100  0.75000000  1
  Fe  Fe27  1  0.50000000  0.90582900  0.25000000  1
  Te  Te28  1  0.00000000  0.38229800  0.53950500  1
  Te  Te29  1  0.50000000  0.11770200  0.46049500  1
  Te  Te30  1  0.50000000  0.11770200  0.03950500  1
  Te  Te31  1  0.00000000  0.38229800  0.96049500  1
  Te  Te32  1  0.50000000  0.88229800  0.53950500  1
  Te  Te33  1  0.00000000  0.61770200  0.46049500  1
  Te  Te34  1  0.00000000  0.61770200  0.03950500  1
  Te  Te35  1  0.50000000  0.88229800  0.96049500  1
