# generated using pymatgen
data_Sm3IrO7
_symmetry_space_group_name_H-M   'P 1'
_cell_length_a   7.47303200
_cell_length_b   10.80087600
_cell_length_c   7.52813800
_cell_angle_alpha   90.00000000
_cell_angle_beta   90.00000000
_cell_angle_gamma   90.00000000
_symmetry_Int_Tables_number   1
_chemical_formula_structural   Sm3IrO7
_chemical_formula_sum   'Sm12 Ir4 O28'
_cell_volume   607.63585671
_cell_formula_units_Z   4
loop_
 _symmetry_equiv_pos_site_id
 _symmetry_equiv_pos_as_xyz
  1  'x, y, z'
loop_
 _atom_site_type_symbol
 _atom_site_label
 _atom_site_symmetry_multiplicity
 _atom_site_fract_x
 _atom_site_fract_y
 _atom_site_fract_z
 _atom_site_occupancy
  Sm  Sm0  1  0.00000000  0.00000000  0.00000000  1
  Sm  Sm1  1  0.00000000  0.00000000  0.50000000  1
  Sm  Sm2  1  0.70182850  0.77659350  0.75000000  1
  Sm  Sm3  1  0.29817150  0.22340650  0.25000000  1
  Sm  Sm4  1  0.70182850  0.22340650  0.75000000  1
  Sm  Sm5  1  0.29817150  0.77659350  0.25000000  1
  Sm  Sm6  1  0.50000000  0.50000000  0.00000000  1
  Sm  Sm7  1  0.50000000  0.50000000  0.50000000  1
  Sm  Sm8  1  0.20182850  0.27659350  0.75000000  1
  Sm  Sm9  1  0.79817150  0.72340650  0.25000000  1
  Sm  Sm10  1  0.20182850  0.72340650  0.75000000  1
  Sm  Sm11  1  0.79817150  0.27659350  0.25000000  1
  Ir  Ir12  1  0.50000000  0.00000000  0.00000000  1
  Ir  Ir13  1  0.50000000  0.00000000  0.50000000  1
  Ir  Ir14  1  0.00000000  0.50000000  0.00000000  1
  Ir  Ir15  1  0.00000000  0.50000000  0.50000000  1
  O  O16  1  0.59189000  0.00000000  0.75000000  1
  O  O17  1  0.40811000  0.00000000  0.25000000  1
  O  O18  1  0.47755100  0.36743100  0.75000000  1
  O  O19  1  0.52244900  0.63256900  0.25000000  1
  O  O20  1  0.47755100  0.63256900  0.75000000  1
  O  O21  1  0.52244900  0.36743100  0.25000000  1
  O  O22  1  0.31149800  0.12718000  0.96231300  1
  O  O23  1  0.68850200  0.87282000  0.46231300  1
  O  O24  1  0.31149800  0.87282000  0.96231300  1
  O  O25  1  0.68850200  0.12718000  0.46231300  1
  O  O26  1  0.31149800  0.12718000  0.53768700  1
  O  O27  1  0.68850200  0.87282000  0.03768700  1
  O  O28  1  0.68850200  0.12718000  0.03768700  1
  O  O29  1  0.31149800  0.87282000  0.53768700  1
  O  O30  1  0.09189000  0.50000000  0.75000000  1
  O  O31  1  0.90811000  0.50000000  0.25000000  1
  O  O32  1  0.97755100  0.86743100  0.75000000  1
  O  O33  1  0.02244900  0.13256900  0.25000000  1
  O  O34  1  0.97755100  0.13256900  0.75000000  1
  O  O35  1  0.02244900  0.86743100  0.25000000  1
  O  O36  1  0.81149800  0.62718000  0.96231300  1
  O  O37  1  0.18850200  0.37282000  0.46231300  1
  O  O38  1  0.81149800  0.37282000  0.96231300  1
  O  O39  1  0.18850200  0.62718000  0.46231300  1
  O  O40  1  0.81149800  0.62718000  0.53768700  1
  O  O41  1  0.18850200  0.37282000  0.03768700  1
  O  O42  1  0.18850200  0.62718000  0.03768700  1
  O  O43  1  0.81149800  0.37282000  0.53768700  1
