# generated using pymatgen
data_CeSi2Ni
_symmetry_space_group_name_H-M   'P 1'
_cell_length_a   4.10339800
_cell_length_b   16.28014000
_cell_length_c   4.05536600
_cell_angle_alpha   90.00000000
_cell_angle_beta   90.00000000
_cell_angle_gamma   90.00000000
_symmetry_Int_Tables_number   1
_chemical_formula_structural   CeSi2Ni
_chemical_formula_sum   'Ce4 Si8 Ni4'
_cell_volume   270.91424005
_cell_formula_units_Z   4
loop_
 _symmetry_equiv_pos_site_id
 _symmetry_equiv_pos_as_xyz
  1  'x, y, z'
loop_
 _atom_site_type_symbol
 _atom_site_label
 _atom_site_symmetry_multiplicity
 _atom_site_fract_x
 _atom_site_fract_y
 _atom_site_fract_z
 _atom_site_occupancy
  Ce  Ce0  1  0.50000000  0.39396300  0.75000000  1
  Ce  Ce1  1  0.00000000  0.10603700  0.25000000  1
  Ce  Ce2  1  0.00000000  0.89396300  0.75000000  1
  Ce  Ce3  1  0.50000000  0.60603700  0.25000000  1
  Si  Si4  1  0.00000000  0.24929700  0.75000000  1
  Si  Si5  1  0.50000000  0.25070300  0.25000000  1
  Si  Si6  1  0.00000000  0.46033600  0.25000000  1
  Si  Si7  1  0.50000000  0.03966400  0.75000000  1
  Si  Si8  1  0.50000000  0.74929700  0.75000000  1
  Si  Si9  1  0.00000000  0.75070300  0.25000000  1
  Si  Si10  1  0.50000000  0.96033600  0.25000000  1
  Si  Si11  1  0.00000000  0.53966400  0.75000000  1
  Ni  Ni12  1  0.00000000  0.31940200  0.25000000  1
  Ni  Ni13  1  0.50000000  0.18059800  0.75000000  1
  Ni  Ni14  1  0.50000000  0.81940200  0.25000000  1
  Ni  Ni15  1  0.00000000  0.68059800  0.75000000  1
