# generated using pymatgen
data_ScB4Os3
_symmetry_space_group_name_H-M   'P 1'
_cell_length_a   2.96012000
_cell_length_b   11.85159400
_cell_length_c   9.87022100
_cell_angle_alpha   90.00000000
_cell_angle_beta   90.00000000
_cell_angle_gamma   90.00000000
_symmetry_Int_Tables_number   1
_chemical_formula_structural   ScB4Os3
_chemical_formula_sum   'Sc4 B16 Os12'
_cell_volume   346.26847921
_cell_formula_units_Z   4
loop_
 _symmetry_equiv_pos_site_id
 _symmetry_equiv_pos_as_xyz
  1  'x, y, z'
loop_
 _atom_site_type_symbol
 _atom_site_label
 _atom_site_symmetry_multiplicity
 _atom_site_fract_x
 _atom_site_fract_y
 _atom_site_fract_z
 _atom_site_occupancy
  Sc  Sc0  1  0.50000000  0.00000000  0.50000000  1
  Sc  Sc1  1  0.50000000  0.00000000  0.00000000  1
  Sc  Sc2  1  0.00000000  0.50000000  0.50000000  1
  Sc  Sc3  1  0.00000000  0.50000000  0.00000000  1
  B  B4  1  0.50000000  0.12914900  0.75000000  1
  B  B5  1  0.00000000  0.37085100  0.25000000  1
  B  B6  1  0.00000000  0.35047400  0.75000000  1
  B  B7  1  0.50000000  0.14952600  0.25000000  1
  B  B8  1  0.00000000  0.15631500  0.39126300  1
  B  B9  1  0.50000000  0.34368500  0.89126300  1
  B  B10  1  0.50000000  0.34368500  0.60873700  1
  B  B11  1  0.00000000  0.15631500  0.10873700  1
  B  B12  1  0.00000000  0.62914900  0.75000000  1
  B  B13  1  0.50000000  0.87085100  0.25000000  1
  B  B14  1  0.50000000  0.85047400  0.75000000  1
  B  B15  1  0.00000000  0.64952600  0.25000000  1
  B  B16  1  0.50000000  0.65631500  0.39126300  1
  B  B17  1  0.00000000  0.84368500  0.89126300  1
  B  B18  1  0.00000000  0.84368500  0.60873700  1
  B  B19  1  0.50000000  0.65631500  0.10873700  1
  Os  Os20  1  0.00000000  0.20175800  0.60830800  1
  Os  Os21  1  0.00000000  0.01114000  0.25000000  1
  Os  Os22  1  0.50000000  0.48886000  0.75000000  1
  Os  Os23  1  0.50000000  0.29824200  0.39169200  1
  Os  Os24  1  0.50000000  0.29824200  0.10830800  1
  Os  Os25  1  0.00000000  0.20175800  0.89169200  1
  Os  Os26  1  0.50000000  0.70175800  0.60830800  1
  Os  Os27  1  0.50000000  0.51114000  0.25000000  1
  Os  Os28  1  0.00000000  0.98886000  0.75000000  1
  Os  Os29  1  0.00000000  0.79824200  0.39169200  1
  Os  Os30  1  0.00000000  0.79824200  0.10830800  1
  Os  Os31  1  0.50000000  0.70175800  0.89169200  1
