# generated using pymatgen
data_Ce(BRu)2
_symmetry_space_group_name_H-M   'P 1'
_cell_length_a   6.58168600
_cell_length_b   8.96182000
_cell_length_c   10.00965800
_cell_angle_alpha   90.00000000
_cell_angle_beta   90.00000000
_cell_angle_gamma   90.00000000
_symmetry_Int_Tables_number   1
_chemical_formula_structural   Ce(BRu)2
_chemical_formula_sum   'Ce8 B16 Ru16'
_cell_volume   590.40851865
_cell_formula_units_Z   8
loop_
 _symmetry_equiv_pos_site_id
 _symmetry_equiv_pos_as_xyz
  1  'x, y, z'
loop_
 _atom_site_type_symbol
 _atom_site_label
 _atom_site_symmetry_multiplicity
 _atom_site_fract_x
 _atom_site_fract_y
 _atom_site_fract_z
 _atom_site_occupancy
  Ce  Ce0  1  0.75000000  0.75000000  0.25000000  1
  Ce  Ce1  1  0.00000000  0.00000000  0.00000000  1
  Ce  Ce2  1  0.75000000  0.25000000  0.75000000  1
  Ce  Ce3  1  0.00000000  0.50000000  0.50000000  1
  Ce  Ce4  1  0.25000000  0.75000000  0.75000000  1
  Ce  Ce5  1  0.50000000  0.00000000  0.50000000  1
  Ce  Ce6  1  0.25000000  0.25000000  0.25000000  1
  Ce  Ce7  1  0.50000000  0.50000000  0.00000000  1
  B  B8  1  0.75000000  0.06634400  0.25000000  1
  B  B9  1  0.75000000  0.43365600  0.25000000  1
  B  B10  1  0.50000000  0.81634400  0.00000000  1
  B  B11  1  0.50000000  0.18365600  0.00000000  1
  B  B12  1  0.75000000  0.56634400  0.75000000  1
  B  B13  1  0.75000000  0.93365600  0.75000000  1
  B  B14  1  0.50000000  0.31634400  0.50000000  1
  B  B15  1  0.50000000  0.68365600  0.50000000  1
  B  B16  1  0.25000000  0.06634400  0.75000000  1
  B  B17  1  0.25000000  0.43365600  0.75000000  1
  B  B18  1  0.00000000  0.81634400  0.50000000  1
  B  B19  1  0.00000000  0.18365600  0.50000000  1
  B  B20  1  0.25000000  0.56634400  0.25000000  1
  B  B21  1  0.25000000  0.93365600  0.25000000  1
  B  B22  1  0.00000000  0.31634400  0.00000000  1
  B  B23  1  0.00000000  0.68365600  0.00000000  1
  Ru  Ru24  1  0.75000000  0.25000000  0.11194000  1
  Ru  Ru25  1  0.75000000  0.25000000  0.38806000  1
  Ru  Ru26  1  0.00000000  0.00000000  0.36194000  1
  Ru  Ru27  1  0.50000000  0.00000000  0.13806000  1
  Ru  Ru28  1  0.75000000  0.75000000  0.61194000  1
  Ru  Ru29  1  0.75000000  0.75000000  0.88806000  1
  Ru  Ru30  1  0.00000000  0.50000000  0.86194000  1
  Ru  Ru31  1  0.50000000  0.50000000  0.63806000  1
  Ru  Ru32  1  0.25000000  0.25000000  0.61194000  1
  Ru  Ru33  1  0.25000000  0.25000000  0.88806000  1
  Ru  Ru34  1  0.50000000  0.00000000  0.86194000  1
  Ru  Ru35  1  0.00000000  0.00000000  0.63806000  1
  Ru  Ru36  1  0.25000000  0.75000000  0.11194000  1
  Ru  Ru37  1  0.25000000  0.75000000  0.38806000  1
  Ru  Ru38  1  0.50000000  0.50000000  0.36194000  1
  Ru  Ru39  1  0.00000000  0.50000000  0.13806000  1
