# generated using pymatgen
data_V5SiB2
_symmetry_space_group_name_H-M   'P 1'
_cell_length_a   5.77895600
_cell_length_b   5.77895600
_cell_length_c   10.76975400
_cell_angle_alpha   90.00000000
_cell_angle_beta   90.00000000
_cell_angle_gamma   90.00000000
_symmetry_Int_Tables_number   1
_chemical_formula_structural   V5SiB2
_chemical_formula_sum   'V20 Si4 B8'
_cell_volume   359.67028499
_cell_formula_units_Z   4
loop_
 _symmetry_equiv_pos_site_id
 _symmetry_equiv_pos_as_xyz
  1  'x, y, z'
loop_
 _atom_site_type_symbol
 _atom_site_label
 _atom_site_symmetry_multiplicity
 _atom_site_fract_x
 _atom_site_fract_y
 _atom_site_fract_z
 _atom_site_occupancy
  V  V0  1  0.33010300  0.16989700  0.36297300  1
  V  V1  1  0.16989700  0.66989700  0.36297300  1
  V  V2  1  0.83010300  0.33010300  0.36297300  1
  V  V3  1  0.33010300  0.83010300  0.13702700  1
  V  V4  1  0.66989700  0.83010300  0.36297300  1
  V  V5  1  0.16989700  0.33010300  0.13702700  1
  V  V6  1  0.83010300  0.66989700  0.13702700  1
  V  V7  1  0.66989700  0.16989700  0.13702700  1
  V  V8  1  0.00000000  0.00000000  0.00000000  1
  V  V9  1  0.50000000  0.50000000  0.00000000  1
  V  V10  1  0.83010300  0.66989700  0.86297300  1
  V  V11  1  0.66989700  0.16989700  0.86297300  1
  V  V12  1  0.33010300  0.83010300  0.86297300  1
  V  V13  1  0.83010300  0.33010300  0.63702700  1
  V  V14  1  0.16989700  0.33010300  0.86297300  1
  V  V15  1  0.66989700  0.83010300  0.63702700  1
  V  V16  1  0.33010300  0.16989700  0.63702700  1
  V  V17  1  0.16989700  0.66989700  0.63702700  1
  V  V18  1  0.50000000  0.50000000  0.50000000  1
  V  V19  1  0.00000000  0.00000000  0.50000000  1
  Si  Si20  1  0.00000000  0.00000000  0.25000000  1
  Si  Si21  1  0.50000000  0.50000000  0.25000000  1
  Si  Si22  1  0.50000000  0.50000000  0.75000000  1
  Si  Si23  1  0.00000000  0.00000000  0.75000000  1
  B  B24  1  0.11491600  0.61491600  0.00000000  1
  B  B25  1  0.38508400  0.11491600  0.00000000  1
  B  B26  1  0.61491600  0.88508400  0.00000000  1
  B  B27  1  0.88508400  0.38508400  0.00000000  1
  B  B28  1  0.61491600  0.11491600  0.50000000  1
  B  B29  1  0.88508400  0.61491600  0.50000000  1
  B  B30  1  0.11491600  0.38508400  0.50000000  1
  B  B31  1  0.38508400  0.88508400  0.50000000  1
