# generated using pymatgen
data_La3Co2Sn7
_symmetry_space_group_name_H-M   'P 1'
_cell_length_a   4.64756600
_cell_length_b   27.77380200
_cell_length_c   4.64500000
_cell_angle_alpha   90.00000000
_cell_angle_beta   90.00000000
_cell_angle_gamma   90.00000000
_symmetry_Int_Tables_number   1
_chemical_formula_structural   La3Co2Sn7
_chemical_formula_sum   'La6 Co4 Sn14'
_cell_volume   599.57928419
_cell_formula_units_Z   2
loop_
 _symmetry_equiv_pos_site_id
 _symmetry_equiv_pos_as_xyz
  1  'x, y, z'
loop_
 _atom_site_type_symbol
 _atom_site_label
 _atom_site_symmetry_multiplicity
 _atom_site_fract_x
 _atom_site_fract_y
 _atom_site_fract_z
 _atom_site_occupancy
  La  La0  1  0.50000000  0.00000000  0.50000000  1
  La  La1  1  0.50000000  0.31544100  0.00000000  1
  La  La2  1  0.00000000  0.18455900  0.00000000  1
  La  La3  1  0.00000000  0.50000000  0.50000000  1
  La  La4  1  0.00000000  0.81544100  0.00000000  1
  La  La5  1  0.50000000  0.68455900  0.00000000  1
  Co  Co6  1  0.00000000  0.37272900  0.50000000  1
  Co  Co7  1  0.50000000  0.12727100  0.50000000  1
  Co  Co8  1  0.50000000  0.87272900  0.50000000  1
  Co  Co9  1  0.00000000  0.62727100  0.50000000  1
  Sn  Sn10  1  0.00000000  0.28262800  0.50000000  1
  Sn  Sn11  1  0.50000000  0.21737200  0.50000000  1
  Sn  Sn12  1  0.00000000  0.40985300  0.00000000  1
  Sn  Sn13  1  0.00000000  0.00000000  0.00000000  1
  Sn  Sn14  1  0.50000000  0.09014700  0.00000000  1
  Sn  Sn15  1  0.00000000  0.09031800  0.50000000  1
  Sn  Sn16  1  0.50000000  0.40968200  0.50000000  1
  Sn  Sn17  1  0.50000000  0.78262800  0.50000000  1
  Sn  Sn18  1  0.00000000  0.71737200  0.50000000  1
  Sn  Sn19  1  0.50000000  0.90985300  0.00000000  1
  Sn  Sn20  1  0.50000000  0.50000000  0.00000000  1
  Sn  Sn21  1  0.00000000  0.59014700  0.00000000  1
  Sn  Sn22  1  0.50000000  0.59031800  0.50000000  1
  Sn  Sn23  1  0.00000000  0.90968200  0.50000000  1
