# generated using pymatgen
data_Nd2C3
_symmetry_space_group_name_H-M   'P 1'
_cell_length_a   8.61680400
_cell_length_b   8.61680400
_cell_length_c   8.61680400
_cell_angle_alpha   90.00000000
_cell_angle_beta   90.00000000
_cell_angle_gamma   90.00000000
_symmetry_Int_Tables_number   1
_chemical_formula_structural   Nd2C3
_chemical_formula_sum   'Nd16 C24'
_cell_volume   639.79176152
_cell_formula_units_Z   8
loop_
 _symmetry_equiv_pos_site_id
 _symmetry_equiv_pos_as_xyz
  1  'x, y, z'
loop_
 _atom_site_type_symbol
 _atom_site_label
 _atom_site_symmetry_multiplicity
 _atom_site_fract_x
 _atom_site_fract_y
 _atom_site_fract_z
 _atom_site_occupancy
  Nd  Nd0  1  0.05168200  0.55168200  0.94831800  1
  Nd  Nd1  1  0.19831800  0.80168200  0.30168200  1
  Nd  Nd2  1  0.19831800  0.19831800  0.19831800  1
  Nd  Nd3  1  0.30168200  0.19831800  0.80168200  1
  Nd  Nd4  1  0.44831800  0.44831800  0.44831800  1
  Nd  Nd5  1  0.55168200  0.94831800  0.05168200  1
  Nd  Nd6  1  0.94831800  0.05168200  0.55168200  1
  Nd  Nd7  1  0.80168200  0.30168200  0.19831800  1
  Nd  Nd8  1  0.55168200  0.05168200  0.44831800  1
  Nd  Nd9  1  0.69831800  0.30168200  0.80168200  1
  Nd  Nd10  1  0.69831800  0.69831800  0.69831800  1
  Nd  Nd11  1  0.80168200  0.69831800  0.30168200  1
  Nd  Nd12  1  0.94831800  0.94831800  0.94831800  1
  Nd  Nd13  1  0.05168200  0.44831800  0.55168200  1
  Nd  Nd14  1  0.44831800  0.55168200  0.05168200  1
  Nd  Nd15  1  0.30168200  0.80168200  0.69831800  1
  C  C16  1  0.75000000  0.29781700  0.50000000  1
  C  C17  1  0.75000000  0.45218300  0.50000000  1
  C  C18  1  0.04781700  0.50000000  0.25000000  1
  C  C19  1  0.50000000  0.75000000  0.45218300  1
  C  C20  1  0.45218300  0.50000000  0.75000000  1
  C  C21  1  0.50000000  0.25000000  0.04781700  1
  C  C22  1  0.25000000  0.20218300  0.50000000  1
  C  C23  1  0.50000000  0.75000000  0.29781700  1
  C  C24  1  0.25000000  0.04781700  0.50000000  1
  C  C25  1  0.20218300  0.50000000  0.25000000  1
  C  C26  1  0.29781700  0.50000000  0.75000000  1
  C  C27  1  0.50000000  0.25000000  0.20218300  1
  C  C28  1  0.25000000  0.79781700  0.00000000  1
  C  C29  1  0.25000000  0.95218300  0.00000000  1
  C  C30  1  0.54781700  0.00000000  0.75000000  1
  C  C31  1  0.00000000  0.25000000  0.95218300  1
  C  C32  1  0.95218300  0.00000000  0.25000000  1
  C  C33  1  0.00000000  0.75000000  0.54781700  1
  C  C34  1  0.75000000  0.70218300  0.00000000  1
  C  C35  1  0.00000000  0.25000000  0.79781700  1
  C  C36  1  0.75000000  0.54781700  0.00000000  1
  C  C37  1  0.70218300  0.00000000  0.75000000  1
  C  C38  1  0.79781700  0.00000000  0.25000000  1
  C  C39  1  0.00000000  0.75000000  0.70218300  1
