# generated using pymatgen
data_EuFeO3
_symmetry_space_group_name_H-M   'P 1'
_cell_length_a   5.49444800
_cell_length_b   5.56335800
_cell_length_c   7.80057000
_cell_angle_alpha   90.00000000
_cell_angle_beta   90.00000000
_cell_angle_gamma   90.00000000
_symmetry_Int_Tables_number   1
_chemical_formula_structural   EuFeO3
_chemical_formula_sum   'Eu4 Fe4 O12'
_cell_volume   238.44455717
_cell_formula_units_Z   4
loop_
 _symmetry_equiv_pos_site_id
 _symmetry_equiv_pos_as_xyz
  1  'x, y, z'
loop_
 _atom_site_type_symbol
 _atom_site_label
 _atom_site_symmetry_multiplicity
 _atom_site_fract_x
 _atom_site_fract_y
 _atom_site_fract_z
 _atom_site_occupancy
  Eu  Eu0  1  0.00000000  0.01091200  0.25000000  1
  Eu  Eu1  1  0.00000000  0.98908800  0.75000000  1
  Eu  Eu2  1  0.50000000  0.51091200  0.75000000  1
  Eu  Eu3  1  0.50000000  0.48908800  0.25000000  1
  Fe  Fe4  1  0.50000000  0.00000000  0.00000000  1
  Fe  Fe5  1  0.50000000  0.00000000  0.50000000  1
  Fe  Fe6  1  0.00000000  0.50000000  0.50000000  1
  Fe  Fe7  1  0.00000000  0.50000000  0.00000000  1
  O  O8  1  0.75000000  0.75000000  0.54785900  1
  O  O9  1  0.75000000  0.25000000  0.45214100  1
  O  O10  1  0.25000000  0.25000000  0.45214100  1
  O  O11  1  0.25000000  0.75000000  0.54785900  1
  O  O12  1  0.50000000  0.91392800  0.25000000  1
  O  O13  1  0.50000000  0.08607200  0.75000000  1
  O  O14  1  0.25000000  0.25000000  0.04785900  1
  O  O15  1  0.25000000  0.75000000  0.95214100  1
  O  O16  1  0.75000000  0.75000000  0.95214100  1
  O  O17  1  0.75000000  0.25000000  0.04785900  1
  O  O18  1  0.00000000  0.41392800  0.75000000  1
  O  O19  1  0.00000000  0.58607200  0.25000000  1
