# generated using pymatgen
data_Ce2Sb
_symmetry_space_group_name_H-M   'P 1'
_cell_length_a   4.45807000
_cell_length_b   4.45807000
_cell_length_c   17.37014400
_cell_angle_alpha   90.00000000
_cell_angle_beta   90.00000000
_cell_angle_gamma   90.00000000
_symmetry_Int_Tables_number   1
_chemical_formula_structural   Ce2Sb
_chemical_formula_sum   'Ce8 Sb4'
_cell_volume   345.22098364
_cell_formula_units_Z   4
loop_
 _symmetry_equiv_pos_site_id
 _symmetry_equiv_pos_as_xyz
  1  'x, y, z'
loop_
 _atom_site_type_symbol
 _atom_site_label
 _atom_site_symmetry_multiplicity
 _atom_site_fract_x
 _atom_site_fract_y
 _atom_site_fract_z
 _atom_site_occupancy
  Ce  Ce0  1  0.00000000  0.00000000  0.17472000  1
  Ce  Ce1  1  0.50000000  0.50000000  0.32528000  1
  Ce  Ce2  1  0.00000000  0.50000000  0.00000000  1
  Ce  Ce3  1  0.50000000  0.00000000  0.00000000  1
  Ce  Ce4  1  0.50000000  0.50000000  0.67472000  1
  Ce  Ce5  1  0.00000000  0.00000000  0.82528000  1
  Ce  Ce6  1  0.50000000  0.00000000  0.50000000  1
  Ce  Ce7  1  0.00000000  0.50000000  0.50000000  1
  Sb  Sb8  1  0.50000000  0.50000000  0.13871400  1
  Sb  Sb9  1  0.00000000  0.00000000  0.36128600  1
  Sb  Sb10  1  0.00000000  0.00000000  0.63871400  1
  Sb  Sb11  1  0.50000000  0.50000000  0.86128600  1
