# generated using pymatgen
data_Pt2PbO4
_symmetry_space_group_name_H-M   'P 1'
_cell_length_a   5.74331616
_cell_length_b   6.22796700
_cell_length_c   6.77100860
_cell_angle_alpha   115.82981056
_cell_angle_beta   96.63217521
_cell_angle_gamma   109.58396754
_symmetry_Int_Tables_number   1
_chemical_formula_structural   Pt2PbO4
_chemical_formula_sum   'Pt4 Pb2 O8'
_cell_volume   195.37399975
_cell_formula_units_Z   2
loop_
 _symmetry_equiv_pos_site_id
 _symmetry_equiv_pos_as_xyz
  1  'x, y, z'
loop_
 _atom_site_type_symbol
 _atom_site_label
 _atom_site_symmetry_multiplicity
 _atom_site_fract_x
 _atom_site_fract_y
 _atom_site_fract_z
 _atom_site_occupancy
  Pt  Pt0  1  0.50000000  0.00000000  0.50000000  1
  Pt  Pt1  1  0.00000000  0.50000000  0.50000000  1
  Pt  Pt2  1  0.50000000  0.50000000  0.00000000  1
  Pt  Pt3  1  0.50000000  0.50000000  0.50000000  1
  Pb  Pb4  1  0.85720043  0.10398402  0.14410401  1
  Pb  Pb5  1  0.14279957  0.89601598  0.85589599  1
  O  O6  1  0.51849790  0.13871340  0.72331711  1
  O  O7  1  0.48150210  0.86128660  0.27668289  1
  O  O8  1  0.83456113  0.67325984  0.15858015  1
  O  O9  1  0.16543887  0.32674016  0.84141985  1
  O  O10  1  0.87021574  0.16008880  0.49513492  1
  O  O11  1  0.12978426  0.83991120  0.50486508  1
  O  O12  1  0.36776986  0.32862425  0.27508459  1
  O  O13  1  0.63223014  0.67137575  0.72491541  1
