# generated using pymatgen
data_Pu(CuSi)2
_symmetry_space_group_name_H-M   'P 1'
_cell_length_a   3.98340800
_cell_length_b   3.98340800
_cell_length_c   10.00233800
_cell_angle_alpha   90.00000000
_cell_angle_beta   90.00000000
_cell_angle_gamma   90.00000000
_symmetry_Int_Tables_number   1
_chemical_formula_structural   Pu(CuSi)2
_chemical_formula_sum   'Pu2 Cu4 Si4'
_cell_volume   158.71249125
_cell_formula_units_Z   2
loop_
 _symmetry_equiv_pos_site_id
 _symmetry_equiv_pos_as_xyz
  1  'x, y, z'
loop_
 _atom_site_type_symbol
 _atom_site_label
 _atom_site_symmetry_multiplicity
 _atom_site_fract_x
 _atom_site_fract_y
 _atom_site_fract_z
 _atom_site_occupancy
  Pu  Pu0  1  0.00000000  0.00000000  0.00000000  1
  Pu  Pu1  1  0.50000000  0.50000000  0.50000000  1
  Cu  Cu2  1  0.00000000  0.50000000  0.25000000  1
  Cu  Cu3  1  0.50000000  0.00000000  0.25000000  1
  Cu  Cu4  1  0.50000000  0.00000000  0.75000000  1
  Cu  Cu5  1  0.00000000  0.50000000  0.75000000  1
  Si  Si6  1  0.50000000  0.50000000  0.11767100  1
  Si  Si7  1  0.00000000  0.00000000  0.38232900  1
  Si  Si8  1  0.00000000  0.00000000  0.61767100  1
  Si  Si9  1  0.50000000  0.50000000  0.88232900  1
