# generated using pymatgen
data_Na4Co7(PO4)6
_symmetry_space_group_name_H-M   'P 1'
_cell_length_a   10.62033200
_cell_length_b   14.56537400
_cell_length_c   6.54024630
_cell_angle_alpha   90.00000000
_cell_angle_beta   105.87519989
_cell_angle_gamma   90.00000000
_symmetry_Int_Tables_number   1
_chemical_formula_structural   Na4Co7(PO4)6
_chemical_formula_sum   'Na8 Co14 P12 O48'
_cell_volume   973.11823799
_cell_formula_units_Z   2
loop_
 _symmetry_equiv_pos_site_id
 _symmetry_equiv_pos_as_xyz
  1  'x, y, z'
loop_
 _atom_site_type_symbol
 _atom_site_label
 _atom_site_symmetry_multiplicity
 _atom_site_fract_x
 _atom_site_fract_y
 _atom_site_fract_z
 _atom_site_occupancy
  Na  Na0  1  0.94056700  0.00000000  0.47986800  1
  Na  Na1  1  0.32397800  0.00000000  0.55784400  1
  Na  Na2  1  0.59421950  0.88534650  0.51086500  1
  Na  Na3  1  0.59421950  0.11465350  0.51086500  1
  Na  Na4  1  0.44056700  0.50000000  0.47986800  1
  Na  Na5  1  0.82397800  0.50000000  0.55784400  1
  Na  Na6  1  0.09421950  0.38534650  0.51086500  1
  Na  Na7  1  0.09421950  0.61465350  0.51086500  1
  Co  Co8  1  0.18193650  0.82144150  0.81767100  1
  Co  Co9  1  0.18193650  0.17855850  0.81767100  1
  Co  Co10  1  0.32933450  0.31377550  0.18427400  1
  Co  Co11  1  0.32933450  0.68622450  0.18427400  1
  Co  Co12  1  0.50509500  0.84251300  0.99794700  1
  Co  Co13  1  0.50509500  0.15748700  0.99794700  1
  Co  Co14  1  0.00501200  0.00000000  0.00359500  1
  Co  Co15  1  0.68193650  0.32144150  0.81767100  1
  Co  Co16  1  0.68193650  0.67855850  0.81767100  1
  Co  Co17  1  0.82933450  0.81377550  0.18427400  1
  Co  Co18  1  0.82933450  0.18622450  0.18427400  1
  Co  Co19  1  0.00509500  0.34251300  0.99794700  1
  Co  Co20  1  0.00509500  0.65748700  0.99794700  1
  Co  Co21  1  0.50501200  0.50000000  0.00359500  1
  P  P22  1  0.67944900  0.00000000  0.94341900  1
  P  P23  1  0.33326700  0.00000000  0.07740500  1
  P  P24  1  0.60265900  0.31713200  0.28972200  1
  P  P25  1  0.60265900  0.68286800  0.28972200  1
  P  P26  1  0.40926800  0.31272600  0.71137800  1
  P  P27  1  0.40926800  0.68727400  0.71137800  1
  P  P28  1  0.17944900  0.50000000  0.94341900  1
  P  P29  1  0.83326700  0.50000000  0.07740500  1
  P  P30  1  0.10265900  0.81713200  0.28972200  1
  P  P31  1  0.10265900  0.18286800  0.28972200  1
  P  P32  1  0.90926800  0.81272600  0.71137800  1
  P  P33  1  0.90926800  0.18727400  0.71137800  1
  O  O34  1  0.55833700  0.00000000  0.74946000  1
  O  O35  1  0.45215100  0.00000000  0.27288800  1
  O  O36  1  0.80510700  0.00000000  0.87415200  1
  O  O37  1  0.20517300  0.00000000  0.13959700  1
  O  O38  1  0.33828950  0.91421250  0.92816300  1
  O  O39  1  0.33828950  0.08578750  0.92816300  1
  O  O40  1  0.67434400  0.91211700  0.08457600  1
  O  O41  1  0.67434400  0.08788300  0.08457600  1
  O  O42  1  0.82070000  0.83686800  0.48985900  1
  O  O43  1  0.82070000  0.16313200  0.48985900  1
  O  O44  1  0.18900700  0.83885100  0.51301900  1
  O  O45  1  0.18900700  0.16114900  0.51301900  1
  O  O46  1  0.32313100  0.28949500  0.86374100  1
  O  O47  1  0.32313100  0.71050500  0.86374100  1
  O  O48  1  0.68841550  0.29531650  0.13626400  1
  O  O49  1  0.68841550  0.70468350  0.13626400  1
  O  O50  1  0.50691550  0.39512150  0.78372000  1
  O  O51  1  0.51009450  0.22989550  0.27062000  1
  O  O52  1  0.51009450  0.77010450  0.27062000  1
  O  O53  1  0.50428900  0.22792000  0.72557400  1
  O  O54  1  0.50428900  0.77208000  0.72557400  1
  O  O55  1  0.49943100  0.60364600  0.22004200  1
  O  O56  1  0.49943100  0.39635400  0.22004200  1
  O  O57  1  0.50691550  0.60487850  0.78372000  1
  O  O58  1  0.05833700  0.50000000  0.74946000  1
  O  O59  1  0.95215100  0.50000000  0.27288800  1
  O  O60  1  0.30510700  0.50000000  0.87415200  1
  O  O61  1  0.70517300  0.50000000  0.13959700  1
  O  O62  1  0.83828950  0.41421250  0.92816300  1
  O  O63  1  0.83828950  0.58578750  0.92816300  1
  O  O64  1  0.17434400  0.41211700  0.08457600  1
  O  O65  1  0.17434400  0.58788300  0.08457600  1
  O  O66  1  0.32070000  0.33686800  0.48985900  1
  O  O67  1  0.32070000  0.66313200  0.48985900  1
  O  O68  1  0.68900700  0.33885100  0.51301900  1
  O  O69  1  0.68900700  0.66114900  0.51301900  1
  O  O70  1  0.82313100  0.78949500  0.86374100  1
  O  O71  1  0.82313100  0.21050500  0.86374100  1
  O  O72  1  0.18841550  0.79531650  0.13626400  1
  O  O73  1  0.18841550  0.20468350  0.13626400  1
  O  O74  1  0.00691550  0.89512150  0.78372000  1
  O  O75  1  0.01009450  0.72989550  0.27062000  1
  O  O76  1  0.01009450  0.27010450  0.27062000  1
  O  O77  1  0.00428900  0.72792000  0.72557400  1
  O  O78  1  0.00428900  0.27208000  0.72557400  1
  O  O79  1  0.99943100  0.10364600  0.22004200  1
  O  O80  1  0.99943100  0.89635400  0.22004200  1
  O  O81  1  0.00691550  0.10487850  0.78372000  1
