# generated using pymatgen
data_TmMg2
_symmetry_space_group_name_H-M   'P 1'
_cell_length_a   6.00127031
_cell_length_b   6.00127031
_cell_length_c   9.75044200
_cell_angle_alpha   90.00000000
_cell_angle_beta   90.00000000
_cell_angle_gamma   120.00000000
_symmetry_Int_Tables_number   1
_chemical_formula_structural   TmMg2
_chemical_formula_sum   'Tm4 Mg8'
_cell_volume   304.11743091
_cell_formula_units_Z   4
loop_
 _symmetry_equiv_pos_site_id
 _symmetry_equiv_pos_as_xyz
  1  'x, y, z'
loop_
 _atom_site_type_symbol
 _atom_site_label
 _atom_site_symmetry_multiplicity
 _atom_site_fract_x
 _atom_site_fract_y
 _atom_site_fract_z
 _atom_site_occupancy
  Tm  Tm0  1  0.66666667  0.33333333  0.43642200  1
  Tm  Tm1  1  0.33333333  0.66666667  0.93642200  1
  Tm  Tm2  1  0.33333333  0.66666667  0.56357800  1
  Tm  Tm3  1  0.66666667  0.33333333  0.06357800  1
  Mg  Mg4  1  0.65797100  0.82898550  0.25000000  1
  Mg  Mg5  1  0.82898550  0.65797100  0.75000000  1
  Mg  Mg6  1  0.82898550  0.17101450  0.75000000  1
  Mg  Mg7  1  0.17101450  0.82898550  0.25000000  1
  Mg  Mg8  1  0.00000000  0.00000000  0.50000000  1
  Mg  Mg9  1  0.00000000  0.00000000  0.00000000  1
  Mg  Mg10  1  0.34202900  0.17101450  0.75000000  1
  Mg  Mg11  1  0.17101450  0.34202900  0.25000000  1
