# generated using pymatgen
data_CsMnP3HO10
_symmetry_space_group_name_H-M   'P 1'
_cell_length_a   9.13351400
_cell_length_b   8.78124800
_cell_length_c   6.60529833
_cell_angle_alpha   90.00000000
_cell_angle_beta   113.27295342
_cell_angle_gamma   90.00000000
_symmetry_Int_Tables_number   1
_chemical_formula_structural   CsMnP3HO10
_chemical_formula_sum   'Cs2 Mn2 P6 H2 O20'
_cell_volume   486.66332601
_cell_formula_units_Z   2
loop_
 _symmetry_equiv_pos_site_id
 _symmetry_equiv_pos_as_xyz
  1  'x, y, z'
loop_
 _atom_site_type_symbol
 _atom_site_label
 _atom_site_symmetry_multiplicity
 _atom_site_fract_x
 _atom_site_fract_y
 _atom_site_fract_z
 _atom_site_occupancy
  Cs  Cs0  1  0.00000000  0.99889500  0.50000000  1
  Cs  Cs1  1  0.50000000  0.49889500  0.50000000  1
  Mn  Mn2  1  0.00000000  0.66408300  0.00000000  1
  Mn  Mn3  1  0.50000000  0.16408300  0.00000000  1
  P  P4  1  0.00000000  0.56475400  0.50000000  1
  P  P5  1  0.82311000  0.38062500  0.10700400  1
  P  P6  1  0.17689000  0.38062500  0.89299600  1
  P  P7  1  0.50000000  0.06475400  0.50000000  1
  P  P8  1  0.32311000  0.88062500  0.10700400  1
  P  P9  1  0.67689000  0.88062500  0.89299600  1
  H  H10  1  0.00000000  0.24859700  0.00000000  1
  H  H11  1  0.50000000  0.74859700  0.00000000  1
  O  O12  1  0.06454750  0.65266450  0.35816100  1
  O  O13  1  0.93545250  0.65266450  0.64183900  1
  O  O14  1  0.94452900  0.25270400  0.13858700  1
  O  O15  1  0.05547100  0.25270400  0.86141300  1
  O  O16  1  0.84992700  0.83039000  0.97667600  1
  O  O17  1  0.15007300  0.83039000  0.02332400  1
  O  O18  1  0.16397100  0.51034700  0.04166400  1
  O  O19  1  0.85981450  0.44975650  0.35136500  1
  O  O20  1  0.14018550  0.44975650  0.64863500  1
  O  O21  1  0.83602900  0.51034700  0.95833600  1
  O  O22  1  0.56454750  0.15266450  0.35816100  1
  O  O23  1  0.43545250  0.15266450  0.64183900  1
  O  O24  1  0.44452900  0.75270400  0.13858700  1
  O  O25  1  0.55547100  0.75270400  0.86141300  1
  O  O26  1  0.34992700  0.33039000  0.97667600  1
  O  O27  1  0.65007300  0.33039000  0.02332400  1
  O  O28  1  0.66397100  0.01034700  0.04166400  1
  O  O29  1  0.35981450  0.94975650  0.35136500  1
  O  O30  1  0.64018550  0.94975650  0.64863500  1
  O  O31  1  0.33602900  0.01034700  0.95833600  1
