# generated using pymatgen
data_LiMo3O8
_symmetry_space_group_name_H-M   'P 1'
_cell_length_a   6.18003624
_cell_length_b   6.18003624
_cell_length_c   14.72025054
_cell_angle_alpha   90.00000000
_cell_angle_beta   90.00000000
_cell_angle_gamma   120.00000000
_symmetry_Int_Tables_number   1
_chemical_formula_structural   LiMo3O8
_chemical_formula_sum   'Li3 Mo9 O24'
_cell_volume   486.88666117
_cell_formula_units_Z   3
loop_
 _symmetry_equiv_pos_site_id
 _symmetry_equiv_pos_as_xyz
  1  'x, y, z'
loop_
 _atom_site_type_symbol
 _atom_site_label
 _atom_site_symmetry_multiplicity
 _atom_site_fract_x
 _atom_site_fract_y
 _atom_site_fract_z
 _atom_site_occupancy
  Li  Li0  1  0.33333333  0.66666667  0.04856467  1
  Li  Li1  1  0.00000000  0.00000000  0.38189800  1
  Li  Li2  1  0.66666667  0.33333333  0.71523133  1
  Mo  Mo3  1  0.49845500  0.99691000  0.49922900  1
  Mo  Mo4  1  0.49845500  0.50154500  0.49922900  1
  Mo  Mo5  1  0.00309000  0.50154500  0.49922900  1
  Mo  Mo6  1  0.16512167  0.33024333  0.83256233  1
  Mo  Mo7  1  0.16512167  0.83487833  0.83256233  1
  Mo  Mo8  1  0.66975667  0.83487833  0.83256233  1
  Mo  Mo9  1  0.83178833  0.66357667  0.16589567  1
  Mo  Mo10  1  0.83178833  0.16821167  0.16589567  1
  Mo  Mo11  1  0.33642333  0.16821167  0.16589567  1
  O  O12  1  0.15693800  0.31387600  0.09963600  1
  O  O13  1  0.15693800  0.84306200  0.09963600  1
  O  O14  1  0.51489233  0.02978467  0.23163067  1
  O  O15  1  0.51489233  0.48510767  0.23163067  1
  O  O16  1  0.97021533  0.48510767  0.23163067  1
  O  O17  1  0.68612400  0.84306200  0.09963600  1
  O  O18  1  0.33333333  0.66666667  0.42321367  1
  O  O19  1  0.33333333  0.66666667  0.90903467  1
  O  O20  1  0.82360467  0.64720933  0.43296933  1
  O  O21  1  0.82360467  0.17639533  0.43296933  1
  O  O22  1  0.18155900  0.36311800  0.56496400  1
  O  O23  1  0.18155900  0.81844100  0.56496400  1
  O  O24  1  0.63688200  0.81844100  0.56496400  1
  O  O25  1  0.35279067  0.17639533  0.43296933  1
  O  O26  1  0.00000000  0.00000000  0.75654700  1
  O  O27  1  0.00000000  0.00000000  0.24236800  1
  O  O28  1  0.49027133  0.98054267  0.76630267  1
  O  O29  1  0.49027133  0.50972867  0.76630267  1
  O  O30  1  0.84822567  0.69645133  0.89829733  1
  O  O31  1  0.84822567  0.15177433  0.89829733  1
  O  O32  1  0.30354867  0.15177433  0.89829733  1
  O  O33  1  0.01945733  0.50972867  0.76630267  1
  O  O34  1  0.66666667  0.33333333  0.08988033  1
  O  O35  1  0.66666667  0.33333333  0.57570133  1
