# generated using pymatgen
data_Li3FeN2
_symmetry_space_group_name_H-M   'P 1'
_cell_length_a   4.66508200
_cell_length_b   4.80190000
_cell_length_c   9.51479800
_cell_angle_alpha   90.00000000
_cell_angle_beta   90.00000000
_cell_angle_gamma   90.00000000
_symmetry_Int_Tables_number   1
_chemical_formula_structural   Li3FeN2
_chemical_formula_sum   'Li12 Fe4 N8'
_cell_volume   213.14343773
_cell_formula_units_Z   4
loop_
 _symmetry_equiv_pos_site_id
 _symmetry_equiv_pos_as_xyz
  1  'x, y, z'
loop_
 _atom_site_type_symbol
 _atom_site_label
 _atom_site_symmetry_multiplicity
 _atom_site_fract_x
 _atom_site_fract_y
 _atom_site_fract_z
 _atom_site_occupancy
  Li  Li0  1  0.75000000  0.50000000  0.00000000  1
  Li  Li1  1  0.25000000  0.50000000  0.00000000  1
  Li  Li2  1  0.75000000  0.00000000  0.25744900  1
  Li  Li3  1  0.25000000  0.50000000  0.24255100  1
  Li  Li4  1  0.25000000  0.00000000  0.25744900  1
  Li  Li5  1  0.75000000  0.50000000  0.24255100  1
  Li  Li6  1  0.25000000  0.00000000  0.50000000  1
  Li  Li7  1  0.75000000  0.00000000  0.50000000  1
  Li  Li8  1  0.25000000  0.50000000  0.75744900  1
  Li  Li9  1  0.75000000  0.00000000  0.74255100  1
  Li  Li10  1  0.75000000  0.50000000  0.75744900  1
  Li  Li11  1  0.25000000  0.00000000  0.74255100  1
  Fe  Fe12  1  0.75000000  0.00000000  0.00000000  1
  Fe  Fe13  1  0.25000000  0.00000000  0.00000000  1
  Fe  Fe14  1  0.25000000  0.50000000  0.50000000  1
  Fe  Fe15  1  0.75000000  0.50000000  0.50000000  1
  N  N16  1  0.00000000  0.78002100  0.11375700  1
  N  N17  1  0.00000000  0.28002100  0.38624300  1
  N  N18  1  0.50000000  0.71997900  0.38624300  1
  N  N19  1  0.50000000  0.21997900  0.11375700  1
  N  N20  1  0.50000000  0.28002100  0.61375700  1
  N  N21  1  0.50000000  0.78002100  0.88624300  1
  N  N22  1  0.00000000  0.21997900  0.88624300  1
  N  N23  1  0.00000000  0.71997900  0.61375700  1
