# generated using pymatgen
data_Fe(SeO3)2
_symmetry_space_group_name_H-M   'P 1'
_cell_length_a   10.88481600
_cell_length_b   10.88481600
_cell_length_c   10.26964400
_cell_angle_alpha   90.00000000
_cell_angle_beta   90.00000000
_cell_angle_gamma   90.00000000
_symmetry_Int_Tables_number   1
_chemical_formula_structural   Fe(SeO3)2
_chemical_formula_sum   'Fe8 Se16 O48'
_cell_volume   1216.73940416
_cell_formula_units_Z   8
loop_
 _symmetry_equiv_pos_site_id
 _symmetry_equiv_pos_as_xyz
  1  'x, y, z'
loop_
 _atom_site_type_symbol
 _atom_site_label
 _atom_site_symmetry_multiplicity
 _atom_site_fract_x
 _atom_site_fract_y
 _atom_site_fract_z
 _atom_site_occupancy
  Fe  Fe0  1  0.75000000  0.20940500  0.62500000  1
  Fe  Fe1  1  0.75000000  0.29059500  0.12500000  1
  Fe  Fe2  1  0.29059500  0.25000000  0.87500000  1
  Fe  Fe3  1  0.20940500  0.25000000  0.37500000  1
  Fe  Fe4  1  0.25000000  0.70940500  0.12500000  1
  Fe  Fe5  1  0.25000000  0.79059500  0.62500000  1
  Fe  Fe6  1  0.79059500  0.75000000  0.37500000  1
  Fe  Fe7  1  0.70940500  0.75000000  0.87500000  1
  Se  Se8  1  0.94310750  0.73606450  0.65453350  1
  Se  Se9  1  0.05689250  0.23606450  0.09546650  1
  Se  Se10  1  0.76393550  0.05689250  0.90453350  1
  Se  Se11  1  0.44310750  0.26393550  0.59546650  1
  Se  Se12  1  0.26393550  0.94310750  0.34546650  1
  Se  Se13  1  0.73606450  0.44310750  0.40453350  1
  Se  Se14  1  0.73606450  0.05689250  0.34546650  1
  Se  Se15  1  0.05689250  0.26393550  0.65453350  1
  Se  Se16  1  0.44310750  0.23606450  0.15453350  1
  Se  Se17  1  0.55689250  0.73606450  0.59546650  1
  Se  Se18  1  0.26393550  0.55689250  0.40453350  1
  Se  Se19  1  0.94310750  0.76393550  0.09546650  1
  Se  Se20  1  0.76393550  0.44310750  0.84546650  1
  Se  Se21  1  0.23606450  0.94310750  0.90453350  1
  Se  Se22  1  0.23606450  0.55689250  0.84546650  1
  Se  Se23  1  0.55689250  0.76393550  0.15453350  1
  O  O24  1  0.15592700  0.31347900  0.99576700  1
  O  O25  1  0.07715800  0.20095800  0.50360000  1
  O  O26  1  0.65592700  0.68652100  0.25423300  1
  O  O27  1  0.79217500  0.58231800  0.45780300  1
  O  O28  1  0.84407300  0.81347900  0.75423300  1
  O  O29  1  0.70782500  0.91768200  0.95780300  1
  O  O30  1  0.70095800  0.07715800  0.75360000  1
  O  O31  1  0.20782500  0.08231800  0.29219700  1
  O  O32  1  0.81347900  0.15592700  0.24576700  1
  O  O33  1  0.68652100  0.15592700  0.00423300  1
  O  O34  1  0.34407300  0.18652100  0.49576700  1
  O  O35  1  0.42284200  0.20095800  0.74640000  1
  O  O36  1  0.58231800  0.20782500  0.54219700  1
  O  O37  1  0.91768200  0.20782500  0.70780300  1
  O  O38  1  0.58231800  0.29217500  0.20780300  1
  O  O39  1  0.91768200  0.29217500  0.04219700  1
  O  O40  1  0.07715800  0.29904200  0.24640000  1
  O  O41  1  0.92284200  0.79904200  0.50360000  1
  O  O42  1  0.79904200  0.07715800  0.49640000  1
  O  O43  1  0.68652100  0.34407300  0.74576700  1
  O  O44  1  0.81347900  0.34407300  0.50423300  1
  O  O45  1  0.29217500  0.41768200  0.79219700  1
  O  O46  1  0.20095800  0.92284200  0.49640000  1
  O  O47  1  0.79904200  0.42284200  0.25360000  1
  O  O48  1  0.65592700  0.81347900  0.49576700  1
  O  O49  1  0.57715800  0.70095800  0.00360000  1
  O  O50  1  0.15592700  0.18652100  0.75423300  1
  O  O51  1  0.29217500  0.08231800  0.95780300  1
  O  O52  1  0.34407300  0.31347900  0.25423300  1
  O  O53  1  0.20782500  0.41768200  0.45780300  1
  O  O54  1  0.20095800  0.57715800  0.25360000  1
  O  O55  1  0.70782500  0.58231800  0.79219700  1
  O  O56  1  0.31347900  0.65592700  0.74576700  1
  O  O57  1  0.18652100  0.65592700  0.50423300  1
  O  O58  1  0.84407300  0.68652100  0.99576700  1
  O  O59  1  0.92284200  0.70095800  0.24640000  1
  O  O60  1  0.08231800  0.70782500  0.04219700  1
  O  O61  1  0.41768200  0.70782500  0.20780300  1
  O  O62  1  0.08231800  0.79217500  0.70780300  1
  O  O63  1  0.41768200  0.79217500  0.54219700  1
  O  O64  1  0.57715800  0.79904200  0.74640000  1
  O  O65  1  0.42284200  0.29904200  0.00360000  1
  O  O66  1  0.29904200  0.57715800  0.99640000  1
  O  O67  1  0.18652100  0.84407300  0.24576700  1
  O  O68  1  0.31347900  0.84407300  0.00423300  1
  O  O69  1  0.79217500  0.91768200  0.29219700  1
  O  O70  1  0.70095800  0.42284200  0.99640000  1
  O  O71  1  0.29904200  0.92284200  0.75360000  1
