# generated using pymatgen
data_NiSnH12(OF)6
_symmetry_space_group_name_H-M   'P 1'
_cell_length_a   9.82120148
_cell_length_b   9.82120148
_cell_length_c   10.07296112
_cell_angle_alpha   90.00000000
_cell_angle_beta   90.00000000
_cell_angle_gamma   120.00000000
_symmetry_Int_Tables_number   1
_chemical_formula_structural   NiSnH12(OF)6
_chemical_formula_sum   'Ni3 Sn3 H36 O18 F18'
_cell_volume   841.42813799
_cell_formula_units_Z   3
loop_
 _symmetry_equiv_pos_site_id
 _symmetry_equiv_pos_as_xyz
  1  'x, y, z'
loop_
 _atom_site_type_symbol
 _atom_site_label
 _atom_site_symmetry_multiplicity
 _atom_site_fract_x
 _atom_site_fract_y
 _atom_site_fract_z
 _atom_site_occupancy
  Ni  Ni0  1  0.33333333  0.66666667  0.16666667  1
  Ni  Ni1  1  1.00000000  0.00000000  0.50000000  1
  Ni  Ni2  1  0.66666667  0.33333333  0.83333333  1
  Sn  Sn3  1  0.66666667  0.33333333  0.33333333  1
  Sn  Sn4  1  0.33333333  0.66666667  0.66666667  1
  Sn  Sn5  1  0.00000000  1.00000000  0.00000000  1
  H  H6  1  0.49305942  0.63834958  0.95659233  1
  H  H7  1  0.36165042  0.85470983  0.95659233  1
  H  H8  1  0.14529017  0.50694058  0.95659233  1
  H  H9  1  0.17360725  0.69498375  0.37674100  1
  H  H10  1  0.30501625  0.47862350  0.37674100  1
  H  H11  1  0.52137650  0.82639275  0.37674100  1
  H  H12  1  0.61452058  0.73781892  0.07078417  1
  H  H13  1  0.26218108  0.87670167  0.07078417  1
  H  H14  1  0.05214608  0.59551442  0.26254917  1
  H  H15  1  0.40448558  0.45663167  0.26254917  1
  H  H16  1  0.54336833  0.94785392  0.26254917  1
  H  H17  1  0.12329833  0.38547942  0.07078417  1
  H  H18  1  0.15972608  0.97168292  0.28992567  1
  H  H19  1  0.02831708  0.18804317  0.28992567  1
  H  H20  1  0.81195683  0.84027392  0.28992567  1
  H  H21  1  0.84027392  0.02831708  0.71007433  1
  H  H22  1  0.97168292  0.81195683  0.71007433  1
  H  H23  1  0.18804317  0.15972608  0.71007433  1
  H  H24  1  0.28118725  0.07115225  0.40411750  1
  H  H25  1  0.92884775  0.21003500  0.40411750  1
  H  H26  1  0.71881275  0.92884775  0.59588250  1
  H  H27  1  0.07115225  0.78996500  0.59588250  1
  H  H28  1  0.21003500  0.28118725  0.59588250  1
  H  H29  1  0.78996500  0.71881275  0.40411750  1
  H  H30  1  0.82639275  0.30501625  0.62325900  1
  H  H31  1  0.69498375  0.52137650  0.62325900  1
  H  H32  1  0.47862350  0.17360725  0.62325900  1
  H  H33  1  0.50694058  0.36165042  0.04340767  1
  H  H34  1  0.63834958  0.14529017  0.04340767  1
  H  H35  1  0.85470983  0.49305942  0.04340767  1
  H  H36  1  0.94785392  0.40448558  0.73745083  1
  H  H37  1  0.59551442  0.54336833  0.73745083  1
  H  H38  1  0.38547942  0.26218108  0.92921583  1
  H  H39  1  0.73781892  0.12329833  0.92921583  1
  H  H40  1  0.87670167  0.61452058  0.92921583  1
  H  H41  1  0.45663167  0.05214608  0.73745083  1
  O  O42  1  0.34244800  0.84704625  0.05285775  1
  O  O43  1  0.50459825  0.65755200  0.05285775  1
  O  O44  1  0.16206842  0.67578133  0.28047558  1
  O  O45  1  0.32421867  0.48628708  0.28047558  1
  O  O46  1  0.51371292  0.83793158  0.28047558  1
  O  O47  1  0.15295375  0.49540175  0.05285775  1
  O  O48  1  0.00911467  0.18037958  0.38619108  1
  O  O49  1  0.17126492  0.99088533  0.38619108  1
  O  O50  1  0.82873508  0.00911467  0.61380892  1
  O  O51  1  0.99088533  0.81962042  0.61380892  1
  O  O52  1  0.18037958  0.17126492  0.61380892  1
  O  O53  1  0.81962042  0.82873508  0.38619108  1
  O  O54  1  0.67578133  0.51371292  0.71952442  1
  O  O55  1  0.83793158  0.32421867  0.71952442  1
  O  O56  1  0.49540175  0.34244800  0.94714225  1
  O  O57  1  0.65755200  0.15295375  0.94714225  1
  O  O58  1  0.84704625  0.50459825  0.94714225  1
  O  O59  1  0.48628708  0.16206842  0.71952442  1
  F  F60  1  0.13567408  0.94950767  0.11528017  1
  F  F61  1  0.05049233  0.18616642  0.11528017  1
  F  F62  1  0.81383358  0.86432592  0.11528017  1
  F  F63  1  0.53099258  0.38382567  0.21805317  1
  F  F64  1  0.61617433  0.14716692  0.21805317  1
  F  F65  1  0.85283308  0.46900742  0.21805317  1
  F  F66  1  0.80234075  0.28284100  0.44861350  1
  F  F67  1  0.71715900  0.51949975  0.44861350  1
  F  F68  1  0.48050025  0.19765925  0.44861350  1
  F  F69  1  0.19765925  0.71715900  0.55138650  1
  F  F70  1  0.28284100  0.48050025  0.55138650  1
  F  F71  1  0.51949975  0.80234075  0.55138650  1
  F  F72  1  0.46900742  0.61617433  0.78194683  1
  F  F73  1  0.38382567  0.85283308  0.78194683  1
  F  F74  1  0.14716692  0.53099258  0.78194683  1
  F  F75  1  0.86432592  0.05049233  0.88471983  1
  F  F76  1  0.94950767  0.81383358  0.88471983  1
  F  F77  1  0.18616642  0.13567408  0.88471983  1
