# generated using pymatgen
data_Dy2C3
_symmetry_space_group_name_H-M   'P 1'
_cell_length_a   8.23742200
_cell_length_b   8.23742200
_cell_length_c   8.23742200
_cell_angle_alpha   90.00000000
_cell_angle_beta   90.00000000
_cell_angle_gamma   90.00000000
_symmetry_Int_Tables_number   1
_chemical_formula_structural   Dy2C3
_chemical_formula_sum   'Dy16 C24'
_cell_volume   558.95126824
_cell_formula_units_Z   8
loop_
 _symmetry_equiv_pos_site_id
 _symmetry_equiv_pos_as_xyz
  1  'x, y, z'
loop_
 _atom_site_type_symbol
 _atom_site_label
 _atom_site_symmetry_multiplicity
 _atom_site_fract_x
 _atom_site_fract_y
 _atom_site_fract_z
 _atom_site_occupancy
  Dy  Dy0  1  0.30058100  0.30058100  0.30058100  1
  Dy  Dy1  1  0.94941900  0.44941900  0.05058100  1
  Dy  Dy2  1  0.44941900  0.05058100  0.94941900  1
  Dy  Dy3  1  0.05058100  0.94941900  0.44941900  1
  Dy  Dy4  1  0.69941900  0.80058100  0.19941900  1
  Dy  Dy5  1  0.80058100  0.19941900  0.69941900  1
  Dy  Dy6  1  0.19941900  0.69941900  0.80058100  1
  Dy  Dy7  1  0.05058100  0.05058100  0.05058100  1
  Dy  Dy8  1  0.80058100  0.80058100  0.80058100  1
  Dy  Dy9  1  0.44941900  0.94941900  0.55058100  1
  Dy  Dy10  1  0.94941900  0.55058100  0.44941900  1
  Dy  Dy11  1  0.55058100  0.44941900  0.94941900  1
  Dy  Dy12  1  0.19941900  0.30058100  0.69941900  1
  Dy  Dy13  1  0.30058100  0.69941900  0.19941900  1
  Dy  Dy14  1  0.69941900  0.19941900  0.30058100  1
  Dy  Dy15  1  0.55058100  0.55058100  0.55058100  1
  C  C16  1  0.00000000  0.75000000  0.04369500  1
  C  C17  1  0.00000000  0.75000000  0.20630500  1
  C  C18  1  0.29369500  0.00000000  0.25000000  1
  C  C19  1  0.25000000  0.29369500  0.00000000  1
  C  C20  1  0.20630500  0.00000000  0.75000000  1
  C  C21  1  0.75000000  0.20630500  0.00000000  1
  C  C22  1  0.00000000  0.25000000  0.45630500  1
  C  C23  1  0.25000000  0.45630500  0.00000000  1
  C  C24  1  0.00000000  0.25000000  0.29369500  1
  C  C25  1  0.45630500  0.00000000  0.25000000  1
  C  C26  1  0.04369500  0.00000000  0.75000000  1
  C  C27  1  0.75000000  0.04369500  0.00000000  1
  C  C28  1  0.50000000  0.25000000  0.54369500  1
  C  C29  1  0.50000000  0.25000000  0.70630500  1
  C  C30  1  0.79369500  0.50000000  0.75000000  1
  C  C31  1  0.75000000  0.79369500  0.50000000  1
  C  C32  1  0.70630500  0.50000000  0.25000000  1
  C  C33  1  0.25000000  0.70630500  0.50000000  1
  C  C34  1  0.50000000  0.75000000  0.95630500  1
  C  C35  1  0.75000000  0.95630500  0.50000000  1
  C  C36  1  0.50000000  0.75000000  0.79369500  1
  C  C37  1  0.95630500  0.50000000  0.75000000  1
  C  C38  1  0.54369500  0.50000000  0.25000000  1
  C  C39  1  0.25000000  0.54369500  0.50000000  1
