# generated using pymatgen
data_Mg4P6Rh7
_symmetry_space_group_name_H-M   'P 1'
_cell_length_a   7.91722200
_cell_length_b   7.91722200
_cell_length_c   7.91722200
_cell_angle_alpha   90.00000000
_cell_angle_beta   90.00000000
_cell_angle_gamma   90.00000000
_symmetry_Int_Tables_number   1
_chemical_formula_structural   Mg4P6Rh7
_chemical_formula_sum   'Mg8 P12 Rh14'
_cell_volume   496.27050952
_cell_formula_units_Z   2
loop_
 _symmetry_equiv_pos_site_id
 _symmetry_equiv_pos_as_xyz
  1  'x, y, z'
loop_
 _atom_site_type_symbol
 _atom_site_label
 _atom_site_symmetry_multiplicity
 _atom_site_fract_x
 _atom_site_fract_y
 _atom_site_fract_z
 _atom_site_occupancy
  Mg  Mg0  1  0.25000000  0.25000000  0.25000000  1
  Mg  Mg1  1  0.25000000  0.25000000  0.75000000  1
  Mg  Mg2  1  0.75000000  0.25000000  0.25000000  1
  Mg  Mg3  1  0.25000000  0.75000000  0.25000000  1
  Mg  Mg4  1  0.75000000  0.75000000  0.75000000  1
  Mg  Mg5  1  0.75000000  0.75000000  0.25000000  1
  Mg  Mg6  1  0.25000000  0.75000000  0.75000000  1
  Mg  Mg7  1  0.75000000  0.25000000  0.75000000  1
  P  P8  1  0.00000000  0.31890300  0.00000000  1
  P  P9  1  0.00000000  0.68109700  0.00000000  1
  P  P10  1  0.68109700  0.00000000  0.00000000  1
  P  P11  1  0.31890300  0.00000000  0.00000000  1
  P  P12  1  0.00000000  0.00000000  0.68109700  1
  P  P13  1  0.00000000  0.00000000  0.31890300  1
  P  P14  1  0.50000000  0.81890300  0.50000000  1
  P  P15  1  0.50000000  0.18109700  0.50000000  1
  P  P16  1  0.18109700  0.50000000  0.50000000  1
  P  P17  1  0.81890300  0.50000000  0.50000000  1
  P  P18  1  0.50000000  0.50000000  0.18109700  1
  P  P19  1  0.50000000  0.50000000  0.81890300  1
  Rh  Rh20  1  0.00000000  0.00000000  0.00000000  1
  Rh  Rh21  1  0.50000000  0.00000000  0.25000000  1
  Rh  Rh22  1  0.50000000  0.25000000  0.00000000  1
  Rh  Rh23  1  0.25000000  0.00000000  0.50000000  1
  Rh  Rh24  1  0.25000000  0.50000000  0.00000000  1
  Rh  Rh25  1  0.00000000  0.50000000  0.25000000  1
  Rh  Rh26  1  0.00000000  0.25000000  0.50000000  1
  Rh  Rh27  1  0.50000000  0.50000000  0.50000000  1
  Rh  Rh28  1  0.00000000  0.50000000  0.75000000  1
  Rh  Rh29  1  0.00000000  0.75000000  0.50000000  1
  Rh  Rh30  1  0.75000000  0.50000000  0.00000000  1
  Rh  Rh31  1  0.75000000  0.00000000  0.50000000  1
  Rh  Rh32  1  0.50000000  0.00000000  0.75000000  1
  Rh  Rh33  1  0.50000000  0.75000000  0.00000000  1
