# generated using pymatgen
data_Ho5(ReO6)2
_symmetry_space_group_name_H-M   'P 1'
_cell_length_a   12.41552200
_cell_length_b   5.66000600
_cell_length_c   7.52513134
_cell_angle_alpha   90.00000000
_cell_angle_beta   107.90660980
_cell_angle_gamma   90.00000000
_symmetry_Int_Tables_number   1
_chemical_formula_structural   Ho5(ReO6)2
_chemical_formula_sum   'Ho10 Re4 O24'
_cell_volume   503.18959652
_cell_formula_units_Z   2
loop_
 _symmetry_equiv_pos_site_id
 _symmetry_equiv_pos_as_xyz
  1  'x, y, z'
loop_
 _atom_site_type_symbol
 _atom_site_label
 _atom_site_symmetry_multiplicity
 _atom_site_fract_x
 _atom_site_fract_y
 _atom_site_fract_z
 _atom_site_occupancy
  Ho  Ho0  1  0.18588600  0.50000000  0.82410300  1
  Ho  Ho1  1  0.31411400  0.00000000  0.17589700  1
  Ho  Ho2  1  0.00000000  0.00000000  0.50000000  1
  Ho  Ho3  1  0.30308800  0.00000000  0.64091100  1
  Ho  Ho4  1  0.19691200  0.50000000  0.35908900  1
  Ho  Ho5  1  0.68588600  0.00000000  0.82410300  1
  Ho  Ho6  1  0.81411400  0.50000000  0.17589700  1
  Ho  Ho7  1  0.50000000  0.50000000  0.50000000  1
  Ho  Ho8  1  0.80308800  0.50000000  0.64091100  1
  Ho  Ho9  1  0.69691200  0.00000000  0.35908900  1
  Re  Re10  1  0.00000000  0.78561400  0.00000000  1
  Re  Re11  1  0.00000000  0.21438600  0.00000000  1
  Re  Re12  1  0.50000000  0.28561400  0.00000000  1
  Re  Re13  1  0.50000000  0.71438600  0.00000000  1
  O  O14  1  0.00083500  0.50000000  0.17834400  1
  O  O15  1  0.49916500  0.00000000  0.82165600  1
  O  O16  1  0.49876100  0.50000000  0.20696100  1
  O  O17  1  0.00123900  0.00000000  0.79303900  1
  O  O18  1  0.33426100  0.75333300  0.91469700  1
  O  O19  1  0.16573900  0.25333300  0.08530300  1
  O  O20  1  0.16573900  0.74666700  0.08530300  1
  O  O21  1  0.15407850  0.25207950  0.57375500  1
  O  O22  1  0.34592150  0.75207950  0.42624500  1
  O  O23  1  0.34592150  0.24792050  0.42624500  1
  O  O24  1  0.15407850  0.74792050  0.57375500  1
  O  O25  1  0.33426100  0.24666700  0.91469700  1
  O  O26  1  0.50083500  0.00000000  0.17834400  1
  O  O27  1  0.99916500  0.50000000  0.82165600  1
  O  O28  1  0.99876100  0.00000000  0.20696100  1
  O  O29  1  0.50123900  0.50000000  0.79303900  1
  O  O30  1  0.83426100  0.25333300  0.91469700  1
  O  O31  1  0.66573900  0.75333300  0.08530300  1
  O  O32  1  0.66573900  0.24666700  0.08530300  1
  O  O33  1  0.65407850  0.75207950  0.57375500  1
  O  O34  1  0.84592150  0.25207950  0.42624500  1
  O  O35  1  0.84592150  0.74792050  0.42624500  1
  O  O36  1  0.65407850  0.24792050  0.57375500  1
  O  O37  1  0.83426100  0.74666700  0.91469700  1
