# generated using pymatgen
data_Tl3FeCl5
_symmetry_space_group_name_H-M   'P 1'
_cell_length_a   8.53448600
_cell_length_b   8.53448600
_cell_length_c   14.92208400
_cell_angle_alpha   90.00000000
_cell_angle_beta   90.00000000
_cell_angle_gamma   90.00000000
_symmetry_Int_Tables_number   1
_chemical_formula_structural   Tl3FeCl5
_chemical_formula_sum   'Tl12 Fe4 Cl20'
_cell_volume   1086.88656641
_cell_formula_units_Z   4
loop_
 _symmetry_equiv_pos_site_id
 _symmetry_equiv_pos_as_xyz
  1  'x, y, z'
loop_
 _atom_site_type_symbol
 _atom_site_label
 _atom_site_symmetry_multiplicity
 _atom_site_fract_x
 _atom_site_fract_y
 _atom_site_fract_z
 _atom_site_occupancy
  Tl  Tl0  1  0.00000000  0.00000000  0.25000000  1
  Tl  Tl1  1  0.50000000  0.50000000  0.25000000  1
  Tl  Tl2  1  0.83545500  0.33545500  0.00000000  1
  Tl  Tl3  1  0.66454500  0.83545500  0.00000000  1
  Tl  Tl4  1  0.33545500  0.16454500  0.00000000  1
  Tl  Tl5  1  0.16454500  0.66454500  0.00000000  1
  Tl  Tl6  1  0.50000000  0.50000000  0.75000000  1
  Tl  Tl7  1  0.00000000  0.00000000  0.75000000  1
  Tl  Tl8  1  0.33545500  0.83545500  0.50000000  1
  Tl  Tl9  1  0.16454500  0.33545500  0.50000000  1
  Tl  Tl10  1  0.83545500  0.66454500  0.50000000  1
  Tl  Tl11  1  0.66454500  0.16454500  0.50000000  1
  Fe  Fe12  1  0.00000000  0.50000000  0.25000000  1
  Fe  Fe13  1  0.50000000  0.00000000  0.25000000  1
  Fe  Fe14  1  0.50000000  0.00000000  0.75000000  1
  Fe  Fe15  1  0.00000000  0.50000000  0.75000000  1
  Cl  Cl16  1  0.00000000  0.00000000  0.00000000  1
  Cl  Cl17  1  0.50000000  0.50000000  0.00000000  1
  Cl  Cl18  1  0.35085150  0.85085150  0.15490250  1
  Cl  Cl19  1  0.85085150  0.35085150  0.34509750  1
  Cl  Cl20  1  0.14914850  0.64914850  0.34509750  1
  Cl  Cl21  1  0.35085150  0.14914850  0.34509750  1
  Cl  Cl22  1  0.64914850  0.85085150  0.34509750  1
  Cl  Cl23  1  0.14914850  0.35085150  0.15490250  1
  Cl  Cl24  1  0.64914850  0.14914850  0.15490250  1
  Cl  Cl25  1  0.85085150  0.64914850  0.15490250  1
  Cl  Cl26  1  0.50000000  0.50000000  0.50000000  1
  Cl  Cl27  1  0.00000000  0.00000000  0.50000000  1
  Cl  Cl28  1  0.85085150  0.35085150  0.65490250  1
  Cl  Cl29  1  0.35085150  0.85085150  0.84509750  1
  Cl  Cl30  1  0.64914850  0.14914850  0.84509750  1
  Cl  Cl31  1  0.85085150  0.64914850  0.84509750  1
  Cl  Cl32  1  0.14914850  0.35085150  0.84509750  1
  Cl  Cl33  1  0.64914850  0.85085150  0.65490250  1
  Cl  Cl34  1  0.14914850  0.64914850  0.65490250  1
  Cl  Cl35  1  0.35085150  0.14914850  0.65490250  1
