# generated using pymatgen
data_Nd3S4
_symmetry_space_group_name_H-M   'P 1'
_cell_length_a   8.58422000
_cell_length_b   8.58422000
_cell_length_c   8.58422000
_cell_angle_alpha   90.00000000
_cell_angle_beta   90.00000000
_cell_angle_gamma   90.00000000
_symmetry_Int_Tables_number   1
_chemical_formula_structural   Nd3S4
_chemical_formula_sum   'Nd12 S16'
_cell_volume   632.56115409
_cell_formula_units_Z   4
loop_
 _symmetry_equiv_pos_site_id
 _symmetry_equiv_pos_as_xyz
  1  'x, y, z'
loop_
 _atom_site_type_symbol
 _atom_site_label
 _atom_site_symmetry_multiplicity
 _atom_site_fract_x
 _atom_site_fract_y
 _atom_site_fract_z
 _atom_site_occupancy
  Nd  Nd0  1  0.00000000  0.75000000  0.12500000  1
  Nd  Nd1  1  0.25000000  0.37500000  0.00000000  1
  Nd  Nd2  1  0.75000000  0.12500000  0.00000000  1
  Nd  Nd3  1  0.12500000  0.00000000  0.75000000  1
  Nd  Nd4  1  0.37500000  0.00000000  0.25000000  1
  Nd  Nd5  1  0.00000000  0.25000000  0.37500000  1
  Nd  Nd6  1  0.50000000  0.25000000  0.62500000  1
  Nd  Nd7  1  0.75000000  0.87500000  0.50000000  1
  Nd  Nd8  1  0.25000000  0.62500000  0.50000000  1
  Nd  Nd9  1  0.62500000  0.50000000  0.25000000  1
  Nd  Nd10  1  0.87500000  0.50000000  0.75000000  1
  Nd  Nd11  1  0.50000000  0.75000000  0.87500000  1
  S  S12  1  0.32438600  0.32438600  0.32438600  1
  S  S13  1  0.92561400  0.42561400  0.07438600  1
  S  S14  1  0.42561400  0.07438600  0.92561400  1
  S  S15  1  0.07438600  0.92561400  0.42561400  1
  S  S16  1  0.67561400  0.82438600  0.17561400  1
  S  S17  1  0.82438600  0.17561400  0.67561400  1
  S  S18  1  0.07438600  0.07438600  0.07438600  1
  S  S19  1  0.17561400  0.67561400  0.82438600  1
  S  S20  1  0.82438600  0.82438600  0.82438600  1
  S  S21  1  0.42561400  0.92561400  0.57438600  1
  S  S22  1  0.92561400  0.57438600  0.42561400  1
  S  S23  1  0.57438600  0.42561400  0.92561400  1
  S  S24  1  0.17561400  0.32438600  0.67561400  1
  S  S25  1  0.32438600  0.67561400  0.17561400  1
  S  S26  1  0.57438600  0.57438600  0.57438600  1
  S  S27  1  0.67561400  0.17561400  0.32438600  1
