# generated using pymatgen
data_VMoO5
_symmetry_space_group_name_H-M   'P 1'
_cell_length_a   6.72052350
_cell_length_b   6.72052350
_cell_length_c   4.65461500
_cell_angle_alpha   90.00000000
_cell_angle_beta   90.00000000
_cell_angle_gamma   90.00000000
_symmetry_Int_Tables_number   1
_chemical_formula_structural   VMoO5
_chemical_formula_sum   'V2 Mo2 O10'
_cell_volume   210.22771642
_cell_formula_units_Z   2
loop_
 _symmetry_equiv_pos_site_id
 _symmetry_equiv_pos_as_xyz
  1  'x, y, z'
loop_
 _atom_site_type_symbol
 _atom_site_label
 _atom_site_symmetry_multiplicity
 _atom_site_fract_x
 _atom_site_fract_y
 _atom_site_fract_z
 _atom_site_occupancy
  V  V0  1  0.00000000  0.50000000  0.17023800  1
  V  V1  1  0.50000000  0.00000000  0.82976200  1
  Mo  Mo2  1  0.00000000  0.00000000  0.50000000  1
  Mo  Mo3  1  0.50000000  0.50000000  0.50000000  1
  O  O4  1  0.03452800  0.78533400  0.27703100  1
  O  O5  1  0.71466600  0.53452800  0.27703100  1
  O  O6  1  0.28533400  0.46547200  0.27703100  1
  O  O7  1  0.96547200  0.21466600  0.27703100  1
  O  O8  1  0.00000000  0.50000000  0.81950000  1
  O  O9  1  0.50000000  0.00000000  0.18050000  1
  O  O10  1  0.53452800  0.28533400  0.72296900  1
  O  O11  1  0.21466600  0.03452800  0.72296900  1
  O  O12  1  0.78533400  0.96547200  0.72296900  1
  O  O13  1  0.46547200  0.71466600  0.72296900  1
