# generated using pymatgen
data_U(Al5Fe)2
_symmetry_space_group_name_H-M   'P 1'
_cell_length_a   8.88498400
_cell_length_b   10.22586200
_cell_length_c   8.96355000
_cell_angle_alpha   90.00000000
_cell_angle_beta   90.00000000
_cell_angle_gamma   90.00000000
_symmetry_Int_Tables_number   1
_chemical_formula_structural   U(Al5Fe)2
_chemical_formula_sum   'U4 Al40 Fe8'
_cell_volume   814.39785850
_cell_formula_units_Z   4
loop_
 _symmetry_equiv_pos_site_id
 _symmetry_equiv_pos_as_xyz
  1  'x, y, z'
loop_
 _atom_site_type_symbol
 _atom_site_label
 _atom_site_symmetry_multiplicity
 _atom_site_fract_x
 _atom_site_fract_y
 _atom_site_fract_z
 _atom_site_occupancy
  U  U0  1  0.50000000  0.37729300  0.25000000  1
  U  U1  1  0.50000000  0.62270700  0.75000000  1
  U  U2  1  0.00000000  0.87729300  0.25000000  1
  U  U3  1  0.00000000  0.12270700  0.75000000  1
  Al  Al4  1  0.34877650  0.12932250  0.75000000  1
  Al  Al5  1  0.50000000  0.12548900  0.04956200  1
  Al  Al6  1  0.50000000  0.65744100  0.40193500  1
  Al  Al7  1  0.27297000  0.13806000  0.25000000  1
  Al  Al8  1  0.65122350  0.12932250  0.75000000  1
  Al  Al9  1  0.50000000  0.87451100  0.95043800  1
  Al  Al10  1  0.65122350  0.87067750  0.25000000  1
  Al  Al11  1  0.50000000  0.87451100  0.54956200  1
  Al  Al12  1  0.50000000  0.34255900  0.59806500  1
  Al  Al13  1  0.72703000  0.13806000  0.25000000  1
  Al  Al14  1  0.27297000  0.86194000  0.75000000  1
  Al  Al15  1  0.34877650  0.87067750  0.25000000  1
  Al  Al16  1  0.77562400  0.00000000  0.50000000  1
  Al  Al17  1  0.77562400  0.00000000  0.00000000  1
  Al  Al18  1  0.72703000  0.86194000  0.75000000  1
  Al  Al19  1  0.50000000  0.65744100  0.09806500  1
  Al  Al20  1  0.50000000  0.12548900  0.45043800  1
  Al  Al21  1  0.50000000  0.34255900  0.90193500  1
  Al  Al22  1  0.22437600  0.00000000  0.00000000  1
  Al  Al23  1  0.22437600  0.00000000  0.50000000  1
  Al  Al24  1  0.84877650  0.62932250  0.75000000  1
  Al  Al25  1  0.00000000  0.62548900  0.04956200  1
  Al  Al26  1  0.00000000  0.15744100  0.40193500  1
  Al  Al27  1  0.77297000  0.63806000  0.25000000  1
  Al  Al28  1  0.15122350  0.62932250  0.75000000  1
  Al  Al29  1  0.00000000  0.37451100  0.95043800  1
  Al  Al30  1  0.15122350  0.37067750  0.25000000  1
  Al  Al31  1  0.00000000  0.37451100  0.54956200  1
  Al  Al32  1  0.00000000  0.84255900  0.59806500  1
  Al  Al33  1  0.22703000  0.63806000  0.25000000  1
  Al  Al34  1  0.77297000  0.36194000  0.75000000  1
  Al  Al35  1  0.84877650  0.37067750  0.25000000  1
  Al  Al36  1  0.27562400  0.50000000  0.50000000  1
  Al  Al37  1  0.27562400  0.50000000  0.00000000  1
  Al  Al38  1  0.22703000  0.36194000  0.75000000  1
  Al  Al39  1  0.00000000  0.15744100  0.09806500  1
  Al  Al40  1  0.00000000  0.62548900  0.45043800  1
  Al  Al41  1  0.00000000  0.84255900  0.90193500  1
  Al  Al42  1  0.72437600  0.50000000  0.00000000  1
  Al  Al43  1  0.72437600  0.50000000  0.50000000  1
  Fe  Fe44  1  0.25000000  0.25000000  0.00000000  1
  Fe  Fe45  1  0.25000000  0.75000000  0.50000000  1
  Fe  Fe46  1  0.25000000  0.25000000  0.50000000  1
  Fe  Fe47  1  0.25000000  0.75000000  0.00000000  1
  Fe  Fe48  1  0.75000000  0.75000000  0.00000000  1
  Fe  Fe49  1  0.75000000  0.25000000  0.50000000  1
  Fe  Fe50  1  0.75000000  0.75000000  0.50000000  1
  Fe  Fe51  1  0.75000000  0.25000000  0.00000000  1
