# generated using pymatgen
data_LiNiPCO7
_symmetry_space_group_name_H-M   'P 1'
_cell_length_a   5.08903700
_cell_length_b   6.35298500
_cell_length_c   8.63416847
_cell_angle_alpha   90.00000000
_cell_angle_beta   93.97462151
_cell_angle_gamma   90.00000000
_symmetry_Int_Tables_number   1
_chemical_formula_structural   LiNiPCO7
_chemical_formula_sum   'Li2 Ni2 P2 C2 O14'
_cell_volume   278.47624561
_cell_formula_units_Z   2
loop_
 _symmetry_equiv_pos_site_id
 _symmetry_equiv_pos_as_xyz
  1  'x, y, z'
loop_
 _atom_site_type_symbol
 _atom_site_label
 _atom_site_symmetry_multiplicity
 _atom_site_fract_x
 _atom_site_fract_y
 _atom_site_fract_z
 _atom_site_occupancy
  Li  Li0  1  0.22233900  0.00627600  0.76852800  1
  Li  Li1  1  0.77766100  0.50627600  0.23147200  1
  Ni  Ni2  1  0.79127700  0.24972400  0.66034500  1
  Ni  Ni3  1  0.20872300  0.74972400  0.33965500  1
  P  P4  1  0.72027600  0.74818400  0.57105100  1
  P  P5  1  0.27972400  0.24818400  0.42894900  1
  C  C6  1  0.72243700  0.24953100  0.93728600  1
  C  C7  1  0.27756300  0.74953100  0.06271400  1
  O  O8  1  0.78286200  0.55873500  0.67981900  1
  O  O9  1  0.95348700  0.24209700  0.88181800  1
  O  O10  1  0.47033500  0.72896100  0.16937600  1
  O  O11  1  0.52966500  0.22896100  0.83062400  1
  O  O12  1  0.16786000  0.43371200  0.32872000  1
  O  O13  1  0.15063400  0.22865200  0.58413100  1
  O  O14  1  0.21713800  0.05873500  0.32018100  1
  O  O15  1  0.04651300  0.74209700  0.11818200  1
  O  O16  1  0.83214000  0.93371200  0.67128000  1
  O  O17  1  0.41757300  0.77107300  0.53884100  1
  O  O18  1  0.68828700  0.27985200  0.07757100  1
  O  O19  1  0.31171300  0.77985200  0.92242900  1
  O  O20  1  0.58242700  0.27107300  0.46115900  1
  O  O21  1  0.84936600  0.72865200  0.41586900  1
