# generated using pymatgen
data_Na2Mo2O7
_symmetry_space_group_name_H-M   'P 1'
_cell_length_a   7.31638800
_cell_length_b   12.03587400
_cell_length_c   15.12861600
_cell_angle_alpha   90.00000000
_cell_angle_beta   90.00000000
_cell_angle_gamma   90.00000000
_symmetry_Int_Tables_number   1
_chemical_formula_structural   Na2Mo2O7
_chemical_formula_sum   'Na16 Mo16 O56'
_cell_volume   1332.21267385
_cell_formula_units_Z   8
loop_
 _symmetry_equiv_pos_site_id
 _symmetry_equiv_pos_as_xyz
  1  'x, y, z'
loop_
 _atom_site_type_symbol
 _atom_site_label
 _atom_site_symmetry_multiplicity
 _atom_site_fract_x
 _atom_site_fract_y
 _atom_site_fract_z
 _atom_site_occupancy
  Na  Na0  1  0.50000000  0.18279800  0.34850900  1
  Na  Na1  1  0.50000000  0.31720200  0.84850900  1
  Na  Na2  1  0.50000000  0.81720200  0.65149100  1
  Na  Na3  1  0.50000000  0.68279800  0.15149100  1
  Na  Na4  1  0.25005100  0.00000000  0.00000000  1
  Na  Na5  1  0.24994900  0.00000000  0.50000000  1
  Na  Na6  1  0.74994900  0.00000000  0.00000000  1
  Na  Na7  1  0.75005100  0.00000000  0.50000000  1
  Na  Na8  1  0.00000000  0.68279800  0.34850900  1
  Na  Na9  1  0.00000000  0.81720200  0.84850900  1
  Na  Na10  1  0.00000000  0.31720200  0.65149100  1
  Na  Na11  1  0.00000000  0.18279800  0.15149100  1
  Na  Na12  1  0.75005100  0.50000000  0.00000000  1
  Na  Na13  1  0.74994900  0.50000000  0.50000000  1
  Na  Na14  1  0.24994900  0.50000000  0.00000000  1
  Na  Na15  1  0.25005100  0.50000000  0.50000000  1
  Mo  Mo16  1  0.50000000  0.25595900  0.08648800  1
  Mo  Mo17  1  0.50000000  0.24404100  0.58648800  1
  Mo  Mo18  1  0.50000000  0.74404100  0.91351200  1
  Mo  Mo19  1  0.50000000  0.75595900  0.41351200  1
  Mo  Mo20  1  0.25000000  0.92081100  0.25000000  1
  Mo  Mo21  1  0.25000000  0.07918900  0.75000000  1
  Mo  Mo22  1  0.75000000  0.07918900  0.75000000  1
  Mo  Mo23  1  0.75000000  0.92081100  0.25000000  1
  Mo  Mo24  1  0.00000000  0.75595900  0.08648800  1
  Mo  Mo25  1  0.00000000  0.74404100  0.58648800  1
  Mo  Mo26  1  0.00000000  0.24404100  0.91351200  1
  Mo  Mo27  1  0.00000000  0.25595900  0.41351200  1
  Mo  Mo28  1  0.75000000  0.42081100  0.25000000  1
  Mo  Mo29  1  0.75000000  0.57918900  0.75000000  1
  Mo  Mo30  1  0.25000000  0.57918900  0.75000000  1
  Mo  Mo31  1  0.25000000  0.42081100  0.25000000  1
  O  O32  1  0.50000000  0.13858400  0.50298700  1
  O  O33  1  0.50000000  0.36141600  0.00298700  1
  O  O34  1  0.50000000  0.86141600  0.49701300  1
  O  O35  1  0.50000000  0.63858400  0.99701300  1
  O  O36  1  0.50000000  0.12491300  0.03344100  1
  O  O37  1  0.50000000  0.37508700  0.53344100  1
  O  O38  1  0.50000000  0.87508700  0.96655900  1
  O  O39  1  0.50000000  0.62491300  0.46655900  1
  O  O40  1  0.50000000  0.38225400  0.28189000  1
  O  O41  1  0.50000000  0.11774600  0.78189000  1
  O  O42  1  0.50000000  0.61774600  0.71811000  1
  O  O43  1  0.50000000  0.88225400  0.21811000  1
  O  O44  1  0.70046250  0.98801150  0.66275000  1
  O  O45  1  0.79953750  0.01198850  0.16275000  1
  O  O46  1  0.70046250  0.01198850  0.33725000  1
  O  O47  1  0.79953750  0.98801150  0.83725000  1
  O  O48  1  0.70183100  0.77257200  0.34443500  1
  O  O49  1  0.29816900  0.72742800  0.84443500  1
  O  O50  1  0.70183100  0.22742800  0.65556500  1
  O  O51  1  0.29816900  0.27257200  0.15556500  1
  O  O52  1  0.29816900  0.22742800  0.65556500  1
  O  O53  1  0.70183100  0.27257200  0.15556500  1
  O  O54  1  0.29816900  0.77257200  0.34443500  1
  O  O55  1  0.70183100  0.72742800  0.84443500  1
  O  O56  1  0.20046250  0.01198850  0.16275000  1
  O  O57  1  0.29953750  0.98801150  0.66275000  1
  O  O58  1  0.20046250  0.98801150  0.83725000  1
  O  O59  1  0.29953750  0.01198850  0.33725000  1
  O  O60  1  0.00000000  0.63858400  0.50298700  1
  O  O61  1  0.00000000  0.86141600  0.00298700  1
  O  O62  1  0.00000000  0.36141600  0.49701300  1
  O  O63  1  0.00000000  0.13858400  0.99701300  1
  O  O64  1  0.00000000  0.62491300  0.03344100  1
  O  O65  1  0.00000000  0.87508700  0.53344100  1
  O  O66  1  0.00000000  0.37508700  0.96655900  1
  O  O67  1  0.00000000  0.12491300  0.46655900  1
  O  O68  1  0.00000000  0.88225400  0.28189000  1
  O  O69  1  0.00000000  0.61774600  0.78189000  1
  O  O70  1  0.00000000  0.11774600  0.71811000  1
  O  O71  1  0.00000000  0.38225400  0.21811000  1
  O  O72  1  0.20046250  0.48801150  0.66275000  1
  O  O73  1  0.29953750  0.51198850  0.16275000  1
  O  O74  1  0.20046250  0.51198850  0.33725000  1
  O  O75  1  0.29953750  0.48801150  0.83725000  1
  O  O76  1  0.20183100  0.27257200  0.34443500  1
  O  O77  1  0.79816900  0.22742800  0.84443500  1
  O  O78  1  0.20183100  0.72742800  0.65556500  1
  O  O79  1  0.79816900  0.77257200  0.15556500  1
  O  O80  1  0.79816900  0.72742800  0.65556500  1
  O  O81  1  0.20183100  0.77257200  0.15556500  1
  O  O82  1  0.79816900  0.27257200  0.34443500  1
  O  O83  1  0.20183100  0.22742800  0.84443500  1
  O  O84  1  0.70046250  0.51198850  0.16275000  1
  O  O85  1  0.79953750  0.48801150  0.66275000  1
  O  O86  1  0.70046250  0.48801150  0.83725000  1
  O  O87  1  0.79953750  0.51198850  0.33725000  1
