# generated using pymatgen
data_Zr4Pd2O
_symmetry_space_group_name_H-M   'P 1'
_cell_length_a   12.57526000
_cell_length_b   12.57526000
_cell_length_c   12.57526000
_cell_angle_alpha   90.00000000
_cell_angle_beta   90.00000000
_cell_angle_gamma   90.00000000
_symmetry_Int_Tables_number   1
_chemical_formula_structural   Zr4Pd2O
_chemical_formula_sum   'Zr64 Pd32 O16'
_cell_volume   1988.61595381
_cell_formula_units_Z   16
loop_
 _symmetry_equiv_pos_site_id
 _symmetry_equiv_pos_as_xyz
  1  'x, y, z'
loop_
 _atom_site_type_symbol
 _atom_site_label
 _atom_site_symmetry_multiplicity
 _atom_site_fract_x
 _atom_site_fract_y
 _atom_site_fract_z
 _atom_site_occupancy
  Zr  Zr0  1  0.50000000  0.81881400  0.50000000  1
  Zr  Zr1  1  0.25000000  0.43118600  0.25000000  1
  Zr  Zr2  1  0.50000000  0.18118600  0.50000000  1
  Zr  Zr3  1  0.31881400  0.00000000  0.50000000  1
  Zr  Zr4  1  0.68118600  0.00000000  0.50000000  1
  Zr  Zr5  1  0.12500000  0.87500000  0.37500000  1
  Zr  Zr6  1  0.25000000  0.25000000  0.43118600  1
  Zr  Zr7  1  0.00000000  0.00000000  0.18118600  1
  Zr  Zr8  1  0.37500000  0.62500000  0.37500000  1
  Zr  Zr9  1  0.37500000  0.87500000  0.12500000  1
  Zr  Zr10  1  0.50000000  0.00000000  0.31881400  1
  Zr  Zr11  1  0.12500000  0.62500000  0.12500000  1
  Zr  Zr12  1  0.25000000  0.25000000  0.06881400  1
  Zr  Zr13  1  0.43118600  0.25000000  0.25000000  1
  Zr  Zr14  1  0.06881400  0.25000000  0.25000000  1
  Zr  Zr15  1  0.25000000  0.06881400  0.25000000  1
  Zr  Zr16  1  0.50000000  0.31881400  0.00000000  1
  Zr  Zr17  1  0.25000000  0.93118600  0.75000000  1
  Zr  Zr18  1  0.50000000  0.68118600  0.00000000  1
  Zr  Zr19  1  0.31881400  0.50000000  0.00000000  1
  Zr  Zr20  1  0.68118600  0.50000000  0.00000000  1
  Zr  Zr21  1  0.12500000  0.37500000  0.87500000  1
  Zr  Zr22  1  0.25000000  0.75000000  0.93118600  1
  Zr  Zr23  1  0.00000000  0.50000000  0.68118600  1
  Zr  Zr24  1  0.37500000  0.12500000  0.87500000  1
  Zr  Zr25  1  0.37500000  0.37500000  0.62500000  1
  Zr  Zr26  1  0.50000000  0.50000000  0.81881400  1
  Zr  Zr27  1  0.12500000  0.12500000  0.62500000  1
  Zr  Zr28  1  0.25000000  0.75000000  0.56881400  1
  Zr  Zr29  1  0.43118600  0.75000000  0.75000000  1
  Zr  Zr30  1  0.06881400  0.75000000  0.75000000  1
  Zr  Zr31  1  0.25000000  0.56881400  0.75000000  1
  Zr  Zr32  1  0.00000000  0.81881400  0.00000000  1
  Zr  Zr33  1  0.75000000  0.43118600  0.75000000  1
  Zr  Zr34  1  0.00000000  0.18118600  0.00000000  1
  Zr  Zr35  1  0.81881400  0.00000000  0.00000000  1
  Zr  Zr36  1  0.18118600  0.00000000  0.00000000  1
  Zr  Zr37  1  0.62500000  0.87500000  0.87500000  1
  Zr  Zr38  1  0.75000000  0.25000000  0.93118600  1
  Zr  Zr39  1  0.50000000  0.00000000  0.68118600  1
  Zr  Zr40  1  0.87500000  0.62500000  0.87500000  1
  Zr  Zr41  1  0.87500000  0.87500000  0.62500000  1
  Zr  Zr42  1  0.00000000  0.00000000  0.81881400  1
  Zr  Zr43  1  0.62500000  0.62500000  0.62500000  1
  Zr  Zr44  1  0.75000000  0.25000000  0.56881400  1
  Zr  Zr45  1  0.93118600  0.25000000  0.75000000  1
  Zr  Zr46  1  0.56881400  0.25000000  0.75000000  1
  Zr  Zr47  1  0.75000000  0.06881400  0.75000000  1
  Zr  Zr48  1  0.00000000  0.31881400  0.50000000  1
  Zr  Zr49  1  0.75000000  0.93118600  0.25000000  1
  Zr  Zr50  1  0.00000000  0.68118600  0.50000000  1
  Zr  Zr51  1  0.81881400  0.50000000  0.50000000  1
  Zr  Zr52  1  0.18118600  0.50000000  0.50000000  1
  Zr  Zr53  1  0.62500000  0.37500000  0.37500000  1
  Zr  Zr54  1  0.75000000  0.75000000  0.43118600  1
  Zr  Zr55  1  0.50000000  0.50000000  0.18118600  1
  Zr  Zr56  1  0.87500000  0.12500000  0.37500000  1
  Zr  Zr57  1  0.87500000  0.37500000  0.12500000  1
  Zr  Zr58  1  0.00000000  0.50000000  0.31881400  1
  Zr  Zr59  1  0.62500000  0.12500000  0.12500000  1
  Zr  Zr60  1  0.75000000  0.75000000  0.06881400  1
  Zr  Zr61  1  0.93118600  0.75000000  0.25000000  1
  Zr  Zr62  1  0.56881400  0.75000000  0.25000000  1
  Zr  Zr63  1  0.75000000  0.56881400  0.25000000  1
  Pd  Pd64  1  0.41004567  0.08995433  0.08995433  1
  Pd  Pd65  1  0.41004567  0.41004567  0.41004567  1
  Pd  Pd66  1  0.08995433  0.08995433  0.41004567  1
  Pd  Pd67  1  0.16004567  0.83995433  0.16004567  1
  Pd  Pd68  1  0.33995433  0.83995433  0.33995433  1
  Pd  Pd69  1  0.83995433  0.16004567  0.16004567  1
  Pd  Pd70  1  0.66004567  0.16004567  0.33995433  1
  Pd  Pd71  1  0.08995433  0.41004567  0.08995433  1
  Pd  Pd72  1  0.41004567  0.58995433  0.58995433  1
  Pd  Pd73  1  0.41004567  0.91004567  0.91004567  1
  Pd  Pd74  1  0.08995433  0.58995433  0.91004567  1
  Pd  Pd75  1  0.16004567  0.33995433  0.66004567  1
  Pd  Pd76  1  0.33995433  0.33995433  0.83995433  1
  Pd  Pd77  1  0.83995433  0.66004567  0.66004567  1
  Pd  Pd78  1  0.66004567  0.66004567  0.83995433  1
  Pd  Pd79  1  0.08995433  0.91004567  0.58995433  1
  Pd  Pd80  1  0.91004567  0.08995433  0.58995433  1
  Pd  Pd81  1  0.91004567  0.41004567  0.91004567  1
  Pd  Pd82  1  0.58995433  0.08995433  0.91004567  1
  Pd  Pd83  1  0.66004567  0.83995433  0.66004567  1
  Pd  Pd84  1  0.83995433  0.83995433  0.83995433  1
  Pd  Pd85  1  0.33995433  0.16004567  0.66004567  1
  Pd  Pd86  1  0.16004567  0.16004567  0.83995433  1
  Pd  Pd87  1  0.58995433  0.41004567  0.58995433  1
  Pd  Pd88  1  0.91004567  0.58995433  0.08995433  1
  Pd  Pd89  1  0.91004567  0.91004567  0.41004567  1
  Pd  Pd90  1  0.58995433  0.58995433  0.41004567  1
  Pd  Pd91  1  0.66004567  0.33995433  0.16004567  1
  Pd  Pd92  1  0.83995433  0.33995433  0.33995433  1
  Pd  Pd93  1  0.33995433  0.66004567  0.16004567  1
  Pd  Pd94  1  0.16004567  0.66004567  0.33995433  1
  Pd  Pd95  1  0.58995433  0.91004567  0.08995433  1
  O  O96  1  0.12500000  0.12500000  0.12500000  1
  O  O97  1  0.62500000  0.87500000  0.37500000  1
  O  O98  1  0.87500000  0.87500000  0.12500000  1
  O  O99  1  0.37500000  0.12500000  0.37500000  1
  O  O100  1  0.12500000  0.62500000  0.62500000  1
  O  O101  1  0.62500000  0.37500000  0.87500000  1
  O  O102  1  0.87500000  0.37500000  0.62500000  1
  O  O103  1  0.37500000  0.62500000  0.87500000  1
  O  O104  1  0.62500000  0.12500000  0.62500000  1
  O  O105  1  0.12500000  0.87500000  0.87500000  1
  O  O106  1  0.37500000  0.87500000  0.62500000  1
  O  O107  1  0.87500000  0.12500000  0.87500000  1
  O  O108  1  0.62500000  0.62500000  0.12500000  1
  O  O109  1  0.12500000  0.37500000  0.37500000  1
  O  O110  1  0.37500000  0.37500000  0.12500000  1
  O  O111  1  0.87500000  0.62500000  0.37500000  1
