# generated using pymatgen
data_Mn2GeO4
_symmetry_space_group_name_H-M   'P 1'
_cell_length_a   6.11796200
_cell_length_b   8.88603000
_cell_length_c   12.29430200
_cell_angle_alpha   90.00000000
_cell_angle_beta   90.00000000
_cell_angle_gamma   90.00000000
_symmetry_Int_Tables_number   1
_chemical_formula_structural   Mn2GeO4
_chemical_formula_sum   'Mn16 Ge8 O32'
_cell_volume   668.37227630
_cell_formula_units_Z   8
loop_
 _symmetry_equiv_pos_site_id
 _symmetry_equiv_pos_as_xyz
  1  'x, y, z'
loop_
 _atom_site_type_symbol
 _atom_site_label
 _atom_site_symmetry_multiplicity
 _atom_site_fract_x
 _atom_site_fract_y
 _atom_site_fract_z
 _atom_site_occupancy
  Mn  Mn0  1  0.00000000  0.00000000  0.00000000  1
  Mn  Mn1  1  0.50000000  0.50000000  0.00000000  1
  Mn  Mn2  1  0.50000000  0.46793800  0.75000000  1
  Mn  Mn3  1  0.50000000  0.53206200  0.25000000  1
  Mn  Mn4  1  0.25000000  0.25000000  0.12700500  1
  Mn  Mn5  1  0.25000000  0.75000000  0.87299500  1
  Mn  Mn6  1  0.75000000  0.25000000  0.12700500  1
  Mn  Mn7  1  0.75000000  0.75000000  0.87299500  1
  Mn  Mn8  1  0.50000000  0.50000000  0.50000000  1
  Mn  Mn9  1  0.00000000  0.00000000  0.50000000  1
  Mn  Mn10  1  0.00000000  0.96793800  0.25000000  1
  Mn  Mn11  1  0.00000000  0.03206200  0.75000000  1
  Mn  Mn12  1  0.75000000  0.75000000  0.62700500  1
  Mn  Mn13  1  0.75000000  0.25000000  0.37299500  1
  Mn  Mn14  1  0.25000000  0.75000000  0.62700500  1
  Mn  Mn15  1  0.25000000  0.25000000  0.37299500  1
  Ge  Ge16  1  0.00000000  0.61607100  0.11896800  1
  Ge  Ge17  1  0.00000000  0.38392900  0.88103200  1
  Ge  Ge18  1  0.00000000  0.61607100  0.38103200  1
  Ge  Ge19  1  0.00000000  0.38392900  0.61896800  1
  Ge  Ge20  1  0.50000000  0.11607100  0.61896800  1
  Ge  Ge21  1  0.50000000  0.88392900  0.38103200  1
  Ge  Ge22  1  0.50000000  0.11607100  0.88103200  1
  Ge  Ge23  1  0.50000000  0.88392900  0.11896800  1
  O  O24  1  0.24227450  0.49537650  0.87694250  1
  O  O25  1  0.24227450  0.50462350  0.12305750  1
  O  O26  1  0.75772550  0.49537650  0.62305750  1
  O  O27  1  0.75772550  0.50462350  0.37694250  1
  O  O28  1  0.75772550  0.50462350  0.12305750  1
  O  O29  1  0.75772550  0.49537650  0.87694250  1
  O  O30  1  0.24227450  0.50462350  0.37694250  1
  O  O31  1  0.24227450  0.49537650  0.62305750  1
  O  O32  1  0.50000000  0.24595100  0.99202200  1
  O  O33  1  0.50000000  0.75404900  0.00797800  1
  O  O34  1  0.00000000  0.74595100  0.00797800  1
  O  O35  1  0.00000000  0.25404900  0.99202200  1
  O  O36  1  0.50000000  0.71386000  0.75000000  1
  O  O37  1  0.50000000  0.28614000  0.25000000  1
  O  O38  1  0.00000000  0.28045000  0.75000000  1
  O  O39  1  0.00000000  0.71955000  0.25000000  1
  O  O40  1  0.74227450  0.99537650  0.37694250  1
  O  O41  1  0.74227450  0.00462350  0.62305750  1
  O  O42  1  0.25772550  0.99537650  0.12305750  1
  O  O43  1  0.25772550  0.00462350  0.87694250  1
  O  O44  1  0.25772550  0.00462350  0.62305750  1
  O  O45  1  0.25772550  0.99537650  0.37694250  1
  O  O46  1  0.74227450  0.00462350  0.87694250  1
  O  O47  1  0.74227450  0.99537650  0.12305750  1
  O  O48  1  0.00000000  0.74595100  0.49202200  1
  O  O49  1  0.00000000  0.25404900  0.50797800  1
  O  O50  1  0.50000000  0.24595100  0.50797800  1
  O  O51  1  0.50000000  0.75404900  0.49202200  1
  O  O52  1  0.00000000  0.21386000  0.25000000  1
  O  O53  1  0.00000000  0.78614000  0.75000000  1
  O  O54  1  0.50000000  0.78045000  0.25000000  1
  O  O55  1  0.50000000  0.21955000  0.75000000  1
