# generated using pymatgen
data_CoGeO3
_symmetry_space_group_name_H-M   'P 1'
_cell_length_a   9.78372800
_cell_length_b   9.13792200
_cell_length_c   5.23801405
_cell_angle_alpha   90.00000000
_cell_angle_beta   101.67590950
_cell_angle_gamma   90.00000000
_symmetry_Int_Tables_number   1
_chemical_formula_structural   CoGeO3
_chemical_formula_sum   'Co8 Ge8 O24'
_cell_volume   458.60393081
_cell_formula_units_Z   8
loop_
 _symmetry_equiv_pos_site_id
 _symmetry_equiv_pos_as_xyz
  1  'x, y, z'
loop_
 _atom_site_type_symbol
 _atom_site_label
 _atom_site_symmetry_multiplicity
 _atom_site_fract_x
 _atom_site_fract_y
 _atom_site_fract_z
 _atom_site_occupancy
  Co  Co0  1  0.00000000  0.09385100  0.75000000  1
  Co  Co1  1  0.00000000  0.26987900  0.25000000  1
  Co  Co2  1  0.00000000  0.90614900  0.25000000  1
  Co  Co3  1  0.00000000  0.73012100  0.75000000  1
  Co  Co4  1  0.50000000  0.59385100  0.75000000  1
  Co  Co5  1  0.50000000  0.76987900  0.25000000  1
  Co  Co6  1  0.50000000  0.40614900  0.25000000  1
  Co  Co7  1  0.50000000  0.23012100  0.75000000  1
  Ge  Ge8  1  0.79950650  0.59514050  0.21511900  1
  Ge  Ge9  1  0.79950650  0.40485950  0.71511900  1
  Ge  Ge10  1  0.20049350  0.59514050  0.28488100  1
  Ge  Ge11  1  0.20049350  0.40485950  0.78488100  1
  Ge  Ge12  1  0.29950650  0.09514050  0.21511900  1
  Ge  Ge13  1  0.29950650  0.90485950  0.71511900  1
  Ge  Ge14  1  0.70049350  0.09514050  0.28488100  1
  Ge  Ge15  1  0.70049350  0.90485950  0.78488100  1
  O  O16  1  0.85902650  0.56951850  0.91030500  1
  O  O17  1  0.14097350  0.56951850  0.58969500  1
  O  O18  1  0.88161450  0.74573050  0.38406200  1
  O  O19  1  0.61491750  0.59234550  0.13534000  1
  O  O20  1  0.61491750  0.40765450  0.63534000  1
  O  O21  1  0.14097350  0.43048150  0.08969500  1
  O  O22  1  0.85902650  0.43048150  0.41030500  1
  O  O23  1  0.11838550  0.74573050  0.11593800  1
  O  O24  1  0.88161450  0.25426950  0.88406200  1
  O  O25  1  0.38508250  0.40765450  0.86466000  1
  O  O26  1  0.38508250  0.59234550  0.36466000  1
  O  O27  1  0.11838550  0.25426950  0.61593800  1
  O  O28  1  0.35902650  0.06951850  0.91030500  1
  O  O29  1  0.64097350  0.06951850  0.58969500  1
  O  O30  1  0.38161450  0.24573050  0.38406200  1
  O  O31  1  0.11491750  0.09234550  0.13534000  1
  O  O32  1  0.11491750  0.90765450  0.63534000  1
  O  O33  1  0.64097350  0.93048150  0.08969500  1
  O  O34  1  0.35902650  0.93048150  0.41030500  1
  O  O35  1  0.61838550  0.24573050  0.11593800  1
  O  O36  1  0.38161450  0.75426950  0.88406200  1
  O  O37  1  0.88508250  0.90765450  0.86466000  1
  O  O38  1  0.88508250  0.09234550  0.36466000  1
  O  O39  1  0.61838550  0.75426950  0.61593800  1
