# generated using pymatgen
data_Rb2CoPb(NO2)6
_symmetry_space_group_name_H-M   'P 1'
_cell_length_a   10.70269200
_cell_length_b   10.70269200
_cell_length_c   10.70269200
_cell_angle_alpha   90.00000000
_cell_angle_beta   90.00000000
_cell_angle_gamma   90.00000000
_symmetry_Int_Tables_number   1
_chemical_formula_structural   Rb2CoPb(NO2)6
_chemical_formula_sum   'Rb8 Co4 Pb4 N24 O48'
_cell_volume   1225.96785388
_cell_formula_units_Z   4
loop_
 _symmetry_equiv_pos_site_id
 _symmetry_equiv_pos_as_xyz
  1  'x, y, z'
loop_
 _atom_site_type_symbol
 _atom_site_label
 _atom_site_symmetry_multiplicity
 _atom_site_fract_x
 _atom_site_fract_y
 _atom_site_fract_z
 _atom_site_occupancy
  Rb  Rb0  1  0.25000000  0.25000000  0.75000000  1
  Rb  Rb1  1  0.25000000  0.25000000  0.25000000  1
  Rb  Rb2  1  0.25000000  0.75000000  0.25000000  1
  Rb  Rb3  1  0.25000000  0.75000000  0.75000000  1
  Rb  Rb4  1  0.75000000  0.25000000  0.25000000  1
  Rb  Rb5  1  0.75000000  0.25000000  0.75000000  1
  Rb  Rb6  1  0.75000000  0.75000000  0.75000000  1
  Rb  Rb7  1  0.75000000  0.75000000  0.25000000  1
  Co  Co8  1  0.00000000  0.00000000  0.00000000  1
  Co  Co9  1  0.00000000  0.50000000  0.50000000  1
  Co  Co10  1  0.50000000  0.00000000  0.50000000  1
  Co  Co11  1  0.50000000  0.50000000  0.00000000  1
  Pb  Pb12  1  0.50000000  0.00000000  0.00000000  1
  Pb  Pb13  1  0.50000000  0.50000000  0.50000000  1
  Pb  Pb14  1  0.00000000  0.00000000  0.50000000  1
  Pb  Pb15  1  0.00000000  0.50000000  0.00000000  1
  N  N16  1  0.18973400  0.00000000  0.00000000  1
  N  N17  1  0.50000000  0.00000000  0.31026600  1
  N  N18  1  0.00000000  0.18973400  0.00000000  1
  N  N19  1  0.50000000  0.31026600  0.00000000  1
  N  N20  1  0.50000000  0.00000000  0.68973400  1
  N  N21  1  0.81026600  0.00000000  0.00000000  1
  N  N22  1  0.18973400  0.50000000  0.50000000  1
  N  N23  1  0.50000000  0.50000000  0.81026600  1
  N  N24  1  0.00000000  0.68973400  0.50000000  1
  N  N25  1  0.50000000  0.81026600  0.50000000  1
  N  N26  1  0.50000000  0.50000000  0.18973400  1
  N  N27  1  0.81026600  0.50000000  0.50000000  1
  N  N28  1  0.68973400  0.00000000  0.50000000  1
  N  N29  1  0.00000000  0.00000000  0.81026600  1
  N  N30  1  0.50000000  0.18973400  0.50000000  1
  N  N31  1  0.00000000  0.31026600  0.50000000  1
  N  N32  1  0.00000000  0.00000000  0.18973400  1
  N  N33  1  0.31026600  0.00000000  0.50000000  1
  N  N34  1  0.68973400  0.50000000  0.00000000  1
  N  N35  1  0.00000000  0.50000000  0.31026600  1
  N  N36  1  0.50000000  0.68973400  0.00000000  1
  N  N37  1  0.00000000  0.81026600  0.00000000  1
  N  N38  1  0.00000000  0.50000000  0.68973400  1
  N  N39  1  0.31026600  0.50000000  0.00000000  1
  O  O40  1  0.60064100  0.24901700  0.00000000  1
  O  O41  1  0.00000000  0.39935900  0.24901700  1
  O  O42  1  0.50000000  0.10064100  0.75098300  1
  O  O43  1  0.50000000  0.10064100  0.24901700  1
  O  O44  1  0.00000000  0.39935900  0.75098300  1
  O  O45  1  0.74901700  0.00000000  0.10064100  1
  O  O46  1  0.39935900  0.24901700  0.00000000  1
  O  O47  1  0.89935900  0.25098300  0.00000000  1
  O  O48  1  0.25098300  0.00000000  0.89935900  1
  O  O49  1  0.74901700  0.00000000  0.89935900  1
  O  O50  1  0.10064100  0.25098300  0.00000000  1
  O  O51  1  0.25098300  0.00000000  0.10064100  1
  O  O52  1  0.60064100  0.74901700  0.50000000  1
  O  O53  1  0.00000000  0.89935900  0.74901700  1
  O  O54  1  0.50000000  0.60064100  0.25098300  1
  O  O55  1  0.50000000  0.60064100  0.74901700  1
  O  O56  1  0.00000000  0.89935900  0.25098300  1
  O  O57  1  0.74901700  0.50000000  0.60064100  1
  O  O58  1  0.39935900  0.74901700  0.50000000  1
  O  O59  1  0.89935900  0.75098300  0.50000000  1
  O  O60  1  0.25098300  0.50000000  0.39935900  1
  O  O61  1  0.74901700  0.50000000  0.39935900  1
  O  O62  1  0.10064100  0.75098300  0.50000000  1
  O  O63  1  0.25098300  0.50000000  0.60064100  1
  O  O64  1  0.10064100  0.24901700  0.50000000  1
  O  O65  1  0.50000000  0.39935900  0.74901700  1
  O  O66  1  0.00000000  0.10064100  0.25098300  1
  O  O67  1  0.00000000  0.10064100  0.74901700  1
  O  O68  1  0.50000000  0.39935900  0.25098300  1
  O  O69  1  0.24901700  0.00000000  0.60064100  1
  O  O70  1  0.89935900  0.24901700  0.50000000  1
  O  O71  1  0.39935900  0.25098300  0.50000000  1
  O  O72  1  0.75098300  0.00000000  0.39935900  1
  O  O73  1  0.24901700  0.00000000  0.39935900  1
  O  O74  1  0.60064100  0.25098300  0.50000000  1
  O  O75  1  0.75098300  0.00000000  0.60064100  1
  O  O76  1  0.10064100  0.74901700  0.00000000  1
  O  O77  1  0.50000000  0.89935900  0.24901700  1
  O  O78  1  0.00000000  0.60064100  0.75098300  1
  O  O79  1  0.00000000  0.60064100  0.24901700  1
  O  O80  1  0.50000000  0.89935900  0.75098300  1
  O  O81  1  0.24901700  0.50000000  0.10064100  1
  O  O82  1  0.89935900  0.74901700  0.00000000  1
  O  O83  1  0.39935900  0.75098300  0.00000000  1
  O  O84  1  0.75098300  0.50000000  0.89935900  1
  O  O85  1  0.24901700  0.50000000  0.89935900  1
  O  O86  1  0.60064100  0.75098300  0.00000000  1
  O  O87  1  0.75098300  0.50000000  0.10064100  1
