# generated using pymatgen
data_Er5Mg24
_symmetry_space_group_name_H-M   'P 1'
_cell_length_a   11.23004800
_cell_length_b   11.23004800
_cell_length_c   11.23004800
_cell_angle_alpha   90.00000000
_cell_angle_beta   90.00000000
_cell_angle_gamma   90.00000000
_symmetry_Int_Tables_number   1
_chemical_formula_structural   Er5Mg24
_chemical_formula_sum   'Er10 Mg48'
_cell_volume   1416.26602734
_cell_formula_units_Z   2
loop_
 _symmetry_equiv_pos_site_id
 _symmetry_equiv_pos_as_xyz
  1  'x, y, z'
loop_
 _atom_site_type_symbol
 _atom_site_label
 _atom_site_symmetry_multiplicity
 _atom_site_fract_x
 _atom_site_fract_y
 _atom_site_fract_z
 _atom_site_occupancy
  Er  Er0  1  0.18646250  0.81353750  0.18646250  1
  Er  Er1  1  0.81353750  0.18646250  0.18646250  1
  Er  Er2  1  0.18646250  0.18646250  0.81353750  1
  Er  Er3  1  0.31353750  0.31353750  0.31353750  1
  Er  Er4  1  0.00000000  0.00000000  0.00000000  1
  Er  Er5  1  0.68646250  0.31353750  0.68646250  1
  Er  Er6  1  0.31353750  0.68646250  0.68646250  1
  Er  Er7  1  0.68646250  0.68646250  0.31353750  1
  Er  Er8  1  0.81353750  0.81353750  0.81353750  1
  Er  Er9  1  0.50000000  0.50000000  0.50000000  1
  Mg  Mg10  1  0.40979000  0.78085700  0.40979000  1
  Mg  Mg11  1  0.28085700  0.09021000  0.09021000  1
  Mg  Mg12  1  0.09021000  0.09021000  0.28085700  1
  Mg  Mg13  1  0.09021000  0.90979000  0.71914300  1
  Mg  Mg14  1  0.71914300  0.90979000  0.09021000  1
  Mg  Mg15  1  0.35631500  0.03305200  0.35631500  1
  Mg  Mg16  1  0.14368500  0.46694800  0.85631500  1
  Mg  Mg17  1  0.85631500  0.46694800  0.14368500  1
  Mg  Mg18  1  0.14368500  0.85631500  0.46694800  1
  Mg  Mg19  1  0.14368500  0.14368500  0.53305200  1
  Mg  Mg20  1  0.53305200  0.14368500  0.14368500  1
  Mg  Mg21  1  0.46694800  0.85631500  0.14368500  1
  Mg  Mg22  1  0.46694800  0.14368500  0.85631500  1
  Mg  Mg23  1  0.85631500  0.14368500  0.46694800  1
  Mg  Mg24  1  0.35631500  0.35631500  0.03305200  1
  Mg  Mg25  1  0.03305200  0.35631500  0.35631500  1
  Mg  Mg26  1  0.14368500  0.53305200  0.14368500  1
  Mg  Mg27  1  0.09021000  0.28085700  0.09021000  1
  Mg  Mg28  1  0.90979000  0.71914300  0.09021000  1
  Mg  Mg29  1  0.09021000  0.71914300  0.90979000  1
  Mg  Mg30  1  0.90979000  0.09021000  0.71914300  1
  Mg  Mg31  1  0.40979000  0.40979000  0.78085700  1
  Mg  Mg32  1  0.78085700  0.40979000  0.40979000  1
  Mg  Mg33  1  0.71914300  0.09021000  0.90979000  1
  Mg  Mg34  1  0.90979000  0.28085700  0.90979000  1
  Mg  Mg35  1  0.78085700  0.59021000  0.59021000  1
  Mg  Mg36  1  0.59021000  0.59021000  0.78085700  1
  Mg  Mg37  1  0.59021000  0.40979000  0.21914300  1
  Mg  Mg38  1  0.21914300  0.40979000  0.59021000  1
  Mg  Mg39  1  0.85631500  0.53305200  0.85631500  1
  Mg  Mg40  1  0.64368500  0.96694800  0.35631500  1
  Mg  Mg41  1  0.35631500  0.96694800  0.64368500  1
  Mg  Mg42  1  0.64368500  0.35631500  0.96694800  1
  Mg  Mg43  1  0.64368500  0.64368500  0.03305200  1
  Mg  Mg44  1  0.03305200  0.64368500  0.64368500  1
  Mg  Mg45  1  0.96694800  0.35631500  0.64368500  1
  Mg  Mg46  1  0.96694800  0.64368500  0.35631500  1
  Mg  Mg47  1  0.35631500  0.64368500  0.96694800  1
  Mg  Mg48  1  0.85631500  0.85631500  0.53305200  1
  Mg  Mg49  1  0.53305200  0.85631500  0.85631500  1
  Mg  Mg50  1  0.64368500  0.03305200  0.64368500  1
  Mg  Mg51  1  0.59021000  0.78085700  0.59021000  1
  Mg  Mg52  1  0.40979000  0.21914300  0.59021000  1
  Mg  Mg53  1  0.59021000  0.21914300  0.40979000  1
  Mg  Mg54  1  0.40979000  0.59021000  0.21914300  1
  Mg  Mg55  1  0.90979000  0.90979000  0.28085700  1
  Mg  Mg56  1  0.28085700  0.90979000  0.90979000  1
  Mg  Mg57  1  0.21914300  0.59021000  0.40979000  1
