# generated using pymatgen
data_Sb(PO3)4
_symmetry_space_group_name_H-M   'P 1'
_cell_length_a   9.99427000
_cell_length_b   11.63658000
_cell_length_c   17.29320100
_cell_angle_alpha   90.00000000
_cell_angle_beta   90.00000000
_cell_angle_gamma   90.00000000
_symmetry_Int_Tables_number   1
_chemical_formula_structural   Sb(PO3)4
_chemical_formula_sum   'Sb8 P32 O96'
_cell_volume   2011.18409973
_cell_formula_units_Z   8
loop_
 _symmetry_equiv_pos_site_id
 _symmetry_equiv_pos_as_xyz
  1  'x, y, z'
loop_
 _atom_site_type_symbol
 _atom_site_label
 _atom_site_symmetry_multiplicity
 _atom_site_fract_x
 _atom_site_fract_y
 _atom_site_fract_z
 _atom_site_occupancy
  Sb  Sb0  1  0.21750000  0.18502700  0.63718300  1
  Sb  Sb1  1  0.21750000  0.81497300  0.36281700  1
  Sb  Sb2  1  0.78250000  0.18502700  0.86281700  1
  Sb  Sb3  1  0.78250000  0.81497300  0.13718300  1
  Sb  Sb4  1  0.71750000  0.68502700  0.63718300  1
  Sb  Sb5  1  0.71750000  0.31497300  0.36281700  1
  Sb  Sb6  1  0.28250000  0.68502700  0.86281700  1
  Sb  Sb7  1  0.28250000  0.31497300  0.13718300  1
  P  P8  1  0.38998950  0.35699350  0.34191700  1
  P  P9  1  0.45373400  0.23583700  0.48591300  1
  P  P10  1  0.61001050  0.35699350  0.15808300  1
  P  P11  1  0.54626600  0.23583700  0.01408700  1
  P  P12  1  0.30203100  0.03130100  0.19534600  1
  P  P13  1  0.50000000  0.13081900  0.75000000  1
  P  P14  1  0.30203100  0.96869900  0.80465400  1
  P  P15  1  0.35186700  0.00000000  0.50000000  1
  P  P16  1  0.64813300  0.00000000  0.00000000  1
  P  P17  1  0.69796900  0.03130100  0.30465400  1
  P  P18  1  0.50000000  0.86918100  0.25000000  1
  P  P19  1  0.69796900  0.96869900  0.69534600  1
  P  P20  1  0.45373400  0.76416300  0.51408700  1
  P  P21  1  0.38998950  0.64300650  0.65808300  1
  P  P22  1  0.54626600  0.76416300  0.98591300  1
  P  P23  1  0.61001050  0.64300650  0.84191700  1
  P  P24  1  0.88998950  0.85699350  0.34191700  1
  P  P25  1  0.95373400  0.73583700  0.48591300  1
  P  P26  1  0.11001050  0.85699350  0.15808300  1
  P  P27  1  0.04626600  0.73583700  0.01408700  1
  P  P28  1  0.80203100  0.53130100  0.19534600  1
  P  P29  1  0.00000000  0.63081900  0.75000000  1
  P  P30  1  0.80203100  0.46869900  0.80465400  1
  P  P31  1  0.85186700  0.50000000  0.50000000  1
  P  P32  1  0.14813300  0.50000000  0.00000000  1
  P  P33  1  0.19796900  0.53130100  0.30465400  1
  P  P34  1  0.00000000  0.36918100  0.25000000  1
  P  P35  1  0.19796900  0.46869900  0.69534600  1
  P  P36  1  0.95373400  0.26416300  0.51408700  1
  P  P37  1  0.88998950  0.14300650  0.65808300  1
  P  P38  1  0.04626600  0.26416300  0.98591300  1
  P  P39  1  0.11001050  0.14300650  0.84191700  1
  O  O40  1  0.46806350  0.40464150  0.15108400  1
  O  O41  1  0.34623000  0.29607900  0.27059100  1
  O  O42  1  0.53193650  0.40464150  0.34891600  1
  O  O43  1  0.36251350  0.27216750  0.41337600  1
  O  O44  1  0.38052400  0.26683400  0.55908400  1
  O  O45  1  0.40432350  0.27750450  0.02484400  1
  O  O46  1  0.39895500  0.20542000  0.70832100  1
  O  O47  1  0.20358500  0.03582700  0.86422400  1
  O  O48  1  0.34012450  0.14034650  0.15145100  1
  O  O49  1  0.25354050  0.03003950  0.27586600  1
  O  O50  1  0.59567650  0.27750450  0.47515600  1
  O  O51  1  0.27023200  0.03507700  0.56959300  1
  O  O52  1  0.20358500  0.96417300  0.13577600  1
  O  O53  1  0.65377000  0.29607900  0.22940900  1
  O  O54  1  0.61947600  0.26683400  0.94091600  1
  O  O55  1  0.25354050  0.96996050  0.72413400  1
  O  O56  1  0.63748650  0.27216750  0.08662400  1
  O  O57  1  0.27023200  0.96492300  0.43040700  1
  O  O58  1  0.45597200  0.09759200  0.47616500  1
  O  O59  1  0.60104500  0.20542000  0.79167900  1
  O  O60  1  0.43703500  0.04770400  0.81388300  1
  O  O61  1  0.54402800  0.09759200  0.02383500  1
  O  O62  1  0.65987550  0.14034650  0.34854900  1
  O  O63  1  0.56296500  0.04770400  0.68611700  1
  O  O64  1  0.43703500  0.95229600  0.18611700  1
  O  O65  1  0.34012450  0.85965350  0.84854900  1
  O  O66  1  0.45597200  0.90240800  0.52383500  1
  O  O67  1  0.56296500  0.95229600  0.31388300  1
  O  O68  1  0.39895500  0.79458000  0.29167900  1
  O  O69  1  0.54402800  0.90240800  0.97616500  1
  O  O70  1  0.72976800  0.03507700  0.93040700  1
  O  O71  1  0.36251350  0.72783250  0.58662400  1
  O  O72  1  0.74645950  0.03003950  0.22413400  1
  O  O73  1  0.38052400  0.73316600  0.44091600  1
  O  O74  1  0.34623000  0.70392100  0.72940900  1
  O  O75  1  0.79641500  0.03582700  0.63577600  1
  O  O76  1  0.72976800  0.96492300  0.06959300  1
  O  O77  1  0.40432350  0.72249550  0.97515600  1
  O  O78  1  0.74645950  0.96996050  0.77586600  1
  O  O79  1  0.65987550  0.85965350  0.65145100  1
  O  O80  1  0.79641500  0.96417300  0.36422400  1
  O  O81  1  0.60104500  0.79458000  0.20832100  1
  O  O82  1  0.59567650  0.72249550  0.52484400  1
  O  O83  1  0.61947600  0.73316600  0.05908400  1
  O  O84  1  0.63748650  0.72783250  0.91337600  1
  O  O85  1  0.46806350  0.59535850  0.84891600  1
  O  O86  1  0.65377000  0.70392100  0.77059100  1
  O  O87  1  0.53193650  0.59535850  0.65108400  1
  O  O88  1  0.96806350  0.90464150  0.15108400  1
  O  O89  1  0.84623000  0.79607900  0.27059100  1
  O  O90  1  0.03193650  0.90464150  0.34891600  1
  O  O91  1  0.86251350  0.77216750  0.41337600  1
  O  O92  1  0.88052400  0.76683400  0.55908400  1
  O  O93  1  0.90432350  0.77750450  0.02484400  1
  O  O94  1  0.89895500  0.70542000  0.70832100  1
  O  O95  1  0.70358500  0.53582700  0.86422400  1
  O  O96  1  0.84012450  0.64034650  0.15145100  1
  O  O97  1  0.75354050  0.53003950  0.27586600  1
  O  O98  1  0.09567650  0.77750450  0.47515600  1
  O  O99  1  0.77023200  0.53507700  0.56959300  1
  O  O100  1  0.70358500  0.46417300  0.13577600  1
  O  O101  1  0.15377000  0.79607900  0.22940900  1
  O  O102  1  0.11947600  0.76683400  0.94091600  1
  O  O103  1  0.75354050  0.46996050  0.72413400  1
  O  O104  1  0.13748650  0.77216750  0.08662400  1
  O  O105  1  0.77023200  0.46492300  0.43040700  1
  O  O106  1  0.95597200  0.59759200  0.47616500  1
  O  O107  1  0.10104500  0.70542000  0.79167900  1
  O  O108  1  0.93703500  0.54770400  0.81388300  1
  O  O109  1  0.04402800  0.59759200  0.02383500  1
  O  O110  1  0.15987550  0.64034650  0.34854900  1
  O  O111  1  0.06296500  0.54770400  0.68611700  1
  O  O112  1  0.93703500  0.45229600  0.18611700  1
  O  O113  1  0.84012450  0.35965350  0.84854900  1
  O  O114  1  0.95597200  0.40240800  0.52383500  1
  O  O115  1  0.06296500  0.45229600  0.31388300  1
  O  O116  1  0.89895500  0.29458000  0.29167900  1
  O  O117  1  0.04402800  0.40240800  0.97616500  1
  O  O118  1  0.22976800  0.53507700  0.93040700  1
  O  O119  1  0.86251350  0.22783250  0.58662400  1
  O  O120  1  0.24645950  0.53003950  0.22413400  1
  O  O121  1  0.88052400  0.23316600  0.44091600  1
  O  O122  1  0.84623000  0.20392100  0.72940900  1
  O  O123  1  0.29641500  0.53582700  0.63577600  1
  O  O124  1  0.22976800  0.46492300  0.06959300  1
  O  O125  1  0.90432350  0.22249550  0.97515600  1
  O  O126  1  0.24645950  0.46996050  0.77586600  1
  O  O127  1  0.15987550  0.35965350  0.65145100  1
  O  O128  1  0.29641500  0.46417300  0.36422400  1
  O  O129  1  0.10104500  0.29458000  0.20832100  1
  O  O130  1  0.09567650  0.22249550  0.52484400  1
  O  O131  1  0.11947600  0.23316600  0.05908400  1
  O  O132  1  0.13748650  0.22783250  0.91337600  1
  O  O133  1  0.96806350  0.09535850  0.84891600  1
  O  O134  1  0.15377000  0.20392100  0.77059100  1
  O  O135  1  0.03193650  0.09535850  0.65108400  1
