# generated using pymatgen
data_NaTi8O13
_symmetry_space_group_name_H-M   'P 1'
_cell_length_a   7.77466768
_cell_length_b   7.77466768
_cell_length_c   14.08959251
_cell_angle_alpha   90.00000000
_cell_angle_beta   90.00000000
_cell_angle_gamma   120.00000000
_symmetry_Int_Tables_number   1
_chemical_formula_structural   NaTi8O13
_chemical_formula_sum   'Na3 Ti24 O39'
_cell_volume   737.55215044
_cell_formula_units_Z   3
loop_
 _symmetry_equiv_pos_site_id
 _symmetry_equiv_pos_as_xyz
  1  'x, y, z'
loop_
 _atom_site_type_symbol
 _atom_site_label
 _atom_site_symmetry_multiplicity
 _atom_site_fract_x
 _atom_site_fract_y
 _atom_site_fract_z
 _atom_site_occupancy
  Na  Na0  1  0.33333333  0.66666667  0.16666667  1
  Na  Na1  1  1.00000000  0.00000000  0.50000000  1
  Na  Na2  1  0.66666667  0.33333333  0.83333333  1
  Ti  Ti3  1  0.43110833  0.30339067  0.25242867  1
  Ti  Ti4  1  0.69660933  0.12771767  0.25242867  1
  Ti  Ti5  1  0.87228233  0.56889167  0.25242867  1
  Ti  Ti6  1  0.23555833  0.02994267  0.08090467  1
  Ti  Ti7  1  0.97005733  0.20561567  0.08090467  1
  Ti  Ti8  1  0.79438433  0.76444167  0.08090467  1
  Ti  Ti9  1  0.33333333  0.66666667  0.93800167  1
  Ti  Ti10  1  0.33333333  0.66666667  0.39533167  1
  Ti  Ti11  1  0.09777500  0.63672400  0.58576200  1
  Ti  Ti12  1  0.36327600  0.46105100  0.58576200  1
  Ti  Ti13  1  0.53894900  0.90222500  0.58576200  1
  Ti  Ti14  1  0.90222500  0.36327600  0.41423800  1
  Ti  Ti15  1  0.63672400  0.53894900  0.41423800  1
  Ti  Ti16  1  0.46105100  0.09777500  0.41423800  1
  Ti  Ti17  1  0.00000000  0.00000000  0.27133500  1
  Ti  Ti18  1  0.00000000  0.00000000  0.72866500  1
  Ti  Ti19  1  0.76444167  0.97005733  0.91909533  1
  Ti  Ti20  1  0.02994267  0.79438433  0.91909533  1
  Ti  Ti21  1  0.20561567  0.23555833  0.91909533  1
  Ti  Ti22  1  0.56889167  0.69660933  0.74757133  1
  Ti  Ti23  1  0.30339067  0.87228233  0.74757133  1
  Ti  Ti24  1  0.12771767  0.43110833  0.74757133  1
  Ti  Ti25  1  0.66666667  0.33333333  0.60466833  1
  Ti  Ti26  1  0.66666667  0.33333333  0.06199833  1
  O  O27  1  0.00000000  0.00000000  0.00000000  1
  O  O28  1  0.17047567  0.42836633  0.00700533  1
  O  O29  1  0.57163367  0.74210933  0.00700533  1
  O  O30  1  0.25789067  0.82952433  0.00700533  1
  O  O31  1  0.49619100  0.90496700  0.32632800  1
  O  O32  1  0.09503300  0.59122400  0.32632800  1
  O  O33  1  0.40877600  0.50380900  0.32632800  1
  O  O34  1  0.18528167  0.21953633  0.17166333  1
  O  O35  1  0.78046367  0.96574533  0.17166333  1
  O  O36  1  0.03425467  0.81471833  0.17166333  1
  O  O37  1  0.48138500  0.11379700  0.16167000  1
  O  O38  1  0.88620300  0.36758800  0.16167000  1
  O  O39  1  0.63241200  0.51861500  0.16167000  1
  O  O40  1  0.66666667  0.33333333  0.33333333  1
  O  O41  1  0.83714233  0.76169967  0.34033867  1
  O  O42  1  0.23830033  0.07544267  0.34033867  1
  O  O43  1  0.92455733  0.16285767  0.34033867  1
  O  O44  1  0.16285767  0.23830033  0.65966133  1
  O  O45  1  0.76169967  0.92455733  0.65966133  1
  O  O46  1  0.07544267  0.83714233  0.65966133  1
  O  O47  1  0.85194833  0.55286967  0.50499667  1
  O  O48  1  0.44713033  0.29907867  0.50499667  1
  O  O49  1  0.70092133  0.14805167  0.50499667  1
  O  O50  1  0.14805167  0.44713033  0.49500333  1
  O  O51  1  0.55286967  0.70092133  0.49500333  1
  O  O52  1  0.29907867  0.85194833  0.49500333  1
  O  O53  1  0.33333333  0.66666667  0.66666667  1
  O  O54  1  0.50380900  0.09503300  0.67367200  1
  O  O55  1  0.90496700  0.40877600  0.67367200  1
  O  O56  1  0.59122400  0.49619100  0.67367200  1
  O  O57  1  0.82952433  0.57163367  0.99299467  1
  O  O58  1  0.42836633  0.25789067  0.99299467  1
  O  O59  1  0.74210933  0.17047567  0.99299467  1
  O  O60  1  0.51861500  0.88620300  0.83833000  1
  O  O61  1  0.11379700  0.63241200  0.83833000  1
  O  O62  1  0.36758800  0.48138500  0.83833000  1
  O  O63  1  0.81471833  0.78046367  0.82833667  1
  O  O64  1  0.21953633  0.03425467  0.82833667  1
  O  O65  1  0.96574533  0.18528167  0.82833667  1
