# generated using pymatgen
data_Rb(InAu2)2
_symmetry_space_group_name_H-M   'P 1'
_cell_length_a   9.06331000
_cell_length_b   9.06331000
_cell_length_c   8.43601600
_cell_angle_alpha   90.00000000
_cell_angle_beta   90.00000000
_cell_angle_gamma   90.00000000
_symmetry_Int_Tables_number   1
_chemical_formula_structural   Rb(InAu2)2
_chemical_formula_sum   'Rb4 In8 Au16'
_cell_volume   692.96462398
_cell_formula_units_Z   4
loop_
 _symmetry_equiv_pos_site_id
 _symmetry_equiv_pos_as_xyz
  1  'x, y, z'
loop_
 _atom_site_type_symbol
 _atom_site_label
 _atom_site_symmetry_multiplicity
 _atom_site_fract_x
 _atom_site_fract_y
 _atom_site_fract_z
 _atom_site_occupancy
  Rb  Rb0  1  0.00000000  0.00000000  0.75000000  1
  Rb  Rb1  1  0.00000000  0.00000000  0.25000000  1
  Rb  Rb2  1  0.50000000  0.50000000  0.25000000  1
  Rb  Rb3  1  0.50000000  0.50000000  0.75000000  1
  In  In4  1  0.35859700  0.85859700  0.50000000  1
  In  In5  1  0.35859700  0.14140300  0.00000000  1
  In  In6  1  0.14140300  0.35859700  0.50000000  1
  In  In7  1  0.14140300  0.64140300  0.00000000  1
  In  In8  1  0.85859700  0.35859700  0.00000000  1
  In  In9  1  0.85859700  0.64140300  0.50000000  1
  In  In10  1  0.64140300  0.85859700  0.00000000  1
  In  In11  1  0.64140300  0.14140300  0.50000000  1
  Au  Au12  1  0.34774100  0.15225900  0.33489600  1
  Au  Au13  1  0.15225900  0.65225900  0.33489600  1
  Au  Au14  1  0.65225900  0.84774100  0.33489600  1
  Au  Au15  1  0.84774100  0.34774100  0.33489600  1
  Au  Au16  1  0.34774100  0.84774100  0.16510400  1
  Au  Au17  1  0.84774100  0.65225900  0.16510400  1
  Au  Au18  1  0.15225900  0.34774100  0.16510400  1
  Au  Au19  1  0.65225900  0.15225900  0.16510400  1
  Au  Au20  1  0.84774100  0.65225900  0.83489600  1
  Au  Au21  1  0.65225900  0.15225900  0.83489600  1
  Au  Au22  1  0.15225900  0.34774100  0.83489600  1
  Au  Au23  1  0.34774100  0.84774100  0.83489600  1
  Au  Au24  1  0.84774100  0.34774100  0.66510400  1
  Au  Au25  1  0.34774100  0.15225900  0.66510400  1
  Au  Au26  1  0.65225900  0.84774100  0.66510400  1
  Au  Au27  1  0.15225900  0.65225900  0.66510400  1
