# generated using pymatgen
data_K2Cu2Te5
_symmetry_space_group_name_H-M   'P 1'
_cell_length_a   7.75346600
_cell_length_b   11.54725400
_cell_length_c   12.18505900
_cell_angle_alpha   90.00000000
_cell_angle_beta   90.00000000
_cell_angle_gamma   90.00000000
_symmetry_Int_Tables_number   1
_chemical_formula_structural   K2Cu2Te5
_chemical_formula_sum   'K8 Cu8 Te20'
_cell_volume   1090.94345737
_cell_formula_units_Z   4
loop_
 _symmetry_equiv_pos_site_id
 _symmetry_equiv_pos_as_xyz
  1  'x, y, z'
loop_
 _atom_site_type_symbol
 _atom_site_label
 _atom_site_symmetry_multiplicity
 _atom_site_fract_x
 _atom_site_fract_y
 _atom_site_fract_z
 _atom_site_occupancy
  K  K0  1  0.50000000  0.29605500  0.00000000  1
  K  K1  1  0.50000000  0.70394500  0.00000000  1
  K  K2  1  0.50000000  0.70394500  0.50000000  1
  K  K3  1  0.50000000  0.29605500  0.50000000  1
  K  K4  1  0.00000000  0.79605500  0.00000000  1
  K  K5  1  0.00000000  0.20394500  0.00000000  1
  K  K6  1  0.00000000  0.20394500  0.50000000  1
  K  K7  1  0.00000000  0.79605500  0.50000000  1
  Cu  Cu8  1  0.57323100  0.88893400  0.75000000  1
  Cu  Cu9  1  0.42676900  0.88893400  0.25000000  1
  Cu  Cu10  1  0.42676900  0.11106600  0.25000000  1
  Cu  Cu11  1  0.57323100  0.11106600  0.75000000  1
  Cu  Cu12  1  0.07323100  0.38893400  0.75000000  1
  Cu  Cu13  1  0.92676900  0.38893400  0.25000000  1
  Cu  Cu14  1  0.92676900  0.61106600  0.25000000  1
  Cu  Cu15  1  0.07323100  0.61106600  0.75000000  1
  Te  Te16  1  0.34630800  0.00000000  0.43361000  1
  Te  Te17  1  0.25657850  0.80696850  0.75000000  1
  Te  Te18  1  0.25657850  0.19303150  0.75000000  1
  Te  Te19  1  0.74342150  0.80696850  0.25000000  1
  Te  Te20  1  0.02484800  0.00000000  0.75000000  1
  Te  Te21  1  0.97515200  0.00000000  0.25000000  1
  Te  Te22  1  0.65369200  0.00000000  0.93361000  1
  Te  Te23  1  0.34630800  0.00000000  0.06639000  1
  Te  Te24  1  0.65369200  0.00000000  0.56639000  1
  Te  Te25  1  0.74342150  0.19303150  0.25000000  1
  Te  Te26  1  0.84630800  0.50000000  0.43361000  1
  Te  Te27  1  0.75657850  0.30696850  0.75000000  1
  Te  Te28  1  0.75657850  0.69303150  0.75000000  1
  Te  Te29  1  0.24342150  0.30696850  0.25000000  1
  Te  Te30  1  0.52484800  0.50000000  0.75000000  1
  Te  Te31  1  0.47515200  0.50000000  0.25000000  1
  Te  Te32  1  0.15369200  0.50000000  0.93361000  1
  Te  Te33  1  0.84630800  0.50000000  0.06639000  1
  Te  Te34  1  0.15369200  0.50000000  0.56639000  1
  Te  Te35  1  0.24342150  0.69303150  0.25000000  1
