# generated using pymatgen
data_Ba2Cu5F14
_symmetry_space_group_name_H-M   'P 1'
_cell_length_a   18.48195435
_cell_length_b   6.71429700
_cell_length_c   10.49201738
_cell_angle_alpha   90.00000000
_cell_angle_beta   116.50448681
_cell_angle_gamma   90.00000000
_symmetry_Int_Tables_number   1
_chemical_formula_structural   Ba2Cu5F14
_chemical_formula_sum   'Ba8 Cu20 F56'
_cell_volume   1165.14953862
_cell_formula_units_Z   4
loop_
 _symmetry_equiv_pos_site_id
 _symmetry_equiv_pos_as_xyz
  1  'x, y, z'
loop_
 _atom_site_type_symbol
 _atom_site_label
 _atom_site_symmetry_multiplicity
 _atom_site_fract_x
 _atom_site_fract_y
 _atom_site_fract_z
 _atom_site_occupancy
  Ba  Ba0  1  0.66266400  0.11724400  0.62993800  1
  Ba  Ba1  1  0.83733600  0.61724400  0.87006200  1
  Ba  Ba2  1  0.83733600  0.38275600  0.37006200  1
  Ba  Ba3  1  0.66266400  0.88275600  0.12993800  1
  Ba  Ba4  1  0.16266400  0.61724400  0.62993800  1
  Ba  Ba5  1  0.33733600  0.11724400  0.87006200  1
  Ba  Ba6  1  0.33733600  0.88275600  0.37006200  1
  Ba  Ba7  1  0.16266400  0.38275600  0.12993800  1
  Cu  Cu8  1  0.50000000  0.14573750  0.75000000  1
  Cu  Cu9  1  0.50000000  0.85426250  0.25000000  1
  Cu  Cu10  1  0.53492650  0.64165950  0.64025800  1
  Cu  Cu11  1  0.96507350  0.14165950  0.85974200  1
  Cu  Cu12  1  0.96507350  0.85834050  0.35974200  1
  Cu  Cu13  1  0.53492650  0.35834050  0.14025800  1
  Cu  Cu14  1  0.67536450  0.61968450  0.49254200  1
  Cu  Cu15  1  0.82463550  0.11968450  0.00745800  1
  Cu  Cu16  1  0.82463550  0.88031550  0.50745800  1
  Cu  Cu17  1  0.67536450  0.38031550  0.99254200  1
  Cu  Cu18  1  0.00000000  0.64573750  0.75000000  1
  Cu  Cu19  1  0.00000000  0.35426250  0.25000000  1
  Cu  Cu20  1  0.03492650  0.14165950  0.64025800  1
  Cu  Cu21  1  0.46507350  0.64165950  0.85974200  1
  Cu  Cu22  1  0.46507350  0.35834050  0.35974200  1
  Cu  Cu23  1  0.03492650  0.85834050  0.14025800  1
  Cu  Cu24  1  0.17536450  0.11968450  0.49254200  1
  Cu  Cu25  1  0.32463550  0.61968450  0.00745800  1
  Cu  Cu26  1  0.32463550  0.38031550  0.50745800  1
  Cu  Cu27  1  0.17536450  0.88031550  0.99254200  1
  F  F28  1  0.86050250  0.15661950  0.86093200  1
  F  F29  1  0.63949750  0.65661950  0.63906800  1
  F  F30  1  0.63949750  0.34338050  0.13906800  1
  F  F31  1  0.86050250  0.84338050  0.36093200  1
  F  F32  1  0.96473600  0.14898600  0.36713400  1
  F  F33  1  0.53526400  0.64898600  0.13286600  1
  F  F34  1  0.53526400  0.35101400  0.63286600  1
  F  F35  1  0.96473600  0.85101400  0.86713400  1
  F  F36  1  0.75043100  0.07895600  0.39478400  1
  F  F37  1  0.74956900  0.57895600  0.10521600  1
  F  F38  1  0.74956900  0.42104400  0.60521600  1
  F  F39  1  0.75043100  0.92104400  0.89478400  1
  F  F40  1  0.92329050  0.13567350  0.61106300  1
  F  F41  1  0.57670950  0.63567350  0.88893700  1
  F  F42  1  0.96630400  0.57064300  0.35550600  1
  F  F43  1  0.53369600  0.07064300  0.14449400  1
  F  F44  1  0.53369600  0.92935700  0.64449400  1
  F  F45  1  0.96630400  0.42935700  0.85550600  1
  F  F46  1  0.89040300  0.65086900  0.60286000  1
  F  F47  1  0.60959700  0.15086900  0.89714000  1
  F  F48  1  0.60959700  0.84913100  0.39714000  1
  F  F49  1  0.89040300  0.34913100  0.10286000  1
  F  F50  1  0.77760550  0.86646850  0.63723800  1
  F  F51  1  0.72239450  0.36646850  0.86276200  1
  F  F52  1  0.72239450  0.63353150  0.36276200  1
  F  F53  1  0.77760550  0.13353150  0.13723800  1
  F  F54  1  0.92329050  0.86432650  0.11106300  1
  F  F55  1  0.57670950  0.36432650  0.38893700  1
  F  F56  1  0.36050250  0.65661950  0.86093200  1
  F  F57  1  0.13949750  0.15661950  0.63906800  1
  F  F58  1  0.13949750  0.84338050  0.13906800  1
  F  F59  1  0.36050250  0.34338050  0.36093200  1
  F  F60  1  0.46473600  0.64898600  0.36713400  1
  F  F61  1  0.03526400  0.14898600  0.13286600  1
  F  F62  1  0.03526400  0.85101400  0.63286600  1
  F  F63  1  0.46473600  0.35101400  0.86713400  1
  F  F64  1  0.25043100  0.57895600  0.39478400  1
  F  F65  1  0.24956900  0.07895600  0.10521600  1
  F  F66  1  0.24956900  0.92104400  0.60521600  1
  F  F67  1  0.25043100  0.42104400  0.89478400  1
  F  F68  1  0.42329050  0.63567350  0.61106300  1
  F  F69  1  0.07670950  0.13567350  0.88893700  1
  F  F70  1  0.46630400  0.07064300  0.35550600  1
  F  F71  1  0.03369600  0.57064300  0.14449400  1
  F  F72  1  0.03369600  0.42935700  0.64449400  1
  F  F73  1  0.46630400  0.92935700  0.85550600  1
  F  F74  1  0.39040300  0.15086900  0.60286000  1
  F  F75  1  0.10959700  0.65086900  0.89714000  1
  F  F76  1  0.10959700  0.34913100  0.39714000  1
  F  F77  1  0.39040300  0.84913100  0.10286000  1
  F  F78  1  0.27760550  0.36646850  0.63723800  1
  F  F79  1  0.22239450  0.86646850  0.86276200  1
  F  F80  1  0.22239450  0.13353150  0.36276200  1
  F  F81  1  0.27760550  0.63353150  0.13723800  1
  F  F82  1  0.42329050  0.36432650  0.11106300  1
  F  F83  1  0.07670950  0.86432650  0.38893700  1
