# generated using pymatgen
data_Dy4In(NiGe2)2
_symmetry_space_group_name_H-M   'P 1'
_cell_length_a   15.51944200
_cell_length_b   4.24202200
_cell_length_c   7.05921017
_cell_angle_alpha   90.00000000
_cell_angle_beta   108.71967096
_cell_angle_gamma   90.00000000
_symmetry_Int_Tables_number   1
_chemical_formula_structural   Dy4In(NiGe2)2
_chemical_formula_sum   'Dy8 In2 Ni4 Ge8'
_cell_volume   440.15033375
_cell_formula_units_Z   2
loop_
 _symmetry_equiv_pos_site_id
 _symmetry_equiv_pos_as_xyz
  1  'x, y, z'
loop_
 _atom_site_type_symbol
 _atom_site_label
 _atom_site_symmetry_multiplicity
 _atom_site_fract_x
 _atom_site_fract_y
 _atom_site_fract_z
 _atom_site_occupancy
  Dy  Dy0  1  0.34431100  0.00000000  0.06198700  1
  Dy  Dy1  1  0.15568900  0.50000000  0.93801300  1
  Dy  Dy2  1  0.40817200  0.00000000  0.60901200  1
  Dy  Dy3  1  0.09182800  0.50000000  0.39098800  1
  Dy  Dy4  1  0.84431100  0.50000000  0.06198700  1
  Dy  Dy5  1  0.65568900  0.00000000  0.93801300  1
  Dy  Dy6  1  0.90817200  0.50000000  0.60901200  1
  Dy  Dy7  1  0.59182800  0.00000000  0.39098800  1
  In  In8  1  0.00000000  0.00000000  0.00000000  1
  In  In9  1  0.50000000  0.50000000  0.00000000  1
  Ni  Ni10  1  0.21663600  0.00000000  0.64392200  1
  Ni  Ni11  1  0.28336400  0.50000000  0.35607800  1
  Ni  Ni12  1  0.71663600  0.50000000  0.64392200  1
  Ni  Ni13  1  0.78336400  0.00000000  0.35607800  1
  Ge  Ge14  1  0.06541000  0.00000000  0.66226700  1
  Ge  Ge15  1  0.43459000  0.50000000  0.33773300  1
  Ge  Ge16  1  0.20416100  0.00000000  0.27264300  1
  Ge  Ge17  1  0.29583900  0.50000000  0.72735700  1
  Ge  Ge18  1  0.56541000  0.50000000  0.66226700  1
  Ge  Ge19  1  0.93459000  0.00000000  0.33773300  1
  Ge  Ge20  1  0.70416100  0.50000000  0.27264300  1
  Ge  Ge21  1  0.79583900  0.00000000  0.72735700  1
