# generated using pymatgen
data_Cu4(PO4)3
_symmetry_space_group_name_H-M   'P 1'
_cell_length_a   12.19861000
_cell_length_b   12.02444400
_cell_length_c   7.33125404
_cell_angle_alpha   90.00000000
_cell_angle_beta   120.92737921
_cell_angle_gamma   90.00000000
_symmetry_Int_Tables_number   1
_chemical_formula_structural   Cu4(PO4)3
_chemical_formula_sum   'Cu16 P12 O48'
_cell_volume   922.46412965
_cell_formula_units_Z   4
loop_
 _symmetry_equiv_pos_site_id
 _symmetry_equiv_pos_as_xyz
  1  'x, y, z'
loop_
 _atom_site_type_symbol
 _atom_site_label
 _atom_site_symmetry_multiplicity
 _atom_site_fract_x
 _atom_site_fract_y
 _atom_site_fract_z
 _atom_site_occupancy
  Cu  Cu0  1  0.00000000  0.74363500  0.75000000  1
  Cu  Cu1  1  0.72453250  0.65841450  0.15806900  1
  Cu  Cu2  1  0.00000000  0.50575300  0.25000000  1
  Cu  Cu3  1  0.72453250  0.34158550  0.65806900  1
  Cu  Cu4  1  0.27546750  0.65841450  0.34193100  1
  Cu  Cu5  1  0.00000000  0.49424700  0.75000000  1
  Cu  Cu6  1  0.00000000  0.25636500  0.25000000  1
  Cu  Cu7  1  0.27546750  0.34158550  0.84193100  1
  Cu  Cu8  1  0.50000000  0.24363500  0.75000000  1
  Cu  Cu9  1  0.22453250  0.15841450  0.15806900  1
  Cu  Cu10  1  0.50000000  0.00575300  0.25000000  1
  Cu  Cu11  1  0.22453250  0.84158550  0.65806900  1
  Cu  Cu12  1  0.77546750  0.15841450  0.34193100  1
  Cu  Cu13  1  0.50000000  0.99424700  0.75000000  1
  Cu  Cu14  1  0.50000000  0.75636500  0.25000000  1
  Cu  Cu15  1  0.77546750  0.84158550  0.84193100  1
  P  P16  1  0.00000000  0.27434100  0.75000000  1
  P  P17  1  0.26733350  0.38685350  0.38481500  1
  P  P18  1  0.26733350  0.61314650  0.88481500  1
  P  P19  1  0.73266650  0.38685350  0.11518500  1
  P  P20  1  0.73266650  0.61314650  0.61518500  1
  P  P21  1  0.00000000  0.72565900  0.25000000  1
  P  P22  1  0.50000000  0.77434100  0.75000000  1
  P  P23  1  0.76733350  0.88685350  0.38481500  1
  P  P24  1  0.76733350  0.11314650  0.88481500  1
  P  P25  1  0.23266650  0.88685350  0.11518500  1
  P  P26  1  0.23266650  0.11314650  0.61518500  1
  P  P27  1  0.50000000  0.22565900  0.25000000  1
  O  O28  1  0.12210800  0.61215700  0.83226700  1
  O  O29  1  0.69029600  0.50315800  0.13085000  1
  O  O30  1  0.95309900  0.79133400  0.04619600  1
  O  O31  1  0.90193400  0.63152800  0.23841600  1
  O  O32  1  0.69029600  0.49684200  0.63085000  1
  O  O33  1  0.72721300  0.31262400  0.28329800  1
  O  O34  1  0.72721300  0.68737600  0.78329800  1
  O  O35  1  0.04690100  0.79133400  0.45380400  1
  O  O36  1  0.27278700  0.31262400  0.21670200  1
  O  O37  1  0.95309900  0.20866600  0.54619600  1
  O  O38  1  0.15192700  0.16130500  0.38688500  1
  O  O39  1  0.30970400  0.49684200  0.86915000  1
  O  O40  1  0.04690100  0.20866600  0.95380400  1
  O  O41  1  0.09806600  0.36847200  0.76158400  1
  O  O42  1  0.15192700  0.83869500  0.88688500  1
  O  O43  1  0.27278700  0.68737600  0.71670200  1
  O  O44  1  0.84807300  0.16130500  0.11311500  1
  O  O45  1  0.12210800  0.38784300  0.33226700  1
  O  O46  1  0.90193400  0.36847200  0.73841600  1
  O  O47  1  0.30970400  0.50315800  0.36915000  1
  O  O48  1  0.87789200  0.38784300  0.16773300  1
  O  O49  1  0.09806600  0.63152800  0.26158400  1
  O  O50  1  0.87789200  0.61215700  0.66773300  1
  O  O51  1  0.84807300  0.83869500  0.61311500  1
  O  O52  1  0.62210800  0.11215700  0.83226700  1
  O  O53  1  0.19029600  0.00315800  0.13085000  1
  O  O54  1  0.45309900  0.29133400  0.04619600  1
  O  O55  1  0.40193400  0.13152800  0.23841600  1
  O  O56  1  0.19029600  0.99684200  0.63085000  1
  O  O57  1  0.22721300  0.81262400  0.28329800  1
  O  O58  1  0.22721300  0.18737600  0.78329800  1
  O  O59  1  0.54690100  0.29133400  0.45380400  1
  O  O60  1  0.77278700  0.81262400  0.21670200  1
  O  O61  1  0.45309900  0.70866600  0.54619600  1
  O  O62  1  0.65192700  0.66130500  0.38688500  1
  O  O63  1  0.80970400  0.99684200  0.86915000  1
  O  O64  1  0.54690100  0.70866600  0.95380400  1
  O  O65  1  0.59806600  0.86847200  0.76158400  1
  O  O66  1  0.65192700  0.33869500  0.88688500  1
  O  O67  1  0.77278700  0.18737600  0.71670200  1
  O  O68  1  0.34807300  0.66130500  0.11311500  1
  O  O69  1  0.62210800  0.88784300  0.33226700  1
  O  O70  1  0.40193400  0.86847200  0.73841600  1
  O  O71  1  0.80970400  0.00315800  0.36915000  1
  O  O72  1  0.37789200  0.88784300  0.16773300  1
  O  O73  1  0.59806600  0.13152800  0.26158400  1
  O  O74  1  0.37789200  0.11215700  0.66773300  1
  O  O75  1  0.34807300  0.33869500  0.61311500  1
