# generated using pymatgen
data_Na2PrO3
_symmetry_space_group_name_H-M   'P 1'
_cell_length_a   6.99456400
_cell_length_b   9.95520400
_cell_length_c   11.32230794
_cell_angle_alpha   90.00000000
_cell_angle_beta   107.77369669
_cell_angle_gamma   90.00000000
_symmetry_Int_Tables_number   1
_chemical_formula_structural   Na2PrO3
_chemical_formula_sum   'Na16 Pr8 O24'
_cell_volume   750.76792316
_cell_formula_units_Z   8
loop_
 _symmetry_equiv_pos_site_id
 _symmetry_equiv_pos_as_xyz
  1  'x, y, z'
loop_
 _atom_site_type_symbol
 _atom_site_label
 _atom_site_symmetry_multiplicity
 _atom_site_fract_x
 _atom_site_fract_y
 _atom_site_fract_z
 _atom_site_occupancy
  Na  Na0  1  0.42437300  0.88073200  0.09542500  1
  Na  Na1  1  0.25050050  0.12570650  0.25875600  1
  Na  Na2  1  0.25050050  0.87429350  0.75875600  1
  Na  Na3  1  0.74949950  0.87429350  0.74124400  1
  Na  Na4  1  0.57562700  0.11926800  0.90457500  1
  Na  Na5  1  0.42437300  0.11926800  0.59542500  1
  Na  Na6  1  0.57562700  0.88073200  0.40457500  1
  Na  Na7  1  0.74949950  0.12570650  0.24124400  1
  Na  Na8  1  0.92437300  0.38073200  0.09542500  1
  Na  Na9  1  0.75050050  0.62570650  0.25875600  1
  Na  Na10  1  0.75050050  0.37429350  0.75875600  1
  Na  Na11  1  0.24949950  0.37429350  0.74124400  1
  Na  Na12  1  0.07562700  0.61926800  0.90457500  1
  Na  Na13  1  0.92437300  0.61926800  0.59542500  1
  Na  Na14  1  0.07562700  0.38073200  0.40457500  1
  Na  Na15  1  0.24949950  0.62570650  0.24124400  1
  Pr  Pr16  1  0.42020350  0.37348550  0.08596200  1
  Pr  Pr17  1  0.57979650  0.37348550  0.41403800  1
  Pr  Pr18  1  0.57979650  0.62651450  0.91403800  1
  Pr  Pr19  1  0.42020350  0.62651450  0.58596200  1
  Pr  Pr20  1  0.92020350  0.87348550  0.08596200  1
  Pr  Pr21  1  0.07979650  0.87348550  0.41403800  1
  Pr  Pr22  1  0.07979650  0.12651450  0.91403800  1
  Pr  Pr23  1  0.92020350  0.12651450  0.58596200  1
  O  O24  1  0.59315600  0.86010100  0.92946200  1
  O  O25  1  0.40684400  0.86010100  0.57053800  1
  O  O26  1  0.40684400  0.13989900  0.07053800  1
  O  O27  1  0.59315600  0.13989900  0.42946200  1
  O  O28  1  0.77088600  0.87501800  0.24973500  1
  O  O29  1  0.22911400  0.87501800  0.25026500  1
  O  O30  1  0.22911400  0.12498200  0.75026500  1
  O  O31  1  0.77088600  0.12498200  0.74973500  1
  O  O32  1  0.58854200  0.60785300  0.42850600  1
  O  O33  1  0.58854200  0.39214700  0.92850600  1
  O  O34  1  0.41145800  0.39214700  0.57149400  1
  O  O35  1  0.41145800  0.60785300  0.07149400  1
  O  O36  1  0.09315600  0.36010100  0.92946200  1
  O  O37  1  0.90684400  0.36010100  0.57053800  1
  O  O38  1  0.90684400  0.63989900  0.07053800  1
  O  O39  1  0.09315600  0.63989900  0.42946200  1
  O  O40  1  0.27088600  0.37501800  0.24973500  1
  O  O41  1  0.72911400  0.37501800  0.25026500  1
  O  O42  1  0.72911400  0.62498200  0.75026500  1
  O  O43  1  0.27088600  0.62498200  0.74973500  1
  O  O44  1  0.08854200  0.10785300  0.42850600  1
  O  O45  1  0.08854200  0.89214700  0.92850600  1
  O  O46  1  0.91145800  0.89214700  0.57149400  1
  O  O47  1  0.91145800  0.10785300  0.07149400  1
