# generated using pymatgen
data_Zr3Rh5
_symmetry_space_group_name_H-M   'P 1'
_cell_length_a   7.06013400
_cell_length_b   8.80533600
_cell_length_c   8.72245300
_cell_angle_alpha   90.00000000
_cell_angle_beta   90.00000000
_cell_angle_gamma   90.00000000
_symmetry_Int_Tables_number   1
_chemical_formula_structural   Zr3Rh5
_chemical_formula_sum   'Zr12 Rh20'
_cell_volume   542.24744538
_cell_formula_units_Z   4
loop_
 _symmetry_equiv_pos_site_id
 _symmetry_equiv_pos_as_xyz
  1  'x, y, z'
loop_
 _atom_site_type_symbol
 _atom_site_label
 _atom_site_symmetry_multiplicity
 _atom_site_fract_x
 _atom_site_fract_y
 _atom_site_fract_z
 _atom_site_occupancy
  Zr  Zr0  1  0.56551500  0.00000000  0.75000000  1
  Zr  Zr1  1  0.43448500  0.00000000  0.25000000  1
  Zr  Zr2  1  0.50000000  0.29166300  0.50000000  1
  Zr  Zr3  1  0.50000000  0.70833700  0.00000000  1
  Zr  Zr4  1  0.50000000  0.70833700  0.50000000  1
  Zr  Zr5  1  0.50000000  0.29166300  0.00000000  1
  Zr  Zr6  1  0.06551500  0.50000000  0.75000000  1
  Zr  Zr7  1  0.93448500  0.50000000  0.25000000  1
  Zr  Zr8  1  0.00000000  0.79166300  0.50000000  1
  Zr  Zr9  1  0.00000000  0.20833700  0.00000000  1
  Zr  Zr10  1  0.00000000  0.20833700  0.50000000  1
  Zr  Zr11  1  0.00000000  0.79166300  0.00000000  1
  Rh  Rh12  1  0.71169200  0.00000000  0.02688800  1
  Rh  Rh13  1  0.71169200  0.00000000  0.47311200  1
  Rh  Rh14  1  0.28830800  0.00000000  0.97311200  1
  Rh  Rh15  1  0.28830800  0.00000000  0.52688800  1
  Rh  Rh16  1  0.25937000  0.23440300  0.75000000  1
  Rh  Rh17  1  0.74063000  0.76559700  0.25000000  1
  Rh  Rh18  1  0.01310700  0.00000000  0.25000000  1
  Rh  Rh19  1  0.98689300  0.00000000  0.75000000  1
  Rh  Rh20  1  0.25937000  0.76559700  0.75000000  1
  Rh  Rh21  1  0.74063000  0.23440300  0.25000000  1
  Rh  Rh22  1  0.21169200  0.50000000  0.02688800  1
  Rh  Rh23  1  0.21169200  0.50000000  0.47311200  1
  Rh  Rh24  1  0.78830800  0.50000000  0.97311200  1
  Rh  Rh25  1  0.78830800  0.50000000  0.52688800  1
  Rh  Rh26  1  0.75937000  0.73440300  0.75000000  1
  Rh  Rh27  1  0.24063000  0.26559700  0.25000000  1
  Rh  Rh28  1  0.51310700  0.50000000  0.25000000  1
  Rh  Rh29  1  0.48689300  0.50000000  0.75000000  1
  Rh  Rh30  1  0.75937000  0.26559700  0.75000000  1
  Rh  Rh31  1  0.24063000  0.73440300  0.25000000  1
