# generated using pymatgen
data_Na2Ti3Cl8
_symmetry_space_group_name_H-M   'P 1'
_cell_length_a   7.29668193
_cell_length_b   7.29668193
_cell_length_c   20.14819823
_cell_angle_alpha   90.00000000
_cell_angle_beta   90.00000000
_cell_angle_gamma   120.00000000
_symmetry_Int_Tables_number   1
_chemical_formula_structural   Na2Ti3Cl8
_chemical_formula_sum   'Na6 Ti9 Cl24'
_cell_volume   929.00419878
_cell_formula_units_Z   3
loop_
 _symmetry_equiv_pos_site_id
 _symmetry_equiv_pos_as_xyz
  1  'x, y, z'
loop_
 _atom_site_type_symbol
 _atom_site_label
 _atom_site_symmetry_multiplicity
 _atom_site_fract_x
 _atom_site_fract_y
 _atom_site_fract_z
 _atom_site_occupancy
  Na  Na0  1  0.00000000  0.00000000  0.15866000  1
  Na  Na1  1  0.66666667  0.33333333  0.17467333  1
  Na  Na2  1  0.66666667  0.33333333  0.49199333  1
  Na  Na3  1  0.33333333  0.66666667  0.50800667  1
  Na  Na4  1  0.33333333  0.66666667  0.82532667  1
  Na  Na5  1  0.00000000  0.00000000  0.84134000  1
  Ti  Ti6  1  0.50000000  0.00000000  0.00000000  1
  Ti  Ti7  1  0.50000000  0.50000000  0.00000000  1
  Ti  Ti8  1  0.00000000  0.50000000  0.00000000  1
  Ti  Ti9  1  0.16666667  0.33333333  0.33333333  1
  Ti  Ti10  1  0.16666667  0.83333333  0.33333333  1
  Ti  Ti11  1  0.66666667  0.83333333  0.33333333  1
  Ti  Ti12  1  0.83333333  0.66666667  0.66666667  1
  Ti  Ti13  1  0.83333333  0.16666667  0.66666667  1
  Ti  Ti14  1  0.33333333  0.16666667  0.66666667  1
  Cl  Cl15  1  0.33333333  0.66666667  0.07178067  1
  Cl  Cl16  1  0.33333333  0.66666667  0.26155267  1
  Cl  Cl17  1  0.31856467  0.15928233  0.26012933  1
  Cl  Cl18  1  0.84071767  0.68143533  0.26012933  1
  Cl  Cl19  1  0.84071767  0.15928233  0.26012933  1
  Cl  Cl20  1  0.82594900  0.17405100  0.07320400  1
  Cl  Cl21  1  0.34810200  0.17405100  0.07320400  1
  Cl  Cl22  1  0.82594900  0.65189800  0.07320400  1
  Cl  Cl23  1  0.00000000  0.00000000  0.40511400  1
  Cl  Cl24  1  0.00000000  0.00000000  0.59488600  1
  Cl  Cl25  1  0.98523133  0.49261567  0.59346267  1
  Cl  Cl26  1  0.50738433  0.01476867  0.59346267  1
  Cl  Cl27  1  0.50738433  0.49261567  0.59346267  1
  Cl  Cl28  1  0.49261567  0.50738433  0.40653733  1
  Cl  Cl29  1  0.01476867  0.50738433  0.40653733  1
  Cl  Cl30  1  0.49261567  0.98523133  0.40653733  1
  Cl  Cl31  1  0.66666667  0.33333333  0.73844733  1
  Cl  Cl32  1  0.66666667  0.33333333  0.92821933  1
  Cl  Cl33  1  0.65189800  0.82594900  0.92679600  1
  Cl  Cl34  1  0.17405100  0.34810200  0.92679600  1
  Cl  Cl35  1  0.17405100  0.82594900  0.92679600  1
  Cl  Cl36  1  0.15928233  0.84071767  0.73987067  1
  Cl  Cl37  1  0.68143533  0.84071767  0.73987067  1
  Cl  Cl38  1  0.15928233  0.31856467  0.73987067  1
