# generated using pymatgen
data_Ni2GeO4
_symmetry_space_group_name_H-M   'P 1'
_cell_length_a   8.31311800
_cell_length_b   8.31311800
_cell_length_c   8.31311800
_cell_angle_alpha   90.00000000
_cell_angle_beta   90.00000000
_cell_angle_gamma   90.00000000
_symmetry_Int_Tables_number   1
_chemical_formula_structural   Ni2GeO4
_chemical_formula_sum   'Ni16 Ge8 O32'
_cell_volume   574.50238416
_cell_formula_units_Z   8
loop_
 _symmetry_equiv_pos_site_id
 _symmetry_equiv_pos_as_xyz
  1  'x, y, z'
loop_
 _atom_site_type_symbol
 _atom_site_label
 _atom_site_symmetry_multiplicity
 _atom_site_fract_x
 _atom_site_fract_y
 _atom_site_fract_z
 _atom_site_occupancy
  Ni  Ni0  1  0.12500000  0.12500000  0.12500000  1
  Ni  Ni1  1  0.62500000  0.87500000  0.37500000  1
  Ni  Ni2  1  0.87500000  0.87500000  0.12500000  1
  Ni  Ni3  1  0.37500000  0.12500000  0.37500000  1
  Ni  Ni4  1  0.12500000  0.62500000  0.62500000  1
  Ni  Ni5  1  0.62500000  0.37500000  0.87500000  1
  Ni  Ni6  1  0.87500000  0.37500000  0.62500000  1
  Ni  Ni7  1  0.37500000  0.62500000  0.87500000  1
  Ni  Ni8  1  0.62500000  0.12500000  0.62500000  1
  Ni  Ni9  1  0.12500000  0.87500000  0.87500000  1
  Ni  Ni10  1  0.37500000  0.87500000  0.62500000  1
  Ni  Ni11  1  0.87500000  0.12500000  0.87500000  1
  Ni  Ni12  1  0.62500000  0.62500000  0.12500000  1
  Ni  Ni13  1  0.12500000  0.37500000  0.37500000  1
  Ni  Ni14  1  0.37500000  0.37500000  0.12500000  1
  Ni  Ni15  1  0.87500000  0.62500000  0.37500000  1
  Ge  Ge16  1  0.00000000  0.00000000  0.50000000  1
  Ge  Ge17  1  0.25000000  0.75000000  0.25000000  1
  Ge  Ge18  1  0.00000000  0.50000000  0.00000000  1
  Ge  Ge19  1  0.25000000  0.25000000  0.75000000  1
  Ge  Ge20  1  0.50000000  0.00000000  0.00000000  1
  Ge  Ge21  1  0.75000000  0.75000000  0.75000000  1
  Ge  Ge22  1  0.50000000  0.50000000  0.50000000  1
  Ge  Ge23  1  0.75000000  0.25000000  0.25000000  1
  O  O24  1  0.12495467  0.87504533  0.12495467  1
  O  O25  1  0.12504533  0.12504533  0.37495467  1
  O  O26  1  0.37495467  0.37495467  0.37495467  1
  O  O27  1  0.37495467  0.12504533  0.12504533  1
  O  O28  1  0.37504533  0.87504533  0.37504533  1
  O  O29  1  0.87504533  0.12495467  0.12495467  1
  O  O30  1  0.12504533  0.37495467  0.12504533  1
  O  O31  1  0.62495467  0.12495467  0.37504533  1
  O  O32  1  0.12495467  0.37504533  0.62495467  1
  O  O33  1  0.12504533  0.62504533  0.87495467  1
  O  O34  1  0.37495467  0.87495467  0.87495467  1
  O  O35  1  0.37495467  0.62504533  0.62504533  1
  O  O36  1  0.37504533  0.37504533  0.87504533  1
  O  O37  1  0.87504533  0.62495467  0.62495467  1
  O  O38  1  0.12504533  0.87495467  0.62504533  1
  O  O39  1  0.62495467  0.62495467  0.87504533  1
  O  O40  1  0.62495467  0.87504533  0.62495467  1
  O  O41  1  0.62504533  0.12504533  0.87495467  1
  O  O42  1  0.87495467  0.37495467  0.87495467  1
  O  O43  1  0.87495467  0.12504533  0.62504533  1
  O  O44  1  0.87504533  0.87504533  0.87504533  1
  O  O45  1  0.37504533  0.12495467  0.62495467  1
  O  O46  1  0.62504533  0.37495467  0.62504533  1
  O  O47  1  0.12495467  0.12495467  0.87504533  1
  O  O48  1  0.62495467  0.37504533  0.12495467  1
  O  O49  1  0.62504533  0.62504533  0.37495467  1
  O  O50  1  0.87495467  0.87495467  0.37495467  1
  O  O51  1  0.87495467  0.62504533  0.12504533  1
  O  O52  1  0.87504533  0.37504533  0.37504533  1
  O  O53  1  0.37504533  0.62495467  0.12495467  1
  O  O54  1  0.62504533  0.87495467  0.12504533  1
  O  O55  1  0.12495467  0.62495467  0.37504533  1
