# generated using pymatgen
data_Rb3Mn2Cl7
_symmetry_space_group_name_H-M   'P 1'
_cell_length_a   5.09981000
_cell_length_b   5.09981000
_cell_length_c   26.45121200
_cell_angle_alpha   90.00000000
_cell_angle_beta   90.00000000
_cell_angle_gamma   90.00000000
_symmetry_Int_Tables_number   1
_chemical_formula_structural   Rb3Mn2Cl7
_chemical_formula_sum   'Rb6 Mn4 Cl14'
_cell_volume   687.94476263
_cell_formula_units_Z   2
loop_
 _symmetry_equiv_pos_site_id
 _symmetry_equiv_pos_as_xyz
  1  'x, y, z'
loop_
 _atom_site_type_symbol
 _atom_site_label
 _atom_site_symmetry_multiplicity
 _atom_site_fract_x
 _atom_site_fract_y
 _atom_site_fract_z
 _atom_site_occupancy
  Rb  Rb0  1  0.00000000  0.00000000  0.18308500  1
  Rb  Rb1  1  0.50000000  0.50000000  0.31691500  1
  Rb  Rb2  1  0.00000000  0.00000000  0.00000000  1
  Rb  Rb3  1  0.50000000  0.50000000  0.68308500  1
  Rb  Rb4  1  0.00000000  0.00000000  0.81691500  1
  Rb  Rb5  1  0.50000000  0.50000000  0.50000000  1
  Mn  Mn6  1  0.00000000  0.00000000  0.40161600  1
  Mn  Mn7  1  0.50000000  0.50000000  0.09838400  1
  Mn  Mn8  1  0.50000000  0.50000000  0.90161600  1
  Mn  Mn9  1  0.00000000  0.00000000  0.59838400  1
  Cl  Cl10  1  0.50000000  0.00000000  0.40403700  1
  Cl  Cl11  1  0.00000000  0.50000000  0.40403700  1
  Cl  Cl12  1  0.00000000  0.50000000  0.09596300  1
  Cl  Cl13  1  0.50000000  0.00000000  0.09596300  1
  Cl  Cl14  1  0.50000000  0.50000000  0.19278700  1
  Cl  Cl15  1  0.50000000  0.50000000  0.00000000  1
  Cl  Cl16  1  0.00000000  0.00000000  0.30721300  1
  Cl  Cl17  1  0.00000000  0.50000000  0.90403700  1
  Cl  Cl18  1  0.50000000  0.00000000  0.90403700  1
  Cl  Cl19  1  0.50000000  0.00000000  0.59596300  1
  Cl  Cl20  1  0.00000000  0.50000000  0.59596300  1
  Cl  Cl21  1  0.00000000  0.00000000  0.69278700  1
  Cl  Cl22  1  0.00000000  0.00000000  0.50000000  1
  Cl  Cl23  1  0.50000000  0.50000000  0.80721300  1
