# generated using pymatgen
data_Eu4As3
_symmetry_space_group_name_H-M   'P 1'
_cell_length_a   9.18637400
_cell_length_b   9.18637400
_cell_length_c   9.18637400
_cell_angle_alpha   90.00000000
_cell_angle_beta   90.00000000
_cell_angle_gamma   90.00000000
_symmetry_Int_Tables_number   1
_chemical_formula_structural   Eu4As3
_chemical_formula_sum   'Eu16 As12'
_cell_volume   775.23320798
_cell_formula_units_Z   4
loop_
 _symmetry_equiv_pos_site_id
 _symmetry_equiv_pos_as_xyz
  1  'x, y, z'
loop_
 _atom_site_type_symbol
 _atom_site_label
 _atom_site_symmetry_multiplicity
 _atom_site_fract_x
 _atom_site_fract_y
 _atom_site_fract_z
 _atom_site_occupancy
  Eu  Eu0  1  0.93214950  0.43214950  0.06785050  1
  Eu  Eu1  1  0.31785050  0.31785050  0.31785050  1
  Eu  Eu2  1  0.43214950  0.06785050  0.93214950  1
  Eu  Eu3  1  0.06785050  0.93214950  0.43214950  1
  Eu  Eu4  1  0.68214950  0.81785050  0.18214950  1
  Eu  Eu5  1  0.81785050  0.18214950  0.68214950  1
  Eu  Eu6  1  0.18214950  0.68214950  0.81785050  1
  Eu  Eu7  1  0.06785050  0.06785050  0.06785050  1
  Eu  Eu8  1  0.43214950  0.93214950  0.56785050  1
  Eu  Eu9  1  0.81785050  0.81785050  0.81785050  1
  Eu  Eu10  1  0.93214950  0.56785050  0.43214950  1
  Eu  Eu11  1  0.56785050  0.43214950  0.93214950  1
  Eu  Eu12  1  0.18214950  0.31785050  0.68214950  1
  Eu  Eu13  1  0.31785050  0.68214950  0.18214950  1
  Eu  Eu14  1  0.68214950  0.18214950  0.31785050  1
  Eu  Eu15  1  0.56785050  0.56785050  0.56785050  1
  As  As16  1  0.00000000  0.75000000  0.12500000  1
  As  As17  1  0.25000000  0.37500000  0.00000000  1
  As  As18  1  0.75000000  0.12500000  0.00000000  1
  As  As19  1  0.12500000  0.00000000  0.75000000  1
  As  As20  1  0.37500000  0.00000000  0.25000000  1
  As  As21  1  0.00000000  0.25000000  0.37500000  1
  As  As22  1  0.50000000  0.25000000  0.62500000  1
  As  As23  1  0.75000000  0.87500000  0.50000000  1
  As  As24  1  0.25000000  0.62500000  0.50000000  1
  As  As25  1  0.62500000  0.50000000  0.25000000  1
  As  As26  1  0.87500000  0.50000000  0.75000000  1
  As  As27  1  0.50000000  0.75000000  0.87500000  1
