# generated using pymatgen
data_Li3CrPCO7
_symmetry_space_group_name_H-M   'P 1'
_cell_length_a   5.09938033
_cell_length_b   6.49155903
_cell_length_c   8.64750065
_cell_angle_alpha   90.00000000
_cell_angle_beta   95.16714355
_cell_angle_gamma   90.00000000
_symmetry_Int_Tables_number   1
_chemical_formula_structural   Li3CrPCO7
_chemical_formula_sum   'Li6 Cr2 P2 C2 O14'
_cell_volume   285.09430363
_cell_formula_units_Z   2
loop_
 _symmetry_equiv_pos_site_id
 _symmetry_equiv_pos_as_xyz
  1  'x, y, z'
loop_
 _atom_site_type_symbol
 _atom_site_label
 _atom_site_symmetry_multiplicity
 _atom_site_fract_x
 _atom_site_fract_y
 _atom_site_fract_z
 _atom_site_occupancy
  Li  Li0  1  0.84897200  0.25000000  0.41669375  1
  Li  Li1  1  0.15102800  0.75000000  0.58330625  1
  Li  Li2  1  0.76913500  0.97330100  0.78915225  1
  Li  Li3  1  0.23086500  0.02669900  0.21084775  1
  Li  Li4  1  0.76913500  0.52669900  0.78915225  1
  Li  Li5  1  0.23086500  0.47330100  0.21084775  1
  Cr  Cr6  1  0.75969250  0.75000000  0.16903625  1
  Cr  Cr7  1  0.24030750  0.25000000  0.83096375  1
  P  P8  1  0.69863750  0.25000000  0.08186325  1
  P  P9  1  0.30136250  0.75000000  0.91813675  1
  C  C10  1  0.65800550  0.75000000  0.48777875  1
  C  C11  1  0.34199450  0.25000000  0.51222125  1
  O  O12  1  0.21099300  0.75000000  0.08440025  1
  O  O13  1  0.78900700  0.25000000  0.91559975  1
  O  O14  1  0.86117750  0.75000000  0.40416675  1
  O  O15  1  0.13882250  0.25000000  0.59583325  1
  O  O16  1  0.57935000  0.25000000  0.57509225  1
  O  O17  1  0.42065000  0.75000000  0.42490775  1
  O  O18  1  0.38971950  0.25000000  0.06444125  1
  O  O19  1  0.61028050  0.75000000  0.93555875  1
  O  O20  1  0.71376050  0.75000000  0.63716775  1
  O  O21  1  0.28623950  0.25000000  0.36283225  1
  O  O22  1  0.19539550  0.56284400  0.81894125  1
  O  O23  1  0.19539550  0.93715600  0.81894125  1
  O  O24  1  0.80460450  0.43715600  0.18105875  1
  O  O25  1  0.80460450  0.06284400  0.18105875  1
