# generated using pymatgen
data_Sb2I2F11
_symmetry_space_group_name_H-M   'P 1'
_cell_length_a   13.52449000
_cell_length_b   8.58572800
_cell_length_c   5.58344007
_cell_angle_alpha   90.00000000
_cell_angle_beta   102.58746945
_cell_angle_gamma   90.00000000
_symmetry_Int_Tables_number   1
_chemical_formula_structural   Sb2I2F11
_chemical_formula_sum   'Sb4 I4 F22'
_cell_volume   632.75251352
_cell_formula_units_Z   2
loop_
 _symmetry_equiv_pos_site_id
 _symmetry_equiv_pos_as_xyz
  1  'x, y, z'
loop_
 _atom_site_type_symbol
 _atom_site_label
 _atom_site_symmetry_multiplicity
 _atom_site_fract_x
 _atom_site_fract_y
 _atom_site_fract_z
 _atom_site_occupancy
  Sb  Sb0  1  0.35273300  0.00457200  0.54659800  1
  Sb  Sb1  1  0.64726700  0.00457200  0.45340200  1
  Sb  Sb2  1  0.85273300  0.50457200  0.54659800  1
  Sb  Sb3  1  0.14726700  0.50457200  0.45340200  1
  I  I4  1  0.06928700  0.00497400  0.86861000  1
  I  I5  1  0.93071300  0.00497400  0.13139000  1
  I  I6  1  0.56928700  0.50497400  0.86861000  1
  I  I7  1  0.43071300  0.50497400  0.13139000  1
  F  F8  1  0.38671700  0.18518200  0.74415000  1
  F  F9  1  0.61328300  0.18518200  0.25585000  1
  F  F10  1  0.40377850  0.87465750  0.82016800  1
  F  F11  1  0.59622150  0.87465750  0.17983200  1
  F  F12  1  0.50000000  0.01897100  0.50000000  1
  F  F13  1  0.78420700  0.99317000  0.41115500  1
  F  F14  1  0.21579300  0.99317000  0.58884500  1
  F  F15  1  0.68356600  0.13332100  0.73600200  1
  F  F16  1  0.31643400  0.13332100  0.26399800  1
  F  F17  1  0.66063800  0.82663800  0.66069100  1
  F  F18  1  0.33936200  0.82663800  0.33930900  1
  F  F19  1  0.88671700  0.68518200  0.74415000  1
  F  F20  1  0.11328300  0.68518200  0.25585000  1
  F  F21  1  0.90377850  0.37465750  0.82016800  1
  F  F22  1  0.09622150  0.37465750  0.17983200  1
  F  F23  1  0.00000000  0.51897100  0.50000000  1
  F  F24  1  0.28420700  0.49317000  0.41115500  1
  F  F25  1  0.71579300  0.49317000  0.58884500  1
  F  F26  1  0.18356600  0.63332100  0.73600200  1
  F  F27  1  0.81643400  0.63332100  0.26399800  1
  F  F28  1  0.16063800  0.32663800  0.66069100  1
  F  F29  1  0.83936200  0.32663800  0.33930900  1
