# generated using pymatgen
data_SrGe
_symmetry_space_group_name_H-M   'P 1'
_cell_length_a   4.85360200
_cell_length_b   11.47811600
_cell_length_c   4.22178000
_cell_angle_alpha   90.00000000
_cell_angle_beta   90.00000000
_cell_angle_gamma   90.00000000
_symmetry_Int_Tables_number   1
_chemical_formula_structural   SrGe
_chemical_formula_sum   'Sr4 Ge4'
_cell_volume   235.19623675
_cell_formula_units_Z   4
loop_
 _symmetry_equiv_pos_site_id
 _symmetry_equiv_pos_as_xyz
  1  'x, y, z'
loop_
 _atom_site_type_symbol
 _atom_site_label
 _atom_site_symmetry_multiplicity
 _atom_site_fract_x
 _atom_site_fract_y
 _atom_site_fract_z
 _atom_site_occupancy
  Sr  Sr0  1  0.00000000  0.13684700  0.25000000  1
  Sr  Sr1  1  0.50000000  0.36315300  0.75000000  1
  Sr  Sr2  1  0.50000000  0.63684700  0.25000000  1
  Sr  Sr3  1  0.00000000  0.86315300  0.75000000  1
  Ge  Ge4  1  0.00000000  0.42920600  0.25000000  1
  Ge  Ge5  1  0.50000000  0.07079400  0.75000000  1
  Ge  Ge6  1  0.50000000  0.92920600  0.25000000  1
  Ge  Ge7  1  0.00000000  0.57079400  0.75000000  1
