# generated using pymatgen
data_FeAs2O7
_symmetry_space_group_name_H-M   'P 1'
_cell_length_a   6.81489000
_cell_length_b   8.22194800
_cell_length_c   4.83616952
_cell_angle_alpha   90.00000000
_cell_angle_beta   103.12500849
_cell_angle_gamma   90.00000000
_symmetry_Int_Tables_number   1
_chemical_formula_structural   FeAs2O7
_chemical_formula_sum   'Fe2 As4 O14'
_cell_volume   263.89987012
_cell_formula_units_Z   2
loop_
 _symmetry_equiv_pos_site_id
 _symmetry_equiv_pos_as_xyz
  1  'x, y, z'
loop_
 _atom_site_type_symbol
 _atom_site_label
 _atom_site_symmetry_multiplicity
 _atom_site_fract_x
 _atom_site_fract_y
 _atom_site_fract_z
 _atom_site_occupancy
  Fe  Fe0  1  0.50000000  0.61513300  0.00000000  1
  Fe  Fe1  1  0.00000000  0.11513300  0.00000000  1
  As  As2  1  0.71118350  0.96503250  0.40802200  1
  As  As3  1  0.28881650  0.96503250  0.59197800  1
  As  As4  1  0.21118350  0.46503250  0.40802200  1
  As  As5  1  0.78881650  0.46503250  0.59197800  1
  O  O6  1  0.88859000  0.93914600  0.71844900  1
  O  O7  1  0.75925350  0.10379850  0.16638900  1
  O  O8  1  0.64507900  0.77776800  0.27263500  1
  O  O9  1  0.11141000  0.93914600  0.28155100  1
  O  O10  1  0.24074650  0.10379850  0.83361100  1
  O  O11  1  0.35492100  0.77776800  0.72736500  1
  O  O12  1  0.50000000  0.06082600  0.50000000  1
  O  O13  1  0.38859000  0.43914600  0.71844900  1
  O  O14  1  0.25925350  0.60379850  0.16638900  1
  O  O15  1  0.14507900  0.27776800  0.27263500  1
  O  O16  1  0.61141000  0.43914600  0.28155100  1
  O  O17  1  0.74074650  0.60379850  0.83361100  1
  O  O18  1  0.85492100  0.27776800  0.72736500  1
  O  O19  1  0.00000000  0.56082600  0.50000000  1
