# generated using pymatgen
data_CeIn2Ir
_symmetry_space_group_name_H-M   'P 1'
_cell_length_a   4.38685600
_cell_length_b   10.10129000
_cell_length_c   8.22432700
_cell_angle_alpha   90.00000000
_cell_angle_beta   90.00000000
_cell_angle_gamma   90.00000000
_symmetry_Int_Tables_number   1
_chemical_formula_structural   CeIn2Ir
_chemical_formula_sum   'Ce4 In8 Ir4'
_cell_volume   364.44381811
_cell_formula_units_Z   4
loop_
 _symmetry_equiv_pos_site_id
 _symmetry_equiv_pos_as_xyz
  1  'x, y, z'
loop_
 _atom_site_type_symbol
 _atom_site_label
 _atom_site_symmetry_multiplicity
 _atom_site_fract_x
 _atom_site_fract_y
 _atom_site_fract_z
 _atom_site_occupancy
  Ce  Ce0  1  0.00000000  0.06840500  0.25000000  1
  Ce  Ce1  1  0.50000000  0.43159500  0.75000000  1
  Ce  Ce2  1  0.50000000  0.56840500  0.25000000  1
  Ce  Ce3  1  0.00000000  0.93159500  0.75000000  1
  In  In4  1  0.00000000  0.35639200  0.04991900  1
  In  In5  1  0.50000000  0.14360800  0.95008100  1
  In  In6  1  0.00000000  0.35639200  0.45008100  1
  In  In7  1  0.50000000  0.14360800  0.54991900  1
  In  In8  1  0.50000000  0.85639200  0.04991900  1
  In  In9  1  0.00000000  0.64360800  0.95008100  1
  In  In10  1  0.50000000  0.85639200  0.45008100  1
  In  In11  1  0.00000000  0.64360800  0.54991900  1
  Ir  Ir12  1  0.00000000  0.21670600  0.75000000  1
  Ir  Ir13  1  0.50000000  0.28329400  0.25000000  1
  Ir  Ir14  1  0.50000000  0.71670600  0.75000000  1
  Ir  Ir15  1  0.00000000  0.78329400  0.25000000  1
