# generated using pymatgen
data_MgTi2O4
_symmetry_space_group_name_H-M   'P 1'
_cell_length_a   8.54231800
_cell_length_b   8.54231800
_cell_length_c   8.54231800
_cell_angle_alpha   90.00000000
_cell_angle_beta   90.00000000
_cell_angle_gamma   90.00000000
_symmetry_Int_Tables_number   1
_chemical_formula_structural   MgTi2O4
_chemical_formula_sum   'Mg8 Ti16 O32'
_cell_volume   623.34316802
_cell_formula_units_Z   8
loop_
 _symmetry_equiv_pos_site_id
 _symmetry_equiv_pos_as_xyz
  1  'x, y, z'
loop_
 _atom_site_type_symbol
 _atom_site_label
 _atom_site_symmetry_multiplicity
 _atom_site_fract_x
 _atom_site_fract_y
 _atom_site_fract_z
 _atom_site_occupancy
  Mg  Mg0  1  0.25000000  0.25000000  0.25000000  1
  Mg  Mg1  1  0.50000000  0.00000000  0.50000000  1
  Mg  Mg2  1  0.25000000  0.75000000  0.75000000  1
  Mg  Mg3  1  0.50000000  0.50000000  0.00000000  1
  Mg  Mg4  1  0.75000000  0.25000000  0.75000000  1
  Mg  Mg5  1  0.00000000  0.00000000  0.00000000  1
  Mg  Mg6  1  0.75000000  0.75000000  0.25000000  1
  Mg  Mg7  1  0.00000000  0.50000000  0.50000000  1
  Ti  Ti8  1  0.37500000  0.87500000  0.12500000  1
  Ti  Ti9  1  0.12500000  0.87500000  0.37500000  1
  Ti  Ti10  1  0.12500000  0.62500000  0.12500000  1
  Ti  Ti11  1  0.37500000  0.62500000  0.37500000  1
  Ti  Ti12  1  0.37500000  0.37500000  0.62500000  1
  Ti  Ti13  1  0.12500000  0.37500000  0.87500000  1
  Ti  Ti14  1  0.12500000  0.12500000  0.62500000  1
  Ti  Ti15  1  0.37500000  0.12500000  0.87500000  1
  Ti  Ti16  1  0.87500000  0.87500000  0.62500000  1
  Ti  Ti17  1  0.62500000  0.87500000  0.87500000  1
  Ti  Ti18  1  0.62500000  0.62500000  0.62500000  1
  Ti  Ti19  1  0.87500000  0.62500000  0.87500000  1
  Ti  Ti20  1  0.87500000  0.37500000  0.12500000  1
  Ti  Ti21  1  0.62500000  0.37500000  0.37500000  1
  Ti  Ti22  1  0.62500000  0.12500000  0.12500000  1
  Ti  Ti23  1  0.87500000  0.12500000  0.37500000  1
  O  O24  1  0.86674100  0.13325900  0.13325900  1
  O  O25  1  0.63325900  0.13325900  0.36674100  1
  O  O26  1  0.36674100  0.86674100  0.36674100  1
  O  O27  1  0.38325900  0.11674100  0.11674100  1
  O  O28  1  0.11674100  0.38325900  0.11674100  1
  O  O29  1  0.11674100  0.11674100  0.38325900  1
  O  O30  1  0.13325900  0.86674100  0.13325900  1
  O  O31  1  0.38325900  0.38325900  0.38325900  1
  O  O32  1  0.86674100  0.63325900  0.63325900  1
  O  O33  1  0.63325900  0.63325900  0.86674100  1
  O  O34  1  0.36674100  0.36674100  0.86674100  1
  O  O35  1  0.38325900  0.61674100  0.61674100  1
  O  O36  1  0.11674100  0.88325900  0.61674100  1
  O  O37  1  0.11674100  0.61674100  0.88325900  1
  O  O38  1  0.13325900  0.36674100  0.63325900  1
  O  O39  1  0.38325900  0.88325900  0.88325900  1
  O  O40  1  0.36674100  0.13325900  0.63325900  1
  O  O41  1  0.13325900  0.13325900  0.86674100  1
  O  O42  1  0.86674100  0.86674100  0.86674100  1
  O  O43  1  0.88325900  0.11674100  0.61674100  1
  O  O44  1  0.61674100  0.38325900  0.61674100  1
  O  O45  1  0.61674100  0.11674100  0.88325900  1
  O  O46  1  0.63325900  0.86674100  0.63325900  1
  O  O47  1  0.88325900  0.38325900  0.88325900  1
  O  O48  1  0.36674100  0.63325900  0.13325900  1
  O  O49  1  0.13325900  0.63325900  0.36674100  1
  O  O50  1  0.86674100  0.36674100  0.36674100  1
  O  O51  1  0.88325900  0.61674100  0.11674100  1
  O  O52  1  0.61674100  0.88325900  0.11674100  1
  O  O53  1  0.61674100  0.61674100  0.38325900  1
  O  O54  1  0.63325900  0.36674100  0.13325900  1
  O  O55  1  0.88325900  0.88325900  0.38325900  1
