# generated using pymatgen
data_U4Te3O4
_symmetry_space_group_name_H-M   'P 1'
_cell_length_a   3.96428400
_cell_length_b   3.96428400
_cell_length_c   28.01186800
_cell_angle_alpha   90.00000000
_cell_angle_beta   90.00000000
_cell_angle_gamma   90.00000000
_symmetry_Int_Tables_number   1
_chemical_formula_structural   U4Te3O4
_chemical_formula_sum   'U8 Te6 O8'
_cell_volume   440.22184583
_cell_formula_units_Z   2
loop_
 _symmetry_equiv_pos_site_id
 _symmetry_equiv_pos_as_xyz
  1  'x, y, z'
loop_
 _atom_site_type_symbol
 _atom_site_label
 _atom_site_symmetry_multiplicity
 _atom_site_fract_x
 _atom_site_fract_y
 _atom_site_fract_z
 _atom_site_occupancy
  U  U0  1  0.50000000  0.50000000  0.06822900  1
  U  U1  1  0.00000000  0.00000000  0.43177100  1
  U  U2  1  0.50000000  0.50000000  0.34385900  1
  U  U3  1  0.00000000  0.00000000  0.15614100  1
  U  U4  1  0.00000000  0.00000000  0.56822900  1
  U  U5  1  0.50000000  0.50000000  0.93177100  1
  U  U6  1  0.00000000  0.00000000  0.84385900  1
  U  U7  1  0.50000000  0.50000000  0.65614100  1
  Te  Te8  1  0.00000000  0.00000000  0.00000000  1
  Te  Te9  1  0.00000000  0.00000000  0.28939200  1
  Te  Te10  1  0.50000000  0.50000000  0.21060800  1
  Te  Te11  1  0.50000000  0.50000000  0.50000000  1
  Te  Te12  1  0.50000000  0.50000000  0.78939200  1
  Te  Te13  1  0.00000000  0.00000000  0.71060800  1
  O  O14  1  0.50000000  0.00000000  0.39196200  1
  O  O15  1  0.00000000  0.50000000  0.39196200  1
  O  O16  1  0.00000000  0.50000000  0.10803800  1
  O  O17  1  0.50000000  0.00000000  0.10803800  1
  O  O18  1  0.00000000  0.50000000  0.89196200  1
  O  O19  1  0.50000000  0.00000000  0.89196200  1
  O  O20  1  0.50000000  0.00000000  0.60803800  1
  O  O21  1  0.00000000  0.50000000  0.60803800  1
