# generated using pymatgen
data_HfGa2Co
_symmetry_space_group_name_H-M   'P 1'
_cell_length_a   12.25357000
_cell_length_b   12.25357000
_cell_length_c   8.13841000
_cell_angle_alpha   90.00000000
_cell_angle_beta   90.00000000
_cell_angle_gamma   90.00000000
_symmetry_Int_Tables_number   1
_chemical_formula_structural   HfGa2Co
_chemical_formula_sum   'Hf20 Ga40 Co20'
_cell_volume   1221.98208038
_cell_formula_units_Z   20
loop_
 _symmetry_equiv_pos_site_id
 _symmetry_equiv_pos_as_xyz
  1  'x, y, z'
loop_
 _atom_site_type_symbol
 _atom_site_label
 _atom_site_symmetry_multiplicity
 _atom_site_fract_x
 _atom_site_fract_y
 _atom_site_fract_z
 _atom_site_occupancy
  Hf  Hf0  1  0.00000000  0.00000000  0.48070200  1
  Hf  Hf1  1  0.00000000  0.00000000  0.94688800  1
  Hf  Hf2  1  0.29946300  0.70053700  0.86438500  1
  Hf  Hf3  1  0.20053700  0.20053700  0.36438500  1
  Hf  Hf4  1  0.29946300  0.29946300  0.86438500  1
  Hf  Hf5  1  0.20053700  0.79946300  0.36438500  1
  Hf  Hf6  1  0.28030350  0.00000000  0.87579950  1
  Hf  Hf7  1  0.50000000  0.21969650  0.37579950  1
  Hf  Hf8  1  0.50000000  0.78030350  0.37579950  1
  Hf  Hf9  1  0.71969650  0.00000000  0.87579950  1
  Hf  Hf10  1  0.50000000  0.50000000  0.98070200  1
  Hf  Hf11  1  0.50000000  0.50000000  0.44688800  1
  Hf  Hf12  1  0.79946300  0.20053700  0.36438500  1
  Hf  Hf13  1  0.70053700  0.70053700  0.86438500  1
  Hf  Hf14  1  0.79946300  0.79946300  0.36438500  1
  Hf  Hf15  1  0.70053700  0.29946300  0.86438500  1
  Hf  Hf16  1  0.78030350  0.50000000  0.37579950  1
  Hf  Hf17  1  0.00000000  0.71969650  0.87579950  1
  Hf  Hf18  1  0.00000000  0.28030350  0.87579950  1
  Hf  Hf19  1  0.21969650  0.50000000  0.37579950  1
  Ga  Ga20  1  0.50000000  0.33763000  0.70124300  1
  Ga  Ga21  1  0.16237000  0.00000000  0.20124300  1
  Ga  Ga22  1  0.61605700  0.00000000  0.35143400  1
  Ga  Ga23  1  0.50000000  0.88394300  0.85143400  1
  Ga  Ga24  1  0.36910150  0.63089850  0.20818950  1
  Ga  Ga25  1  0.50000000  0.11605700  0.85143400  1
  Ga  Ga26  1  0.38394300  0.00000000  0.35143400  1
  Ga  Ga27  1  0.13089850  0.86910150  0.70818950  1
  Ga  Ga28  1  0.36910150  0.36910150  0.20818950  1
  Ga  Ga29  1  0.13089850  0.13089850  0.70818950  1
  Ga  Ga30  1  0.64844250  0.85928850  0.61308050  1
  Ga  Ga31  1  0.35928850  0.85155750  0.11308050  1
  Ga  Ga32  1  0.64071150  0.14844250  0.11308050  1
  Ga  Ga33  1  0.35155750  0.14071150  0.61308050  1
  Ga  Ga34  1  0.64071150  0.85155750  0.11308050  1
  Ga  Ga35  1  0.35928850  0.14844250  0.11308050  1
  Ga  Ga36  1  0.64844250  0.14071150  0.61308050  1
  Ga  Ga37  1  0.35155750  0.85928850  0.61308050  1
  Ga  Ga38  1  0.83763000  0.00000000  0.20124300  1
  Ga  Ga39  1  0.50000000  0.66237000  0.70124300  1
  Ga  Ga40  1  0.00000000  0.83763000  0.20124300  1
  Ga  Ga41  1  0.66237000  0.50000000  0.70124300  1
  Ga  Ga42  1  0.11605700  0.50000000  0.85143400  1
  Ga  Ga43  1  0.00000000  0.38394300  0.35143400  1
  Ga  Ga44  1  0.86910150  0.13089850  0.70818950  1
  Ga  Ga45  1  0.00000000  0.61605700  0.35143400  1
  Ga  Ga46  1  0.88394300  0.50000000  0.85143400  1
  Ga  Ga47  1  0.63089850  0.36910150  0.20818950  1
  Ga  Ga48  1  0.86910150  0.86910150  0.70818950  1
  Ga  Ga49  1  0.63089850  0.63089850  0.20818950  1
  Ga  Ga50  1  0.14844250  0.35928850  0.11308050  1
  Ga  Ga51  1  0.85928850  0.35155750  0.61308050  1
  Ga  Ga52  1  0.14071150  0.64844250  0.61308050  1
  Ga  Ga53  1  0.85155750  0.64071150  0.11308050  1
  Ga  Ga54  1  0.14071150  0.35155750  0.61308050  1
  Ga  Ga55  1  0.85928850  0.64844250  0.61308050  1
  Ga  Ga56  1  0.14844250  0.64071150  0.11308050  1
  Ga  Ga57  1  0.85155750  0.35928850  0.11308050  1
  Ga  Ga58  1  0.33763000  0.50000000  0.70124300  1
  Ga  Ga59  1  0.00000000  0.16237000  0.20124300  1
  Co  Co60  1  0.16234100  0.83765900  0.01784900  1
  Co  Co61  1  0.50000000  0.00000000  0.60160900  1
  Co  Co62  1  0.50000000  0.00000000  0.10160900  1
  Co  Co63  1  0.33765900  0.66234100  0.51784900  1
  Co  Co64  1  0.16234100  0.16234100  0.01784900  1
  Co  Co65  1  0.33765900  0.33765900  0.51784900  1
  Co  Co66  1  0.21586700  0.00000000  0.51209300  1
  Co  Co67  1  0.50000000  0.28413300  0.01209300  1
  Co  Co68  1  0.50000000  0.71586700  0.01209300  1
  Co  Co69  1  0.78413300  0.00000000  0.51209300  1
  Co  Co70  1  0.66234100  0.33765900  0.51784900  1
  Co  Co71  1  0.00000000  0.50000000  0.10160900  1
  Co  Co72  1  0.00000000  0.50000000  0.60160900  1
  Co  Co73  1  0.83765900  0.16234100  0.01784900  1
  Co  Co74  1  0.66234100  0.66234100  0.51784900  1
  Co  Co75  1  0.83765900  0.83765900  0.01784900  1
  Co  Co76  1  0.71586700  0.50000000  0.01209300  1
  Co  Co77  1  0.00000000  0.78413300  0.51209300  1
  Co  Co78  1  0.00000000  0.21586700  0.51209300  1
  Co  Co79  1  0.28413300  0.50000000  0.01209300  1
