# generated using pymatgen
data_La3AsI3
_symmetry_space_group_name_H-M   'P 1'
_cell_length_a   12.67141000
_cell_length_b   12.67141000
_cell_length_c   12.67141000
_cell_angle_alpha   90.00000000
_cell_angle_beta   90.00000000
_cell_angle_gamma   90.00000000
_symmetry_Int_Tables_number   1
_chemical_formula_structural   La3AsI3
_chemical_formula_sum   'La24 As8 I24'
_cell_volume   2034.58027582
_cell_formula_units_Z   8
loop_
 _symmetry_equiv_pos_site_id
 _symmetry_equiv_pos_as_xyz
  1  'x, y, z'
loop_
 _atom_site_type_symbol
 _atom_site_label
 _atom_site_symmetry_multiplicity
 _atom_site_fract_x
 _atom_site_fract_y
 _atom_site_fract_z
 _atom_site_occupancy
  La  La0  1  0.14034350  0.37500000  0.39034350  1
  La  La1  1  0.89034350  0.35965650  0.62500000  1
  La  La2  1  0.37500000  0.39034350  0.14034350  1
  La  La3  1  0.62500000  0.10965650  0.14034350  1
  La  La4  1  0.39034350  0.14034350  0.37500000  1
  La  La5  1  0.14034350  0.62500000  0.10965650  1
  La  La6  1  0.35965650  0.62500000  0.89034350  1
  La  La7  1  0.60965650  0.35965650  0.37500000  1
  La  La8  1  0.10965650  0.14034350  0.62500000  1
  La  La9  1  0.37500000  0.60965650  0.35965650  1
  La  La10  1  0.62500000  0.89034350  0.35965650  1
  La  La11  1  0.35965650  0.37500000  0.60965650  1
  La  La12  1  0.64034350  0.87500000  0.89034350  1
  La  La13  1  0.39034350  0.85965650  0.12500000  1
  La  La14  1  0.87500000  0.89034350  0.64034350  1
  La  La15  1  0.12500000  0.60965650  0.64034350  1
  La  La16  1  0.89034350  0.64034350  0.87500000  1
  La  La17  1  0.64034350  0.12500000  0.60965650  1
  La  La18  1  0.85965650  0.12500000  0.39034350  1
  La  La19  1  0.10965650  0.85965650  0.87500000  1
  La  La20  1  0.60965650  0.64034350  0.12500000  1
  La  La21  1  0.87500000  0.10965650  0.85965650  1
  La  La22  1  0.12500000  0.39034350  0.85965650  1
  La  La23  1  0.85965650  0.87500000  0.10965650  1
  As  As24  1  0.37500000  0.37500000  0.37500000  1
  As  As25  1  0.62500000  0.87500000  0.12500000  1
  As  As26  1  0.87500000  0.12500000  0.62500000  1
  As  As27  1  0.12500000  0.62500000  0.87500000  1
  As  As28  1  0.87500000  0.87500000  0.87500000  1
  As  As29  1  0.12500000  0.37500000  0.62500000  1
  As  As30  1  0.37500000  0.62500000  0.12500000  1
  As  As31  1  0.62500000  0.12500000  0.37500000  1
  I  I32  1  0.36631000  0.87500000  0.38369000  1
  I  I33  1  0.87500000  0.61631000  0.13369000  1
  I  I34  1  0.61631000  0.13369000  0.87500000  1
  I  I35  1  0.12500000  0.88369000  0.13369000  1
  I  I36  1  0.11631000  0.36631000  0.12500000  1
  I  I37  1  0.13369000  0.12500000  0.88369000  1
  I  I38  1  0.36631000  0.12500000  0.11631000  1
  I  I39  1  0.38369000  0.36631000  0.87500000  1
  I  I40  1  0.13369000  0.87500000  0.61631000  1
  I  I41  1  0.12500000  0.11631000  0.36631000  1
  I  I42  1  0.87500000  0.38369000  0.36631000  1
  I  I43  1  0.88369000  0.13369000  0.12500000  1
  I  I44  1  0.86631000  0.37500000  0.88369000  1
  I  I45  1  0.37500000  0.11631000  0.63369000  1
  I  I46  1  0.11631000  0.63369000  0.37500000  1
  I  I47  1  0.62500000  0.38369000  0.63369000  1
  I  I48  1  0.61631000  0.86631000  0.62500000  1
  I  I49  1  0.63369000  0.62500000  0.38369000  1
  I  I50  1  0.86631000  0.62500000  0.61631000  1
  I  I51  1  0.88369000  0.86631000  0.37500000  1
  I  I52  1  0.63369000  0.37500000  0.11631000  1
  I  I53  1  0.62500000  0.61631000  0.86631000  1
  I  I54  1  0.37500000  0.88369000  0.86631000  1
  I  I55  1  0.38369000  0.63369000  0.62500000  1
