# generated using pymatgen
data_Yb4As6Rh7
_symmetry_space_group_name_H-M   'P 1'
_cell_length_a   8.35234200
_cell_length_b   8.35234200
_cell_length_c   8.35234200
_cell_angle_alpha   90.00000000
_cell_angle_beta   90.00000000
_cell_angle_gamma   90.00000000
_symmetry_Int_Tables_number   1
_chemical_formula_structural   Yb4As6Rh7
_chemical_formula_sum   'Yb8 As12 Rh14'
_cell_volume   582.67288270
_cell_formula_units_Z   2
loop_
 _symmetry_equiv_pos_site_id
 _symmetry_equiv_pos_as_xyz
  1  'x, y, z'
loop_
 _atom_site_type_symbol
 _atom_site_label
 _atom_site_symmetry_multiplicity
 _atom_site_fract_x
 _atom_site_fract_y
 _atom_site_fract_z
 _atom_site_occupancy
  Yb  Yb0  1  0.25000000  0.25000000  0.25000000  1
  Yb  Yb1  1  0.25000000  0.75000000  0.25000000  1
  Yb  Yb2  1  0.75000000  0.25000000  0.25000000  1
  Yb  Yb3  1  0.25000000  0.25000000  0.75000000  1
  Yb  Yb4  1  0.75000000  0.75000000  0.75000000  1
  Yb  Yb5  1  0.75000000  0.25000000  0.75000000  1
  Yb  Yb6  1  0.25000000  0.75000000  0.75000000  1
  Yb  Yb7  1  0.75000000  0.75000000  0.25000000  1
  As  As8  1  0.00000000  0.67983800  0.00000000  1
  As  As9  1  0.00000000  0.00000000  0.67983800  1
  As  As10  1  0.00000000  0.00000000  0.32016200  1
  As  As11  1  0.67983800  0.00000000  0.00000000  1
  As  As12  1  0.32016200  0.00000000  0.00000000  1
  As  As13  1  0.00000000  0.32016200  0.00000000  1
  As  As14  1  0.50000000  0.17983800  0.50000000  1
  As  As15  1  0.50000000  0.50000000  0.17983800  1
  As  As16  1  0.50000000  0.50000000  0.82016200  1
  As  As17  1  0.17983800  0.50000000  0.50000000  1
  As  As18  1  0.82016200  0.50000000  0.50000000  1
  As  As19  1  0.50000000  0.82016200  0.50000000  1
  Rh  Rh20  1  0.25000000  0.00000000  0.50000000  1
  Rh  Rh21  1  0.00000000  0.50000000  0.25000000  1
  Rh  Rh22  1  0.50000000  0.00000000  0.25000000  1
  Rh  Rh23  1  0.50000000  0.25000000  0.00000000  1
  Rh  Rh24  1  0.00000000  0.00000000  0.00000000  1
  Rh  Rh25  1  0.25000000  0.50000000  0.00000000  1
  Rh  Rh26  1  0.00000000  0.25000000  0.50000000  1
  Rh  Rh27  1  0.75000000  0.50000000  0.00000000  1
  Rh  Rh28  1  0.50000000  0.00000000  0.75000000  1
  Rh  Rh29  1  0.00000000  0.50000000  0.75000000  1
  Rh  Rh30  1  0.00000000  0.75000000  0.50000000  1
  Rh  Rh31  1  0.50000000  0.50000000  0.50000000  1
  Rh  Rh32  1  0.75000000  0.00000000  0.50000000  1
  Rh  Rh33  1  0.50000000  0.75000000  0.00000000  1
