# generated using pymatgen
data_Fe(IO3)3
_symmetry_space_group_name_H-M   'P 1'
_cell_length_a   9.34759786
_cell_length_b   9.34759786
_cell_length_c   5.42366900
_cell_angle_alpha   90.00000000
_cell_angle_beta   90.00000000
_cell_angle_gamma   120.00000000
_symmetry_Int_Tables_number   1
_chemical_formula_structural   Fe(IO3)3
_chemical_formula_sum   'Fe2 I6 O18'
_cell_volume   410.41559001
_cell_formula_units_Z   2
loop_
 _symmetry_equiv_pos_site_id
 _symmetry_equiv_pos_as_xyz
  1  'x, y, z'
loop_
 _atom_site_type_symbol
 _atom_site_label
 _atom_site_symmetry_multiplicity
 _atom_site_fract_x
 _atom_site_fract_y
 _atom_site_fract_z
 _atom_site_occupancy
  Fe  Fe0  1  0.66666667  0.33333333  0.13213900  1
  Fe  Fe1  1  0.33333333  0.66666667  0.63213900  1
  I  I2  1  0.31588800  0.97768000  0.99159500  1
  I  I3  1  0.66179200  0.68411200  0.99159500  1
  I  I4  1  0.33820800  0.31588800  0.49159500  1
  I  I5  1  0.97768000  0.66179200  0.49159500  1
  I  I6  1  0.68411200  0.02232000  0.49159500  1
  I  I7  1  0.02232000  0.33820800  0.99159500  1
  O  O8  1  0.28506600  0.47535600  0.40295800  1
  O  O9  1  0.80971000  0.28506600  0.90295800  1
  O  O10  1  0.47535600  0.19029000  0.90295800  1
  O  O11  1  0.52464400  0.80971000  0.40295800  1
  O  O12  1  0.19029000  0.71493400  0.40295800  1
  O  O13  1  0.71493400  0.52464400  0.90295800  1
  O  O14  1  0.87453100  0.45215300  0.34288800  1
  O  O15  1  0.42237800  0.87453100  0.84288800  1
  O  O16  1  0.05453500  0.22253000  0.75417800  1
  O  O17  1  0.83200500  0.05453500  0.25417800  1
  O  O18  1  0.22253000  0.16799500  0.25417800  1
  O  O19  1  0.77747000  0.83200500  0.75417800  1
  O  O20  1  0.16799500  0.94546500  0.75417800  1
  O  O21  1  0.45215300  0.57762200  0.84288800  1
  O  O22  1  0.12546900  0.54784700  0.84288800  1
  O  O23  1  0.57762200  0.12546900  0.34288800  1
  O  O24  1  0.54784700  0.42237800  0.34288800  1
  O  O25  1  0.94546500  0.77747000  0.25417800  1
