# generated using pymatgen
data_FePO4
_symmetry_space_group_name_H-M   'P 1'
_cell_length_a   5.37677194
_cell_length_b   5.37677194
_cell_length_c   11.85569950
_cell_angle_alpha   90.00000000
_cell_angle_beta   90.00000000
_cell_angle_gamma   120.00000000
_symmetry_Int_Tables_number   1
_chemical_formula_structural   FePO4
_chemical_formula_sum   'Fe3 P3 O12'
_cell_volume   296.82538941
_cell_formula_units_Z   3
loop_
 _symmetry_equiv_pos_site_id
 _symmetry_equiv_pos_as_xyz
  1  'x, y, z'
loop_
 _atom_site_type_symbol
 _atom_site_label
 _atom_site_symmetry_multiplicity
 _atom_site_fract_x
 _atom_site_fract_y
 _atom_site_fract_z
 _atom_site_occupancy
  Fe  Fe0  1  0.00000000  0.50000000  0.83333333  1
  Fe  Fe1  1  0.50000000  0.50000000  0.16666667  1
  Fe  Fe2  1  0.50000000  0.00000000  0.50000000  1
  P  P3  1  0.00000000  0.50000000  0.33333333  1
  P  P4  1  0.50000000  0.50000000  0.66666667  1
  P  P5  1  0.50000000  0.00000000  0.00000000  1
  O  O6  1  0.57721100  0.81325200  0.07435800  1
  O  O7  1  0.18674800  0.76395900  0.40769133  1
  O  O8  1  0.23604100  0.42278900  0.74102467  1
  O  O9  1  0.76395900  0.57721100  0.74102467  1
  O  O10  1  0.42278900  0.23604100  0.59230867  1
  O  O11  1  0.42278900  0.18674800  0.07435800  1
  O  O12  1  0.57721100  0.76395900  0.59230867  1
  O  O13  1  0.81325200  0.57721100  0.25897533  1
  O  O14  1  0.76395900  0.18674800  0.92564200  1
  O  O15  1  0.23604100  0.81325200  0.92564200  1
  O  O16  1  0.18674800  0.42278900  0.25897533  1
  O  O17  1  0.81325200  0.23604100  0.40769133  1
