# generated using pymatgen
data_In(FeO2)2
_symmetry_space_group_name_H-M   'P 1'
_cell_length_a   3.40243406
_cell_length_b   3.40243406
_cell_length_c   26.07666622
_cell_angle_alpha   90.00000000
_cell_angle_beta   90.00000000
_cell_angle_gamma   120.00000000
_symmetry_Int_Tables_number   1
_chemical_formula_structural   In(FeO2)2
_chemical_formula_sum   'In3 Fe6 O12'
_cell_volume   261.43404003
_cell_formula_units_Z   3
loop_
 _symmetry_equiv_pos_site_id
 _symmetry_equiv_pos_as_xyz
  1  'x, y, z'
loop_
 _atom_site_type_symbol
 _atom_site_label
 _atom_site_symmetry_multiplicity
 _atom_site_fract_x
 _atom_site_fract_y
 _atom_site_fract_z
 _atom_site_occupancy
  In  In0  1  0.00000000  0.00000000  0.00000000  1
  In  In1  1  0.66666667  0.33333333  0.33333333  1
  In  In2  1  0.33333333  0.66666667  0.66666667  1
  Fe  Fe3  1  0.00000000  0.00000000  0.21493100  1
  Fe  Fe4  1  0.66666667  0.33333333  0.11840233  1
  Fe  Fe5  1  0.66666667  0.33333333  0.54826433  1
  Fe  Fe6  1  0.33333333  0.66666667  0.45173567  1
  Fe  Fe7  1  0.33333333  0.66666667  0.88159767  1
  Fe  Fe8  1  0.00000000  0.00000000  0.78506900  1
  O  O9  1  0.00000000  0.00000000  0.29216700  1
  O  O10  1  0.66666667  0.33333333  0.04116633  1
  O  O11  1  0.00000000  0.00000000  0.12940500  1
  O  O12  1  0.66666667  0.33333333  0.20392833  1
  O  O13  1  0.66666667  0.33333333  0.62550033  1
  O  O14  1  0.33333333  0.66666667  0.37449967  1
  O  O15  1  0.66666667  0.33333333  0.46273833  1
  O  O16  1  0.33333333  0.66666667  0.53726167  1
  O  O17  1  0.33333333  0.66666667  0.95883367  1
  O  O18  1  0.00000000  0.00000000  0.70783300  1
  O  O19  1  0.33333333  0.66666667  0.79607167  1
  O  O20  1  0.00000000  0.00000000  0.87059500  1
