# generated using pymatgen
data_Zr3(Cu2Si3)2
_symmetry_space_group_name_H-M   'P 1'
_cell_length_a   3.73784800
_cell_length_b   3.73784800
_cell_length_c   28.31173200
_cell_angle_alpha   90.00000000
_cell_angle_beta   90.00000000
_cell_angle_gamma   90.00000000
_symmetry_Int_Tables_number   1
_chemical_formula_structural   Zr3(Cu2Si3)2
_chemical_formula_sum   'Zr6 Cu8 Si12'
_cell_volume   395.55758082
_cell_formula_units_Z   2
loop_
 _symmetry_equiv_pos_site_id
 _symmetry_equiv_pos_as_xyz
  1  'x, y, z'
loop_
 _atom_site_type_symbol
 _atom_site_label
 _atom_site_symmetry_multiplicity
 _atom_site_fract_x
 _atom_site_fract_y
 _atom_site_fract_z
 _atom_site_occupancy
  Zr  Zr0  1  0.00000000  0.00000000  0.00000000  1
  Zr  Zr1  1  0.50000000  0.50000000  0.17495200  1
  Zr  Zr2  1  0.00000000  0.00000000  0.32504800  1
  Zr  Zr3  1  0.50000000  0.50000000  0.50000000  1
  Zr  Zr4  1  0.00000000  0.00000000  0.67495200  1
  Zr  Zr5  1  0.50000000  0.50000000  0.82504800  1
  Cu  Cu6  1  0.00000000  0.50000000  0.40983600  1
  Cu  Cu7  1  0.50000000  0.00000000  0.40983600  1
  Cu  Cu8  1  0.50000000  0.00000000  0.09016400  1
  Cu  Cu9  1  0.00000000  0.50000000  0.09016400  1
  Cu  Cu10  1  0.50000000  0.00000000  0.90983600  1
  Cu  Cu11  1  0.00000000  0.50000000  0.90983600  1
  Cu  Cu12  1  0.00000000  0.50000000  0.59016400  1
  Cu  Cu13  1  0.50000000  0.00000000  0.59016400  1
  Si  Si14  1  0.00000000  0.50000000  0.25000000  1
  Si  Si15  1  0.50000000  0.00000000  0.25000000  1
  Si  Si16  1  0.50000000  0.50000000  0.04065900  1
  Si  Si17  1  0.00000000  0.00000000  0.45934100  1
  Si  Si18  1  0.00000000  0.00000000  0.14582100  1
  Si  Si19  1  0.50000000  0.50000000  0.35417900  1
  Si  Si20  1  0.50000000  0.00000000  0.75000000  1
  Si  Si21  1  0.00000000  0.50000000  0.75000000  1
  Si  Si22  1  0.00000000  0.00000000  0.54065900  1
  Si  Si23  1  0.50000000  0.50000000  0.95934100  1
  Si  Si24  1  0.50000000  0.50000000  0.64582100  1
  Si  Si25  1  0.00000000  0.00000000  0.85417900  1
