# generated using pymatgen
data_Cr4AgBiO14
_symmetry_space_group_name_H-M   'P 1'
_cell_length_a   8.63527200
_cell_length_b   8.63527200
_cell_length_c   8.29483800
_cell_angle_alpha   90.00000000
_cell_angle_beta   90.00000000
_cell_angle_gamma   90.00000000
_symmetry_Int_Tables_number   1
_chemical_formula_structural   Cr4AgBiO14
_chemical_formula_sum   'Cr8 Ag2 Bi2 O28'
_cell_volume   618.52883725
_cell_formula_units_Z   2
loop_
 _symmetry_equiv_pos_site_id
 _symmetry_equiv_pos_as_xyz
  1  'x, y, z'
loop_
 _atom_site_type_symbol
 _atom_site_label
 _atom_site_symmetry_multiplicity
 _atom_site_fract_x
 _atom_site_fract_y
 _atom_site_fract_z
 _atom_site_occupancy
  Cr  Cr0  1  0.62010400  0.16211700  0.20856000  1
  Cr  Cr1  1  0.83788300  0.62010400  0.20856000  1
  Cr  Cr2  1  0.16211700  0.37989600  0.20856000  1
  Cr  Cr3  1  0.37989600  0.83788300  0.20856000  1
  Cr  Cr4  1  0.12010400  0.66211700  0.70856000  1
  Cr  Cr5  1  0.33788300  0.12010400  0.70856000  1
  Cr  Cr6  1  0.66211700  0.87989600  0.70856000  1
  Cr  Cr7  1  0.87989600  0.33788300  0.70856000  1
  Ag  Ag8  1  0.00000000  0.00000000  0.42640800  1
  Ag  Ag9  1  0.50000000  0.50000000  0.92640800  1
  Bi  Bi10  1  0.00000000  0.00000000  0.00674700  1
  Bi  Bi11  1  0.50000000  0.50000000  0.50674700  1
  O  O12  1  0.00000000  0.50000000  0.23884500  1
  O  O13  1  0.50000000  0.00000000  0.23884500  1
  O  O14  1  0.60242800  0.27834500  0.36572900  1
  O  O15  1  0.72165500  0.60242800  0.36572900  1
  O  O16  1  0.27834500  0.39757200  0.36572900  1
  O  O17  1  0.39757200  0.72165500  0.36572900  1
  O  O18  1  0.93128900  0.24783300  0.54634500  1
  O  O19  1  0.25216700  0.43128900  0.04634500  1
  O  O20  1  0.24783300  0.06871100  0.54634500  1
  O  O21  1  0.56871100  0.25216700  0.04634500  1
  O  O22  1  0.19828050  0.89808750  0.19233050  1
  O  O23  1  0.10191250  0.19828050  0.19233050  1
  O  O24  1  0.89808750  0.80171950  0.19233050  1
  O  O25  1  0.80171950  0.10191250  0.19233050  1
  O  O26  1  0.50000000  0.00000000  0.73884500  1
  O  O27  1  0.00000000  0.50000000  0.73884500  1
  O  O28  1  0.10242800  0.77834500  0.86572900  1
  O  O29  1  0.22165500  0.10242800  0.86572900  1
  O  O30  1  0.77834500  0.89757200  0.86572900  1
  O  O31  1  0.89757200  0.22165500  0.86572900  1
  O  O32  1  0.43128900  0.74783300  0.04634500  1
  O  O33  1  0.75216700  0.93128900  0.54634500  1
  O  O34  1  0.74783300  0.56871100  0.04634500  1
  O  O35  1  0.06871100  0.75216700  0.54634500  1
  O  O36  1  0.69828050  0.39808750  0.69233050  1
  O  O37  1  0.60191250  0.69828050  0.69233050  1
  O  O38  1  0.39808750  0.30171950  0.69233050  1
  O  O39  1  0.30171950  0.60191250  0.69233050  1
