# generated using pymatgen
data_CaGa4
_symmetry_space_group_name_H-M   'P 1'
_cell_length_a   6.21405800
_cell_length_b   6.18385800
_cell_length_c   6.17800171
_cell_angle_alpha   90.00000000
_cell_angle_beta   119.10397169
_cell_angle_gamma   90.00000000
_symmetry_Int_Tables_number   1
_chemical_formula_structural   CaGa4
_chemical_formula_sum   'Ca2 Ga8'
_cell_volume   207.42653466
_cell_formula_units_Z   2
loop_
 _symmetry_equiv_pos_site_id
 _symmetry_equiv_pos_as_xyz
  1  'x, y, z'
loop_
 _atom_site_type_symbol
 _atom_site_label
 _atom_site_symmetry_multiplicity
 _atom_site_fract_x
 _atom_site_fract_y
 _atom_site_fract_z
 _atom_site_occupancy
  Ca  Ca0  1  0.00000000  0.00000000  0.00000000  1
  Ca  Ca1  1  0.50000000  0.50000000  0.00000000  1
  Ga  Ga2  1  0.59795400  0.00000000  0.22994400  1
  Ga  Ga3  1  0.40204600  0.00000000  0.77005600  1
  Ga  Ga4  1  0.50000000  0.73502600  0.50000000  1
  Ga  Ga5  1  0.50000000  0.26497400  0.50000000  1
  Ga  Ga6  1  0.09795400  0.50000000  0.22994400  1
  Ga  Ga7  1  0.90204600  0.50000000  0.77005600  1
  Ga  Ga8  1  0.00000000  0.23502600  0.50000000  1
  Ga  Ga9  1  0.00000000  0.76497400  0.50000000  1
