# generated using pymatgen
data_Eu(BO2)3
_symmetry_space_group_name_H-M   'P 1'
_cell_length_a   9.91277600
_cell_length_b   8.19993000
_cell_length_c   6.45811829
_cell_angle_alpha   90.00000000
_cell_angle_beta   127.19426846
_cell_angle_gamma   90.00000000
_symmetry_Int_Tables_number   1
_chemical_formula_structural   Eu(BO2)3
_chemical_formula_sum   'Eu4 B12 O24'
_cell_volume   418.16386244
_cell_formula_units_Z   4
loop_
 _symmetry_equiv_pos_site_id
 _symmetry_equiv_pos_as_xyz
  1  'x, y, z'
loop_
 _atom_site_type_symbol
 _atom_site_label
 _atom_site_symmetry_multiplicity
 _atom_site_fract_x
 _atom_site_fract_y
 _atom_site_fract_z
 _atom_site_occupancy
  Eu  Eu0  1  0.00000000  0.20516200  0.25000000  1
  Eu  Eu1  1  0.00000000  0.79483800  0.75000000  1
  Eu  Eu2  1  0.50000000  0.70516200  0.25000000  1
  Eu  Eu3  1  0.50000000  0.29483800  0.75000000  1
  B  B4  1  0.00000000  0.22236600  0.75000000  1
  B  B5  1  0.00000000  0.77763400  0.25000000  1
  B  B6  1  0.77285250  0.43250150  0.41529500  1
  B  B7  1  0.22714750  0.43250150  0.08470500  1
  B  B8  1  0.22714750  0.56749850  0.58470500  1
  B  B9  1  0.77285250  0.56749850  0.91529500  1
  B  B10  1  0.50000000  0.72236600  0.75000000  1
  B  B11  1  0.50000000  0.27763400  0.25000000  1
  B  B12  1  0.27285250  0.93250150  0.41529500  1
  B  B13  1  0.72714750  0.93250150  0.08470500  1
  B  B14  1  0.72714750  0.06749850  0.58470500  1
  B  B15  1  0.27285250  0.06749850  0.91529500  1
  O  O16  1  0.89504450  0.11477650  0.78734200  1
  O  O17  1  0.79668050  0.58726050  0.49658800  1
  O  O18  1  0.20331950  0.58726050  0.00341200  1
  O  O19  1  0.20331950  0.41273950  0.50341200  1
  O  O20  1  0.89876750  0.68452250  0.00896500  1
  O  O21  1  0.10123250  0.68452250  0.49103500  1
  O  O22  1  0.10123250  0.31547750  0.99103500  1
  O  O23  1  0.89876750  0.31547750  0.50896500  1
  O  O24  1  0.10495550  0.88522350  0.21265800  1
  O  O25  1  0.89504450  0.88522350  0.28734200  1
  O  O26  1  0.79668050  0.41273950  0.99658800  1
  O  O27  1  0.10495550  0.11477650  0.71265800  1
  O  O28  1  0.39504450  0.61477650  0.78734200  1
  O  O29  1  0.29668050  0.08726050  0.49658800  1
  O  O30  1  0.70331950  0.08726050  0.00341200  1
  O  O31  1  0.70331950  0.91273950  0.50341200  1
  O  O32  1  0.39876750  0.18452250  0.00896500  1
  O  O33  1  0.60123250  0.18452250  0.49103500  1
  O  O34  1  0.60123250  0.81547750  0.99103500  1
  O  O35  1  0.39876750  0.81547750  0.50896500  1
  O  O36  1  0.60495550  0.38522350  0.21265800  1
  O  O37  1  0.39504450  0.38522350  0.28734200  1
  O  O38  1  0.29668050  0.91273950  0.99658800  1
  O  O39  1  0.60495550  0.61477650  0.71265800  1
