# generated using pymatgen
data_CeMn2(GeO3)4
_symmetry_space_group_name_H-M   'P 1'
_cell_length_a   9.98867038
_cell_length_b   9.98867038
_cell_length_c   4.96901239
_cell_angle_alpha   90.00000000
_cell_angle_beta   90.00000000
_cell_angle_gamma   90.00000000
_symmetry_Int_Tables_number   1
_chemical_formula_structural   CeMn2(GeO3)4
_chemical_formula_sum   'Ce2 Mn4 Ge8 O24'
_cell_volume   495.77593638
_cell_formula_units_Z   2
loop_
 _symmetry_equiv_pos_site_id
 _symmetry_equiv_pos_as_xyz
  1  'x, y, z'
loop_
 _atom_site_type_symbol
 _atom_site_label
 _atom_site_symmetry_multiplicity
 _atom_site_fract_x
 _atom_site_fract_y
 _atom_site_fract_z
 _atom_site_occupancy
  Ce  Ce0  1  0.50000000  0.50000000  0.50000000  1
  Ce  Ce1  1  0.00000000  0.00000000  0.50000000  1
  Mn  Mn2  1  0.75000000  0.25000000  0.50000000  1
  Mn  Mn3  1  0.25000000  0.75000000  0.50000000  1
  Mn  Mn4  1  0.25000000  0.25000000  0.50000000  1
  Mn  Mn5  1  0.75000000  0.75000000  0.50000000  1
  Ge  Ge6  1  0.72596415  0.00000000  0.00000000  1
  Ge  Ge7  1  0.00000000  0.72596415  0.00000000  1
  Ge  Ge8  1  0.27403585  0.00000000  0.00000000  1
  Ge  Ge9  1  0.50000000  0.22596415  0.00000000  1
  Ge  Ge10  1  0.22596415  0.50000000  0.00000000  1
  Ge  Ge11  1  0.77403585  0.50000000  0.00000000  1
  Ge  Ge12  1  0.50000000  0.77403585  0.00000000  1
  Ge  Ge13  1  0.00000000  0.27403585  0.00000000  1
  O  O14  1  0.41656362  0.31367222  0.25601628  1
  O  O15  1  0.58343638  0.68632778  0.25601628  1
  O  O16  1  0.68632778  0.41656362  0.25601628  1
  O  O17  1  0.31367222  0.58343638  0.25601628  1
  O  O18  1  0.31367222  0.41656362  0.74398372  1
  O  O19  1  0.41656362  0.68632778  0.74398372  1
  O  O20  1  0.58343638  0.31367222  0.74398372  1
  O  O21  1  0.68632778  0.58343638  0.74398372  1
  O  O22  1  0.08343638  0.18632778  0.74398372  1
  O  O23  1  0.91656362  0.81367222  0.74398372  1
  O  O24  1  0.81367222  0.08343638  0.74398372  1
  O  O25  1  0.18632778  0.91656362  0.74398372  1
  O  O26  1  0.18632778  0.08343638  0.25601628  1
  O  O27  1  0.08343638  0.81367222  0.25601628  1
  O  O28  1  0.12001242  0.37998758  0.17301967  1
  O  O29  1  0.37998758  0.87998758  0.17301967  1
  O  O30  1  0.62001242  0.12001242  0.17301967  1
  O  O31  1  0.87998758  0.62001242  0.17301967  1
  O  O32  1  0.87998758  0.37998758  0.82698033  1
  O  O33  1  0.91656362  0.18632778  0.25601628  1
  O  O34  1  0.37998758  0.12001242  0.82698033  1
  O  O35  1  0.62001242  0.87998758  0.82698033  1
  O  O36  1  0.81367222  0.91656362  0.25601628  1
  O  O37  1  0.12001242  0.62001242  0.82698033  1
