# generated using pymatgen
data_Li3FePCO7
_symmetry_space_group_name_H-M   'P 1'
_cell_length_a   5.03910043
_cell_length_b   6.45011500
_cell_length_c   8.56688739
_cell_angle_alpha   90.00000000
_cell_angle_beta   96.78990820
_cell_angle_gamma   90.00000000
_symmetry_Int_Tables_number   1
_chemical_formula_structural   Li3FePCO7
_chemical_formula_sum   'Li6 Fe2 P2 C2 O14'
_cell_volume   276.49469765
_cell_formula_units_Z   2
loop_
 _symmetry_equiv_pos_site_id
 _symmetry_equiv_pos_as_xyz
  1  'x, y, z'
loop_
 _atom_site_type_symbol
 _atom_site_label
 _atom_site_symmetry_multiplicity
 _atom_site_fract_x
 _atom_site_fract_y
 _atom_site_fract_z
 _atom_site_occupancy
  Li  Li0  1  0.20263350  0.25000000  0.10447950  1
  Li  Li1  1  0.79736650  0.75000000  0.89552050  1
  Li  Li2  1  0.27057050  0.98350800  0.72590850  1
  Li  Li3  1  0.72942950  0.01649200  0.27409150  1
  Li  Li4  1  0.27057050  0.51649200  0.72590850  1
  Li  Li5  1  0.72942950  0.48350800  0.27409150  1
  Fe  Fe6  1  0.21144250  0.75000000  0.32991050  1
  Fe  Fe7  1  0.78855750  0.25000000  0.67008950  1
  P  P8  1  0.26960150  0.25000000  0.41116050  1
  P  P9  1  0.73039850  0.75000000  0.58883950  1
  C  C10  1  0.33137450  0.75000000  0.03648450  1
  C  C11  1  0.66862550  0.25000000  0.96351550  1
  O  O12  1  0.82921650  0.75000000  0.42605550  1
  O  O13  1  0.17078350  0.25000000  0.57394450  1
  O  O14  1  0.08393850  0.75000000  0.06266650  1
  O  O15  1  0.91606150  0.25000000  0.93733350  1
  O  O16  1  0.48539250  0.25000000  0.84144550  1
  O  O17  1  0.51460750  0.75000000  0.15855450  1
  O  O18  1  0.58164350  0.25000000  0.43055250  1
  O  O19  1  0.41835650  0.75000000  0.56944750  1
  O  O20  1  0.39922650  0.75000000  0.89487350  1
  O  O21  1  0.60077350  0.25000000  0.10512650  1
  O  O22  1  0.83912450  0.56275800  0.69323450  1
  O  O23  1  0.83912450  0.93724200  0.69323450  1
  O  O24  1  0.16087550  0.43724200  0.30676550  1
  O  O25  1  0.16087550  0.06275800  0.30676550  1
