# generated using pymatgen
data_Li8Pb3
_symmetry_space_group_name_H-M   'P 1'
_cell_length_a   4.76579851
_cell_length_b   4.76579851
_cell_length_c   32.26297589
_cell_angle_alpha   90.00000000
_cell_angle_beta   90.00000000
_cell_angle_gamma   120.00000000
_symmetry_Int_Tables_number   1
_chemical_formula_structural   Li8Pb3
_chemical_formula_sum   'Li24 Pb9'
_cell_volume   634.60926616
_cell_formula_units_Z   3
loop_
 _symmetry_equiv_pos_site_id
 _symmetry_equiv_pos_as_xyz
  1  'x, y, z'
loop_
 _atom_site_type_symbol
 _atom_site_label
 _atom_site_symmetry_multiplicity
 _atom_site_fract_x
 _atom_site_fract_y
 _atom_site_fract_z
 _atom_site_occupancy
  Li  Li0  1  0.00000000  0.00000000  0.08898700  1
  Li  Li1  1  0.66666667  0.33333333  0.24434633  1
  Li  Li2  1  0.00000000  0.00000000  0.17925400  1
  Li  Li3  1  0.33333333  0.66666667  0.30507367  1
  Li  Li4  1  0.33333333  0.66666667  0.02825967  1
  Li  Li5  1  0.66666667  0.33333333  0.06049833  1
  Li  Li6  1  0.00000000  0.00000000  0.27283500  1
  Li  Li7  1  0.66666667  0.33333333  0.15407933  1
  Li  Li8  1  0.66666667  0.33333333  0.42232033  1
  Li  Li9  1  0.33333333  0.66666667  0.57767967  1
  Li  Li10  1  0.66666667  0.33333333  0.51258733  1
  Li  Li11  1  0.00000000  0.00000000  0.63840700  1
  Li  Li12  1  0.00000000  0.00000000  0.36159300  1
  Li  Li13  1  0.33333333  0.66666667  0.39383167  1
  Li  Li14  1  0.66666667  0.33333333  0.60616833  1
  Li  Li15  1  0.33333333  0.66666667  0.48741267  1
  Li  Li16  1  0.33333333  0.66666667  0.75565367  1
  Li  Li17  1  0.00000000  0.00000000  0.91101300  1
  Li  Li18  1  0.33333333  0.66666667  0.84592067  1
  Li  Li19  1  0.66666667  0.33333333  0.97174033  1
  Li  Li20  1  0.66666667  0.33333333  0.69492633  1
  Li  Li21  1  0.00000000  0.00000000  0.72716500  1
  Li  Li22  1  0.33333333  0.66666667  0.93950167  1
  Li  Li23  1  0.00000000  0.00000000  0.82074600  1
  Pb  Pb24  1  0.33333333  0.66666667  0.11932667  1
  Pb  Pb25  1  0.33333333  0.66666667  0.21400667  1
  Pb  Pb26  1  0.00000000  0.00000000  0.00000000  1
  Pb  Pb27  1  0.00000000  0.00000000  0.45266000  1
  Pb  Pb28  1  0.00000000  0.00000000  0.54734000  1
  Pb  Pb29  1  0.66666667  0.33333333  0.33333333  1
  Pb  Pb30  1  0.66666667  0.33333333  0.78599333  1
  Pb  Pb31  1  0.66666667  0.33333333  0.88067333  1
  Pb  Pb32  1  0.33333333  0.66666667  0.66666667  1
