# generated using pymatgen
data_Cu3TeO6
_symmetry_space_group_name_H-M   'P 1'
_cell_length_a   9.67491000
_cell_length_b   9.67491000
_cell_length_c   9.67491000
_cell_angle_alpha   90.00000000
_cell_angle_beta   90.00000000
_cell_angle_gamma   90.00000000
_symmetry_Int_Tables_number   1
_chemical_formula_structural   Cu3TeO6
_chemical_formula_sum   'Cu24 Te8 O48'
_cell_volume   905.60914859
_cell_formula_units_Z   8
loop_
 _symmetry_equiv_pos_site_id
 _symmetry_equiv_pos_as_xyz
  1  'x, y, z'
loop_
 _atom_site_type_symbol
 _atom_site_label
 _atom_site_symmetry_multiplicity
 _atom_site_fract_x
 _atom_site_fract_y
 _atom_site_fract_z
 _atom_site_occupancy
  Cu  Cu0  1  0.00000000  0.25000000  0.47055100  1
  Cu  Cu1  1  0.02944900  0.00000000  0.75000000  1
  Cu  Cu2  1  0.75000000  0.02944900  0.00000000  1
  Cu  Cu3  1  0.47055100  0.00000000  0.25000000  1
  Cu  Cu4  1  0.25000000  0.47055100  0.00000000  1
  Cu  Cu5  1  0.00000000  0.75000000  0.02944900  1
  Cu  Cu6  1  0.50000000  0.25000000  0.02944900  1
  Cu  Cu7  1  0.47055100  0.50000000  0.75000000  1
  Cu  Cu8  1  0.75000000  0.47055100  0.50000000  1
  Cu  Cu9  1  0.02944900  0.50000000  0.25000000  1
  Cu  Cu10  1  0.25000000  0.02944900  0.50000000  1
  Cu  Cu11  1  0.50000000  0.75000000  0.47055100  1
  Cu  Cu12  1  0.50000000  0.75000000  0.97055100  1
  Cu  Cu13  1  0.52944900  0.50000000  0.25000000  1
  Cu  Cu14  1  0.25000000  0.52944900  0.50000000  1
  Cu  Cu15  1  0.97055100  0.50000000  0.75000000  1
  Cu  Cu16  1  0.75000000  0.97055100  0.50000000  1
  Cu  Cu17  1  0.50000000  0.25000000  0.52944900  1
  Cu  Cu18  1  0.00000000  0.75000000  0.52944900  1
  Cu  Cu19  1  0.97055100  0.00000000  0.25000000  1
  Cu  Cu20  1  0.25000000  0.97055100  0.00000000  1
  Cu  Cu21  1  0.52944900  0.00000000  0.75000000  1
  Cu  Cu22  1  0.75000000  0.52944900  0.00000000  1
  Cu  Cu23  1  0.00000000  0.25000000  0.97055100  1
  Te  Te24  1  0.75000000  0.25000000  0.25000000  1
  Te  Te25  1  0.25000000  0.25000000  0.75000000  1
  Te  Te26  1  0.25000000  0.75000000  0.25000000  1
  Te  Te27  1  0.25000000  0.25000000  0.25000000  1
  Te  Te28  1  0.25000000  0.75000000  0.75000000  1
  Te  Te29  1  0.75000000  0.75000000  0.25000000  1
  Te  Te30  1  0.75000000  0.25000000  0.75000000  1
  Te  Te31  1  0.75000000  0.75000000  0.75000000  1
  O  O32  1  0.17187800  0.89959200  0.63226800  1
  O  O33  1  0.32812200  0.89959200  0.36773200  1
  O  O34  1  0.67187800  0.60040800  0.36773200  1
  O  O35  1  0.10040800  0.13226800  0.32812200  1
  O  O36  1  0.13226800  0.32812200  0.10040800  1
  O  O37  1  0.63226800  0.17187800  0.89959200  1
  O  O38  1  0.89959200  0.36773200  0.32812200  1
  O  O39  1  0.36773200  0.67187800  0.60040800  1
  O  O40  1  0.89959200  0.63226800  0.17187800  1
  O  O41  1  0.36773200  0.32812200  0.89959200  1
  O  O42  1  0.60040800  0.36773200  0.67187800  1
  O  O43  1  0.32812200  0.10040800  0.13226800  1
  O  O44  1  0.32812200  0.60040800  0.86773200  1
  O  O45  1  0.17187800  0.60040800  0.13226800  1
  O  O46  1  0.82812200  0.89959200  0.13226800  1
  O  O47  1  0.39959200  0.36773200  0.17187800  1
  O  O48  1  0.17187800  0.39959200  0.36773200  1
  O  O49  1  0.89959200  0.13226800  0.82812200  1
  O  O50  1  0.13226800  0.17187800  0.60040800  1
  O  O51  1  0.60040800  0.86773200  0.32812200  1
  O  O52  1  0.13226800  0.82812200  0.89959200  1
  O  O53  1  0.60040800  0.13226800  0.17187800  1
  O  O54  1  0.86773200  0.32812200  0.60040800  1
  O  O55  1  0.36773200  0.17187800  0.39959200  1
  O  O56  1  0.67187800  0.39959200  0.13226800  1
  O  O57  1  0.82812200  0.39959200  0.86773200  1
  O  O58  1  0.17187800  0.10040800  0.86773200  1
  O  O59  1  0.60040800  0.63226800  0.82812200  1
  O  O60  1  0.63226800  0.82812200  0.60040800  1
  O  O61  1  0.13226800  0.67187800  0.39959200  1
  O  O62  1  0.39959200  0.86773200  0.82812200  1
  O  O63  1  0.86773200  0.17187800  0.10040800  1
  O  O64  1  0.39959200  0.13226800  0.67187800  1
  O  O65  1  0.86773200  0.82812200  0.39959200  1
  O  O66  1  0.10040800  0.86773200  0.17187800  1
  O  O67  1  0.82812200  0.60040800  0.63226800  1
  O  O68  1  0.82812200  0.10040800  0.36773200  1
  O  O69  1  0.67187800  0.10040800  0.63226800  1
  O  O70  1  0.32812200  0.39959200  0.63226800  1
  O  O71  1  0.89959200  0.86773200  0.67187800  1
  O  O72  1  0.67187800  0.89959200  0.86773200  1
  O  O73  1  0.39959200  0.63226800  0.32812200  1
  O  O74  1  0.63226800  0.67187800  0.10040800  1
  O  O75  1  0.10040800  0.36773200  0.82812200  1
  O  O76  1  0.63226800  0.32812200  0.39959200  1
  O  O77  1  0.10040800  0.63226800  0.67187800  1
  O  O78  1  0.36773200  0.82812200  0.10040800  1
  O  O79  1  0.86773200  0.67187800  0.89959200  1
