# generated using pymatgen
data_Nd2P3Au
_symmetry_space_group_name_H-M   'P 1'
_cell_length_a   4.19155200
_cell_length_b   7.77051900
_cell_length_c   16.71815043
_cell_angle_alpha   90.00000000
_cell_angle_beta   104.03907290
_cell_angle_gamma   90.00000000
_symmetry_Int_Tables_number   1
_chemical_formula_structural   Nd2P3Au
_chemical_formula_sum   'Nd8 P12 Au4'
_cell_volume   528.25459338
_cell_formula_units_Z   4
loop_
 _symmetry_equiv_pos_site_id
 _symmetry_equiv_pos_as_xyz
  1  'x, y, z'
loop_
 _atom_site_type_symbol
 _atom_site_label
 _atom_site_symmetry_multiplicity
 _atom_site_fract_x
 _atom_site_fract_y
 _atom_site_fract_z
 _atom_site_occupancy
  Nd  Nd0  1  0.44076600  0.39521600  0.20118500  1
  Nd  Nd1  1  0.25808900  0.76870300  0.02512200  1
  Nd  Nd2  1  0.25808900  0.73129700  0.52512200  1
  Nd  Nd3  1  0.74191100  0.23129700  0.97487800  1
  Nd  Nd4  1  0.55923400  0.60478400  0.79881500  1
  Nd  Nd5  1  0.44076600  0.10478400  0.70118500  1
  Nd  Nd6  1  0.55923400  0.89521600  0.29881500  1
  Nd  Nd7  1  0.74191100  0.26870300  0.47487800  1
  P  P8  1  0.65558600  0.88367900  0.91402500  1
  P  P9  1  0.34441400  0.38367900  0.58597500  1
  P  P10  1  0.34441400  0.11632100  0.08597500  1
  P  P11  1  0.65558600  0.61632100  0.41402500  1
  P  P12  1  0.82137800  0.96396900  0.59345000  1
  P  P13  1  0.17862200  0.46396900  0.90655000  1
  P  P14  1  0.17862200  0.03603100  0.40655000  1
  P  P15  1  0.82137800  0.53603100  0.09345000  1
  P  P16  1  0.99229200  0.79509400  0.70092200  1
  P  P17  1  0.99229200  0.70490600  0.20092200  1
  P  P18  1  0.00770800  0.20490600  0.29907800  1
  P  P19  1  0.00770800  0.29509400  0.79907800  1
  Au  Au20  1  0.90980700  0.01765600  0.15467400  1
  Au  Au21  1  0.09019300  0.51765600  0.34532600  1
  Au  Au22  1  0.09019300  0.98234400  0.84532600  1
  Au  Au23  1  0.90980700  0.48234400  0.65467400  1
