# generated using pymatgen
data_Cu(PO3)2
_symmetry_space_group_name_H-M   'P 1'
_cell_length_a   10.12271000
_cell_length_b   9.19430600
_cell_length_c   4.94622080
_cell_angle_alpha   90.00000000
_cell_angle_beta   110.97745651
_cell_angle_gamma   90.00000000
_symmetry_Int_Tables_number   1
_chemical_formula_structural   Cu(PO3)2
_chemical_formula_sum   'Cu4 P8 O24'
_cell_volume   429.83971636
_cell_formula_units_Z   4
loop_
 _symmetry_equiv_pos_site_id
 _symmetry_equiv_pos_as_xyz
  1  'x, y, z'
loop_
 _atom_site_type_symbol
 _atom_site_label
 _atom_site_symmetry_multiplicity
 _atom_site_fract_x
 _atom_site_fract_y
 _atom_site_fract_z
 _atom_site_occupancy
  Cu  Cu0  1  0.00000000  0.87341300  0.25000000  1
  Cu  Cu1  1  0.00000000  0.12658700  0.75000000  1
  Cu  Cu2  1  0.50000000  0.37341300  0.25000000  1
  Cu  Cu3  1  0.50000000  0.62658700  0.75000000  1
  P  P4  1  0.21210600  0.40860800  0.75586100  1
  P  P5  1  0.78789400  0.59139200  0.24413900  1
  P  P6  1  0.78789400  0.40860800  0.74413900  1
  P  P7  1  0.21210600  0.59139200  0.25586100  1
  P  P8  1  0.71210600  0.90860800  0.75586100  1
  P  P9  1  0.28789400  0.09139200  0.24413900  1
  P  P10  1  0.28789400  0.90860800  0.74413900  1
  P  P11  1  0.71210600  0.09139200  0.25586100  1
  O  O12  1  0.62689900  0.58294200  0.13502400  1
  O  O13  1  0.15435600  0.52182900  0.49127200  1
  O  O14  1  0.86030150  0.26638950  0.83502500  1
  O  O15  1  0.15435600  0.47817100  0.99127200  1
  O  O16  1  0.13969850  0.26638950  0.66497500  1
  O  O17  1  0.37310100  0.58294200  0.36497600  1
  O  O18  1  0.84564400  0.47817100  0.50872800  1
  O  O19  1  0.62689900  0.41705800  0.63502400  1
  O  O20  1  0.86030150  0.73361050  0.33502500  1
  O  O21  1  0.84564400  0.52182900  0.00872800  1
  O  O22  1  0.13969850  0.73361050  0.16497500  1
  O  O23  1  0.37310100  0.41705800  0.86497600  1
  O  O24  1  0.12689900  0.08294200  0.13502400  1
  O  O25  1  0.65435600  0.02182900  0.49127200  1
  O  O26  1  0.36030150  0.76638950  0.83502500  1
  O  O27  1  0.65435600  0.97817100  0.99127200  1
  O  O28  1  0.63969850  0.76638950  0.66497500  1
  O  O29  1  0.87310100  0.08294200  0.36497600  1
  O  O30  1  0.34564400  0.97817100  0.50872800  1
  O  O31  1  0.12689900  0.91705800  0.63502400  1
  O  O32  1  0.36030150  0.23361050  0.33502500  1
  O  O33  1  0.34564400  0.02182900  0.00872800  1
  O  O34  1  0.63969850  0.23361050  0.16497500  1
  O  O35  1  0.87310100  0.91705800  0.86497600  1
