# generated using pymatgen
data_Ce2SeF4
_symmetry_space_group_name_H-M   'P 1'
_cell_length_a   4.15835242
_cell_length_b   4.15835242
_cell_length_c   23.10908082
_cell_angle_alpha   90.00000000
_cell_angle_beta   90.00000000
_cell_angle_gamma   120.00000000
_symmetry_Int_Tables_number   1
_chemical_formula_structural   Ce2SeF4
_chemical_formula_sum   'Ce6 Se3 F12'
_cell_volume   346.06357441
_cell_formula_units_Z   3
loop_
 _symmetry_equiv_pos_site_id
 _symmetry_equiv_pos_as_xyz
  1  'x, y, z'
loop_
 _atom_site_type_symbol
 _atom_site_label
 _atom_site_symmetry_multiplicity
 _atom_site_fract_x
 _atom_site_fract_y
 _atom_site_fract_z
 _atom_site_occupancy
  Ce  Ce0  1  0.00000000  0.00000000  0.24380200  1
  Ce  Ce1  1  0.66666667  0.33333333  0.08953133  1
  Ce  Ce2  1  0.66666667  0.33333333  0.57713533  1
  Ce  Ce3  1  0.33333333  0.66666667  0.42286467  1
  Ce  Ce4  1  0.33333333  0.66666667  0.91046867  1
  Ce  Ce5  1  0.00000000  0.00000000  0.75619800  1
  Se  Se6  1  0.00000000  0.00000000  0.00000000  1
  Se  Se7  1  0.66666667  0.33333333  0.33333333  1
  Se  Se8  1  0.33333333  0.66666667  0.66666667  1
  F  F9  1  0.00000000  0.00000000  0.13950100  1
  F  F10  1  0.66666667  0.33333333  0.19383233  1
  F  F11  1  0.33333333  0.66666667  0.09724067  1
  F  F12  1  0.33333333  0.66666667  0.23609267  1
  F  F13  1  0.66666667  0.33333333  0.47283433  1
  F  F14  1  0.33333333  0.66666667  0.52716567  1
  F  F15  1  0.00000000  0.00000000  0.43057400  1
  F  F16  1  0.00000000  0.00000000  0.56942600  1
  F  F17  1  0.33333333  0.66666667  0.80616767  1
  F  F18  1  0.00000000  0.00000000  0.86049900  1
  F  F19  1  0.66666667  0.33333333  0.76390733  1
  F  F20  1  0.66666667  0.33333333  0.90275933  1
