# generated using pymatgen
data_Ho4Sb3
_symmetry_space_group_name_H-M   'P 1'
_cell_length_a   9.15949000
_cell_length_b   9.15949000
_cell_length_c   9.15949000
_cell_angle_alpha   90.00000000
_cell_angle_beta   90.00000000
_cell_angle_gamma   90.00000000
_symmetry_Int_Tables_number   1
_chemical_formula_structural   Ho4Sb3
_chemical_formula_sum   'Ho16 Sb12'
_cell_volume   768.44692758
_cell_formula_units_Z   4
loop_
 _symmetry_equiv_pos_site_id
 _symmetry_equiv_pos_as_xyz
  1  'x, y, z'
loop_
 _atom_site_type_symbol
 _atom_site_label
 _atom_site_symmetry_multiplicity
 _atom_site_fract_x
 _atom_site_fract_y
 _atom_site_fract_z
 _atom_site_occupancy
  Ho  Ho0  1  0.17739500  0.82260500  0.32260500  1
  Ho  Ho1  1  0.07260500  0.57260500  0.92739500  1
  Ho  Ho2  1  0.17739500  0.17739500  0.17739500  1
  Ho  Ho3  1  0.32260500  0.17739500  0.82260500  1
  Ho  Ho4  1  0.42739500  0.42739500  0.42739500  1
  Ho  Ho5  1  0.57260500  0.92739500  0.07260500  1
  Ho  Ho6  1  0.92739500  0.07260500  0.57260500  1
  Ho  Ho7  1  0.82260500  0.32260500  0.17739500  1
  Ho  Ho8  1  0.67739500  0.32260500  0.82260500  1
  Ho  Ho9  1  0.57260500  0.07260500  0.42739500  1
  Ho  Ho10  1  0.67739500  0.67739500  0.67739500  1
  Ho  Ho11  1  0.82260500  0.67739500  0.32260500  1
  Ho  Ho12  1  0.92739500  0.92739500  0.92739500  1
  Ho  Ho13  1  0.07260500  0.42739500  0.57260500  1
  Ho  Ho14  1  0.42739500  0.57260500  0.07260500  1
  Ho  Ho15  1  0.32260500  0.82260500  0.67739500  1
  Sb  Sb16  1  0.75000000  0.37500000  0.50000000  1
  Sb  Sb17  1  0.50000000  0.75000000  0.37500000  1
  Sb  Sb18  1  0.50000000  0.25000000  0.12500000  1
  Sb  Sb19  1  0.37500000  0.50000000  0.75000000  1
  Sb  Sb20  1  0.12500000  0.50000000  0.25000000  1
  Sb  Sb21  1  0.25000000  0.12500000  0.50000000  1
  Sb  Sb22  1  0.25000000  0.87500000  0.00000000  1
  Sb  Sb23  1  0.00000000  0.25000000  0.87500000  1
  Sb  Sb24  1  0.00000000  0.75000000  0.62500000  1
  Sb  Sb25  1  0.87500000  0.00000000  0.25000000  1
  Sb  Sb26  1  0.62500000  0.00000000  0.75000000  1
  Sb  Sb27  1  0.75000000  0.62500000  0.00000000  1
