# generated using pymatgen
data_Fe2(PO4)3
_symmetry_space_group_name_H-M   'P 1'
_cell_length_a   8.49005000
_cell_length_b   8.49005000
_cell_length_c   22.52102664
_cell_angle_alpha   90.00000000
_cell_angle_beta   90.00000000
_cell_angle_gamma   120.00000000
_symmetry_Int_Tables_number   1
_chemical_formula_structural   Fe2(PO4)3
_chemical_formula_sum   'Fe12 P18 O72'
_cell_volume   1405.85105589
_cell_formula_units_Z   6
loop_
 _symmetry_equiv_pos_site_id
 _symmetry_equiv_pos_as_xyz
  1  'x, y, z'
loop_
 _atom_site_type_symbol
 _atom_site_label
 _atom_site_symmetry_multiplicity
 _atom_site_fract_x
 _atom_site_fract_y
 _atom_site_fract_z
 _atom_site_occupancy
  Fe  Fe0  1  0.33333333  0.66666667  0.02083067  1
  Fe  Fe1  1  0.33333333  0.66666667  0.31250267  1
  Fe  Fe2  1  0.00000000  0.00000000  0.14055400  1
  Fe  Fe3  1  0.66666667  0.33333333  0.19277933  1
  Fe  Fe4  1  0.00000000  0.00000000  0.35416400  1
  Fe  Fe5  1  0.00000000  0.00000000  0.64583600  1
  Fe  Fe6  1  0.66666667  0.33333333  0.47388733  1
  Fe  Fe7  1  0.33333333  0.66666667  0.52611267  1
  Fe  Fe8  1  0.66666667  0.33333333  0.68749733  1
  Fe  Fe9  1  0.66666667  0.33333333  0.97916933  1
  Fe  Fe10  1  0.33333333  0.66666667  0.80722067  1
  Fe  Fe11  1  0.00000000  0.00000000  0.85944600  1
  P  P12  1  0.66179200  0.04613700  0.08320100  1
  P  P13  1  0.95386300  0.61565500  0.08320100  1
  P  P14  1  0.71280367  0.71767833  0.25013233  1
  P  P15  1  0.00487467  0.28719633  0.25013233  1
  P  P16  1  0.28232167  0.99512533  0.25013233  1
  P  P17  1  0.38434500  0.33820800  0.08320100  1
  P  P18  1  0.32845867  0.37947033  0.41653433  1
  P  P19  1  0.62052967  0.94898833  0.41653433  1
  P  P20  1  0.37947033  0.05101167  0.58346567  1
  P  P21  1  0.67154133  0.62052967  0.58346567  1
  P  P22  1  0.94898833  0.32845867  0.58346567  1
  P  P23  1  0.05101167  0.67154133  0.41653433  1
  P  P24  1  0.99512533  0.71280367  0.74986767  1
  P  P25  1  0.28719633  0.28232167  0.74986767  1
  P  P26  1  0.04613700  0.38434500  0.91679900  1
  P  P27  1  0.33820800  0.95386300  0.91679900  1
  P  P28  1  0.61565500  0.66179200  0.91679900  1
  P  P29  1  0.71767833  0.00487467  0.74986767  1
  O  O30  1  0.21503067  0.07067033  0.30081933  1
  O  O31  1  0.48230067  0.34733533  0.14158733  1
  O  O32  1  0.17962067  0.20167533  0.08873533  1
  O  O33  1  0.64461200  0.51295400  0.24459800  1
  O  O34  1  0.18436600  0.98599800  0.19174600  1
  O  O35  1  0.48704600  0.13165800  0.24459800  1
  O  O36  1  0.02205467  0.82037933  0.08873533  1
  O  O37  1  0.65266467  0.13496533  0.14158733  1
  O  O38  1  0.92932967  0.14436033  0.30081933  1
  O  O39  1  0.24632100  0.80263200  0.26408300  1
  O  O40  1  0.81102700  0.54836400  0.03251400  1
  O  O41  1  0.46929867  0.88964433  0.06925033  1
  O  O42  1  0.86503467  0.51769933  0.14158733  1
  O  O43  1  0.79832467  0.97794533  0.08873533  1
  O  O44  1  0.73733700  0.18897300  0.03251400  1
  O  O45  1  0.11035567  0.57965433  0.06925033  1
  O  O46  1  0.55631100  0.75367900  0.26408300  1
  O  O47  1  0.01400200  0.19836800  0.19174600  1
  O  O48  1  0.86834200  0.35538800  0.24459800  1
  O  O49  1  0.80163200  0.81563400  0.19174600  1
  O  O50  1  0.19736800  0.44368900  0.26408300  1
  O  O51  1  0.85563967  0.78496933  0.30081933  1
  O  O52  1  0.42034567  0.53070133  0.06925033  1
  O  O53  1  0.45163600  0.26266300  0.03251400  1
  O  O54  1  0.88169733  0.40400367  0.63415267  1
  O  O55  1  0.14896733  0.68066867  0.47492067  1
  O  O56  1  0.84628733  0.53500867  0.42206867  1
  O  O57  1  0.31127867  0.84628733  0.57793133  1
  O  O58  1  0.85103267  0.31933133  0.52507933  1
  O  O59  1  0.15371267  0.46499133  0.57793133  1
  O  O60  1  0.68872133  0.15371267  0.42206867  1
  O  O61  1  0.31933133  0.46829867  0.47492067  1
  O  O62  1  0.59599633  0.47769367  0.63415267  1
  O  O63  1  0.91298767  0.13596533  0.59741633  1
  O  O64  1  0.47769367  0.88169733  0.36584733  1
  O  O65  1  0.13596533  0.22297767  0.40258367  1
  O  O66  1  0.53170133  0.85103267  0.47492067  1
  O  O67  1  0.46499133  0.31127867  0.42206867  1
  O  O68  1  0.40400367  0.52230633  0.36584733  1
  O  O69  1  0.77702233  0.91298767  0.40258367  1
  O  O70  1  0.22297767  0.08701233  0.59741633  1
  O  O71  1  0.68066867  0.53170133  0.52507933  1
  O  O72  1  0.53500867  0.68872133  0.57793133  1
  O  O73  1  0.46829867  0.14896733  0.52507933  1
  O  O74  1  0.86403467  0.77702233  0.59741633  1
  O  O75  1  0.52230633  0.11830267  0.63415267  1
  O  O76  1  0.08701233  0.86403467  0.40258367  1
  O  O77  1  0.11830267  0.59599633  0.36584733  1
  O  O78  1  0.54836400  0.73733700  0.96748600  1
  O  O79  1  0.81563400  0.01400200  0.80825400  1
  O  O80  1  0.51295400  0.86834200  0.75540200  1
  O  O81  1  0.97794533  0.17962067  0.91126467  1
  O  O82  1  0.51769933  0.65266467  0.85841267  1
  O  O83  1  0.82037933  0.79832467  0.91126467  1
  O  O84  1  0.35538800  0.48704600  0.75540200  1
  O  O85  1  0.98599800  0.80163200  0.80825400  1
  O  O86  1  0.26266300  0.81102700  0.96748600  1
  O  O87  1  0.57965433  0.46929867  0.93074967  1
  O  O88  1  0.14436033  0.21503067  0.69918067  1
  O  O89  1  0.80263200  0.55631100  0.73591700  1
  O  O90  1  0.19836800  0.18436600  0.80825400  1
  O  O91  1  0.13165800  0.64461200  0.75540200  1
  O  O92  1  0.07067033  0.85563967  0.69918067  1
  O  O93  1  0.44368900  0.24632100  0.73591700  1
  O  O94  1  0.88964433  0.42034567  0.93074967  1
  O  O95  1  0.34733533  0.86503467  0.85841267  1
  O  O96  1  0.20167533  0.02205467  0.91126467  1
  O  O97  1  0.13496533  0.48230067  0.85841267  1
  O  O98  1  0.53070133  0.11035567  0.93074967  1
  O  O99  1  0.18897300  0.45163600  0.96748600  1
  O  O100  1  0.75367900  0.19736800  0.73591700  1
  O  O101  1  0.78496933  0.92932967  0.69918067  1
