# generated using pymatgen
data_Cu5P3O13
_symmetry_space_group_name_H-M   'P 1'
_cell_length_a   8.09309600
_cell_length_b   6.18595106
_cell_length_c   9.95559297
_cell_angle_alpha   90.00000000
_cell_angle_beta   92.14271597
_cell_angle_gamma   90.00000000
_symmetry_Int_Tables_number   1
_chemical_formula_structural   Cu5P3O13
_chemical_formula_sum   'Cu10 P6 O26'
_cell_volume   498.06329490
_cell_formula_units_Z   2
loop_
 _symmetry_equiv_pos_site_id
 _symmetry_equiv_pos_as_xyz
  1  'x, y, z'
loop_
 _atom_site_type_symbol
 _atom_site_label
 _atom_site_symmetry_multiplicity
 _atom_site_fract_x
 _atom_site_fract_y
 _atom_site_fract_z
 _atom_site_occupancy
  Cu  Cu0  1  0.86424600  0.50051800  0.22230300  1
  Cu  Cu1  1  0.77148800  0.75000000  0.53882200  1
  Cu  Cu2  1  0.22851200  0.25000000  0.46117800  1
  Cu  Cu3  1  0.13575400  0.49948200  0.77769700  1
  Cu  Cu4  1  0.13575400  0.00051800  0.77769700  1
  Cu  Cu5  1  0.15021100  0.25000000  0.07825600  1
  Cu  Cu6  1  0.57139300  0.75000000  0.11278000  1
  Cu  Cu7  1  0.42860700  0.25000000  0.88722000  1
  Cu  Cu8  1  0.86424600  0.99948200  0.22230300  1
  Cu  Cu9  1  0.84978900  0.75000000  0.92174400  1
  P  P10  1  0.86771800  0.25000000  0.49542600  1
  P  P11  1  0.13228200  0.75000000  0.50457400  1
  P  P12  1  0.48925600  0.75000000  0.77065600  1
  P  P13  1  0.84105300  0.25000000  0.88789700  1
  P  P14  1  0.15894700  0.75000000  0.11210300  1
  P  P15  1  0.51074400  0.25000000  0.22934400  1
  O  O16  1  0.04235500  0.25000000  0.57094400  1
  O  O17  1  0.08923700  0.75000000  0.66091800  1
  O  O18  1  0.37546900  0.95451600  0.78182300  1
  O  O19  1  0.09824100  0.54274200  0.18711900  1
  O  O20  1  0.61023200  0.75000000  0.89734300  1
  O  O21  1  0.90175900  0.04274200  0.81288100  1
  O  O22  1  0.23738800  0.94583500  0.46931100  1
  O  O23  1  0.09824100  0.95725800  0.18711900  1
  O  O24  1  0.38976800  0.25000000  0.10265700  1
  O  O25  1  0.91098200  0.25000000  0.03632700  1
  O  O26  1  0.34457600  0.75000000  0.11284000  1
  O  O27  1  0.62453100  0.45451600  0.21817700  1
  O  O28  1  0.42362500  0.25000000  0.36046900  1
  O  O29  1  0.19398100  0.25000000  0.88068400  1
  O  O30  1  0.37546900  0.54548400  0.78182300  1
  O  O31  1  0.76261200  0.44583500  0.53068900  1
  O  O32  1  0.95764500  0.75000000  0.42905600  1
  O  O33  1  0.90175900  0.45725800  0.81288100  1
  O  O34  1  0.91076300  0.25000000  0.33908200  1
  O  O35  1  0.57637500  0.75000000  0.63953100  1
  O  O36  1  0.23738800  0.55416500  0.46931100  1
  O  O37  1  0.76261200  0.05416500  0.53068900  1
  O  O38  1  0.08901800  0.75000000  0.96367300  1
  O  O39  1  0.80601900  0.75000000  0.11931600  1
  O  O40  1  0.62453100  0.04548400  0.21817700  1
  O  O41  1  0.65542400  0.25000000  0.88716000  1
