# generated using pymatgen
data_Ni3(PbS)2
_symmetry_space_group_name_H-M   'P 1'
_cell_length_a   5.67526212
_cell_length_b   5.67526212
_cell_length_c   13.79528066
_cell_angle_alpha   90.00000000
_cell_angle_beta   90.00000000
_cell_angle_gamma   120.00000000
_symmetry_Int_Tables_number   1
_chemical_formula_structural   Ni3(PbS)2
_chemical_formula_sum   'Ni9 Pb6 S6'
_cell_volume   384.79819144
_cell_formula_units_Z   3
loop_
 _symmetry_equiv_pos_site_id
 _symmetry_equiv_pos_as_xyz
  1  'x, y, z'
loop_
 _atom_site_type_symbol
 _atom_site_label
 _atom_site_symmetry_multiplicity
 _atom_site_fract_x
 _atom_site_fract_y
 _atom_site_fract_z
 _atom_site_occupancy
  Ni  Ni0  1  0.16666667  0.33333333  0.83333333  1
  Ni  Ni1  1  0.33333333  0.16666667  0.16666667  1
  Ni  Ni2  1  0.83333333  0.16666667  0.16666667  1
  Ni  Ni3  1  0.83333333  0.66666667  0.16666667  1
  Ni  Ni4  1  0.00000000  0.50000000  0.50000000  1
  Ni  Ni5  1  0.50000000  0.50000000  0.50000000  1
  Ni  Ni6  1  0.50000000  0.00000000  0.50000000  1
  Ni  Ni7  1  0.66666667  0.83333333  0.83333333  1
  Ni  Ni8  1  0.16666667  0.83333333  0.83333333  1
  Pb  Pb9  1  0.00000000  0.00000000  0.00000000  1
  Pb  Pb10  1  0.33333333  0.66666667  0.16666667  1
  Pb  Pb11  1  0.66666667  0.33333333  0.33333333  1
  Pb  Pb12  1  1.00000000  1.00000000  0.50000000  1
  Pb  Pb13  1  0.33333333  0.66666667  0.66666667  1
  Pb  Pb14  1  0.66666667  0.33333333  0.83333333  1
  S  S15  1  0.33333333  0.66666667  0.39552367  1
  S  S16  1  0.33333333  0.66666667  0.93780967  1
  S  S17  1  0.00000000  0.00000000  0.72885700  1
  S  S18  1  0.00000000  0.00000000  0.27114300  1
  S  S19  1  0.66666667  0.33333333  0.06219033  1
  S  S20  1  0.66666667  0.33333333  0.60447633  1
