# generated using pymatgen
data_Y4CI5
_symmetry_space_group_name_H-M   'P 1'
_cell_length_a   19.27378800
_cell_length_b   3.97942800
_cell_length_c   8.60615076
_cell_angle_alpha   90.00000000
_cell_angle_beta   102.45135690
_cell_angle_gamma   90.00000000
_symmetry_Int_Tables_number   1
_chemical_formula_structural   Y4CI5
_chemical_formula_sum   'Y8 C2 I10'
_cell_volume   644.55468299
_cell_formula_units_Z   2
loop_
 _symmetry_equiv_pos_site_id
 _symmetry_equiv_pos_as_xyz
  1  'x, y, z'
loop_
 _atom_site_type_symbol
 _atom_site_label
 _atom_site_symmetry_multiplicity
 _atom_site_fract_x
 _atom_site_fract_y
 _atom_site_fract_z
 _atom_site_occupancy
  Y  Y0  1  0.62770200  0.00000000  0.06317000  1
  Y  Y1  1  0.99954600  0.00000000  0.18916400  1
  Y  Y2  1  0.87229800  0.50000000  0.93683000  1
  Y  Y3  1  0.50045400  0.50000000  0.81083600  1
  Y  Y4  1  0.12770200  0.50000000  0.06317000  1
  Y  Y5  1  0.49954600  0.50000000  0.18916400  1
  Y  Y6  1  0.37229800  0.00000000  0.93683000  1
  Y  Y7  1  0.00045400  0.00000000  0.81083600  1
  C  C8  1  0.00000000  0.50000000  0.00000000  1
  C  C9  1  0.50000000  0.00000000  0.00000000  1
  I  I10  1  0.66264100  0.50000000  0.33899700  1
  I  I11  1  0.66638300  0.50000000  0.82196200  1
  I  I12  1  0.83361700  0.00000000  0.17803800  1
  I  I13  1  0.00000000  0.50000000  0.50000000  1
  I  I14  1  0.83735900  0.00000000  0.66100300  1
  I  I15  1  0.16264100  0.00000000  0.33899700  1
  I  I16  1  0.16638300  0.00000000  0.82196200  1
  I  I17  1  0.33361700  0.50000000  0.17803800  1
  I  I18  1  0.50000000  0.00000000  0.50000000  1
  I  I19  1  0.33735900  0.50000000  0.66100300  1
