# generated using pymatgen
data_Fe3W3C
_symmetry_space_group_name_H-M   'P 1'
_cell_length_a   11.07567800
_cell_length_b   11.07567800
_cell_length_c   11.07567800
_cell_angle_alpha   90.00000000
_cell_angle_beta   90.00000000
_cell_angle_gamma   90.00000000
_symmetry_Int_Tables_number   1
_chemical_formula_structural   Fe3W3C
_chemical_formula_sum   'Fe48 W48 C16'
_cell_volume   1358.66054369
_cell_formula_units_Z   16
loop_
 _symmetry_equiv_pos_site_id
 _symmetry_equiv_pos_as_xyz
  1  'x, y, z'
loop_
 _atom_site_type_symbol
 _atom_site_label
 _atom_site_symmetry_multiplicity
 _atom_site_fract_x
 _atom_site_fract_y
 _atom_site_fract_z
 _atom_site_occupancy
  Fe  Fe0  1  0.17269433  0.32730567  0.17269433  1
  Fe  Fe1  1  0.57730567  0.07730567  0.42269433  1
  Fe  Fe2  1  0.32730567  0.17269433  0.17269433  1
  Fe  Fe3  1  0.32730567  0.32730567  0.32730567  1
  Fe  Fe4  1  0.17269433  0.17269433  0.32730567  1
  Fe  Fe5  1  0.42269433  0.92269433  0.42269433  1
  Fe  Fe6  1  0.12500000  0.12500000  0.12500000  1
  Fe  Fe7  1  0.92269433  0.07730567  0.07730567  1
  Fe  Fe8  1  0.07730567  0.92269433  0.07730567  1
  Fe  Fe9  1  0.87500000  0.87500000  0.12500000  1
  Fe  Fe10  1  0.62500000  0.87500000  0.37500000  1
  Fe  Fe11  1  0.37500000  0.12500000  0.37500000  1
  Fe  Fe12  1  0.17269433  0.82730567  0.67269433  1
  Fe  Fe13  1  0.57730567  0.57730567  0.92269433  1
  Fe  Fe14  1  0.32730567  0.67269433  0.67269433  1
  Fe  Fe15  1  0.32730567  0.82730567  0.82730567  1
  Fe  Fe16  1  0.17269433  0.67269433  0.82730567  1
  Fe  Fe17  1  0.42269433  0.42269433  0.92269433  1
  Fe  Fe18  1  0.12500000  0.62500000  0.62500000  1
  Fe  Fe19  1  0.92269433  0.57730567  0.57730567  1
  Fe  Fe20  1  0.07730567  0.42269433  0.57730567  1
  Fe  Fe21  1  0.87500000  0.37500000  0.62500000  1
  Fe  Fe22  1  0.62500000  0.37500000  0.87500000  1
  Fe  Fe23  1  0.37500000  0.62500000  0.87500000  1
  Fe  Fe24  1  0.67269433  0.32730567  0.67269433  1
  Fe  Fe25  1  0.07730567  0.07730567  0.92269433  1
  Fe  Fe26  1  0.82730567  0.17269433  0.67269433  1
  Fe  Fe27  1  0.82730567  0.32730567  0.82730567  1
  Fe  Fe28  1  0.67269433  0.17269433  0.82730567  1
  Fe  Fe29  1  0.92269433  0.92269433  0.92269433  1
  Fe  Fe30  1  0.62500000  0.12500000  0.62500000  1
  Fe  Fe31  1  0.42269433  0.07730567  0.57730567  1
  Fe  Fe32  1  0.57730567  0.92269433  0.57730567  1
  Fe  Fe33  1  0.37500000  0.87500000  0.62500000  1
  Fe  Fe34  1  0.12500000  0.87500000  0.87500000  1
  Fe  Fe35  1  0.87500000  0.12500000  0.87500000  1
  Fe  Fe36  1  0.67269433  0.82730567  0.17269433  1
  Fe  Fe37  1  0.07730567  0.57730567  0.42269433  1
  Fe  Fe38  1  0.82730567  0.67269433  0.17269433  1
  Fe  Fe39  1  0.82730567  0.82730567  0.32730567  1
  Fe  Fe40  1  0.67269433  0.67269433  0.32730567  1
  Fe  Fe41  1  0.92269433  0.42269433  0.42269433  1
  Fe  Fe42  1  0.62500000  0.62500000  0.12500000  1
  Fe  Fe43  1  0.42269433  0.57730567  0.07730567  1
  Fe  Fe44  1  0.57730567  0.42269433  0.07730567  1
  Fe  Fe45  1  0.37500000  0.37500000  0.12500000  1
  Fe  Fe46  1  0.12500000  0.37500000  0.37500000  1
  Fe  Fe47  1  0.87500000  0.62500000  0.37500000  1
  W  W48  1  0.04667700  0.75000000  0.25000000  1
  W  W49  1  0.25000000  0.75000000  0.45332300  1
  W  W50  1  0.20332300  0.00000000  0.50000000  1
  W  W51  1  0.25000000  0.75000000  0.04667700  1
  W  W52  1  0.79667700  0.00000000  0.50000000  1
  W  W53  1  0.50000000  0.00000000  0.20332300  1
  W  W54  1  0.00000000  0.00000000  0.29667700  1
  W  W55  1  0.25000000  0.95332300  0.25000000  1
  W  W56  1  0.45332300  0.75000000  0.25000000  1
  W  W57  1  0.50000000  0.29667700  0.50000000  1
  W  W58  1  0.50000000  0.70332300  0.50000000  1
  W  W59  1  0.25000000  0.54667700  0.25000000  1
  W  W60  1  0.04667700  0.25000000  0.75000000  1
  W  W61  1  0.25000000  0.25000000  0.95332300  1
  W  W62  1  0.20332300  0.50000000  0.00000000  1
  W  W63  1  0.25000000  0.25000000  0.54667700  1
  W  W64  1  0.79667700  0.50000000  0.00000000  1
  W  W65  1  0.50000000  0.50000000  0.70332300  1
  W  W66  1  0.00000000  0.50000000  0.79667700  1
  W  W67  1  0.25000000  0.45332300  0.75000000  1
  W  W68  1  0.45332300  0.25000000  0.75000000  1
  W  W69  1  0.50000000  0.79667700  0.00000000  1
  W  W70  1  0.50000000  0.20332300  0.00000000  1
  W  W71  1  0.25000000  0.04667700  0.75000000  1
  W  W72  1  0.54667700  0.75000000  0.75000000  1
  W  W73  1  0.75000000  0.75000000  0.95332300  1
  W  W74  1  0.70332300  0.00000000  0.00000000  1
  W  W75  1  0.75000000  0.75000000  0.54667700  1
  W  W76  1  0.29667700  0.00000000  0.00000000  1
  W  W77  1  0.00000000  0.00000000  0.70332300  1
  W  W78  1  0.50000000  0.00000000  0.79667700  1
  W  W79  1  0.75000000  0.95332300  0.75000000  1
  W  W80  1  0.95332300  0.75000000  0.75000000  1
  W  W81  1  0.00000000  0.29667700  0.00000000  1
  W  W82  1  0.00000000  0.70332300  0.00000000  1
  W  W83  1  0.75000000  0.54667700  0.75000000  1
  W  W84  1  0.54667700  0.25000000  0.25000000  1
  W  W85  1  0.75000000  0.25000000  0.45332300  1
  W  W86  1  0.70332300  0.50000000  0.50000000  1
  W  W87  1  0.75000000  0.25000000  0.04667700  1
  W  W88  1  0.29667700  0.50000000  0.50000000  1
  W  W89  1  0.00000000  0.50000000  0.20332300  1
  W  W90  1  0.50000000  0.50000000  0.29667700  1
  W  W91  1  0.75000000  0.45332300  0.25000000  1
  W  W92  1  0.95332300  0.25000000  0.25000000  1
  W  W93  1  0.00000000  0.79667700  0.50000000  1
  W  W94  1  0.00000000  0.20332300  0.50000000  1
  W  W95  1  0.75000000  0.04667700  0.25000000  1
  C  C96  1  0.37500000  0.62500000  0.37500000  1
  C  C97  1  0.12500000  0.62500000  0.12500000  1
  C  C98  1  0.12500000  0.87500000  0.37500000  1
  C  C99  1  0.37500000  0.87500000  0.12500000  1
  C  C100  1  0.37500000  0.12500000  0.87500000  1
  C  C101  1  0.12500000  0.12500000  0.62500000  1
  C  C102  1  0.12500000  0.37500000  0.87500000  1
  C  C103  1  0.37500000  0.37500000  0.62500000  1
  C  C104  1  0.87500000  0.62500000  0.87500000  1
  C  C105  1  0.62500000  0.62500000  0.62500000  1
  C  C106  1  0.62500000  0.87500000  0.87500000  1
  C  C107  1  0.87500000  0.87500000  0.62500000  1
  C  C108  1  0.87500000  0.12500000  0.37500000  1
  C  C109  1  0.62500000  0.12500000  0.12500000  1
  C  C110  1  0.62500000  0.37500000  0.37500000  1
  C  C111  1  0.87500000  0.37500000  0.12500000  1
