# generated using pymatgen
data_U4Si6Tc7
_symmetry_space_group_name_H-M   'P 1'
_cell_length_a   8.21987400
_cell_length_b   8.21987400
_cell_length_c   8.21987400
_cell_angle_alpha   90.00000000
_cell_angle_beta   90.00000000
_cell_angle_gamma   90.00000000
_symmetry_Int_Tables_number   1
_chemical_formula_structural   U4Si6Tc7
_chemical_formula_sum   'U8 Si12 Tc14'
_cell_volume   555.38670754
_cell_formula_units_Z   2
loop_
 _symmetry_equiv_pos_site_id
 _symmetry_equiv_pos_as_xyz
  1  'x, y, z'
loop_
 _atom_site_type_symbol
 _atom_site_label
 _atom_site_symmetry_multiplicity
 _atom_site_fract_x
 _atom_site_fract_y
 _atom_site_fract_z
 _atom_site_occupancy
  U  U0  1  0.25000000  0.25000000  0.25000000  1
  U  U1  1  0.25000000  0.75000000  0.25000000  1
  U  U2  1  0.75000000  0.25000000  0.25000000  1
  U  U3  1  0.25000000  0.25000000  0.75000000  1
  U  U4  1  0.75000000  0.75000000  0.75000000  1
  U  U5  1  0.75000000  0.25000000  0.75000000  1
  U  U6  1  0.25000000  0.75000000  0.75000000  1
  U  U7  1  0.75000000  0.75000000  0.25000000  1
  Si  Si8  1  0.00000000  0.69011800  0.00000000  1
  Si  Si9  1  0.00000000  0.00000000  0.69011800  1
  Si  Si10  1  0.00000000  0.00000000  0.30988200  1
  Si  Si11  1  0.69011800  0.00000000  0.00000000  1
  Si  Si12  1  0.30988200  0.00000000  0.00000000  1
  Si  Si13  1  0.00000000  0.30988200  0.00000000  1
  Si  Si14  1  0.50000000  0.19011800  0.50000000  1
  Si  Si15  1  0.50000000  0.50000000  0.19011800  1
  Si  Si16  1  0.50000000  0.50000000  0.80988200  1
  Si  Si17  1  0.19011800  0.50000000  0.50000000  1
  Si  Si18  1  0.80988200  0.50000000  0.50000000  1
  Si  Si19  1  0.50000000  0.80988200  0.50000000  1
  Tc  Tc20  1  0.25000000  0.00000000  0.50000000  1
  Tc  Tc21  1  0.00000000  0.50000000  0.25000000  1
  Tc  Tc22  1  0.50000000  0.00000000  0.25000000  1
  Tc  Tc23  1  0.50000000  0.25000000  0.00000000  1
  Tc  Tc24  1  0.00000000  0.00000000  0.00000000  1
  Tc  Tc25  1  0.25000000  0.50000000  0.00000000  1
  Tc  Tc26  1  0.00000000  0.25000000  0.50000000  1
  Tc  Tc27  1  0.75000000  0.50000000  0.00000000  1
  Tc  Tc28  1  0.50000000  0.00000000  0.75000000  1
  Tc  Tc29  1  0.00000000  0.50000000  0.75000000  1
  Tc  Tc30  1  0.00000000  0.75000000  0.50000000  1
  Tc  Tc31  1  0.50000000  0.50000000  0.50000000  1
  Tc  Tc32  1  0.75000000  0.00000000  0.50000000  1
  Tc  Tc33  1  0.50000000  0.75000000  0.00000000  1
