# generated using pymatgen
data_NiH8(ClO2)2
_symmetry_space_group_name_H-M   'P 1'
_cell_length_a   5.96789300
_cell_length_b   9.37691200
_cell_length_c   11.52735655
_cell_angle_alpha   90.00000000
_cell_angle_beta   110.76651988
_cell_angle_gamma   90.00000000
_symmetry_Int_Tables_number   1
_chemical_formula_structural   NiH8(ClO2)2
_chemical_formula_sum   'Ni4 H32 Cl8 O16'
_cell_volume   603.16695772
_cell_formula_units_Z   4
loop_
 _symmetry_equiv_pos_site_id
 _symmetry_equiv_pos_as_xyz
  1  'x, y, z'
loop_
 _atom_site_type_symbol
 _atom_site_label
 _atom_site_symmetry_multiplicity
 _atom_site_fract_x
 _atom_site_fract_y
 _atom_site_fract_z
 _atom_site_occupancy
  Ni  Ni0  1  0.24879900  0.32843000  0.76236100  1
  Ni  Ni1  1  0.75120100  0.82843000  0.73763900  1
  Ni  Ni2  1  0.75120100  0.67157000  0.23763900  1
  Ni  Ni3  1  0.24879900  0.17157000  0.26236100  1
  H  H4  1  0.48525100  0.55964800  0.89951600  1
  H  H5  1  0.51474900  0.05964800  0.60048400  1
  H  H6  1  0.51474900  0.44035200  0.10048400  1
  H  H7  1  0.48525100  0.94035200  0.39951600  1
  H  H8  1  0.20683700  0.56835100  0.88765900  1
  H  H9  1  0.79316300  0.06835100  0.61234100  1
  H  H10  1  0.79316300  0.43164900  0.11234100  1
  H  H11  1  0.20683700  0.93164900  0.38765900  1
  H  H12  1  0.99669100  0.56068400  0.64498000  1
  H  H13  1  0.00330900  0.06068400  0.85502000  1
  H  H14  1  0.00330900  0.43931600  0.35502000  1
  H  H15  1  0.99669100  0.93931600  0.14498000  1
  H  H16  1  0.86987600  0.42439000  0.56361200  1
  H  H17  1  0.13012400  0.92439000  0.93638800  1
  H  H18  1  0.03448200  0.29990600  0.92359200  1
  H  H19  1  0.13012400  0.57561000  0.43638800  1
  H  H20  1  0.53077800  0.48666300  0.68281000  1
  H  H21  1  0.46922200  0.98666300  0.81719000  1
  H  H22  1  0.46922200  0.51333700  0.31719000  1
  H  H23  1  0.53077800  0.01333700  0.18281000  1
  H  H24  1  0.48658300  0.34351900  0.61032700  1
  H  H25  1  0.51341700  0.84351900  0.88967300  1
  H  H26  1  0.51341700  0.65648100  0.38967300  1
  H  H27  1  0.48658300  0.15648100  0.11032700  1
  H  H28  1  0.82675700  0.31093100  0.79169400  1
  H  H29  1  0.17324300  0.81093100  0.70830600  1
  H  H30  1  0.17324300  0.68906900  0.20830600  1
  H  H31  1  0.82675700  0.18906900  0.29169400  1
  H  H32  1  0.03448200  0.20009400  0.42359200  1
  H  H33  1  0.96551800  0.70009400  0.07640800  1
  H  H34  1  0.96551800  0.79990600  0.57640800  1
  H  H35  1  0.86987600  0.07561000  0.06361200  1
  Cl  Cl36  1  0.51933200  0.18743500  0.92679600  1
  Cl  Cl37  1  0.48066800  0.68743500  0.57320400  1
  Cl  Cl38  1  0.48066800  0.81256500  0.07320400  1
  Cl  Cl39  1  0.51933200  0.31256500  0.42679600  1
  Cl  Cl40  1  0.14748500  0.13891600  0.61642200  1
  Cl  Cl41  1  0.85251500  0.63891600  0.88357800  1
  Cl  Cl42  1  0.85251500  0.86108400  0.38357800  1
  Cl  Cl43  1  0.14748500  0.36108400  0.11642200  1
  O  O44  1  0.32843200  0.51254800  0.86755000  1
  O  O45  1  0.67156800  0.01254800  0.63245000  1
  O  O46  1  0.67156800  0.48745200  0.13245000  1
  O  O47  1  0.32843200  0.98745200  0.36755000  1
  O  O48  1  0.01585600  0.45900900  0.62853500  1
  O  O49  1  0.98414400  0.95900900  0.87146500  1
  O  O50  1  0.98414400  0.54099100  0.37146500  1
  O  O51  1  0.01585600  0.04099100  0.12853500  1
  O  O52  1  0.52667600  0.38195100  0.69567900  1
  O  O53  1  0.47332400  0.88195100  0.80432100  1
  O  O54  1  0.47332400  0.61804900  0.30432100  1
  O  O55  1  0.52667600  0.11804900  0.19567900  1
  O  O56  1  0.98778300  0.26901900  0.83556900  1
  O  O57  1  0.01221700  0.76901900  0.66443100  1
  O  O58  1  0.01221700  0.73098100  0.16443100  1
  O  O59  1  0.98778300  0.23098100  0.33556900  1
