# generated using pymatgen
data_Th11(Ru2C3)6
_symmetry_space_group_name_H-M   'P 1'
_cell_length_a   10.83113800
_cell_length_b   10.83113800
_cell_length_c   10.83113800
_cell_angle_alpha   90.00000000
_cell_angle_beta   90.00000000
_cell_angle_gamma   90.00000000
_symmetry_Int_Tables_number   1
_chemical_formula_structural   Th11(Ru2C3)6
_chemical_formula_sum   'Th22 Ru24 C36'
_cell_volume   1270.63925338
_cell_formula_units_Z   2
loop_
 _symmetry_equiv_pos_site_id
 _symmetry_equiv_pos_as_xyz
  1  'x, y, z'
loop_
 _atom_site_type_symbol
 _atom_site_label
 _atom_site_symmetry_multiplicity
 _atom_site_fract_x
 _atom_site_fract_y
 _atom_site_fract_z
 _atom_site_occupancy
  Th  Th0  1  0.29706450  0.29706450  0.29706450  1
  Th  Th1  1  0.20293550  0.79706450  0.20293550  1
  Th  Th2  1  0.79706450  0.20293550  0.20293550  1
  Th  Th3  1  0.20293550  0.20293550  0.79706450  1
  Th  Th4  1  0.00000000  0.25000000  0.50000000  1
  Th  Th5  1  0.50000000  0.00000000  0.25000000  1
  Th  Th6  1  0.00000000  0.50000000  0.25000000  1
  Th  Th7  1  0.25000000  0.50000000  0.00000000  1
  Th  Th8  1  0.25000000  0.00000000  0.50000000  1
  Th  Th9  1  0.50000000  0.25000000  0.00000000  1
  Th  Th10  1  0.00000000  0.00000000  0.00000000  1
  Th  Th11  1  0.79706450  0.79706450  0.79706450  1
  Th  Th12  1  0.70293550  0.29706450  0.70293550  1
  Th  Th13  1  0.29706450  0.70293550  0.70293550  1
  Th  Th14  1  0.70293550  0.70293550  0.29706450  1
  Th  Th15  1  0.50000000  0.75000000  0.00000000  1
  Th  Th16  1  0.00000000  0.50000000  0.75000000  1
  Th  Th17  1  0.50000000  0.00000000  0.75000000  1
  Th  Th18  1  0.75000000  0.00000000  0.50000000  1
  Th  Th19  1  0.75000000  0.50000000  0.00000000  1
  Th  Th20  1  0.00000000  0.75000000  0.50000000  1
  Th  Th21  1  0.50000000  0.50000000  0.50000000  1
  Ru  Ru22  1  0.78279050  0.41486550  0.41486550  1
  Ru  Ru23  1  0.41486550  0.78279050  0.41486550  1
  Ru  Ru24  1  0.91486550  0.71720950  0.08513450  1
  Ru  Ru25  1  0.71720950  0.91486550  0.08513450  1
  Ru  Ru26  1  0.08513450  0.08513450  0.28279050  1
  Ru  Ru27  1  0.71720950  0.08513450  0.91486550  1
  Ru  Ru28  1  0.08513450  0.71720950  0.91486550  1
  Ru  Ru29  1  0.91486550  0.08513450  0.71720950  1
  Ru  Ru30  1  0.08513450  0.91486550  0.71720950  1
  Ru  Ru31  1  0.41486550  0.41486550  0.78279050  1
  Ru  Ru32  1  0.08513450  0.28279050  0.08513450  1
  Ru  Ru33  1  0.28279050  0.08513450  0.08513450  1
  Ru  Ru34  1  0.28279050  0.91486550  0.91486550  1
  Ru  Ru35  1  0.91486550  0.28279050  0.91486550  1
  Ru  Ru36  1  0.41486550  0.21720950  0.58513450  1
  Ru  Ru37  1  0.21720950  0.41486550  0.58513450  1
  Ru  Ru38  1  0.58513450  0.58513450  0.78279050  1
  Ru  Ru39  1  0.21720950  0.58513450  0.41486550  1
  Ru  Ru40  1  0.58513450  0.21720950  0.41486550  1
  Ru  Ru41  1  0.41486550  0.58513450  0.21720950  1
  Ru  Ru42  1  0.58513450  0.41486550  0.21720950  1
  Ru  Ru43  1  0.91486550  0.91486550  0.28279050  1
  Ru  Ru44  1  0.58513450  0.78279050  0.58513450  1
  Ru  Ru45  1  0.78279050  0.58513450  0.58513450  1
  C  C46  1  0.43472000  0.00000000  0.00000000  1
  C  C47  1  0.56528000  0.00000000  0.00000000  1
  C  C48  1  0.00000000  0.56528000  0.00000000  1
  C  C49  1  0.00000000  0.43472000  0.00000000  1
  C  C50  1  0.00000000  0.00000000  0.56528000  1
  C  C51  1  0.00000000  0.00000000  0.43472000  1
  C  C52  1  0.26273600  0.26273600  0.04891500  1
  C  C53  1  0.45108500  0.23726400  0.76273600  1
  C  C54  1  0.23726400  0.45108500  0.76273600  1
  C  C55  1  0.23726400  0.54891500  0.23726400  1
  C  C56  1  0.54891500  0.23726400  0.23726400  1
  C  C57  1  0.76273600  0.45108500  0.23726400  1
  C  C58  1  0.26273600  0.04891500  0.26273600  1
  C  C59  1  0.23726400  0.76273600  0.45108500  1
  C  C60  1  0.45108500  0.76273600  0.23726400  1
  C  C61  1  0.76273600  0.23726400  0.45108500  1
  C  C62  1  0.23726400  0.23726400  0.54891500  1
  C  C63  1  0.04891500  0.26273600  0.26273600  1
  C  C64  1  0.93472000  0.50000000  0.50000000  1
  C  C65  1  0.06528000  0.50000000  0.50000000  1
  C  C66  1  0.50000000  0.06528000  0.50000000  1
  C  C67  1  0.50000000  0.93472000  0.50000000  1
  C  C68  1  0.50000000  0.50000000  0.06528000  1
  C  C69  1  0.50000000  0.50000000  0.93472000  1
  C  C70  1  0.76273600  0.76273600  0.54891500  1
  C  C71  1  0.95108500  0.73726400  0.26273600  1
  C  C72  1  0.73726400  0.95108500  0.26273600  1
  C  C73  1  0.73726400  0.04891500  0.73726400  1
  C  C74  1  0.04891500  0.73726400  0.73726400  1
  C  C75  1  0.26273600  0.95108500  0.73726400  1
  C  C76  1  0.76273600  0.54891500  0.76273600  1
  C  C77  1  0.73726400  0.26273600  0.95108500  1
  C  C78  1  0.95108500  0.26273600  0.73726400  1
  C  C79  1  0.26273600  0.73726400  0.95108500  1
  C  C80  1  0.73726400  0.73726400  0.04891500  1
  C  C81  1  0.54891500  0.76273600  0.76273600  1
