# generated using pymatgen
data_La3Si3Cl2
_symmetry_space_group_name_H-M   'P 1'
_cell_length_a   18.19103800
_cell_length_b   4.24702800
_cell_length_c   10.67600969
_cell_angle_alpha   90.00000000
_cell_angle_beta   97.93955853
_cell_angle_gamma   90.00000000
_symmetry_Int_Tables_number   1
_chemical_formula_structural   La3Si3Cl2
_chemical_formula_sum   'La12 Si12 Cl8'
_cell_volume   816.89921863
_cell_formula_units_Z   4
loop_
 _symmetry_equiv_pos_site_id
 _symmetry_equiv_pos_as_xyz
  1  'x, y, z'
loop_
 _atom_site_type_symbol
 _atom_site_label
 _atom_site_symmetry_multiplicity
 _atom_site_fract_x
 _atom_site_fract_y
 _atom_site_fract_z
 _atom_site_occupancy
  La  La0  1  0.68040500  0.00000000  0.14864800  1
  La  La1  1  0.81959500  0.50000000  0.85135200  1
  La  La2  1  0.88437800  0.50000000  0.50953400  1
  La  La3  1  0.61562200  0.00000000  0.49046600  1
  La  La4  1  0.96479000  0.50000000  0.16924400  1
  La  La5  1  0.53521000  0.00000000  0.83075600  1
  La  La6  1  0.18040500  0.50000000  0.14864800  1
  La  La7  1  0.31959500  0.00000000  0.85135200  1
  La  La8  1  0.38437800  0.00000000  0.50953400  1
  La  La9  1  0.11562200  0.50000000  0.49046600  1
  La  La10  1  0.46479000  0.00000000  0.16924400  1
  La  La11  1  0.03521000  0.50000000  0.83075600  1
  Si  Si12  1  0.93574000  0.00000000  0.94933600  1
  Si  Si13  1  0.56426000  0.50000000  0.05066400  1
  Si  Si14  1  0.58844400  0.50000000  0.27698100  1
  Si  Si15  1  0.91155600  0.00000000  0.72301900  1
  Si  Si16  1  0.98116000  0.00000000  0.38842000  1
  Si  Si17  1  0.51884000  0.50000000  0.61158000  1
  Si  Si18  1  0.43574000  0.50000000  0.94933600  1
  Si  Si19  1  0.06426000  0.00000000  0.05066400  1
  Si  Si20  1  0.08844400  0.00000000  0.27698100  1
  Si  Si21  1  0.41155600  0.50000000  0.72301900  1
  Si  Si22  1  0.48116000  0.50000000  0.38842000  1
  Si  Si23  1  0.01884000  0.00000000  0.61158000  1
  Cl  Cl24  1  0.72639100  0.50000000  0.60854400  1
  Cl  Cl25  1  0.77360900  0.00000000  0.39145600  1
  Cl  Cl26  1  0.79717500  0.50000000  0.12603100  1
  Cl  Cl27  1  0.70282500  0.00000000  0.87396900  1
  Cl  Cl28  1  0.22639100  0.00000000  0.60854400  1
  Cl  Cl29  1  0.27360900  0.50000000  0.39145600  1
  Cl  Cl30  1  0.29717500  0.00000000  0.12603100  1
  Cl  Cl31  1  0.20282500  0.50000000  0.87396900  1
