# generated using pymatgen
data_Pu5Ir3
_symmetry_space_group_name_H-M   'P 1'
_cell_length_a   11.14559400
_cell_length_b   11.14559400
_cell_length_c   5.58260800
_cell_angle_alpha   90.00000000
_cell_angle_beta   90.00000000
_cell_angle_gamma   90.00000000
_symmetry_Int_Tables_number   1
_chemical_formula_structural   Pu5Ir3
_chemical_formula_sum   'Pu20 Ir12'
_cell_volume   693.49537900
_cell_formula_units_Z   4
loop_
 _symmetry_equiv_pos_site_id
 _symmetry_equiv_pos_as_xyz
  1  'x, y, z'
loop_
 _atom_site_type_symbol
 _atom_site_label
 _atom_site_symmetry_multiplicity
 _atom_site_fract_x
 _atom_site_fract_y
 _atom_site_fract_z
 _atom_site_occupancy
  Pu  Pu0  1  0.50000000  0.00000000  0.75000000  1
  Pu  Pu1  1  0.50000000  0.00000000  0.25000000  1
  Pu  Pu2  1  0.58247500  0.27903800  0.00000000  1
  Pu  Pu3  1  0.77903800  0.91752500  0.50000000  1
  Pu  Pu4  1  0.22096200  0.08247500  0.50000000  1
  Pu  Pu5  1  0.41752500  0.72096200  0.00000000  1
  Pu  Pu6  1  0.77903800  0.08247500  0.00000000  1
  Pu  Pu7  1  0.22096200  0.91752500  0.00000000  1
  Pu  Pu8  1  0.41752500  0.27903800  0.50000000  1
  Pu  Pu9  1  0.58247500  0.72096200  0.50000000  1
  Pu  Pu10  1  0.00000000  0.50000000  0.25000000  1
  Pu  Pu11  1  0.00000000  0.50000000  0.75000000  1
  Pu  Pu12  1  0.08247500  0.77903800  0.50000000  1
  Pu  Pu13  1  0.27903800  0.41752500  0.00000000  1
  Pu  Pu14  1  0.72096200  0.58247500  0.00000000  1
  Pu  Pu15  1  0.91752500  0.22096200  0.50000000  1
  Pu  Pu16  1  0.27903800  0.58247500  0.50000000  1
  Pu  Pu17  1  0.72096200  0.41752500  0.50000000  1
  Pu  Pu18  1  0.91752500  0.77903800  0.00000000  1
  Pu  Pu19  1  0.08247500  0.22096200  0.00000000  1
  Ir  Ir20  1  0.00000000  0.00000000  0.25000000  1
  Ir  Ir21  1  0.00000000  0.00000000  0.75000000  1
  Ir  Ir22  1  0.66422300  0.83577700  0.00000000  1
  Ir  Ir23  1  0.33577700  0.83577700  0.50000000  1
  Ir  Ir24  1  0.66422300  0.16422300  0.50000000  1
  Ir  Ir25  1  0.33577700  0.16422300  0.00000000  1
  Ir  Ir26  1  0.50000000  0.50000000  0.75000000  1
  Ir  Ir27  1  0.50000000  0.50000000  0.25000000  1
  Ir  Ir28  1  0.16422300  0.33577700  0.50000000  1
  Ir  Ir29  1  0.83577700  0.33577700  0.00000000  1
  Ir  Ir30  1  0.16422300  0.66422300  0.00000000  1
  Ir  Ir31  1  0.83577700  0.66422300  0.50000000  1
