# generated using pymatgen
data_EuGa2
_symmetry_space_group_name_H-M   'P 1'
_cell_length_a   4.63202200
_cell_length_b   7.58184400
_cell_length_c   7.67690400
_cell_angle_alpha   90.00000000
_cell_angle_beta   90.00000000
_cell_angle_gamma   90.00000000
_symmetry_Int_Tables_number   1
_chemical_formula_structural   EuGa2
_chemical_formula_sum   'Eu4 Ga8'
_cell_volume   269.60725059
_cell_formula_units_Z   4
loop_
 _symmetry_equiv_pos_site_id
 _symmetry_equiv_pos_as_xyz
  1  'x, y, z'
loop_
 _atom_site_type_symbol
 _atom_site_label
 _atom_site_symmetry_multiplicity
 _atom_site_fract_x
 _atom_site_fract_y
 _atom_site_fract_z
 _atom_site_occupancy
  Eu  Eu0  1  0.50000000  0.25000000  0.45386900  1
  Eu  Eu1  1  0.50000000  0.75000000  0.54613100  1
  Eu  Eu2  1  0.00000000  0.75000000  0.95386900  1
  Eu  Eu3  1  0.00000000  0.25000000  0.04613100  1
  Ga  Ga4  1  0.50000000  0.93672500  0.16143800  1
  Ga  Ga5  1  0.50000000  0.06327500  0.83856200  1
  Ga  Ga6  1  0.00000000  0.06327500  0.66143800  1
  Ga  Ga7  1  0.00000000  0.93672500  0.33856200  1
  Ga  Ga8  1  0.00000000  0.43672500  0.66143800  1
  Ga  Ga9  1  0.00000000  0.56327500  0.33856200  1
  Ga  Ga10  1  0.50000000  0.56327500  0.16143800  1
  Ga  Ga11  1  0.50000000  0.43672500  0.83856200  1
