# generated using pymatgen
data_Ba2Nb15O32
_symmetry_space_group_name_H-M   'P 1'
_cell_length_a   7.89903428
_cell_length_b   7.89903428
_cell_length_c   36.25427624
_cell_angle_alpha   90.00000000
_cell_angle_beta   90.00000000
_cell_angle_gamma   120.00000000
_symmetry_Int_Tables_number   1
_chemical_formula_structural   Ba2Nb15O32
_chemical_formula_sum   'Ba6 Nb45 O96'
_cell_volume   1959.01548493
_cell_formula_units_Z   3
loop_
 _symmetry_equiv_pos_site_id
 _symmetry_equiv_pos_as_xyz
  1  'x, y, z'
loop_
 _atom_site_type_symbol
 _atom_site_label
 _atom_site_symmetry_multiplicity
 _atom_site_fract_x
 _atom_site_fract_y
 _atom_site_fract_z
 _atom_site_occupancy
  Ba  Ba0  1  0.33333333  0.66666667  0.02804167  1
  Ba  Ba1  1  0.33333333  0.66666667  0.30529167  1
  Ba  Ba2  1  0.00000000  0.00000000  0.36137500  1
  Ba  Ba3  1  0.00000000  0.00000000  0.63862500  1
  Ba  Ba4  1  0.66666667  0.33333333  0.69470833  1
  Ba  Ba5  1  0.66666667  0.33333333  0.97195833  1
  Nb  Nb6  1  0.00000000  0.00000000  0.13922400  1
  Nb  Nb7  1  0.66666667  0.33333333  0.19410933  1
  Nb  Nb8  1  0.55027800  0.86012600  0.13379400  1
  Nb  Nb9  1  0.30984800  0.44972200  0.13379400  1
  Nb  Nb10  1  0.13987400  0.69015200  0.13379400  1
  Nb  Nb11  1  0.11638867  0.47320733  0.19953933  1
  Nb  Nb12  1  0.35681867  0.88361133  0.19953933  1
  Nb  Nb13  1  0.52679267  0.64318133  0.19953933  1
  Nb  Nb14  1  0.26453800  0.18771500  0.26614600  1
  Nb  Nb15  1  0.92317700  0.73546200  0.26614600  1
  Nb  Nb16  1  0.81228500  0.07682300  0.26614600  1
  Nb  Nb17  1  0.40212867  0.14561833  0.06718733  1
  Nb  Nb18  1  0.74348967  0.59787133  0.06718733  1
  Nb  Nb19  1  0.85438167  0.25651033  0.06718733  1
  Nb  Nb20  1  0.00000000  0.00000000  0.00000000  1
  Nb  Nb21  1  0.66666667  0.33333333  0.47255733  1
  Nb  Nb22  1  0.33333333  0.66666667  0.52744267  1
  Nb  Nb23  1  0.21694467  0.19345933  0.46712733  1
  Nb  Nb24  1  0.97651467  0.78305533  0.46712733  1
  Nb  Nb25  1  0.80654067  0.02348533  0.46712733  1
  Nb  Nb26  1  0.78305533  0.80654067  0.53287267  1
  Nb  Nb27  1  0.02348533  0.21694467  0.53287267  1
  Nb  Nb28  1  0.19345933  0.97651467  0.53287267  1
  Nb  Nb29  1  0.93120467  0.52104833  0.59947933  1
  Nb  Nb30  1  0.58984367  0.06879533  0.59947933  1
  Nb  Nb31  1  0.47895167  0.41015633  0.59947933  1
  Nb  Nb32  1  0.06879533  0.47895167  0.40052067  1
  Nb  Nb33  1  0.41015633  0.93120467  0.40052067  1
  Nb  Nb34  1  0.52104833  0.58984367  0.40052067  1
  Nb  Nb35  1  0.66666667  0.33333333  0.33333333  1
  Nb  Nb36  1  0.33333333  0.66666667  0.80589067  1
  Nb  Nb37  1  0.00000000  0.00000000  0.86077600  1
  Nb  Nb38  1  0.88361133  0.52679267  0.80046067  1
  Nb  Nb39  1  0.64318133  0.11638867  0.80046067  1
  Nb  Nb40  1  0.47320733  0.35681867  0.80046067  1
  Nb  Nb41  1  0.44972200  0.13987400  0.86620600  1
  Nb  Nb42  1  0.69015200  0.55027800  0.86620600  1
  Nb  Nb43  1  0.86012600  0.30984800  0.86620600  1
  Nb  Nb44  1  0.59787133  0.85438167  0.93281267  1
  Nb  Nb45  1  0.25651033  0.40212867  0.93281267  1
  Nb  Nb46  1  0.14561833  0.74348967  0.93281267  1
  Nb  Nb47  1  0.73546200  0.81228500  0.73385400  1
  Nb  Nb48  1  0.07682300  0.26453800  0.73385400  1
  Nb  Nb49  1  0.18771500  0.92317700  0.73385400  1
  Nb  Nb50  1  0.33333333  0.66666667  0.66666667  1
  O  O51  1  0.20443533  0.98823667  0.03187167  1
  O  O52  1  0.78380133  0.79556467  0.03187167  1
  O  O53  1  0.01176333  0.21619867  0.03187167  1
  O  O54  1  0.46223133  0.34509667  0.30146167  1
  O  O55  1  0.88286533  0.53776867  0.30146167  1
  O  O56  1  0.65490333  0.11713467  0.30146167  1
  O  O57  1  0.90263500  0.51025500  0.03998700  1
  O  O58  1  0.60762000  0.09736500  0.03998700  1
  O  O59  1  0.48974500  0.39238000  0.03998700  1
  O  O60  1  0.76403167  0.82307833  0.29334633  1
  O  O61  1  0.05904667  0.23596833  0.29334633  1
  O  O62  1  0.17692167  0.94095333  0.29334633  1
  O  O63  1  0.23623400  0.17375700  0.10415700  1
  O  O64  1  0.93752300  0.76376600  0.10415700  1
  O  O65  1  0.82624300  0.06247700  0.10415700  1
  O  O66  1  0.43043267  0.15957633  0.22917633  1
  O  O67  1  0.72914367  0.56956733  0.22917633  1
  O  O68  1  0.53507600  0.63571700  0.09863300  1
  O  O69  1  0.36428300  0.89935900  0.09863300  1
  O  O70  1  0.10064100  0.46492400  0.09863300  1
  O  O71  1  0.13159067  0.69761633  0.23470033  1
  O  O72  1  0.30238367  0.43397433  0.23470033  1
  O  O73  1  0.56602567  0.86840933  0.23470033  1
  O  O74  1  0.16968600  0.92968300  0.16694500  1
  O  O75  1  0.07031700  0.24000300  0.16694500  1
  O  O76  1  0.75999700  0.83031400  0.16694500  1
  O  O77  1  0.49698067  0.40365033  0.16638833  1
  O  O78  1  0.59634967  0.09333033  0.16638833  1
  O  O79  1  0.90666967  0.50301933  0.16638833  1
  O  O80  1  0.66666667  0.33333333  0.09523933  1
  O  O81  1  0.00000000  0.00000000  0.23809400  1
  O  O82  1  0.84042367  0.27085633  0.22917633  1
  O  O83  1  0.87110200  0.32157000  0.36520500  1
  O  O84  1  0.45046800  0.12889800  0.36520500  1
  O  O85  1  0.67843000  0.54953200  0.36520500  1
  O  O86  1  0.12889800  0.67843000  0.63479500  1
  O  O87  1  0.54953200  0.87110200  0.63479500  1
  O  O88  1  0.32157000  0.45046800  0.63479500  1
  O  O89  1  0.56930167  0.84358833  0.37332033  1
  O  O90  1  0.27428667  0.43069833  0.37332033  1
  O  O91  1  0.15641167  0.72571333  0.37332033  1
  O  O92  1  0.43069833  0.15641167  0.62667967  1
  O  O93  1  0.72571333  0.56930167  0.62667967  1
  O  O94  1  0.84358833  0.27428667  0.62667967  1
  O  O95  1  0.90290067  0.50709033  0.43749033  1
  O  O96  1  0.60418967  0.09709933  0.43749033  1
  O  O97  1  0.49290967  0.39581033  0.43749033  1
  O  O98  1  0.09709933  0.49290967  0.56250967  1
  O  O99  1  0.39581033  0.90290067  0.56250967  1
  O  O100  1  0.20174267  0.96905033  0.43196633  1
  O  O101  1  0.03094967  0.23269233  0.43196633  1
  O  O102  1  0.76730767  0.79825733  0.43196633  1
  O  O103  1  0.79825733  0.03094967  0.56803367  1
  O  O104  1  0.96905033  0.76730767  0.56803367  1
  O  O105  1  0.23269233  0.20174267  0.56803367  1
  O  O106  1  0.83635267  0.26301633  0.50027833  1
  O  O107  1  0.73698367  0.57333633  0.50027833  1
  O  O108  1  0.42666367  0.16364733  0.50027833  1
  O  O109  1  0.16364733  0.73698367  0.49972167  1
  O  O110  1  0.26301633  0.42666367  0.49972167  1
  O  O111  1  0.57333633  0.83635267  0.49972167  1
  O  O112  1  0.33333333  0.66666667  0.42857267  1
  O  O113  1  0.66666667  0.33333333  0.57142733  1
  O  O114  1  0.50709033  0.60418967  0.56250967  1
  O  O115  1  0.53776867  0.65490333  0.69853833  1
  O  O116  1  0.11713467  0.46223133  0.69853833  1
  O  O117  1  0.34509667  0.88286533  0.69853833  1
  O  O118  1  0.79556467  0.01176333  0.96812833  1
  O  O119  1  0.21619867  0.20443533  0.96812833  1
  O  O120  1  0.98823667  0.78380133  0.96812833  1
  O  O121  1  0.23596833  0.17692167  0.70665367  1
  O  O122  1  0.94095333  0.76403167  0.70665367  1
  O  O123  1  0.82307833  0.05904667  0.70665367  1
  O  O124  1  0.09736500  0.48974500  0.96001300  1
  O  O125  1  0.39238000  0.90263500  0.96001300  1
  O  O126  1  0.51025500  0.60762000  0.96001300  1
  O  O127  1  0.56956733  0.84042367  0.77082367  1
  O  O128  1  0.27085633  0.43043267  0.77082367  1
  O  O129  1  0.15957633  0.72914367  0.77082367  1
  O  O130  1  0.76376600  0.82624300  0.89584300  1
  O  O131  1  0.06247700  0.23623400  0.89584300  1
  O  O132  1  0.86840933  0.30238367  0.76529967  1
  O  O133  1  0.69761633  0.56602567  0.76529967  1
  O  O134  1  0.43397433  0.13159067  0.76529967  1
  O  O135  1  0.46492400  0.36428300  0.90136700  1
  O  O136  1  0.63571700  0.10064100  0.90136700  1
  O  O137  1  0.89935900  0.53507600  0.90136700  1
  O  O138  1  0.50301933  0.59634967  0.83361167  1
  O  O139  1  0.40365033  0.90666967  0.83361167  1
  O  O140  1  0.09333033  0.49698067  0.83361167  1
  O  O141  1  0.83031400  0.07031700  0.83305500  1
  O  O142  1  0.92968300  0.75999700  0.83305500  1
  O  O143  1  0.24000300  0.16968600  0.83305500  1
  O  O144  1  0.00000000  0.00000000  0.76190600  1
  O  O145  1  0.33333333  0.66666667  0.90476067  1
  O  O146  1  0.17375700  0.93752300  0.89584300  1
