# generated using pymatgen
data_Tb(FeSn)6
_symmetry_space_group_name_H-M   'P 1'
_cell_length_a   8.97467800
_cell_length_b   18.75747800
_cell_length_c   5.43278400
_cell_angle_alpha   90.00000000
_cell_angle_beta   90.00000000
_cell_angle_gamma   90.00000000
_symmetry_Int_Tables_number   1
_chemical_formula_structural   Tb(FeSn)6
_chemical_formula_sum   'Tb4 Fe24 Sn24'
_cell_volume   914.56749055
_cell_formula_units_Z   4
loop_
 _symmetry_equiv_pos_site_id
 _symmetry_equiv_pos_as_xyz
  1  'x, y, z'
loop_
 _atom_site_type_symbol
 _atom_site_label
 _atom_site_symmetry_multiplicity
 _atom_site_fract_x
 _atom_site_fract_y
 _atom_site_fract_z
 _atom_site_occupancy
  Tb  Tb0  1  0.00000000  0.12766500  0.25000000  1
  Tb  Tb1  1  0.50000000  0.37233500  0.75000000  1
  Tb  Tb2  1  0.50000000  0.62766500  0.25000000  1
  Tb  Tb3  1  0.00000000  0.87233500  0.75000000  1
  Fe  Fe4  1  0.75000000  0.25000000  0.50000000  1
  Fe  Fe5  1  0.75000000  0.25000000  0.00000000  1
  Fe  Fe6  1  0.25000000  0.25000000  0.50000000  1
  Fe  Fe7  1  0.25000000  0.25000000  0.00000000  1
  Fe  Fe8  1  0.75368900  0.00000000  0.50000000  1
  Fe  Fe9  1  0.24631100  0.00000000  0.00000000  1
  Fe  Fe10  1  0.24631100  0.00000000  0.50000000  1
  Fe  Fe11  1  0.75368900  0.00000000  0.00000000  1
  Fe  Fe12  1  0.75285950  0.12498650  0.75000000  1
  Fe  Fe13  1  0.74714050  0.37501350  0.25000000  1
  Fe  Fe14  1  0.25285950  0.37501350  0.25000000  1
  Fe  Fe15  1  0.24714050  0.12498650  0.75000000  1
  Fe  Fe16  1  0.25000000  0.75000000  0.50000000  1
  Fe  Fe17  1  0.25000000  0.75000000  0.00000000  1
  Fe  Fe18  1  0.75000000  0.75000000  0.50000000  1
  Fe  Fe19  1  0.75000000  0.75000000  0.00000000  1
  Fe  Fe20  1  0.25368900  0.50000000  0.50000000  1
  Fe  Fe21  1  0.74631100  0.50000000  0.00000000  1
  Fe  Fe22  1  0.74631100  0.50000000  0.50000000  1
  Fe  Fe23  1  0.25368900  0.50000000  0.00000000  1
  Fe  Fe24  1  0.25285950  0.62498650  0.75000000  1
  Fe  Fe25  1  0.24714050  0.87501350  0.25000000  1
  Fe  Fe26  1  0.75285950  0.87501350  0.25000000  1
  Fe  Fe27  1  0.74714050  0.62498650  0.75000000  1
  Sn  Sn28  1  0.00000000  0.04204200  0.75000000  1
  Sn  Sn29  1  0.50000000  0.45795800  0.25000000  1
  Sn  Sn30  1  0.50000000  0.04037400  0.75000000  1
  Sn  Sn31  1  0.00000000  0.45962600  0.25000000  1
  Sn  Sn32  1  0.00000000  0.21075800  0.75000000  1
  Sn  Sn33  1  0.50000000  0.28924200  0.25000000  1
  Sn  Sn34  1  0.50000000  0.20480800  0.75000000  1
  Sn  Sn35  1  0.00000000  0.29519200  0.25000000  1
  Sn  Sn36  1  0.66300400  0.12439000  0.25000000  1
  Sn  Sn37  1  0.83699600  0.37561000  0.75000000  1
  Sn  Sn38  1  0.16300400  0.37561000  0.75000000  1
  Sn  Sn39  1  0.33699600  0.12439000  0.25000000  1
  Sn  Sn40  1  0.50000000  0.54204200  0.75000000  1
  Sn  Sn41  1  0.00000000  0.95795800  0.25000000  1
  Sn  Sn42  1  0.00000000  0.54037400  0.75000000  1
  Sn  Sn43  1  0.50000000  0.95962600  0.25000000  1
  Sn  Sn44  1  0.50000000  0.71075800  0.75000000  1
  Sn  Sn45  1  0.00000000  0.78924200  0.25000000  1
  Sn  Sn46  1  0.00000000  0.70480800  0.75000000  1
  Sn  Sn47  1  0.50000000  0.79519200  0.25000000  1
  Sn  Sn48  1  0.16300400  0.62439000  0.25000000  1
  Sn  Sn49  1  0.33699600  0.87561000  0.75000000  1
  Sn  Sn50  1  0.66300400  0.87561000  0.75000000  1
  Sn  Sn51  1  0.83699600  0.62439000  0.25000000  1
