# generated using pymatgen
data_KMoPO6
_symmetry_space_group_name_H-M   'P 1'
_cell_length_a   11.37237600
_cell_length_b   12.62519000
_cell_length_c   15.66105800
_cell_angle_alpha   90.00000000
_cell_angle_beta   90.00000000
_cell_angle_gamma   90.00000000
_symmetry_Int_Tables_number   1
_chemical_formula_structural   KMoPO6
_chemical_formula_sum   'K16 Mo16 P16 O96'
_cell_volume   2248.58977134
_cell_formula_units_Z   16
loop_
 _symmetry_equiv_pos_site_id
 _symmetry_equiv_pos_as_xyz
  1  'x, y, z'
loop_
 _atom_site_type_symbol
 _atom_site_label
 _atom_site_symmetry_multiplicity
 _atom_site_fract_x
 _atom_site_fract_y
 _atom_site_fract_z
 _atom_site_occupancy
  K  K0  1  0.72010900  0.00000000  0.00000000  1
  K  K1  1  0.27989100  0.00000000  0.00000000  1
  K  K2  1  0.52989100  0.25000000  0.25000000  1
  K  K3  1  0.97010900  0.25000000  0.25000000  1
  K  K4  1  0.72010900  0.50000000  0.50000000  1
  K  K5  1  0.27989100  0.50000000  0.50000000  1
  K  K6  1  0.52989100  0.75000000  0.75000000  1
  K  K7  1  0.97010900  0.75000000  0.75000000  1
  K  K8  1  0.22010900  0.00000000  0.50000000  1
  K  K9  1  0.77989100  0.00000000  0.50000000  1
  K  K10  1  0.02989100  0.25000000  0.75000000  1
  K  K11  1  0.47010900  0.25000000  0.75000000  1
  K  K12  1  0.22010900  0.50000000  0.00000000  1
  K  K13  1  0.77989100  0.50000000  0.00000000  1
  K  K14  1  0.02989100  0.75000000  0.25000000  1
  K  K15  1  0.47010900  0.75000000  0.25000000  1
  Mo  Mo16  1  0.50000000  0.72077100  0.00000000  1
  Mo  Mo17  1  0.50000000  0.27922900  0.00000000  1
  Mo  Mo18  1  0.75000000  0.52922900  0.25000000  1
  Mo  Mo19  1  0.75000000  0.97077100  0.25000000  1
  Mo  Mo20  1  0.50000000  0.22077100  0.50000000  1
  Mo  Mo21  1  0.50000000  0.77922900  0.50000000  1
  Mo  Mo22  1  0.75000000  0.02922900  0.75000000  1
  Mo  Mo23  1  0.75000000  0.47077100  0.75000000  1
  Mo  Mo24  1  0.00000000  0.72077100  0.50000000  1
  Mo  Mo25  1  0.00000000  0.27922900  0.50000000  1
  Mo  Mo26  1  0.25000000  0.52922900  0.75000000  1
  Mo  Mo27  1  0.25000000  0.97077100  0.75000000  1
  Mo  Mo28  1  0.00000000  0.22077100  0.00000000  1
  Mo  Mo29  1  0.00000000  0.77922900  0.00000000  1
  Mo  Mo30  1  0.25000000  0.02922900  0.25000000  1
  Mo  Mo31  1  0.25000000  0.47077100  0.25000000  1
  P  P32  1  0.75000000  0.75000000  0.11514400  1
  P  P33  1  0.75000000  0.75000000  0.38485600  1
  P  P34  1  0.00000000  0.00000000  0.13485600  1
  P  P35  1  0.50000000  0.00000000  0.36514400  1
  P  P36  1  0.75000000  0.25000000  0.61514400  1
  P  P37  1  0.75000000  0.25000000  0.88485600  1
  P  P38  1  0.00000000  0.50000000  0.63485600  1
  P  P39  1  0.50000000  0.50000000  0.86514400  1
  P  P40  1  0.25000000  0.75000000  0.61514400  1
  P  P41  1  0.25000000  0.75000000  0.88485600  1
  P  P42  1  0.50000000  0.00000000  0.63485600  1
  P  P43  1  0.00000000  0.00000000  0.86514400  1
  P  P44  1  0.25000000  0.25000000  0.11514400  1
  P  P45  1  0.25000000  0.25000000  0.38485600  1
  P  P46  1  0.50000000  0.50000000  0.13485600  1
  P  P47  1  0.00000000  0.50000000  0.36514400  1
  O  O48  1  0.04732350  0.80807550  0.42185400  1
  O  O49  1  0.54732350  0.19192450  0.07814600  1
  O  O50  1  0.45267650  0.80807550  0.07814600  1
  O  O51  1  0.95267650  0.19192450  0.42185400  1
  O  O52  1  0.20267650  0.94192450  0.32814600  1
  O  O53  1  0.70267650  0.05807550  0.17185400  1
  O  O54  1  0.29732350  0.94192450  0.17185400  1
  O  O55  1  0.79732350  0.05807550  0.32814600  1
  O  O56  1  0.84112250  0.69479900  0.44590350  1
  O  O57  1  0.84112250  0.80520100  0.05409650  1
  O  O58  1  0.65887750  0.69479900  0.05409650  1
  O  O59  1  0.65887750  0.80520100  0.44590350  1
  O  O60  1  0.81022400  0.83619400  0.33189500  1
  O  O61  1  0.81022400  0.66380600  0.16810500  1
  O  O62  1  0.68977600  0.83619400  0.16810500  1
  O  O63  1  0.68977600  0.66380600  0.33189500  1
  O  O64  1  0.93977600  0.41380600  0.41810500  1
  O  O65  1  0.93977600  0.08619400  0.08189500  1
  O  O66  1  0.56022400  0.41380600  0.08189500  1
  O  O67  1  0.56022400  0.08619400  0.41810500  1
  O  O68  1  0.59112250  0.94479900  0.30409650  1
  O  O69  1  0.09112250  0.05520100  0.19590350  1
  O  O70  1  0.90887750  0.94479900  0.19590350  1
  O  O71  1  0.40887750  0.05520100  0.30409650  1
  O  O72  1  0.04732350  0.30807550  0.92185400  1
  O  O73  1  0.54732350  0.69192450  0.57814600  1
  O  O74  1  0.45267650  0.30807550  0.57814600  1
  O  O75  1  0.95267650  0.69192450  0.92185400  1
  O  O76  1  0.20267650  0.44192450  0.82814600  1
  O  O77  1  0.70267650  0.55807550  0.67185400  1
  O  O78  1  0.29732350  0.44192450  0.67185400  1
  O  O79  1  0.79732350  0.55807550  0.82814600  1
  O  O80  1  0.84112250  0.19479900  0.94590350  1
  O  O81  1  0.84112250  0.30520100  0.55409650  1
  O  O82  1  0.65887750  0.19479900  0.55409650  1
  O  O83  1  0.65887750  0.30520100  0.94590350  1
  O  O84  1  0.81022400  0.33619400  0.83189500  1
  O  O85  1  0.81022400  0.16380600  0.66810500  1
  O  O86  1  0.68977600  0.33619400  0.66810500  1
  O  O87  1  0.68977600  0.16380600  0.83189500  1
  O  O88  1  0.93977600  0.91380600  0.91810500  1
  O  O89  1  0.93977600  0.58619400  0.58189500  1
  O  O90  1  0.56022400  0.91380600  0.58189500  1
  O  O91  1  0.56022400  0.58619400  0.91810500  1
  O  O92  1  0.59112250  0.44479900  0.80409650  1
  O  O93  1  0.09112250  0.55520100  0.69590350  1
  O  O94  1  0.90887750  0.44479900  0.69590350  1
  O  O95  1  0.40887750  0.55520100  0.80409650  1
  O  O96  1  0.54732350  0.80807550  0.92185400  1
  O  O97  1  0.04732350  0.19192450  0.57814600  1
  O  O98  1  0.95267650  0.80807550  0.57814600  1
  O  O99  1  0.45267650  0.19192450  0.92185400  1
  O  O100  1  0.70267650  0.94192450  0.82814600  1
  O  O101  1  0.20267650  0.05807550  0.67185400  1
  O  O102  1  0.79732350  0.94192450  0.67185400  1
  O  O103  1  0.29732350  0.05807550  0.82814600  1
  O  O104  1  0.34112250  0.69479900  0.94590350  1
  O  O105  1  0.34112250  0.80520100  0.55409650  1
  O  O106  1  0.15887750  0.69479900  0.55409650  1
  O  O107  1  0.15887750  0.80520100  0.94590350  1
  O  O108  1  0.31022400  0.83619400  0.83189500  1
  O  O109  1  0.31022400  0.66380600  0.66810500  1
  O  O110  1  0.18977600  0.83619400  0.66810500  1
  O  O111  1  0.18977600  0.66380600  0.83189500  1
  O  O112  1  0.43977600  0.41380600  0.91810500  1
  O  O113  1  0.43977600  0.08619400  0.58189500  1
  O  O114  1  0.06022400  0.41380600  0.58189500  1
  O  O115  1  0.06022400  0.08619400  0.91810500  1
  O  O116  1  0.09112250  0.94479900  0.80409650  1
  O  O117  1  0.59112250  0.05520100  0.69590350  1
  O  O118  1  0.40887750  0.94479900  0.69590350  1
  O  O119  1  0.90887750  0.05520100  0.80409650  1
  O  O120  1  0.54732350  0.30807550  0.42185400  1
  O  O121  1  0.04732350  0.69192450  0.07814600  1
  O  O122  1  0.95267650  0.30807550  0.07814600  1
  O  O123  1  0.45267650  0.69192450  0.42185400  1
  O  O124  1  0.70267650  0.44192450  0.32814600  1
  O  O125  1  0.20267650  0.55807550  0.17185400  1
  O  O126  1  0.79732350  0.44192450  0.17185400  1
  O  O127  1  0.29732350  0.55807550  0.32814600  1
  O  O128  1  0.34112250  0.19479900  0.44590350  1
  O  O129  1  0.34112250  0.30520100  0.05409650  1
  O  O130  1  0.15887750  0.19479900  0.05409650  1
  O  O131  1  0.15887750  0.30520100  0.44590350  1
  O  O132  1  0.31022400  0.33619400  0.33189500  1
  O  O133  1  0.31022400  0.16380600  0.16810500  1
  O  O134  1  0.18977600  0.33619400  0.16810500  1
  O  O135  1  0.18977600  0.16380600  0.33189500  1
  O  O136  1  0.43977600  0.91380600  0.41810500  1
  O  O137  1  0.43977600  0.58619400  0.08189500  1
  O  O138  1  0.06022400  0.91380600  0.08189500  1
  O  O139  1  0.06022400  0.58619400  0.41810500  1
  O  O140  1  0.09112250  0.44479900  0.30409650  1
  O  O141  1  0.59112250  0.55520100  0.19590350  1
  O  O142  1  0.40887750  0.44479900  0.19590350  1
  O  O143  1  0.90887750  0.55520100  0.30409650  1
