# generated using pymatgen
data_Hf27P16
_symmetry_space_group_name_H-M   'P 1'
_cell_length_a   3.54381000
_cell_length_b   18.64469600
_cell_length_c   23.07600400
_cell_angle_alpha   90.00000000
_cell_angle_beta   90.00000000
_cell_angle_gamma   90.00000000
_symmetry_Int_Tables_number   1
_chemical_formula_structural   Hf27P16
_chemical_formula_sum   'Hf54 P32'
_cell_volume   1524.70681509
_cell_formula_units_Z   2
loop_
 _symmetry_equiv_pos_site_id
 _symmetry_equiv_pos_as_xyz
  1  'x, y, z'
loop_
 _atom_site_type_symbol
 _atom_site_label
 _atom_site_symmetry_multiplicity
 _atom_site_fract_x
 _atom_site_fract_y
 _atom_site_fract_z
 _atom_site_occupancy
  Hf  Hf0  1  0.50000000  0.09299100  0.92003300  1
  Hf  Hf1  1  0.50000000  0.90700900  0.07996700  1
  Hf  Hf2  1  0.50000000  0.09299100  0.07996700  1
  Hf  Hf3  1  0.50000000  0.90700900  0.92003300  1
  Hf  Hf4  1  0.00000000  0.50000000  0.71529800  1
  Hf  Hf5  1  0.00000000  0.50000000  0.28470200  1
  Hf  Hf6  1  0.00000000  0.50000000  0.85326800  1
  Hf  Hf7  1  0.00000000  0.50000000  0.14673200  1
  Hf  Hf8  1  0.00000000  0.58384400  0.00000000  1
  Hf  Hf9  1  0.00000000  0.41615600  0.00000000  1
  Hf  Hf10  1  0.00000000  0.00000000  0.00000000  1
  Hf  Hf11  1  0.00000000  0.31405650  0.21540450  1
  Hf  Hf12  1  0.00000000  0.68594350  0.78459550  1
  Hf  Hf13  1  0.00000000  0.31405650  0.78459550  1
  Hf  Hf14  1  0.00000000  0.68594350  0.21540450  1
  Hf  Hf15  1  0.00000000  0.24565000  0.07117800  1
  Hf  Hf16  1  0.00000000  0.75435000  0.92882200  1
  Hf  Hf17  1  0.00000000  0.24565000  0.92882200  1
  Hf  Hf18  1  0.00000000  0.75435000  0.07117800  1
  Hf  Hf19  1  0.50000000  0.63326100  0.68257000  1
  Hf  Hf20  1  0.50000000  0.36673900  0.31743000  1
  Hf  Hf21  1  0.50000000  0.63326100  0.31743000  1
  Hf  Hf22  1  0.50000000  0.36673900  0.68257000  1
  Hf  Hf23  1  0.50000000  0.63140000  0.89143000  1
  Hf  Hf24  1  0.50000000  0.36860000  0.10857000  1
  Hf  Hf25  1  0.50000000  0.63140000  0.10857000  1
  Hf  Hf26  1  0.50000000  0.36860000  0.89143000  1
  Hf  Hf27  1  0.00000000  0.59299100  0.42003300  1
  Hf  Hf28  1  0.00000000  0.40700900  0.57996700  1
  Hf  Hf29  1  0.00000000  0.59299100  0.57996700  1
  Hf  Hf30  1  0.00000000  0.40700900  0.42003300  1
  Hf  Hf31  1  0.50000000  0.00000000  0.21529800  1
  Hf  Hf32  1  0.50000000  0.00000000  0.78470200  1
  Hf  Hf33  1  0.50000000  0.00000000  0.35326800  1
  Hf  Hf34  1  0.50000000  0.00000000  0.64673200  1
  Hf  Hf35  1  0.50000000  0.08384400  0.50000000  1
  Hf  Hf36  1  0.50000000  0.91615600  0.50000000  1
  Hf  Hf37  1  0.50000000  0.50000000  0.50000000  1
  Hf  Hf38  1  0.50000000  0.81405650  0.71540450  1
  Hf  Hf39  1  0.50000000  0.18594350  0.28459550  1
  Hf  Hf40  1  0.50000000  0.81405650  0.28459550  1
  Hf  Hf41  1  0.50000000  0.18594350  0.71540450  1
  Hf  Hf42  1  0.50000000  0.74565000  0.57117800  1
  Hf  Hf43  1  0.50000000  0.25435000  0.42882200  1
  Hf  Hf44  1  0.50000000  0.74565000  0.42882200  1
  Hf  Hf45  1  0.50000000  0.25435000  0.57117800  1
  Hf  Hf46  1  0.00000000  0.13326100  0.18257000  1
  Hf  Hf47  1  0.00000000  0.86673900  0.81743000  1
  Hf  Hf48  1  0.00000000  0.13326100  0.81743000  1
  Hf  Hf49  1  0.00000000  0.86673900  0.18257000  1
  Hf  Hf50  1  0.00000000  0.13140000  0.39143000  1
  Hf  Hf51  1  0.00000000  0.86860000  0.60857000  1
  Hf  Hf52  1  0.00000000  0.13140000  0.60857000  1
  Hf  Hf53  1  0.00000000  0.86860000  0.39143000  1
  P  P54  1  0.00000000  0.13851900  0.00000000  1
  P  P55  1  0.00000000  0.86148100  0.00000000  1
  P  P56  1  0.50000000  0.69129900  0.00000000  1
  P  P57  1  0.50000000  0.30870100  0.00000000  1
  P  P58  1  0.50000000  0.50000000  0.06011900  1
  P  P59  1  0.50000000  0.50000000  0.93988100  1
  P  P60  1  0.50000000  0.50000000  0.37531000  1
  P  P61  1  0.50000000  0.50000000  0.62469000  1
  P  P62  1  0.50000000  0.76853000  0.84321800  1
  P  P63  1  0.50000000  0.23147000  0.15678200  1
  P  P64  1  0.50000000  0.76853000  0.15678200  1
  P  P65  1  0.50000000  0.23147000  0.84321800  1
  P  P66  1  0.50000000  0.57572950  0.78548350  1
  P  P67  1  0.50000000  0.42427050  0.21451650  1
  P  P68  1  0.50000000  0.57572950  0.21451650  1
  P  P69  1  0.50000000  0.42427050  0.78548350  1
  P  P70  1  0.50000000  0.63851900  0.50000000  1
  P  P71  1  0.50000000  0.36148100  0.50000000  1
  P  P72  1  0.00000000  0.19129900  0.50000000  1
  P  P73  1  0.00000000  0.80870100  0.50000000  1
  P  P74  1  0.00000000  0.00000000  0.56011900  1
  P  P75  1  0.00000000  0.00000000  0.43988100  1
  P  P76  1  0.00000000  0.00000000  0.87531000  1
  P  P77  1  0.00000000  0.00000000  0.12469000  1
  P  P78  1  0.00000000  0.26853000  0.34321800  1
  P  P79  1  0.00000000  0.73147000  0.65678200  1
  P  P80  1  0.00000000  0.26853000  0.65678200  1
  P  P81  1  0.00000000  0.73147000  0.34321800  1
  P  P82  1  0.00000000  0.07572950  0.28548350  1
  P  P83  1  0.00000000  0.92427050  0.71451650  1
  P  P84  1  0.00000000  0.07572950  0.71451650  1
  P  P85  1  0.00000000  0.92427050  0.28548350  1
