# generated using pymatgen
data_Na2W2O7
_symmetry_space_group_name_H-M   'P 1'
_cell_length_a   3.87853741
_cell_length_b   27.33787125
_cell_length_c   5.52393671
_cell_angle_alpha   90.00000000
_cell_angle_beta   90.00000000
_cell_angle_gamma   90.00000000
_symmetry_Int_Tables_number   1
_chemical_formula_structural   Na2W2O7
_chemical_formula_sum   'Na8 W8 O28'
_cell_volume   585.70829219
_cell_formula_units_Z   4
loop_
 _symmetry_equiv_pos_site_id
 _symmetry_equiv_pos_as_xyz
  1  'x, y, z'
loop_
 _atom_site_type_symbol
 _atom_site_label
 _atom_site_symmetry_multiplicity
 _atom_site_fract_x
 _atom_site_fract_y
 _atom_site_fract_z
 _atom_site_occupancy
  Na  Na0  1  0.00000000  0.28353005  0.42898030  1
  Na  Na1  1  0.50000000  0.21646995  0.92898030  1
  Na  Na2  1  0.50000000  0.05372615  0.38486542  1
  Na  Na3  1  0.00000000  0.44627385  0.88486542  1
  Na  Na4  1  0.50000000  0.78353005  0.42898030  1
  Na  Na5  1  0.00000000  0.71646995  0.92898030  1
  Na  Na6  1  0.00000000  0.55372615  0.38486542  1
  Na  Na7  1  0.50000000  0.94627385  0.88486542  1
  W  W8  1  0.50000000  0.34210555  0.90514589  1
  W  W9  1  0.00000000  0.15789445  0.40514589  1
  W  W10  1  0.50000000  0.44721432  0.39315048  1
  W  W11  1  0.00000000  0.05278568  0.89315048  1
  W  W12  1  0.00000000  0.84210555  0.90514589  1
  W  W13  1  0.50000000  0.65789445  0.40514589  1
  W  W14  1  0.00000000  0.94721432  0.39315048  1
  W  W15  1  0.50000000  0.55278568  0.89315048  1
  O  O16  1  0.50000000  0.30774916  0.18079909  1
  O  O17  1  0.00000000  0.19225084  0.68079909  1
  O  O18  1  0.00000000  0.45320837  0.39133171  1
  O  O19  1  0.50000000  0.04679163  0.89133171  1
  O  O20  1  0.50000000  0.29140416  0.69556042  1
  O  O21  1  0.00000000  0.20859584  0.19556042  1
  O  O22  1  0.00000000  0.35411738  0.88978492  1
  O  O23  1  0.50000000  0.14588262  0.38978492  1
  O  O24  1  0.00000000  0.10525565  0.10456997  1
  O  O25  1  0.50000000  0.39474435  0.60456997  1
  O  O26  1  0.50000000  0.49205177  0.67951093  1
  O  O27  1  0.50000000  0.41018830  0.10482209  1
  O  O28  1  0.00000000  0.08981170  0.60482209  1
  O  O29  1  0.00000000  0.00794823  0.17951093  1
  O  O30  1  0.00000000  0.80774916  0.18079909  1
  O  O31  1  0.50000000  0.69225084  0.68079909  1
  O  O32  1  0.50000000  0.95320837  0.39133171  1
  O  O33  1  0.00000000  0.54679163  0.89133171  1
  O  O34  1  0.00000000  0.79140416  0.69556042  1
  O  O35  1  0.50000000  0.70859584  0.19556042  1
  O  O36  1  0.50000000  0.85411738  0.88978492  1
  O  O37  1  0.00000000  0.64588262  0.38978492  1
  O  O38  1  0.50000000  0.60525565  0.10456997  1
  O  O39  1  0.00000000  0.89474435  0.60456997  1
  O  O40  1  0.00000000  0.99205177  0.67951093  1
  O  O41  1  0.00000000  0.91018829  0.10482209  1
  O  O42  1  0.50000000  0.58981171  0.60482209  1
  O  O43  1  0.50000000  0.50794823  0.17951093  1
