# generated using pymatgen
data_Sr2MnGe2O7
_symmetry_space_group_name_H-M   'P 1'
_cell_length_a   8.39347700
_cell_length_b   8.39347700
_cell_length_c   5.38879100
_cell_angle_alpha   90.00000000
_cell_angle_beta   90.00000000
_cell_angle_gamma   90.00000000
_symmetry_Int_Tables_number   1
_chemical_formula_structural   Sr2MnGe2O7
_chemical_formula_sum   'Sr4 Mn2 Ge4 O14'
_cell_volume   379.64278406
_cell_formula_units_Z   2
loop_
 _symmetry_equiv_pos_site_id
 _symmetry_equiv_pos_as_xyz
  1  'x, y, z'
loop_
 _atom_site_type_symbol
 _atom_site_label
 _atom_site_symmetry_multiplicity
 _atom_site_fract_x
 _atom_site_fract_y
 _atom_site_fract_z
 _atom_site_occupancy
  Sr  Sr0  1  0.33317475  0.83317475  0.50614000  1
  Sr  Sr1  1  0.83317475  0.66682525  0.49386000  1
  Sr  Sr2  1  0.66682525  0.16682525  0.50614000  1
  Sr  Sr3  1  0.16682525  0.33317475  0.49386000  1
  Mn  Mn4  1  0.50000000  0.50000000  0.00000000  1
  Mn  Mn5  1  0.00000000  0.00000000  0.00000000  1
  Ge  Ge6  1  0.85922950  0.35922950  0.94343700  1
  Ge  Ge7  1  0.35922950  0.14077050  0.05656300  1
  Ge  Ge8  1  0.14077050  0.64077050  0.94343700  1
  Ge  Ge9  1  0.64077050  0.85922950  0.05656300  1
  O  O10  1  0.50000000  0.00000000  0.19036100  1
  O  O11  1  0.00000000  0.50000000  0.80963900  1
  O  O12  1  0.86106900  0.36106900  0.26655100  1
  O  O13  1  0.36106900  0.13893100  0.73344900  1
  O  O14  1  0.13893100  0.63893100  0.26655100  1
  O  O15  1  0.63893100  0.86106900  0.73344900  1
  O  O16  1  0.41907350  0.31576700  0.21703300  1
  O  O17  1  0.91907350  0.18423300  0.78296700  1
  O  O18  1  0.58092650  0.68423300  0.21703300  1
  O  O19  1  0.08092650  0.81576700  0.78296700  1
  O  O20  1  0.31576700  0.58092650  0.78296700  1
  O  O21  1  0.81576700  0.91907350  0.21703300  1
  O  O22  1  0.68423300  0.41907350  0.78296700  1
  O  O23  1  0.18423300  0.08092650  0.21703300  1
