# generated using pymatgen
data_CoSiH12(OF)6
_symmetry_space_group_name_H-M   'P 1'
_cell_length_a   9.54957896
_cell_length_b   9.54957896
_cell_length_c   9.75051407
_cell_angle_alpha   90.00000000
_cell_angle_beta   90.00000000
_cell_angle_gamma   120.00000000
_symmetry_Int_Tables_number   1
_chemical_formula_structural   CoSiH12(OF)6
_chemical_formula_sum   'Co3 Si3 H36 O18 F18'
_cell_volume   770.06359673
_cell_formula_units_Z   3
loop_
 _symmetry_equiv_pos_site_id
 _symmetry_equiv_pos_as_xyz
  1  'x, y, z'
loop_
 _atom_site_type_symbol
 _atom_site_label
 _atom_site_symmetry_multiplicity
 _atom_site_fract_x
 _atom_site_fract_y
 _atom_site_fract_z
 _atom_site_occupancy
  Co  Co0  1  0.00000000  0.00000000  0.00000000  1
  Co  Co1  1  0.66666667  0.33333333  0.33333333  1
  Co  Co2  1  0.33333333  0.66666667  0.66666667  1
  Si  Si3  1  0.00000000  0.00000000  0.50000000  1
  Si  Si4  1  0.66666667  0.33333333  0.83333333  1
  Si  Si5  1  0.33333333  0.66666667  0.16666667  1
  H  H6  1  0.86882800  0.24010100  0.44405900  1
  H  H7  1  0.75989900  0.62872700  0.44405900  1
  H  H8  1  0.37127300  0.13117200  0.44405900  1
  H  H9  1  0.13117200  0.75989900  0.55594100  1
  H  H10  1  0.24010100  0.37127300  0.55594100  1
  H  H11  1  0.62872700  0.86882800  0.55594100  1
  H  H12  1  0.18103400  0.01824900  0.22098600  1
  H  H13  1  0.98175100  0.16278500  0.22098600  1
  H  H14  1  0.83721500  0.81896600  0.22098600  1
  H  H15  1  0.01824900  0.83721500  0.77901400  1
  H  H16  1  0.16278500  0.18103400  0.77901400  1
  H  H17  1  0.81896600  0.98175100  0.77901400  1
  H  H18  1  0.53549467  0.57343433  0.77739233  1
  H  H19  1  0.42656567  0.96206033  0.77739233  1
  H  H20  1  0.03793967  0.46450533  0.77739233  1
  H  H21  1  0.79783867  0.09323233  0.88927433  1
  H  H22  1  0.90676767  0.70460633  0.88927433  1
  H  H23  1  0.29539367  0.20216133  0.88927433  1
  H  H24  1  0.84770067  0.35158233  0.55431933  1
  H  H25  1  0.64841767  0.49611833  0.55431933  1
  H  H26  1  0.50388167  0.15229933  0.55431933  1
  H  H27  1  0.68491567  0.17054833  0.11234733  1
  H  H28  1  0.82945167  0.51436733  0.11234733  1
  H  H29  1  0.48563267  0.31508433  0.11234733  1
  H  H30  1  0.20216133  0.90676767  0.11072567  1
  H  H31  1  0.09323233  0.29539367  0.11072567  1
  H  H32  1  0.70460633  0.79783867  0.11072567  1
  H  H33  1  0.46450533  0.42656567  0.22260767  1
  H  H34  1  0.57343433  0.03793967  0.22260767  1
  H  H35  1  0.96206033  0.53549467  0.22260767  1
  H  H36  1  0.51436733  0.68491567  0.88765267  1
  H  H37  1  0.31508433  0.82945167  0.88765267  1
  H  H38  1  0.17054833  0.48563267  0.88765267  1
  H  H39  1  0.35158233  0.50388167  0.44568067  1
  H  H40  1  0.49611833  0.84770067  0.44568067  1
  H  H41  1  0.15229933  0.64841767  0.44568067  1
  O  O42  1  0.67219267  0.51637933  0.45599933  1
  O  O43  1  0.48362067  0.15581333  0.45599933  1
  O  O44  1  0.15581333  0.67219267  0.54400067  1
  O  O45  1  0.32780733  0.48362067  0.54400067  1
  O  O46  1  0.51637933  0.84418667  0.54400067  1
  O  O47  1  0.84418667  0.32780733  0.45599933  1
  O  O48  1  0.33885933  0.84971267  0.78933267  1
  O  O49  1  0.15028733  0.48914667  0.78933267  1
  O  O50  1  0.82248000  0.00552600  0.87733400  1
  O  O51  1  0.99447400  0.81695400  0.87733400  1
  O  O52  1  0.18304600  0.17752000  0.87733400  1
  O  O53  1  0.51085333  0.66114067  0.78933267  1
  O  O54  1  0.00552600  0.18304600  0.12266600  1
  O  O55  1  0.81695400  0.82248000  0.12266600  1
  O  O56  1  0.48914667  0.33885933  0.21066733  1
  O  O57  1  0.66114067  0.15028733  0.21066733  1
  O  O58  1  0.84971267  0.51085333  0.21066733  1
  O  O59  1  0.17752000  0.99447400  0.12266600  1
  F  F60  1  0.06835967  0.89954533  0.60202033  1
  F  F61  1  0.10045467  0.16881433  0.60202033  1
  F  F62  1  0.83118567  0.93164033  0.60202033  1
  F  F63  1  0.93164033  0.10045467  0.39797967  1
  F  F64  1  0.16881433  0.06835967  0.39797967  1
  F  F65  1  0.89954533  0.83118567  0.39797967  1
  F  F66  1  0.73502633  0.23287867  0.93535367  1
  F  F67  1  0.76712133  0.50214767  0.93535367  1
  F  F68  1  0.49785233  0.26497367  0.93535367  1
  F  F69  1  0.59830700  0.43378800  0.73131300  1
  F  F70  1  0.83548100  0.40169300  0.73131300  1
  F  F71  1  0.56621200  0.16451900  0.73131300  1
  F  F72  1  0.40169300  0.56621200  0.26868700  1
  F  F73  1  0.43378800  0.83548100  0.26868700  1
  F  F74  1  0.16451900  0.59830700  0.26868700  1
  F  F75  1  0.26497367  0.76712133  0.06464633  1
  F  F76  1  0.50214767  0.73502633  0.06464633  1
  F  F77  1  0.23287867  0.49785233  0.06464633  1
