# generated using pymatgen
data_Ce(CrB3)2
_symmetry_space_group_name_H-M   'P 1'
_cell_length_a   3.07270400
_cell_length_b   6.53665000
_cell_length_c   8.32404400
_cell_angle_alpha   90.00000000
_cell_angle_beta   90.00000000
_cell_angle_gamma   90.00000000
_symmetry_Int_Tables_number   1
_chemical_formula_structural   Ce(CrB3)2
_chemical_formula_sum   'Ce2 Cr4 B12'
_cell_volume   167.19001032
_cell_formula_units_Z   2
loop_
 _symmetry_equiv_pos_site_id
 _symmetry_equiv_pos_as_xyz
  1  'x, y, z'
loop_
 _atom_site_type_symbol
 _atom_site_label
 _atom_site_symmetry_multiplicity
 _atom_site_fract_x
 _atom_site_fract_y
 _atom_site_fract_z
 _atom_site_occupancy
  Ce  Ce0  1  0.00000000  0.00000000  0.00000000  1
  Ce  Ce1  1  0.50000000  0.50000000  0.50000000  1
  Cr  Cr2  1  0.00000000  0.50000000  0.15441600  1
  Cr  Cr3  1  0.00000000  0.50000000  0.84558400  1
  Cr  Cr4  1  0.50000000  0.00000000  0.65441600  1
  Cr  Cr5  1  0.50000000  0.00000000  0.34558400  1
  B  B6  1  0.50000000  0.73733200  0.80363800  1
  B  B7  1  0.50000000  0.26266800  0.19636200  1
  B  B8  1  0.50000000  0.73733200  0.19636200  1
  B  B9  1  0.50000000  0.35759550  0.00000000  1
  B  B10  1  0.50000000  0.64240450  0.00000000  1
  B  B11  1  0.50000000  0.26266800  0.80363800  1
  B  B12  1  0.00000000  0.23733200  0.30363800  1
  B  B13  1  0.00000000  0.76266800  0.69636200  1
  B  B14  1  0.00000000  0.23733200  0.69636200  1
  B  B15  1  0.00000000  0.85759550  0.50000000  1
  B  B16  1  0.00000000  0.14240450  0.50000000  1
  B  B17  1  0.00000000  0.76266800  0.30363800  1
