# generated using pymatgen
data_Th3Co3Sb4
_symmetry_space_group_name_H-M   'P 1'
_cell_length_a   9.60539600
_cell_length_b   9.60539600
_cell_length_c   9.60539600
_cell_angle_alpha   90.00000000
_cell_angle_beta   90.00000000
_cell_angle_gamma   90.00000000
_symmetry_Int_Tables_number   1
_chemical_formula_structural   Th3Co3Sb4
_chemical_formula_sum   'Th12 Co12 Sb16'
_cell_volume   886.22872480
_cell_formula_units_Z   4
loop_
 _symmetry_equiv_pos_site_id
 _symmetry_equiv_pos_as_xyz
  1  'x, y, z'
loop_
 _atom_site_type_symbol
 _atom_site_label
 _atom_site_symmetry_multiplicity
 _atom_site_fract_x
 _atom_site_fract_y
 _atom_site_fract_z
 _atom_site_occupancy
  Th  Th0  1  0.25000000  0.37500000  0.00000000  1
  Th  Th1  1  0.12500000  0.00000000  0.75000000  1
  Th  Th2  1  0.37500000  0.00000000  0.25000000  1
  Th  Th3  1  0.00000000  0.25000000  0.37500000  1
  Th  Th4  1  0.00000000  0.75000000  0.12500000  1
  Th  Th5  1  0.75000000  0.12500000  0.00000000  1
  Th  Th6  1  0.75000000  0.87500000  0.50000000  1
  Th  Th7  1  0.62500000  0.50000000  0.25000000  1
  Th  Th8  1  0.87500000  0.50000000  0.75000000  1
  Th  Th9  1  0.50000000  0.75000000  0.87500000  1
  Th  Th10  1  0.50000000  0.25000000  0.62500000  1
  Th  Th11  1  0.25000000  0.62500000  0.50000000  1
  Co  Co12  1  0.50000000  0.75000000  0.37500000  1
  Co  Co13  1  0.25000000  0.12500000  0.50000000  1
  Co  Co14  1  0.75000000  0.37500000  0.50000000  1
  Co  Co15  1  0.37500000  0.50000000  0.75000000  1
  Co  Co16  1  0.12500000  0.50000000  0.25000000  1
  Co  Co17  1  0.50000000  0.25000000  0.12500000  1
  Co  Co18  1  0.00000000  0.25000000  0.87500000  1
  Co  Co19  1  0.75000000  0.62500000  0.00000000  1
  Co  Co20  1  0.25000000  0.87500000  0.00000000  1
  Co  Co21  1  0.87500000  0.00000000  0.25000000  1
  Co  Co22  1  0.62500000  0.00000000  0.75000000  1
  Co  Co23  1  0.00000000  0.75000000  0.62500000  1
  Sb  Sb24  1  0.42037300  0.07962700  0.92037300  1
  Sb  Sb25  1  0.82962700  0.17037300  0.67037300  1
  Sb  Sb26  1  0.17037300  0.67037300  0.82962700  1
  Sb  Sb27  1  0.32962700  0.32962700  0.32962700  1
  Sb  Sb28  1  0.07962700  0.07962700  0.07962700  1
  Sb  Sb29  1  0.07962700  0.92037300  0.42037300  1
  Sb  Sb30  1  0.92037300  0.42037300  0.07962700  1
  Sb  Sb31  1  0.67037300  0.82962700  0.17037300  1
  Sb  Sb32  1  0.92037300  0.57962700  0.42037300  1
  Sb  Sb33  1  0.32962700  0.67037300  0.17037300  1
  Sb  Sb34  1  0.67037300  0.17037300  0.32962700  1
  Sb  Sb35  1  0.82962700  0.82962700  0.82962700  1
  Sb  Sb36  1  0.57962700  0.57962700  0.57962700  1
  Sb  Sb37  1  0.57962700  0.42037300  0.92037300  1
  Sb  Sb38  1  0.42037300  0.92037300  0.57962700  1
  Sb  Sb39  1  0.17037300  0.32962700  0.67037300  1
