# generated using pymatgen
data_Ba2Cu3P4
_symmetry_space_group_name_H-M   'P 1'
_cell_length_a   6.21478800
_cell_length_b   9.37754800
_cell_length_c   12.44799200
_cell_angle_alpha   90.00000000
_cell_angle_beta   90.00000000
_cell_angle_gamma   90.00000000
_symmetry_Int_Tables_number   1
_chemical_formula_structural   Ba2Cu3P4
_chemical_formula_sum   'Ba8 Cu12 P16'
_cell_volume   725.46241093
_cell_formula_units_Z   4
loop_
 _symmetry_equiv_pos_site_id
 _symmetry_equiv_pos_as_xyz
  1  'x, y, z'
loop_
 _atom_site_type_symbol
 _atom_site_label
 _atom_site_symmetry_multiplicity
 _atom_site_fract_x
 _atom_site_fract_y
 _atom_site_fract_z
 _atom_site_occupancy
  Ba  Ba0  1  0.50000000  0.79630400  0.10918600  1
  Ba  Ba1  1  0.50000000  0.20369600  0.89081400  1
  Ba  Ba2  1  0.00000000  0.79630400  0.89081400  1
  Ba  Ba3  1  0.00000000  0.20369600  0.10918600  1
  Ba  Ba4  1  0.00000000  0.29630400  0.60918600  1
  Ba  Ba5  1  0.00000000  0.70369600  0.39081400  1
  Ba  Ba6  1  0.50000000  0.29630400  0.39081400  1
  Ba  Ba7  1  0.50000000  0.70369600  0.60918600  1
  Cu  Cu8  1  0.25000000  0.50000000  0.00000000  1
  Cu  Cu9  1  0.75000000  0.50000000  0.00000000  1
  Cu  Cu10  1  0.75000000  0.50000000  0.22083300  1
  Cu  Cu11  1  0.75000000  0.50000000  0.77916700  1
  Cu  Cu12  1  0.25000000  0.50000000  0.22083300  1
  Cu  Cu13  1  0.25000000  0.50000000  0.77916700  1
  Cu  Cu14  1  0.75000000  0.00000000  0.50000000  1
  Cu  Cu15  1  0.25000000  0.00000000  0.50000000  1
  Cu  Cu16  1  0.25000000  0.00000000  0.72083300  1
  Cu  Cu17  1  0.25000000  0.00000000  0.27916700  1
  Cu  Cu18  1  0.75000000  0.00000000  0.72083300  1
  Cu  Cu19  1  0.75000000  0.00000000  0.27916700  1
  P  P20  1  0.50000000  0.63226000  0.87847300  1
  P  P21  1  0.50000000  0.36774000  0.12152700  1
  P  P22  1  0.00000000  0.63226000  0.12152700  1
  P  P23  1  0.00000000  0.36774000  0.87847300  1
  P  P24  1  0.50000000  0.36771200  0.65957300  1
  P  P25  1  0.50000000  0.63228800  0.34042700  1
  P  P26  1  0.00000000  0.63228800  0.65957300  1
  P  P27  1  0.00000000  0.36771200  0.34042700  1
  P  P28  1  0.00000000  0.13226000  0.37847300  1
  P  P29  1  0.00000000  0.86774000  0.62152700  1
  P  P30  1  0.50000000  0.13226000  0.62152700  1
  P  P31  1  0.50000000  0.86774000  0.37847300  1
  P  P32  1  0.00000000  0.86771200  0.15957300  1
  P  P33  1  0.00000000  0.13228800  0.84042700  1
  P  P34  1  0.50000000  0.13228800  0.15957300  1
  P  P35  1  0.50000000  0.86771200  0.84042700  1
