# generated using pymatgen
data_NaIn2Au
_symmetry_space_group_name_H-M   'P 1'
_cell_length_a   4.59912000
_cell_length_b   10.47380600
_cell_length_c   8.04896400
_cell_angle_alpha   90.00000000
_cell_angle_beta   90.00000000
_cell_angle_gamma   90.00000000
_symmetry_Int_Tables_number   1
_chemical_formula_structural   NaIn2Au
_chemical_formula_sum   'Na4 In8 Au4'
_cell_volume   387.72093532
_cell_formula_units_Z   4
loop_
 _symmetry_equiv_pos_site_id
 _symmetry_equiv_pos_as_xyz
  1  'x, y, z'
loop_
 _atom_site_type_symbol
 _atom_site_label
 _atom_site_symmetry_multiplicity
 _atom_site_fract_x
 _atom_site_fract_y
 _atom_site_fract_z
 _atom_site_occupancy
  Na  Na0  1  0.50000000  0.07025700  0.75000000  1
  Na  Na1  1  0.00000000  0.42974300  0.25000000  1
  Na  Na2  1  0.00000000  0.57025700  0.75000000  1
  Na  Na3  1  0.50000000  0.92974300  0.25000000  1
  In  In4  1  0.00000000  0.14027500  0.44726900  1
  In  In5  1  0.50000000  0.35972500  0.55273100  1
  In  In6  1  0.50000000  0.35972500  0.94726900  1
  In  In7  1  0.00000000  0.14027500  0.05273100  1
  In  In8  1  0.50000000  0.64027500  0.44726900  1
  In  In9  1  0.00000000  0.85972500  0.55273100  1
  In  In10  1  0.00000000  0.85972500  0.94726900  1
  In  In11  1  0.50000000  0.64027500  0.05273100  1
  Au  Au12  1  0.00000000  0.28429200  0.75000000  1
  Au  Au13  1  0.50000000  0.21570800  0.25000000  1
  Au  Au14  1  0.50000000  0.78429200  0.75000000  1
  Au  Au15  1  0.00000000  0.71570800  0.25000000  1
