# generated using pymatgen
data_ErHCl
_symmetry_space_group_name_H-M   'P 1'
_cell_length_a   3.71357172
_cell_length_b   3.71357172
_cell_length_c   27.90219859
_cell_angle_alpha   90.00000000
_cell_angle_beta   90.00000000
_cell_angle_gamma   120.00000000
_symmetry_Int_Tables_number   1
_chemical_formula_structural   ErHCl
_chemical_formula_sum   'Er6 H6 Cl6'
_cell_volume   333.23659492
_cell_formula_units_Z   6
loop_
 _symmetry_equiv_pos_site_id
 _symmetry_equiv_pos_as_xyz
  1  'x, y, z'
loop_
 _atom_site_type_symbol
 _atom_site_label
 _atom_site_symmetry_multiplicity
 _atom_site_fract_x
 _atom_site_fract_y
 _atom_site_fract_z
 _atom_site_occupancy
  Er  Er0  1  0.66666667  0.33333333  0.21483033  1
  Er  Er1  1  0.00000000  0.00000000  0.11850300  1
  Er  Er2  1  0.33333333  0.66666667  0.54816367  1
  Er  Er3  1  0.66666667  0.33333333  0.45183633  1
  Er  Er4  1  0.00000000  0.00000000  0.88149700  1
  Er  Er5  1  0.33333333  0.66666667  0.78516967  1
  H  H6  1  0.66666667  0.33333333  0.13665533  1
  H  H7  1  0.00000000  0.00000000  0.19667800  1
  H  H8  1  0.33333333  0.66666667  0.46998867  1
  H  H9  1  0.66666667  0.33333333  0.53001133  1
  H  H10  1  0.00000000  0.00000000  0.80332200  1
  H  H11  1  0.33333333  0.66666667  0.86334467  1
  Cl  Cl12  1  0.33333333  0.66666667  0.05782267  1
  Cl  Cl13  1  0.33333333  0.66666667  0.27551067  1
  Cl  Cl14  1  0.00000000  0.00000000  0.39115600  1
  Cl  Cl15  1  0.00000000  0.00000000  0.60884400  1
  Cl  Cl16  1  0.66666667  0.33333333  0.72448933  1
  Cl  Cl17  1  0.66666667  0.33333333  0.94217733  1
