# generated using pymatgen
data_Tl4CrI6
_symmetry_space_group_name_H-M   'P 1'
_cell_length_a   12.98482200
_cell_length_b   13.52609600
_cell_length_c   9.95221400
_cell_angle_alpha   90.00000000
_cell_angle_beta   90.00000000
_cell_angle_gamma   90.00000000
_symmetry_Int_Tables_number   1
_chemical_formula_structural   Tl4CrI6
_chemical_formula_sum   'Tl16 Cr4 I24'
_cell_volume   1747.94664527
_cell_formula_units_Z   4
loop_
 _symmetry_equiv_pos_site_id
 _symmetry_equiv_pos_as_xyz
  1  'x, y, z'
loop_
 _atom_site_type_symbol
 _atom_site_label
 _atom_site_symmetry_multiplicity
 _atom_site_fract_x
 _atom_site_fract_y
 _atom_site_fract_z
 _atom_site_occupancy
  Tl  Tl0  1  0.34236600  0.00000000  0.75000000  1
  Tl  Tl1  1  0.65763400  0.00000000  0.75000000  1
  Tl  Tl2  1  0.65763400  0.00000000  0.25000000  1
  Tl  Tl3  1  0.34236600  0.00000000  0.25000000  1
  Tl  Tl4  1  0.50000000  0.35677000  0.75000000  1
  Tl  Tl5  1  0.50000000  0.64323000  0.75000000  1
  Tl  Tl6  1  0.50000000  0.64323000  0.25000000  1
  Tl  Tl7  1  0.50000000  0.35677000  0.25000000  1
  Tl  Tl8  1  0.84236600  0.50000000  0.75000000  1
  Tl  Tl9  1  0.15763400  0.50000000  0.75000000  1
  Tl  Tl10  1  0.15763400  0.50000000  0.25000000  1
  Tl  Tl11  1  0.84236600  0.50000000  0.25000000  1
  Tl  Tl12  1  0.00000000  0.85677000  0.75000000  1
  Tl  Tl13  1  0.00000000  0.14323000  0.75000000  1
  Tl  Tl14  1  0.00000000  0.14323000  0.25000000  1
  Tl  Tl15  1  0.00000000  0.85677000  0.25000000  1
  Cr  Cr16  1  0.25000000  0.75000000  0.00000000  1
  Cr  Cr17  1  0.25000000  0.25000000  0.50000000  1
  Cr  Cr18  1  0.75000000  0.25000000  0.00000000  1
  Cr  Cr19  1  0.75000000  0.75000000  0.50000000  1
  I  I20  1  0.83607800  0.01759200  0.00000000  1
  I  I21  1  0.16392200  0.98240800  0.00000000  1
  I  I22  1  0.45229850  0.17781550  0.50000000  1
  I  I23  1  0.54770150  0.82218450  0.50000000  1
  I  I24  1  0.45229850  0.82218450  0.00000000  1
  I  I25  1  0.54770150  0.17781550  0.00000000  1
  I  I26  1  0.83607800  0.98240800  0.50000000  1
  I  I27  1  0.16392200  0.01759200  0.50000000  1
  I  I28  1  0.25000000  0.75000000  0.27610900  1
  I  I29  1  0.25000000  0.25000000  0.22389100  1
  I  I30  1  0.25000000  0.75000000  0.72389100  1
  I  I31  1  0.25000000  0.25000000  0.77610900  1
  I  I32  1  0.33607800  0.51759200  0.00000000  1
  I  I33  1  0.66392200  0.48240800  0.00000000  1
  I  I34  1  0.95229850  0.67781550  0.50000000  1
  I  I35  1  0.04770150  0.32218450  0.50000000  1
  I  I36  1  0.95229850  0.32218450  0.00000000  1
  I  I37  1  0.04770150  0.67781550  0.00000000  1
  I  I38  1  0.33607800  0.48240800  0.50000000  1
  I  I39  1  0.66392200  0.51759200  0.50000000  1
  I  I40  1  0.75000000  0.25000000  0.27610900  1
  I  I41  1  0.75000000  0.75000000  0.22389100  1
  I  I42  1  0.75000000  0.25000000  0.72389100  1
  I  I43  1  0.75000000  0.75000000  0.77610900  1
