# generated using pymatgen
data_Sr2Bi
_symmetry_space_group_name_H-M   'P 1'
_cell_length_a   5.15263400
_cell_length_b   5.15263400
_cell_length_c   18.15562600
_cell_angle_alpha   90.00000000
_cell_angle_beta   90.00000000
_cell_angle_gamma   90.00000000
_symmetry_Int_Tables_number   1
_chemical_formula_structural   Sr2Bi
_chemical_formula_sum   'Sr8 Bi4'
_cell_volume   482.02528231
_cell_formula_units_Z   4
loop_
 _symmetry_equiv_pos_site_id
 _symmetry_equiv_pos_as_xyz
  1  'x, y, z'
loop_
 _atom_site_type_symbol
 _atom_site_label
 _atom_site_symmetry_multiplicity
 _atom_site_fract_x
 _atom_site_fract_y
 _atom_site_fract_z
 _atom_site_occupancy
  Sr  Sr0  1  0.50000000  0.00000000  0.00000000  1
  Sr  Sr1  1  0.00000000  0.50000000  0.00000000  1
  Sr  Sr2  1  0.00000000  0.00000000  0.32323200  1
  Sr  Sr3  1  0.50000000  0.50000000  0.17676800  1
  Sr  Sr4  1  0.00000000  0.50000000  0.50000000  1
  Sr  Sr5  1  0.50000000  0.00000000  0.50000000  1
  Sr  Sr6  1  0.50000000  0.50000000  0.82323200  1
  Sr  Sr7  1  0.00000000  0.00000000  0.67676800  1
  Bi  Bi8  1  0.00000000  0.00000000  0.13554400  1
  Bi  Bi9  1  0.50000000  0.50000000  0.36445600  1
  Bi  Bi10  1  0.50000000  0.50000000  0.63554400  1
  Bi  Bi11  1  0.00000000  0.00000000  0.86445600  1
