# generated using pymatgen
data_GdVO4
_symmetry_space_group_name_H-M   'P 1'
_cell_length_a   7.29773200
_cell_length_b   7.29773200
_cell_length_c   6.41546400
_cell_angle_alpha   90.00000000
_cell_angle_beta   90.00000000
_cell_angle_gamma   90.00000000
_symmetry_Int_Tables_number   1
_chemical_formula_structural   GdVO4
_chemical_formula_sum   'Gd4 V4 O16'
_cell_volume   341.66767558
_cell_formula_units_Z   4
loop_
 _symmetry_equiv_pos_site_id
 _symmetry_equiv_pos_as_xyz
  1  'x, y, z'
loop_
 _atom_site_type_symbol
 _atom_site_label
 _atom_site_symmetry_multiplicity
 _atom_site_fract_x
 _atom_site_fract_y
 _atom_site_fract_z
 _atom_site_occupancy
  Gd  Gd0  1  0.50000000  0.50000000  0.50000000  1
  Gd  Gd1  1  0.50000000  0.00000000  0.25000000  1
  Gd  Gd2  1  0.00000000  0.00000000  0.00000000  1
  Gd  Gd3  1  0.00000000  0.50000000  0.75000000  1
  V  V4  1  0.50000000  0.00000000  0.75000000  1
  V  V5  1  0.00000000  0.00000000  0.50000000  1
  V  V6  1  0.00000000  0.50000000  0.25000000  1
  V  V7  1  0.50000000  0.50000000  0.00000000  1
  O  O8  1  0.50000000  0.18328100  0.57622000  1
  O  O9  1  0.00000000  0.31671900  0.07622000  1
  O  O10  1  0.81671900  0.50000000  0.42378000  1
  O  O11  1  0.00000000  0.18328100  0.67378000  1
  O  O12  1  0.00000000  0.81671900  0.67378000  1
  O  O13  1  0.68328100  0.00000000  0.92378000  1
  O  O14  1  0.81671900  0.00000000  0.32622000  1
  O  O15  1  0.18328100  0.00000000  0.32622000  1
  O  O16  1  0.00000000  0.68328100  0.07622000  1
  O  O17  1  0.50000000  0.81671900  0.57622000  1
  O  O18  1  0.31671900  0.00000000  0.92378000  1
  O  O19  1  0.50000000  0.68328100  0.17378000  1
  O  O20  1  0.50000000  0.31671900  0.17378000  1
  O  O21  1  0.18328100  0.50000000  0.42378000  1
  O  O22  1  0.31671900  0.50000000  0.82622000  1
  O  O23  1  0.68328100  0.50000000  0.82622000  1
