# generated using pymatgen
data_CuO
_symmetry_space_group_name_H-M   'P 1'
_cell_length_a   8.77793200
_cell_length_b   8.77793200
_cell_length_c   3.67496400
_cell_angle_alpha   90.00000000
_cell_angle_beta   90.00000000
_cell_angle_gamma   90.00000000
_symmetry_Int_Tables_number   1
_chemical_formula_structural   CuO
_chemical_formula_sum   'Cu8 O8'
_cell_volume   283.16365760
_cell_formula_units_Z   8
loop_
 _symmetry_equiv_pos_site_id
 _symmetry_equiv_pos_as_xyz
  1  'x, y, z'
loop_
 _atom_site_type_symbol
 _atom_site_label
 _atom_site_symmetry_multiplicity
 _atom_site_fract_x
 _atom_site_fract_y
 _atom_site_fract_z
 _atom_site_occupancy
  Cu  Cu0  1  0.66737400  0.66737400  0.50000000  1
  Cu  Cu1  1  0.83262600  0.16737400  0.00000000  1
  Cu  Cu2  1  0.66737400  0.33262600  0.50000000  1
  Cu  Cu3  1  0.83262600  0.83262600  0.00000000  1
  Cu  Cu4  1  0.16737400  0.16737400  0.00000000  1
  Cu  Cu5  1  0.33262600  0.66737400  0.50000000  1
  Cu  Cu6  1  0.16737400  0.83262600  0.00000000  1
  Cu  Cu7  1  0.33262600  0.33262600  0.50000000  1
  O  O8  1  0.27340600  0.00000000  0.00000000  1
  O  O9  1  0.50000000  0.77340600  0.50000000  1
  O  O10  1  0.50000000  0.22659400  0.50000000  1
  O  O11  1  0.72659400  0.00000000  0.00000000  1
  O  O12  1  0.77340600  0.50000000  0.50000000  1
  O  O13  1  0.00000000  0.27340600  0.00000000  1
  O  O14  1  0.00000000  0.72659400  0.00000000  1
  O  O15  1  0.22659400  0.50000000  0.50000000  1
