# generated using pymatgen
data_Sr4Mn3(ClO4)2
_symmetry_space_group_name_H-M   'P 1'
_cell_length_a   3.91953766
_cell_length_b   3.91953766
_cell_length_c   32.87945104
_cell_angle_alpha   90.00000000
_cell_angle_beta   90.00000000
_cell_angle_gamma   90.00000000
_symmetry_Int_Tables_number   1
_chemical_formula_structural   Sr4Mn3(ClO4)2
_chemical_formula_sum   'Sr8 Mn6 Cl4 O16'
_cell_volume   505.11962331
_cell_formula_units_Z   2
loop_
 _symmetry_equiv_pos_site_id
 _symmetry_equiv_pos_as_xyz
  1  'x, y, z'
loop_
 _atom_site_type_symbol
 _atom_site_label
 _atom_site_symmetry_multiplicity
 _atom_site_fract_x
 _atom_site_fract_y
 _atom_site_fract_z
 _atom_site_occupancy
  Sr  Sr0  1  0.00000000  0.00000000  0.67802907  1
  Sr  Sr1  1  0.50000000  0.50000000  0.82197093  1
  Sr  Sr2  1  0.00000000  0.00000000  0.55708348  1
  Sr  Sr3  1  0.50000000  0.50000000  0.94291652  1
  Sr  Sr4  1  0.50000000  0.50000000  0.17802907  1
  Sr  Sr5  1  0.00000000  0.00000000  0.32197093  1
  Sr  Sr6  1  0.50000000  0.50000000  0.05708348  1
  Sr  Sr7  1  0.00000000  0.00000000  0.44291652  1
  Mn  Mn8  1  0.00000000  0.00000000  0.00000000  1
  Mn  Mn9  1  0.00000000  0.00000000  0.88035425  1
  Mn  Mn10  1  0.50000000  0.50000000  0.61964575  1
  Mn  Mn11  1  0.50000000  0.50000000  0.50000000  1
  Mn  Mn12  1  0.50000000  0.50000000  0.38035425  1
  Mn  Mn13  1  0.00000000  0.00000000  0.11964575  1
  Cl  Cl14  1  0.50000000  0.50000000  0.71450355  1
  Cl  Cl15  1  0.00000000  0.00000000  0.78549645  1
  Cl  Cl16  1  0.00000000  0.00000000  0.21450355  1
  Cl  Cl17  1  0.50000000  0.50000000  0.28549645  1
  O  O18  1  0.50000000  0.00000000  0.62882143  1
  O  O19  1  0.50000000  0.00000000  0.87117857  1
  O  O20  1  0.00000000  0.50000000  0.00000000  1
  O  O21  1  0.50000000  0.00000000  0.00000000  1
  O  O22  1  0.00000000  0.50000000  0.62882143  1
  O  O23  1  0.50000000  0.50000000  0.55988275  1
  O  O24  1  0.00000000  0.50000000  0.87117857  1
  O  O25  1  0.00000000  0.00000000  0.94011725  1
  O  O26  1  0.00000000  0.50000000  0.12882143  1
  O  O27  1  0.00000000  0.50000000  0.37117857  1
  O  O28  1  0.50000000  0.00000000  0.50000000  1
  O  O29  1  0.00000000  0.50000000  0.50000000  1
  O  O30  1  0.50000000  0.00000000  0.12882143  1
  O  O31  1  0.00000000  0.00000000  0.05988275  1
  O  O32  1  0.50000000  0.00000000  0.37117857  1
  O  O33  1  0.50000000  0.50000000  0.44011725  1
