# generated using pymatgen
data_CaCrO3
_symmetry_space_group_name_H-M   'P 1'
_cell_length_a   5.33343300
_cell_length_b   5.47225500
_cell_length_c   7.54876000
_cell_angle_alpha   90.00000000
_cell_angle_beta   90.00000000
_cell_angle_gamma   90.00000000
_symmetry_Int_Tables_number   1
_chemical_formula_structural   CaCrO3
_chemical_formula_sum   'Ca4 Cr4 O12'
_cell_volume   220.31739527
_cell_formula_units_Z   4
loop_
 _symmetry_equiv_pos_site_id
 _symmetry_equiv_pos_as_xyz
  1  'x, y, z'
loop_
 _atom_site_type_symbol
 _atom_site_label
 _atom_site_symmetry_multiplicity
 _atom_site_fract_x
 _atom_site_fract_y
 _atom_site_fract_z
 _atom_site_occupancy
  Ca  Ca0  1  0.49213700  0.54496500  0.25000000  1
  Ca  Ca1  1  0.99213700  0.95503500  0.75000000  1
  Ca  Ca2  1  0.00786300  0.04496500  0.25000000  1
  Ca  Ca3  1  0.50786300  0.45503500  0.75000000  1
  Cr  Cr4  1  0.00000000  0.50000000  0.00000000  1
  Cr  Cr5  1  0.50000000  0.00000000  0.00000000  1
  Cr  Cr6  1  0.50000000  0.00000000  0.50000000  1
  Cr  Cr7  1  0.00000000  0.50000000  0.50000000  1
  O  O8  1  0.42285500  0.02136700  0.75000000  1
  O  O9  1  0.92285500  0.47863300  0.25000000  1
  O  O10  1  0.07714500  0.52136700  0.75000000  1
  O  O11  1  0.57714500  0.97863300  0.25000000  1
  O  O12  1  0.21229800  0.79706100  0.46007050  1
  O  O13  1  0.71229800  0.70293900  0.53992950  1
  O  O14  1  0.28770200  0.29706100  0.03992950  1
  O  O15  1  0.78770200  0.20293900  0.96007050  1
  O  O16  1  0.21229800  0.79706100  0.03992950  1
  O  O17  1  0.71229800  0.70293900  0.96007050  1
  O  O18  1  0.78770200  0.20293900  0.53992950  1
  O  O19  1  0.28770200  0.29706100  0.46007050  1
