# generated using pymatgen
data_U(CrC)4
_symmetry_space_group_name_H-M   'P 1'
_cell_length_a   7.95355400
_cell_length_b   7.95355400
_cell_length_c   3.02034800
_cell_angle_alpha   90.00000000
_cell_angle_beta   90.00000000
_cell_angle_gamma   90.00000000
_symmetry_Int_Tables_number   1
_chemical_formula_structural   U(CrC)4
_chemical_formula_sum   'U2 Cr8 C8'
_cell_volume   191.06425826
_cell_formula_units_Z   2
loop_
 _symmetry_equiv_pos_site_id
 _symmetry_equiv_pos_as_xyz
  1  'x, y, z'
loop_
 _atom_site_type_symbol
 _atom_site_label
 _atom_site_symmetry_multiplicity
 _atom_site_fract_x
 _atom_site_fract_y
 _atom_site_fract_z
 _atom_site_occupancy
  U  U0  1  0.00000000  0.00000000  0.00000000  1
  U  U1  1  0.50000000  0.50000000  0.50000000  1
  Cr  Cr2  1  0.67927750  0.13527750  0.50000000  1
  Cr  Cr3  1  0.32072250  0.86472250  0.50000000  1
  Cr  Cr4  1  0.36472250  0.17927750  0.00000000  1
  Cr  Cr5  1  0.63527750  0.82072250  0.00000000  1
  Cr  Cr6  1  0.17927750  0.63527750  0.00000000  1
  Cr  Cr7  1  0.82072250  0.36472250  0.00000000  1
  Cr  Cr8  1  0.86472250  0.67927750  0.50000000  1
  Cr  Cr9  1  0.13527750  0.32072250  0.50000000  1
  C  C10  1  0.23496950  0.09592550  0.50000000  1
  C  C11  1  0.76503050  0.90407450  0.50000000  1
  C  C12  1  0.40407450  0.73496950  0.00000000  1
  C  C13  1  0.59592550  0.26503050  0.00000000  1
  C  C14  1  0.73496950  0.59592550  0.00000000  1
  C  C15  1  0.26503050  0.40407450  0.00000000  1
  C  C16  1  0.90407450  0.23496950  0.50000000  1
  C  C17  1  0.09592550  0.76503050  0.50000000  1
