# generated using pymatgen
data_ZrBr2
_symmetry_space_group_name_H-M   'P 1'
_cell_length_a   13.84787012
_cell_length_b   13.84787012
_cell_length_c   9.68547153
_cell_angle_alpha   90.00000000
_cell_angle_beta   90.00000000
_cell_angle_gamma   120.00000000
_symmetry_Int_Tables_number   1
_chemical_formula_structural   ZrBr2
_chemical_formula_sum   'Zr18 Br36'
_cell_volume   1608.48629125
_cell_formula_units_Z   18
loop_
 _symmetry_equiv_pos_site_id
 _symmetry_equiv_pos_as_xyz
  1  'x, y, z'
loop_
 _atom_site_type_symbol
 _atom_site_label
 _atom_site_symmetry_multiplicity
 _atom_site_fract_x
 _atom_site_fract_y
 _atom_site_fract_z
 _atom_site_occupancy
  Zr  Zr0  1  0.10653700  0.95874600  0.86218100  1
  Zr  Zr1  1  0.04125400  0.14779100  0.86218100  1
  Zr  Zr2  1  0.85220900  0.89346300  0.86218100  1
  Zr  Zr3  1  0.89346300  0.04125400  0.13781900  1
  Zr  Zr4  1  0.95874600  0.85220900  0.13781900  1
  Zr  Zr5  1  0.14779100  0.10653700  0.13781900  1
  Zr  Zr6  1  0.77320367  0.29207933  0.19551433  1
  Zr  Zr7  1  0.70792067  0.48112433  0.19551433  1
  Zr  Zr8  1  0.51887567  0.22679633  0.19551433  1
  Zr  Zr9  1  0.56012967  0.37458733  0.47115233  1
  Zr  Zr10  1  0.62541267  0.18554233  0.47115233  1
  Zr  Zr11  1  0.81445767  0.43987033  0.47115233  1
  Zr  Zr12  1  0.43987033  0.62541267  0.52884767  1
  Zr  Zr13  1  0.37458733  0.81445767  0.52884767  1
  Zr  Zr14  1  0.18554233  0.56012967  0.52884767  1
  Zr  Zr15  1  0.22679633  0.70792067  0.80448567  1
  Zr  Zr16  1  0.29207933  0.51887567  0.80448567  1
  Zr  Zr17  1  0.48112433  0.77320367  0.80448567  1
  Br  Br18  1  0.95020200  0.82416900  0.68096200  1
  Br  Br19  1  0.17583100  0.12603300  0.68096200  1
  Br  Br20  1  0.87396700  0.04979800  0.68096200  1
  Br  Br21  1  0.04979800  0.17583100  0.31903800  1
  Br  Br22  1  0.82416900  0.87396700  0.31903800  1
  Br  Br23  1  0.12603300  0.95020200  0.31903800  1
  Br  Br24  1  0.64061500  0.74700600  0.67016000  1
  Br  Br25  1  0.10639100  0.35938500  0.67016000  1
  Br  Br26  1  0.25299400  0.89360900  0.67016000  1
  Br  Br27  1  0.35938500  0.25299400  0.32984000  1
  Br  Br28  1  0.89360900  0.64061500  0.32984000  1
  Br  Br29  1  0.74700600  0.10639100  0.32984000  1
  Br  Br30  1  0.61686867  0.15750233  0.01429533  1
  Br  Br31  1  0.84249767  0.45936633  0.01429533  1
  Br  Br32  1  0.54063367  0.38313133  0.01429533  1
  Br  Br33  1  0.71646467  0.50916433  0.65237133  1
  Br  Br34  1  0.49083567  0.20730033  0.65237133  1
  Br  Br35  1  0.79269967  0.28353533  0.65237133  1
  Br  Br36  1  0.30728167  0.08033933  0.00349333  1
  Br  Br37  1  0.77305767  0.69271833  0.00349333  1
  Br  Br38  1  0.91966067  0.22694233  0.00349333  1
  Br  Br39  1  0.02605167  0.58632733  0.66317333  1
  Br  Br40  1  0.56027567  0.97394833  0.66317333  1
  Br  Br41  1  0.41367267  0.43972433  0.66317333  1
  Br  Br42  1  0.28353533  0.49083567  0.34762867  1
  Br  Br43  1  0.50916433  0.79269967  0.34762867  1
  Br  Br44  1  0.20730033  0.71646467  0.34762867  1
  Br  Br45  1  0.38313133  0.84249767  0.98570467  1
  Br  Br46  1  0.15750233  0.54063367  0.98570467  1
  Br  Br47  1  0.45936633  0.61686867  0.98570467  1
  Br  Br48  1  0.97394833  0.41367267  0.33682667  1
  Br  Br49  1  0.43972433  0.02605167  0.33682667  1
  Br  Br50  1  0.58632733  0.56027567  0.33682667  1
  Br  Br51  1  0.69271833  0.91966067  0.99650667  1
  Br  Br52  1  0.22694233  0.30728167  0.99650667  1
  Br  Br53  1  0.08033933  0.77305767  0.99650667  1
