# generated using pymatgen
data_CoPb2WO6
_symmetry_space_group_name_H-M   'P 1'
_cell_length_a   9.87986060
_cell_length_b   5.72539040
_cell_length_c   5.77952592
_cell_angle_alpha   90.00000000
_cell_angle_beta   125.62302818
_cell_angle_gamma   90.00000000
_symmetry_Int_Tables_number   1
_chemical_formula_structural   CoPb2WO6
_chemical_formula_sum   'Co2 Pb4 W2 O12'
_cell_volume   265.74645908
_cell_formula_units_Z   2
loop_
 _symmetry_equiv_pos_site_id
 _symmetry_equiv_pos_as_xyz
  1  'x, y, z'
loop_
 _atom_site_type_symbol
 _atom_site_label
 _atom_site_symmetry_multiplicity
 _atom_site_fract_x
 _atom_site_fract_y
 _atom_site_fract_z
 _atom_site_occupancy
  Co  Co0  1  0.50000000  0.00000000  0.00000000  1
  Co  Co1  1  0.00000000  0.50000000  0.00000000  1
  Pb  Pb2  1  0.25046400  0.50000000  0.74070700  1
  Pb  Pb3  1  0.24953600  0.00000000  0.25929300  1
  Pb  Pb4  1  0.75046400  0.00000000  0.74070700  1
  Pb  Pb5  1  0.74953600  0.50000000  0.25929300  1
  W  W6  1  0.00000000  0.00000000  0.50000000  1
  W  W7  1  0.50000000  0.50000000  0.50000000  1
  O  O8  1  0.23948650  0.00000000  0.79791950  1
  O  O9  1  0.26051350  0.50000000  0.20208050  1
  O  O10  1  0.53329400  0.25904950  0.29574500  1
  O  O11  1  0.96670600  0.75904950  0.70425500  1
  O  O12  1  0.96670600  0.24095050  0.70425500  1
  O  O13  1  0.53329400  0.74095050  0.29574500  1
  O  O14  1  0.73948650  0.50000000  0.79791950  1
  O  O15  1  0.76051350  0.00000000  0.20208050  1
  O  O16  1  0.03329400  0.75904950  0.29574500  1
  O  O17  1  0.46670600  0.25904950  0.70425500  1
  O  O18  1  0.46670600  0.74095050  0.70425500  1
  O  O19  1  0.03329400  0.24095050  0.29574500  1
