# generated using pymatgen
data_MnSO4
_symmetry_space_group_name_H-M   'P 1'
_cell_length_a   5.32314422
_cell_length_b   8.20521578
_cell_length_c   6.94360500
_cell_angle_alpha   90.00000000
_cell_angle_beta   90.00000000
_cell_angle_gamma   90.00000000
_symmetry_Int_Tables_number   1
_chemical_formula_structural   MnSO4
_chemical_formula_sum   'Mn4 S4 O16'
_cell_volume   303.27963350
_cell_formula_units_Z   4
loop_
 _symmetry_equiv_pos_site_id
 _symmetry_equiv_pos_as_xyz
  1  'x, y, z'
loop_
 _atom_site_type_symbol
 _atom_site_label
 _atom_site_symmetry_multiplicity
 _atom_site_fract_x
 _atom_site_fract_y
 _atom_site_fract_z
 _atom_site_occupancy
  Mn  Mn0  1  0.00000000  0.00000000  0.50000000  1
  Mn  Mn1  1  0.00000000  0.00000000  0.00000000  1
  Mn  Mn2  1  0.50000000  0.50000000  0.50000000  1
  Mn  Mn3  1  0.50000000  0.50000000  0.00000000  1
  S  S4  1  0.50000000  0.85085600  0.75000000  1
  S  S5  1  0.50000000  0.14914400  0.25000000  1
  S  S6  1  0.00000000  0.35085600  0.75000000  1
  S  S7  1  0.00000000  0.64914400  0.25000000  1
  O  O8  1  0.26969350  0.04120300  0.25000000  1
  O  O9  1  0.73030650  0.95879700  0.75000000  1
  O  O10  1  0.26969350  0.95879700  0.75000000  1
  O  O11  1  0.73030650  0.04120300  0.25000000  1
  O  O12  1  0.50000000  0.24739200  0.42716900  1
  O  O13  1  0.50000000  0.75260800  0.92716900  1
  O  O14  1  0.50000000  0.75260800  0.57283100  1
  O  O15  1  0.50000000  0.24739200  0.07283100  1
  O  O16  1  0.76969350  0.54120300  0.25000000  1
  O  O17  1  0.23030650  0.45879700  0.75000000  1
  O  O18  1  0.76969350  0.45879700  0.75000000  1
  O  O19  1  0.23030650  0.54120300  0.25000000  1
  O  O20  1  0.00000000  0.74739200  0.42716900  1
  O  O21  1  0.00000000  0.25260800  0.92716900  1
  O  O22  1  0.00000000  0.25260800  0.57283100  1
  O  O23  1  0.00000000  0.74739200  0.07283100  1
