# generated using pymatgen
data_Cu2Cl2O
_symmetry_space_group_name_H-M   'P 1'
_cell_length_a   8.04723600
_cell_length_b   9.41441400
_cell_length_c   9.95603400
_cell_angle_alpha   90.00000000
_cell_angle_beta   90.00000000
_cell_angle_gamma   90.00000000
_symmetry_Int_Tables_number   1
_chemical_formula_structural   Cu2Cl2O
_chemical_formula_sum   'Cu16 Cl16 O8'
_cell_volume   754.26924794
_cell_formula_units_Z   8
loop_
 _symmetry_equiv_pos_site_id
 _symmetry_equiv_pos_as_xyz
  1  'x, y, z'
loop_
 _atom_site_type_symbol
 _atom_site_label
 _atom_site_symmetry_multiplicity
 _atom_site_fract_x
 _atom_site_fract_y
 _atom_site_fract_z
 _atom_site_occupancy
  Cu  Cu0  1  0.87500000  0.62500000  0.37500000  1
  Cu  Cu1  1  0.87500000  0.87500000  0.12500000  1
  Cu  Cu2  1  0.62500000  0.62500000  0.12500000  1
  Cu  Cu3  1  0.62500000  0.87500000  0.37500000  1
  Cu  Cu4  1  0.87500000  0.12500000  0.87500000  1
  Cu  Cu5  1  0.87500000  0.37500000  0.62500000  1
  Cu  Cu6  1  0.62500000  0.12500000  0.62500000  1
  Cu  Cu7  1  0.62500000  0.37500000  0.87500000  1
  Cu  Cu8  1  0.37500000  0.62500000  0.87500000  1
  Cu  Cu9  1  0.37500000  0.87500000  0.62500000  1
  Cu  Cu10  1  0.12500000  0.62500000  0.62500000  1
  Cu  Cu11  1  0.12500000  0.87500000  0.87500000  1
  Cu  Cu12  1  0.37500000  0.12500000  0.37500000  1
  Cu  Cu13  1  0.37500000  0.37500000  0.12500000  1
  Cu  Cu14  1  0.12500000  0.12500000  0.12500000  1
  Cu  Cu15  1  0.12500000  0.37500000  0.37500000  1
  Cl  Cl16  1  0.00000000  0.00000000  0.28814800  1
  Cl  Cl17  1  0.50000000  0.00000000  0.21185200  1
  Cl  Cl18  1  0.75000000  0.25000000  0.03814800  1
  Cl  Cl19  1  0.75000000  0.25000000  0.46185200  1
  Cl  Cl20  1  0.00000000  0.50000000  0.78814800  1
  Cl  Cl21  1  0.50000000  0.50000000  0.71185200  1
  Cl  Cl22  1  0.75000000  0.75000000  0.53814800  1
  Cl  Cl23  1  0.75000000  0.75000000  0.96185200  1
  Cl  Cl24  1  0.50000000  0.00000000  0.78814800  1
  Cl  Cl25  1  0.00000000  0.00000000  0.71185200  1
  Cl  Cl26  1  0.25000000  0.25000000  0.53814800  1
  Cl  Cl27  1  0.25000000  0.25000000  0.96185200  1
  Cl  Cl28  1  0.50000000  0.50000000  0.28814800  1
  Cl  Cl29  1  0.00000000  0.50000000  0.21185200  1
  Cl  Cl30  1  0.25000000  0.75000000  0.03814800  1
  Cl  Cl31  1  0.25000000  0.75000000  0.46185200  1
  O  O32  1  0.00000000  0.00000000  0.00000000  1
  O  O33  1  0.75000000  0.75000000  0.25000000  1
  O  O34  1  0.00000000  0.50000000  0.50000000  1
  O  O35  1  0.75000000  0.25000000  0.75000000  1
  O  O36  1  0.50000000  0.00000000  0.50000000  1
  O  O37  1  0.25000000  0.75000000  0.75000000  1
  O  O38  1  0.50000000  0.50000000  0.00000000  1
  O  O39  1  0.25000000  0.25000000  0.25000000  1
