# generated using pymatgen
data_MnTl2H2OF5
_symmetry_space_group_name_H-M   'P 1'
_cell_length_a   7.96982493
_cell_length_b   10.05112457
_cell_length_c   8.50629900
_cell_angle_alpha   90.00000000
_cell_angle_beta   90.00000000
_cell_angle_gamma   90.00000000
_symmetry_Int_Tables_number   1
_chemical_formula_structural   MnTl2H2OF5
_chemical_formula_sum   'Mn4 Tl8 H8 O4 F20'
_cell_volume   681.40306224
_cell_formula_units_Z   4
loop_
 _symmetry_equiv_pos_site_id
 _symmetry_equiv_pos_as_xyz
  1  'x, y, z'
loop_
 _atom_site_type_symbol
 _atom_site_label
 _atom_site_symmetry_multiplicity
 _atom_site_fract_x
 _atom_site_fract_y
 _atom_site_fract_z
 _atom_site_occupancy
  Mn  Mn0  1  0.50000000  0.50000000  0.50000000  1
  Mn  Mn1  1  0.50000000  0.50000000  0.00000000  1
  Mn  Mn2  1  0.00000000  0.00000000  0.50000000  1
  Mn  Mn3  1  0.00000000  0.00000000  0.00000000  1
  Tl  Tl4  1  0.69059650  0.19843450  0.75000000  1
  Tl  Tl5  1  0.30940350  0.80156550  0.25000000  1
  Tl  Tl6  1  0.69059650  0.80156550  0.75000000  1
  Tl  Tl7  1  0.30940350  0.19843450  0.25000000  1
  Tl  Tl8  1  0.19059650  0.69843450  0.75000000  1
  Tl  Tl9  1  0.80940350  0.30156550  0.25000000  1
  Tl  Tl10  1  0.19059650  0.30156550  0.75000000  1
  Tl  Tl11  1  0.80940350  0.69843450  0.25000000  1
  H  H12  1  0.36928800  0.00000000  0.84321500  1
  H  H13  1  0.63071200  0.00000000  0.34321500  1
  H  H14  1  0.36928800  0.00000000  0.65678500  1
  H  H15  1  0.63071200  0.00000000  0.15678500  1
  H  H16  1  0.86928800  0.50000000  0.84321500  1
  H  H17  1  0.13071200  0.50000000  0.34321500  1
  H  H18  1  0.86928800  0.50000000  0.65678500  1
  H  H19  1  0.13071200  0.50000000  0.15678500  1
  O  O20  1  0.44427050  0.00000000  0.75000000  1
  O  O21  1  0.55572950  0.00000000  0.25000000  1
  O  O22  1  0.94427050  0.50000000  0.75000000  1
  O  O23  1  0.05572950  0.50000000  0.25000000  1
  F  F24  1  0.00379700  0.00000000  0.25000000  1
  F  F25  1  0.99620300  0.00000000  0.75000000  1
  F  F26  1  0.50000000  0.68823725  0.00000000  1
  F  F27  1  0.50000000  0.31176275  0.50000000  1
  F  F28  1  0.50000000  0.31176275  0.00000000  1
  F  F29  1  0.50000000  0.68823725  0.50000000  1
  F  F30  1  0.24085150  0.00000000  0.00260350  1
  F  F31  1  0.75914850  0.00000000  0.50260350  1
  F  F32  1  0.24085150  0.00000000  0.49739650  1
  F  F33  1  0.75914850  0.00000000  0.99739650  1
  F  F34  1  0.50379700  0.50000000  0.25000000  1
  F  F35  1  0.49620300  0.50000000  0.75000000  1
  F  F36  1  0.00000000  0.18823725  0.00000000  1
  F  F37  1  0.00000000  0.81176275  0.50000000  1
  F  F38  1  0.00000000  0.81176275  0.00000000  1
  F  F39  1  0.00000000  0.18823725  0.50000000  1
  F  F40  1  0.74085150  0.50000000  0.00260350  1
  F  F41  1  0.25914850  0.50000000  0.50260350  1
  F  F42  1  0.74085150  0.50000000  0.49739650  1
  F  F43  1  0.25914850  0.50000000  0.99739650  1
