# generated using pymatgen
data_La2NiO4
_symmetry_space_group_name_H-M   'P 1'
_cell_length_a   5.51165200
_cell_length_b   12.43808700
_cell_length_c   5.67646700
_cell_angle_alpha   90.00000000
_cell_angle_beta   90.00000000
_cell_angle_gamma   90.00000000
_symmetry_Int_Tables_number   1
_chemical_formula_structural   La2NiO4
_chemical_formula_sum   'La8 Ni4 O16'
_cell_volume   389.14682962
_cell_formula_units_Z   4
loop_
 _symmetry_equiv_pos_site_id
 _symmetry_equiv_pos_as_xyz
  1  'x, y, z'
loop_
 _atom_site_type_symbol
 _atom_site_label
 _atom_site_symmetry_multiplicity
 _atom_site_fract_x
 _atom_site_fract_y
 _atom_site_fract_z
 _atom_site_occupancy
  La  La0  1  0.50000000  0.36227450  0.01473300  1
  La  La1  1  0.00000000  0.13772550  0.98526700  1
  La  La2  1  0.00000000  0.36227450  0.48526700  1
  La  La3  1  0.50000000  0.13772550  0.51473300  1
  La  La4  1  0.00000000  0.86227450  0.01473300  1
  La  La5  1  0.50000000  0.63772550  0.98526700  1
  La  La6  1  0.50000000  0.86227450  0.48526700  1
  La  La7  1  0.00000000  0.63772550  0.51473300  1
  Ni  Ni8  1  0.00000000  0.00000000  0.50000000  1
  Ni  Ni9  1  0.50000000  0.00000000  0.00000000  1
  Ni  Ni10  1  0.50000000  0.50000000  0.50000000  1
  Ni  Ni11  1  0.00000000  0.50000000  0.00000000  1
  O  O12  1  0.75000000  0.01523100  0.25000000  1
  O  O13  1  0.25000000  0.48476900  0.75000000  1
  O  O14  1  0.75000000  0.48476900  0.75000000  1
  O  O15  1  0.25000000  0.01523100  0.25000000  1
  O  O16  1  0.50000000  0.17857550  0.93656600  1
  O  O17  1  0.00000000  0.32142450  0.06343400  1
  O  O18  1  0.00000000  0.17857550  0.56343400  1
  O  O19  1  0.50000000  0.32142450  0.43656600  1
  O  O20  1  0.25000000  0.51523100  0.25000000  1
  O  O21  1  0.75000000  0.98476900  0.75000000  1
  O  O22  1  0.25000000  0.98476900  0.75000000  1
  O  O23  1  0.75000000  0.51523100  0.25000000  1
  O  O24  1  0.00000000  0.67857550  0.93656600  1
  O  O25  1  0.50000000  0.82142450  0.06343400  1
  O  O26  1  0.50000000  0.67857550  0.56343400  1
  O  O27  1  0.00000000  0.82142450  0.43656600  1
