# generated using pymatgen
data_Li11Ge6
_symmetry_space_group_name_H-M   'P 1'
_cell_length_a   4.31922600
_cell_length_b   24.87309400
_cell_length_c   10.62123900
_cell_angle_alpha   90.00000000
_cell_angle_beta   90.00000000
_cell_angle_gamma   90.00000000
_symmetry_Int_Tables_number   1
_chemical_formula_structural   Li11Ge6
_chemical_formula_sum   'Li44 Ge24'
_cell_volume   1141.06641081
_cell_formula_units_Z   4
loop_
 _symmetry_equiv_pos_site_id
 _symmetry_equiv_pos_as_xyz
  1  'x, y, z'
loop_
 _atom_site_type_symbol
 _atom_site_label
 _atom_site_symmetry_multiplicity
 _atom_site_fract_x
 _atom_site_fract_y
 _atom_site_fract_z
 _atom_site_occupancy
  Li  Li0  1  0.50000000  0.67984600  0.88025200  1
  Li  Li1  1  0.00000000  0.82015400  0.11974800  1
  Li  Li2  1  0.00000000  0.82015400  0.38025200  1
  Li  Li3  1  0.50000000  0.67984600  0.61974800  1
  Li  Li4  1  0.00000000  0.90946400  0.00070600  1
  Li  Li5  1  0.50000000  0.59053600  0.99929400  1
  Li  Li6  1  0.50000000  0.59053600  0.50070600  1
  Li  Li7  1  0.00000000  0.90946400  0.49929400  1
  Li  Li8  1  0.50000000  0.64330300  0.25000000  1
  Li  Li9  1  0.00000000  0.85669700  0.75000000  1
  Li  Li10  1  0.50000000  0.52587300  0.25000000  1
  Li  Li11  1  0.00000000  0.97412700  0.75000000  1
  Li  Li12  1  0.00000000  0.63945500  0.75000000  1
  Li  Li13  1  0.50000000  0.86054500  0.25000000  1
  Li  Li14  1  0.00000000  0.53500000  0.88740500  1
  Li  Li15  1  0.50000000  0.96500000  0.11259500  1
  Li  Li16  1  0.50000000  0.96500000  0.38740500  1
  Li  Li17  1  0.00000000  0.53500000  0.61259500  1
  Li  Li18  1  0.00000000  0.75826900  0.60558000  1
  Li  Li19  1  0.50000000  0.74173100  0.39442000  1
  Li  Li20  1  0.50000000  0.74173100  0.10558000  1
  Li  Li21  1  0.00000000  0.75826900  0.89442000  1
  Li  Li22  1  0.00000000  0.17984600  0.88025200  1
  Li  Li23  1  0.50000000  0.32015400  0.11974800  1
  Li  Li24  1  0.50000000  0.32015400  0.38025200  1
  Li  Li25  1  0.00000000  0.17984600  0.61974800  1
  Li  Li26  1  0.50000000  0.40946400  0.00070600  1
  Li  Li27  1  0.00000000  0.09053600  0.99929400  1
  Li  Li28  1  0.00000000  0.09053600  0.50070600  1
  Li  Li29  1  0.50000000  0.40946400  0.49929400  1
  Li  Li30  1  0.00000000  0.14330300  0.25000000  1
  Li  Li31  1  0.50000000  0.35669700  0.75000000  1
  Li  Li32  1  0.00000000  0.02587300  0.25000000  1
  Li  Li33  1  0.50000000  0.47412700  0.75000000  1
  Li  Li34  1  0.50000000  0.13945500  0.75000000  1
  Li  Li35  1  0.00000000  0.36054500  0.25000000  1
  Li  Li36  1  0.50000000  0.03500000  0.88740500  1
  Li  Li37  1  0.00000000  0.46500000  0.11259500  1
  Li  Li38  1  0.00000000  0.46500000  0.38740500  1
  Li  Li39  1  0.50000000  0.03500000  0.61259500  1
  Li  Li40  1  0.50000000  0.25826900  0.60558000  1
  Li  Li41  1  0.00000000  0.24173100  0.39442000  1
  Li  Li42  1  0.00000000  0.24173100  0.10558000  1
  Li  Li43  1  0.50000000  0.25826900  0.89442000  1
  Ge  Ge44  1  0.00000000  0.91927100  0.25000000  1
  Ge  Ge45  1  0.50000000  0.58072900  0.75000000  1
  Ge  Ge46  1  0.00000000  0.72842700  0.25000000  1
  Ge  Ge47  1  0.50000000  0.77157300  0.75000000  1
  Ge  Ge48  1  0.50000000  0.82885100  0.55203100  1
  Ge  Ge49  1  0.00000000  0.67114900  0.44796900  1
  Ge  Ge50  1  0.00000000  0.67114900  0.05203100  1
  Ge  Ge51  1  0.50000000  0.82885100  0.94796900  1
  Ge  Ge52  1  0.50000000  0.92449900  0.63398300  1
  Ge  Ge53  1  0.00000000  0.57550100  0.36601700  1
  Ge  Ge54  1  0.00000000  0.57550100  0.13398300  1
  Ge  Ge55  1  0.50000000  0.92449900  0.86601700  1
  Ge  Ge56  1  0.50000000  0.41927100  0.25000000  1
  Ge  Ge57  1  0.00000000  0.08072900  0.75000000  1
  Ge  Ge58  1  0.50000000  0.22842700  0.25000000  1
  Ge  Ge59  1  0.00000000  0.27157300  0.75000000  1
  Ge  Ge60  1  0.00000000  0.32885100  0.55203100  1
  Ge  Ge61  1  0.50000000  0.17114900  0.44796900  1
  Ge  Ge62  1  0.50000000  0.17114900  0.05203100  1
  Ge  Ge63  1  0.00000000  0.32885100  0.94796900  1
  Ge  Ge64  1  0.00000000  0.42449900  0.63398300  1
  Ge  Ge65  1  0.50000000  0.07550100  0.36601700  1
  Ge  Ge66  1  0.50000000  0.07550100  0.13398300  1
  Ge  Ge67  1  0.00000000  0.42449900  0.86601700  1
