# generated using pymatgen
data_U2C3
_symmetry_space_group_name_H-M   'P 1'
_cell_length_a   8.05035600
_cell_length_b   8.05035600
_cell_length_c   8.05035600
_cell_angle_alpha   90.00000000
_cell_angle_beta   90.00000000
_cell_angle_gamma   90.00000000
_symmetry_Int_Tables_number   1
_chemical_formula_structural   U2C3
_chemical_formula_sum   'U16 C24'
_cell_volume   521.72933713
_cell_formula_units_Z   8
loop_
 _symmetry_equiv_pos_site_id
 _symmetry_equiv_pos_as_xyz
  1  'x, y, z'
loop_
 _atom_site_type_symbol
 _atom_site_label
 _atom_site_symmetry_multiplicity
 _atom_site_fract_x
 _atom_site_fract_y
 _atom_site_fract_z
 _atom_site_occupancy
  U  U0  1  0.29913750  0.29913750  0.29913750  1
  U  U1  1  0.95086250  0.45086250  0.04913750  1
  U  U2  1  0.45086250  0.04913750  0.95086250  1
  U  U3  1  0.04913750  0.95086250  0.45086250  1
  U  U4  1  0.70086250  0.79913750  0.20086250  1
  U  U5  1  0.79913750  0.20086250  0.70086250  1
  U  U6  1  0.20086250  0.70086250  0.79913750  1
  U  U7  1  0.04913750  0.04913750  0.04913750  1
  U  U8  1  0.79913750  0.79913750  0.79913750  1
  U  U9  1  0.45086250  0.95086250  0.54913750  1
  U  U10  1  0.95086250  0.54913750  0.45086250  1
  U  U11  1  0.54913750  0.45086250  0.95086250  1
  U  U12  1  0.20086250  0.29913750  0.70086250  1
  U  U13  1  0.29913750  0.70086250  0.20086250  1
  U  U14  1  0.70086250  0.20086250  0.29913750  1
  U  U15  1  0.54913750  0.54913750  0.54913750  1
  C  C16  1  0.00000000  0.75000000  0.03575400  1
  C  C17  1  0.00000000  0.75000000  0.21424600  1
  C  C18  1  0.28575400  0.00000000  0.25000000  1
  C  C19  1  0.25000000  0.28575400  0.00000000  1
  C  C20  1  0.21424600  0.00000000  0.75000000  1
  C  C21  1  0.75000000  0.21424600  0.00000000  1
  C  C22  1  0.00000000  0.25000000  0.46424600  1
  C  C23  1  0.25000000  0.46424600  0.00000000  1
  C  C24  1  0.00000000  0.25000000  0.28575400  1
  C  C25  1  0.46424600  0.00000000  0.25000000  1
  C  C26  1  0.03575400  0.00000000  0.75000000  1
  C  C27  1  0.75000000  0.03575400  0.00000000  1
  C  C28  1  0.50000000  0.25000000  0.53575400  1
  C  C29  1  0.50000000  0.25000000  0.71424600  1
  C  C30  1  0.78575400  0.50000000  0.75000000  1
  C  C31  1  0.75000000  0.78575400  0.50000000  1
  C  C32  1  0.71424600  0.50000000  0.25000000  1
  C  C33  1  0.25000000  0.71424600  0.50000000  1
  C  C34  1  0.50000000  0.75000000  0.96424600  1
  C  C35  1  0.75000000  0.96424600  0.50000000  1
  C  C36  1  0.50000000  0.75000000  0.78575400  1
  C  C37  1  0.96424600  0.50000000  0.75000000  1
  C  C38  1  0.53575400  0.50000000  0.25000000  1
  C  C39  1  0.25000000  0.53575400  0.50000000  1
