# generated using pymatgen
data_K2Mo9S11
_symmetry_space_group_name_H-M   'P 1'
_cell_length_a   9.40642978
_cell_length_b   9.40642978
_cell_length_c   36.18088379
_cell_angle_alpha   90.00000000
_cell_angle_beta   90.00000000
_cell_angle_gamma   120.00000000
_symmetry_Int_Tables_number   1
_chemical_formula_structural   K2Mo9S11
_chemical_formula_sum   'K12 Mo54 S66'
_cell_volume   2772.42265169
_cell_formula_units_Z   6
loop_
 _symmetry_equiv_pos_site_id
 _symmetry_equiv_pos_as_xyz
  1  'x, y, z'
loop_
 _atom_site_type_symbol
 _atom_site_label
 _atom_site_symmetry_multiplicity
 _atom_site_fract_x
 _atom_site_fract_y
 _atom_site_fract_z
 _atom_site_occupancy
  K  K0  1  0.00000000  0.00000000  0.05357200  1
  K  K1  1  0.66666667  0.33333333  0.27976133  1
  K  K2  1  0.33333333  0.66666667  0.11309467  1
  K  K3  1  0.33333333  0.66666667  0.22023867  1
  K  K4  1  0.66666667  0.33333333  0.38690533  1
  K  K5  1  0.33333333  0.66666667  0.61309467  1
  K  K6  1  0.00000000  0.00000000  0.44642800  1
  K  K7  1  0.00000000  0.00000000  0.55357200  1
  K  K8  1  0.33333333  0.66666667  0.72023867  1
  K  K9  1  0.00000000  0.00000000  0.94642800  1
  K  K10  1  0.66666667  0.33333333  0.77976133  1
  K  K11  1  0.66666667  0.33333333  0.88690533  1
  Mo  Mo12  1  0.16878567  0.15872933  0.18698733  1
  Mo  Mo13  1  0.84127067  0.01005633  0.18698733  1
  Mo  Mo14  1  0.98994367  0.83121433  0.18698733  1
  Mo  Mo15  1  0.01005633  0.84127067  0.31301267  1
  Mo  Mo16  1  0.15872933  0.16878567  0.31301267  1
  Mo  Mo17  1  0.83121433  0.98994367  0.31301267  1
  Mo  Mo18  1  0.49788100  0.17460400  0.14634600  1
  Mo  Mo19  1  0.82539600  0.32327700  0.14634600  1
  Mo  Mo20  1  0.67672300  0.50211900  0.14634600  1
  Mo  Mo21  1  0.65661033  0.49206267  0.02032067  1
  Mo  Mo22  1  0.50793733  0.16454767  0.02032067  1
  Mo  Mo23  1  0.83545233  0.34338967  0.02032067  1
  Mo  Mo24  1  0.83236700  0.83236700  0.25000000  1
  Mo  Mo25  1  0.16763300  0.00000000  0.25000000  1
  Mo  Mo26  1  0.00000000  0.16763300  0.25000000  1
  Mo  Mo27  1  0.83429967  0.50096633  0.08333333  1
  Mo  Mo28  1  0.49903367  0.33333333  0.08333333  1
  Mo  Mo29  1  0.66666667  0.16570033  0.08333333  1
  Mo  Mo30  1  0.83545233  0.49206267  0.52032067  1
  Mo  Mo31  1  0.50793733  0.34338967  0.52032067  1
  Mo  Mo32  1  0.65661033  0.16454767  0.52032067  1
  Mo  Mo33  1  0.67672300  0.17460400  0.64634600  1
  Mo  Mo34  1  0.82539600  0.50211900  0.64634600  1
  Mo  Mo35  1  0.49788100  0.32327700  0.64634600  1
  Mo  Mo36  1  0.16454767  0.50793733  0.47967933  1
  Mo  Mo37  1  0.49206267  0.65661033  0.47967933  1
  Mo  Mo38  1  0.34338967  0.83545233  0.47967933  1
  Mo  Mo39  1  0.32327700  0.82539600  0.35365400  1
  Mo  Mo40  1  0.17460400  0.49788100  0.35365400  1
  Mo  Mo41  1  0.50211900  0.67672300  0.35365400  1
  Mo  Mo42  1  0.49903367  0.16570033  0.58333333  1
  Mo  Mo43  1  0.83429967  0.33333333  0.58333333  1
  Mo  Mo44  1  0.66666667  0.50096633  0.58333333  1
  Mo  Mo45  1  0.50096633  0.83429967  0.41666667  1
  Mo  Mo46  1  0.16570033  0.66666667  0.41666667  1
  Mo  Mo47  1  0.33333333  0.49903367  0.41666667  1
  Mo  Mo48  1  0.50211900  0.82539600  0.85365400  1
  Mo  Mo49  1  0.17460400  0.67672300  0.85365400  1
  Mo  Mo50  1  0.32327700  0.49788100  0.85365400  1
  Mo  Mo51  1  0.34338967  0.50793733  0.97967933  1
  Mo  Mo52  1  0.49206267  0.83545233  0.97967933  1
  Mo  Mo53  1  0.16454767  0.65661033  0.97967933  1
  Mo  Mo54  1  0.83121433  0.84127067  0.81301267  1
  Mo  Mo55  1  0.15872933  0.98994367  0.81301267  1
  Mo  Mo56  1  0.01005633  0.16878567  0.81301267  1
  Mo  Mo57  1  0.98994367  0.15872933  0.68698733  1
  Mo  Mo58  1  0.84127067  0.83121433  0.68698733  1
  Mo  Mo59  1  0.16878567  0.01005633  0.68698733  1
  Mo  Mo60  1  0.16570033  0.49903367  0.91666667  1
  Mo  Mo61  1  0.50096633  0.66666667  0.91666667  1
  Mo  Mo62  1  0.33333333  0.83429967  0.91666667  1
  Mo  Mo63  1  0.16763300  0.16763300  0.75000000  1
  Mo  Mo64  1  0.83236700  0.00000000  0.75000000  1
  Mo  Mo65  1  0.00000000  0.83236700  0.75000000  1
  S  S66  1  0.30346100  0.30346100  0.25000000  1
  S  S67  1  0.68851233  0.04196367  0.02541067  1
  S  S68  1  0.00000000  0.69653900  0.25000000  1
  S  S69  1  0.35345133  0.31148767  0.02541067  1
  S  S70  1  0.00000000  0.00000000  0.13618600  1
  S  S71  1  0.33333333  0.66666667  0.03048067  1
  S  S72  1  0.66666667  0.33333333  0.19714733  1
  S  S73  1  0.33333333  0.66666667  0.30285267  1
  S  S74  1  0.02184567  0.31321533  0.19207733  1
  S  S75  1  0.68678467  0.70863033  0.19207733  1
  S  S76  1  0.29136967  0.97815433  0.19207733  1
  S  S77  1  0.70863033  0.68678467  0.30792267  1
  S  S78  1  0.31321533  0.02184567  0.30792267  1
  S  S79  1  0.97815433  0.29136967  0.30792267  1
  S  S80  1  0.64482100  0.02011800  0.14125600  1
  S  S81  1  0.97988200  0.62470300  0.14125600  1
  S  S82  1  0.37529700  0.35517900  0.14125600  1
  S  S83  1  0.95803633  0.64654867  0.02541067  1
  S  S84  1  0.97012767  0.33333333  0.08333333  1
  S  S85  1  0.36320567  0.02987233  0.08333333  1
  S  S86  1  0.66666667  0.63679433  0.08333333  1
  S  S87  1  0.69653900  0.00000000  0.25000000  1
  S  S88  1  0.97012767  0.63679433  0.58333333  1
  S  S89  1  0.35517900  0.37529700  0.35874400  1
  S  S90  1  0.66666667  0.02987233  0.58333333  1
  S  S91  1  0.02011800  0.64482100  0.35874400  1
  S  S92  1  0.66666667  0.33333333  0.46951933  1
  S  S93  1  0.00000000  0.00000000  0.36381400  1
  S  S94  1  0.33333333  0.66666667  0.53048067  1
  S  S95  1  0.00000000  0.00000000  0.63618600  1
  S  S96  1  0.68851233  0.64654867  0.52541067  1
  S  S97  1  0.35345133  0.04196367  0.52541067  1
  S  S98  1  0.95803633  0.31148767  0.52541067  1
  S  S99  1  0.37529700  0.02011800  0.64125600  1
  S  S100  1  0.97988200  0.35517900  0.64125600  1
  S  S101  1  0.64482100  0.62470300  0.64125600  1
  S  S102  1  0.31148767  0.35345133  0.47458933  1
  S  S103  1  0.64654867  0.95803633  0.47458933  1
  S  S104  1  0.04196367  0.68851233  0.47458933  1
  S  S105  1  0.62470300  0.97988200  0.35874400  1
  S  S106  1  0.63679433  0.66666667  0.41666667  1
  S  S107  1  0.02987233  0.36320567  0.41666667  1
  S  S108  1  0.33333333  0.97012767  0.41666667  1
  S  S109  1  0.36320567  0.33333333  0.58333333  1
  S  S110  1  0.63679433  0.97012767  0.91666667  1
  S  S111  1  0.02184567  0.70863033  0.69207733  1
  S  S112  1  0.33333333  0.36320567  0.91666667  1
  S  S113  1  0.68678467  0.97815433  0.69207733  1
  S  S114  1  0.33333333  0.66666667  0.80285267  1
  S  S115  1  0.66666667  0.33333333  0.69714733  1
  S  S116  1  0.00000000  0.00000000  0.86381400  1
  S  S117  1  0.66666667  0.33333333  0.96951933  1
  S  S118  1  0.35517900  0.97988200  0.85874400  1
  S  S119  1  0.02011800  0.37529700  0.85874400  1
  S  S120  1  0.62470300  0.64482100  0.85874400  1
  S  S121  1  0.04196367  0.35345133  0.97458933  1
  S  S122  1  0.64654867  0.68851233  0.97458933  1
  S  S123  1  0.31148767  0.95803633  0.97458933  1
  S  S124  1  0.97815433  0.68678467  0.80792267  1
  S  S125  1  0.31321533  0.29136967  0.80792267  1
  S  S126  1  0.70863033  0.02184567  0.80792267  1
  S  S127  1  0.29136967  0.31321533  0.69207733  1
  S  S128  1  0.30346100  0.00000000  0.75000000  1
  S  S129  1  0.69653900  0.69653900  0.75000000  1
  S  S130  1  0.00000000  0.30346100  0.75000000  1
  S  S131  1  0.02987233  0.66666667  0.91666667  1
