# generated using pymatgen
data_Ca2InPt2
_symmetry_space_group_name_H-M   'P 1'
_cell_length_a   10.19856200
_cell_length_b   5.71745200
_cell_length_c   8.22868716
_cell_angle_alpha   90.00000000
_cell_angle_beta   104.65357612
_cell_angle_gamma   90.00000000
_symmetry_Int_Tables_number   1
_chemical_formula_structural   Ca2InPt2
_chemical_formula_sum   'Ca8 In4 Pt8'
_cell_volume   464.20615210
_cell_formula_units_Z   4
loop_
 _symmetry_equiv_pos_site_id
 _symmetry_equiv_pos_as_xyz
  1  'x, y, z'
loop_
 _atom_site_type_symbol
 _atom_site_label
 _atom_site_symmetry_multiplicity
 _atom_site_fract_x
 _atom_site_fract_y
 _atom_site_fract_z
 _atom_site_occupancy
  Ca  Ca0  1  0.64894700  0.14709700  0.64908600  1
  Ca  Ca1  1  0.85105300  0.64709700  0.85091400  1
  Ca  Ca2  1  0.85105300  0.35290300  0.35091400  1
  Ca  Ca3  1  0.64894700  0.85290300  0.14908600  1
  Ca  Ca4  1  0.14894700  0.64709700  0.64908600  1
  Ca  Ca5  1  0.35105300  0.14709700  0.85091400  1
  Ca  Ca6  1  0.35105300  0.85290300  0.35091400  1
  Ca  Ca7  1  0.14894700  0.35290300  0.14908600  1
  In  In8  1  0.00000000  0.15168500  0.75000000  1
  In  In9  1  0.00000000  0.84831500  0.25000000  1
  In  In10  1  0.50000000  0.65168500  0.75000000  1
  In  In11  1  0.50000000  0.34831500  0.25000000  1
  Pt  Pt12  1  0.63659550  0.36060350  0.00369800  1
  Pt  Pt13  1  0.86340450  0.86060350  0.49630200  1
  Pt  Pt14  1  0.86340450  0.13939650  0.99630200  1
  Pt  Pt15  1  0.63659550  0.63939650  0.50369800  1
  Pt  Pt16  1  0.13659550  0.86060350  0.00369800  1
  Pt  Pt17  1  0.36340450  0.36060350  0.49630200  1
  Pt  Pt18  1  0.36340450  0.63939650  0.99630200  1
  Pt  Pt19  1  0.13659550  0.13939650  0.50369800  1
