# generated using pymatgen
data_Ce4Bi3
_symmetry_space_group_name_H-M   'P 1'
_cell_length_a   9.71410800
_cell_length_b   9.71410800
_cell_length_c   9.71410800
_cell_angle_alpha   90.00000000
_cell_angle_beta   90.00000000
_cell_angle_gamma   90.00000000
_symmetry_Int_Tables_number   1
_chemical_formula_structural   Ce4Bi3
_chemical_formula_sum   'Ce16 Bi12'
_cell_volume   916.66105991
_cell_formula_units_Z   4
loop_
 _symmetry_equiv_pos_site_id
 _symmetry_equiv_pos_as_xyz
  1  'x, y, z'
loop_
 _atom_site_type_symbol
 _atom_site_label
 _atom_site_symmetry_multiplicity
 _atom_site_fract_x
 _atom_site_fract_y
 _atom_site_fract_z
 _atom_site_occupancy
  Ce  Ce0  1  0.32450150  0.32450150  0.32450150  1
  Ce  Ce1  1  0.82450150  0.17549850  0.67549850  1
  Ce  Ce2  1  0.17549850  0.67549850  0.82450150  1
  Ce  Ce3  1  0.92549850  0.42549850  0.07450150  1
  Ce  Ce4  1  0.07450150  0.92549850  0.42549850  1
  Ce  Ce5  1  0.42549850  0.07450150  0.92549850  1
  Ce  Ce6  1  0.07450150  0.07450150  0.07450150  1
  Ce  Ce7  1  0.67549850  0.82450150  0.17549850  1
  Ce  Ce8  1  0.82450150  0.82450150  0.82450150  1
  Ce  Ce9  1  0.32450150  0.67549850  0.17549850  1
  Ce  Ce10  1  0.67549850  0.17549850  0.32450150  1
  Ce  Ce11  1  0.42549850  0.92549850  0.57450150  1
  Ce  Ce12  1  0.57450150  0.42549850  0.92549850  1
  Ce  Ce13  1  0.92549850  0.57450150  0.42549850  1
  Ce  Ce14  1  0.57450150  0.57450150  0.57450150  1
  Ce  Ce15  1  0.17549850  0.32450150  0.67549850  1
  Bi  Bi16  1  0.12500000  0.00000000  0.75000000  1
  Bi  Bi17  1  0.25000000  0.37500000  0.00000000  1
  Bi  Bi18  1  0.37500000  0.00000000  0.25000000  1
  Bi  Bi19  1  0.00000000  0.75000000  0.12500000  1
  Bi  Bi20  1  0.00000000  0.25000000  0.37500000  1
  Bi  Bi21  1  0.75000000  0.12500000  0.00000000  1
  Bi  Bi22  1  0.62500000  0.50000000  0.25000000  1
  Bi  Bi23  1  0.75000000  0.87500000  0.50000000  1
  Bi  Bi24  1  0.87500000  0.50000000  0.75000000  1
  Bi  Bi25  1  0.50000000  0.25000000  0.62500000  1
  Bi  Bi26  1  0.50000000  0.75000000  0.87500000  1
  Bi  Bi27  1  0.25000000  0.62500000  0.50000000  1
