# generated using pymatgen
data_K3NaFeCl6
_symmetry_space_group_name_H-M   'P 1'
_cell_length_a   12.21398940
_cell_length_b   12.21398940
_cell_length_c   13.87488004
_cell_angle_alpha   90.00000000
_cell_angle_beta   90.00000000
_cell_angle_gamma   120.00000000
_symmetry_Int_Tables_number   1
_chemical_formula_structural   K3NaFeCl6
_chemical_formula_sum   'K18 Na6 Fe6 Cl36'
_cell_volume   1792.56513942
_cell_formula_units_Z   6
loop_
 _symmetry_equiv_pos_site_id
 _symmetry_equiv_pos_as_xyz
  1  'x, y, z'
loop_
 _atom_site_type_symbol
 _atom_site_label
 _atom_site_symmetry_multiplicity
 _atom_site_fract_x
 _atom_site_fract_y
 _atom_site_fract_z
 _atom_site_occupancy
  K  K0  1  0.33333333  0.04293967  0.41666667  1
  K  K1  1  0.95706033  0.29039367  0.41666667  1
  K  K2  1  0.70960633  0.66666667  0.41666667  1
  K  K3  1  0.66666667  0.95706033  0.58333333  1
  K  K4  1  0.04293967  0.70960633  0.58333333  1
  K  K5  1  0.29039367  0.33333333  0.58333333  1
  K  K6  1  0.00000000  0.37627300  0.75000000  1
  K  K7  1  0.62372700  0.62372700  0.75000000  1
  K  K8  1  0.37627300  0.00000000  0.75000000  1
  K  K9  1  0.33333333  0.29039367  0.91666667  1
  K  K10  1  0.70960633  0.04293967  0.91666667  1
  K  K11  1  0.95706033  0.66666667  0.91666667  1
  K  K12  1  0.66666667  0.70960633  0.08333333  1
  K  K13  1  0.29039367  0.95706033  0.08333333  1
  K  K14  1  0.04293967  0.33333333  0.08333333  1
  K  K15  1  0.00000000  0.62372700  0.25000000  1
  K  K16  1  0.37627300  0.37627300  0.25000000  1
  K  K17  1  0.62372700  0.00000000  0.25000000  1
  Na  Na18  1  0.00000000  0.00000000  0.25000000  1
  Na  Na19  1  0.00000000  0.00000000  0.75000000  1
  Na  Na20  1  0.66666667  0.33333333  0.58333333  1
  Na  Na21  1  0.66666667  0.33333333  0.08333333  1
  Na  Na22  1  0.33333333  0.66666667  0.91666667  1
  Na  Na23  1  0.33333333  0.66666667  0.41666667  1
  Fe  Fe24  1  0.00000000  0.00000000  0.50000000  1
  Fe  Fe25  1  0.00000000  0.00000000  0.00000000  1
  Fe  Fe26  1  0.66666667  0.33333333  0.83333333  1
  Fe  Fe27  1  0.66666667  0.33333333  0.33333333  1
  Fe  Fe28  1  0.33333333  0.66666667  0.16666667  1
  Fe  Fe29  1  0.33333333  0.66666667  0.66666667  1
  Cl  Cl30  1  0.82200367  0.97296533  0.39367533  1
  Cl  Cl31  1  0.02703467  0.84903833  0.39367533  1
  Cl  Cl32  1  0.15096167  0.17799633  0.39367533  1
  Cl  Cl33  1  0.51570500  0.36036800  0.43965800  1
  Cl  Cl34  1  0.63963200  0.15533700  0.43965800  1
  Cl  Cl35  1  0.84466300  0.48429500  0.43965800  1
  Cl  Cl36  1  0.15533700  0.51570500  0.56034200  1
  Cl  Cl37  1  0.36036800  0.84466300  0.56034200  1
  Cl  Cl38  1  0.48429500  0.63963200  0.56034200  1
  Cl  Cl39  1  0.84903833  0.82200367  0.60632467  1
  Cl  Cl40  1  0.97296533  0.15096167  0.60632467  1
  Cl  Cl41  1  0.17799633  0.02703467  0.60632467  1
  Cl  Cl42  1  0.48867033  0.30629867  0.72700867  1
  Cl  Cl43  1  0.69370133  0.18237167  0.72700867  1
  Cl  Cl44  1  0.81762833  0.51132967  0.72700867  1
  Cl  Cl45  1  0.18237167  0.69370133  0.77299133  1
  Cl  Cl46  1  0.30629867  0.48867033  0.77299133  1
  Cl  Cl47  1  0.51132967  0.81762833  0.77299133  1
  Cl  Cl48  1  0.82200367  0.84903833  0.89367533  1
  Cl  Cl49  1  0.02703467  0.17799633  0.89367533  1
  Cl  Cl50  1  0.15096167  0.97296533  0.89367533  1
  Cl  Cl51  1  0.51570500  0.15533700  0.93965800  1
  Cl  Cl52  1  0.63963200  0.48429500  0.93965800  1
  Cl  Cl53  1  0.84466300  0.36036800  0.93965800  1
  Cl  Cl54  1  0.15533700  0.63963200  0.06034200  1
  Cl  Cl55  1  0.36036800  0.51570500  0.06034200  1
  Cl  Cl56  1  0.48429500  0.84466300  0.06034200  1
  Cl  Cl57  1  0.84903833  0.02703467  0.10632467  1
  Cl  Cl58  1  0.97296533  0.82200367  0.10632467  1
  Cl  Cl59  1  0.17799633  0.15096167  0.10632467  1
  Cl  Cl60  1  0.48867033  0.18237167  0.22700867  1
  Cl  Cl61  1  0.69370133  0.51132967  0.22700867  1
  Cl  Cl62  1  0.81762833  0.30629867  0.22700867  1
  Cl  Cl63  1  0.18237167  0.48867033  0.27299133  1
  Cl  Cl64  1  0.30629867  0.81762833  0.27299133  1
  Cl  Cl65  1  0.51132967  0.69370133  0.27299133  1
