# generated using pymatgen
data_Ho3Ge3Ir2
_symmetry_space_group_name_H-M   'P 1'
_cell_length_a   4.31049400
_cell_length_b   10.45147000
_cell_length_c   14.29018400
_cell_angle_alpha   90.00000000
_cell_angle_beta   90.00000000
_cell_angle_gamma   90.00000000
_symmetry_Int_Tables_number   1
_chemical_formula_structural   Ho3Ge3Ir2
_chemical_formula_sum   'Ho12 Ge12 Ir8'
_cell_volume   643.78706118
_cell_formula_units_Z   4
loop_
 _symmetry_equiv_pos_site_id
 _symmetry_equiv_pos_as_xyz
  1  'x, y, z'
loop_
 _atom_site_type_symbol
 _atom_site_label
 _atom_site_symmetry_multiplicity
 _atom_site_fract_x
 _atom_site_fract_y
 _atom_site_fract_z
 _atom_site_occupancy
  Ho  Ho0  1  0.00000000  0.08436700  0.61024700  1
  Ho  Ho1  1  0.50000000  0.41563300  0.38975300  1
  Ho  Ho2  1  0.50000000  0.41563300  0.11024700  1
  Ho  Ho3  1  0.00000000  0.08436700  0.88975300  1
  Ho  Ho4  1  0.00000000  0.35785800  0.75000000  1
  Ho  Ho5  1  0.50000000  0.14214200  0.25000000  1
  Ho  Ho6  1  0.50000000  0.58436700  0.61024700  1
  Ho  Ho7  1  0.00000000  0.91563300  0.38975300  1
  Ho  Ho8  1  0.00000000  0.91563300  0.11024700  1
  Ho  Ho9  1  0.50000000  0.58436700  0.88975300  1
  Ho  Ho10  1  0.50000000  0.85785800  0.75000000  1
  Ho  Ho11  1  0.00000000  0.64214200  0.25000000  1
  Ge  Ge12  1  0.50000000  0.15557000  0.75000000  1
  Ge  Ge13  1  0.00000000  0.34443000  0.25000000  1
  Ge  Ge14  1  0.50000000  0.12309900  0.03509800  1
  Ge  Ge15  1  0.00000000  0.37690100  0.96490200  1
  Ge  Ge16  1  0.00000000  0.37690100  0.53509800  1
  Ge  Ge17  1  0.50000000  0.12309900  0.46490200  1
  Ge  Ge18  1  0.00000000  0.65557000  0.75000000  1
  Ge  Ge19  1  0.50000000  0.84443000  0.25000000  1
  Ge  Ge20  1  0.00000000  0.62309900  0.03509800  1
  Ge  Ge21  1  0.50000000  0.87690100  0.96490200  1
  Ge  Ge22  1  0.50000000  0.87690100  0.53509800  1
  Ge  Ge23  1  0.00000000  0.62309900  0.46490200  1
  Ir  Ir24  1  0.00000000  0.20045100  0.10266800  1
  Ir  Ir25  1  0.50000000  0.29954900  0.89733200  1
  Ir  Ir26  1  0.50000000  0.29954900  0.60266800  1
  Ir  Ir27  1  0.00000000  0.20045100  0.39733200  1
  Ir  Ir28  1  0.50000000  0.70045100  0.10266800  1
  Ir  Ir29  1  0.00000000  0.79954900  0.89733200  1
  Ir  Ir30  1  0.00000000  0.79954900  0.60266800  1
  Ir  Ir31  1  0.50000000  0.70045100  0.39733200  1
