# generated using pymatgen
data_Co2Si(P2O7)2
_symmetry_space_group_name_H-M   'P 1'
_cell_length_a   17.10520400
_cell_length_b   5.02407800
_cell_length_c   12.42307966
_cell_angle_alpha   90.00000000
_cell_angle_beta   103.06483246
_cell_angle_gamma   90.00000000
_symmetry_Int_Tables_number   1
_chemical_formula_structural   Co2Si(P2O7)2
_chemical_formula_sum   'Co8 Si4 P16 O56'
_cell_volume   1039.97784552
_cell_formula_units_Z   4
loop_
 _symmetry_equiv_pos_site_id
 _symmetry_equiv_pos_as_xyz
  1  'x, y, z'
loop_
 _atom_site_type_symbol
 _atom_site_label
 _atom_site_symmetry_multiplicity
 _atom_site_fract_x
 _atom_site_fract_y
 _atom_site_fract_z
 _atom_site_occupancy
  Co  Co0  1  0.75330350  0.84886650  0.87008700  1
  Co  Co1  1  0.74669650  0.34886650  0.62991300  1
  Co  Co2  1  0.74669650  0.65113350  0.12991300  1
  Co  Co3  1  0.75330350  0.15113350  0.37008700  1
  Co  Co4  1  0.25330350  0.34886650  0.87008700  1
  Co  Co5  1  0.24669650  0.84886650  0.62991300  1
  Co  Co6  1  0.24669650  0.15113350  0.12991300  1
  Co  Co7  1  0.25330350  0.65113350  0.37008700  1
  Si  Si8  1  0.00000000  0.15065800  0.75000000  1
  Si  Si9  1  0.00000000  0.84934200  0.25000000  1
  Si  Si10  1  0.50000000  0.65065800  0.75000000  1
  Si  Si11  1  0.50000000  0.34934200  0.25000000  1
  P  P12  1  0.63568250  0.33335450  0.91539100  1
  P  P13  1  0.86431750  0.83335450  0.58460900  1
  P  P14  1  0.87402600  0.36076100  0.86445800  1
  P  P15  1  0.62597400  0.86076100  0.63554200  1
  P  P16  1  0.62597400  0.13923900  0.13554200  1
  P  P17  1  0.87402600  0.63923900  0.36445800  1
  P  P18  1  0.86431750  0.16664550  0.08460900  1
  P  P19  1  0.63568250  0.66664550  0.41539100  1
  P  P20  1  0.13568250  0.83335450  0.91539100  1
  P  P21  1  0.36431750  0.33335450  0.58460900  1
  P  P22  1  0.37402600  0.86076100  0.86445800  1
  P  P23  1  0.12597400  0.36076100  0.63554200  1
  P  P24  1  0.12597400  0.63923900  0.13554200  1
  P  P25  1  0.37402600  0.13923900  0.36445800  1
  P  P26  1  0.36431750  0.66664550  0.08460900  1
  P  P27  1  0.13568250  0.16664550  0.41539100  1
  O  O28  1  0.93719650  0.03913450  0.16814800  1
  O  O29  1  0.56280350  0.53913450  0.33185200  1
  O  O30  1  0.56280350  0.46086550  0.83185200  1
  O  O31  1  0.93719650  0.96086550  0.66814800  1
  O  O32  1  0.79742800  0.96531600  0.04650700  1
  O  O33  1  0.70257200  0.46531600  0.45349300  1
  O  O34  1  0.70257200  0.53468400  0.95349300  1
  O  O35  1  0.79742800  0.03468400  0.54650700  1
  O  O36  1  0.65569800  0.07351500  0.86894700  1
  O  O37  1  0.84430200  0.57351500  0.63105300  1
  O  O38  1  0.84430200  0.42648500  0.13105300  1
  O  O39  1  0.65569800  0.92648500  0.36894700  1
  O  O40  1  0.90595250  0.21908950  0.98255800  1
  O  O41  1  0.59404750  0.71908950  0.51744200  1
  O  O42  1  0.95416500  0.65737300  0.32132300  1
  O  O43  1  0.54583500  0.15737300  0.17867700  1
  O  O44  1  0.54583500  0.84262700  0.67867700  1
  O  O45  1  0.95416500  0.34262700  0.82132300  1
  O  O46  1  0.85599450  0.35141450  0.37909200  1
  O  O47  1  0.64400550  0.85141450  0.12090800  1
  O  O48  1  0.64400550  0.14858550  0.62090800  1
  O  O49  1  0.85599450  0.64858550  0.87909200  1
  O  O50  1  0.69289600  0.31035100  0.20446800  1
  O  O51  1  0.80710400  0.81035100  0.29553200  1
  O  O52  1  0.80710400  0.18964900  0.79553200  1
  O  O53  1  0.69289600  0.68964900  0.70446800  1
  O  O54  1  0.90595250  0.78091050  0.48255800  1
  O  O55  1  0.59404750  0.28091050  0.01744200  1
  O  O56  1  0.43719650  0.53913450  0.16814800  1
  O  O57  1  0.06280350  0.03913450  0.33185200  1
  O  O58  1  0.06280350  0.96086550  0.83185200  1
  O  O59  1  0.43719650  0.46086550  0.66814800  1
  O  O60  1  0.29742800  0.46531600  0.04650700  1
  O  O61  1  0.20257200  0.96531600  0.45349300  1
  O  O62  1  0.20257200  0.03468400  0.95349300  1
  O  O63  1  0.29742800  0.53468400  0.54650700  1
  O  O64  1  0.15569800  0.57351500  0.86894700  1
  O  O65  1  0.34430200  0.07351500  0.63105300  1
  O  O66  1  0.34430200  0.92648500  0.13105300  1
  O  O67  1  0.15569800  0.42648500  0.36894700  1
  O  O68  1  0.40595250  0.71908950  0.98255800  1
  O  O69  1  0.09404750  0.21908950  0.51744200  1
  O  O70  1  0.45416500  0.15737300  0.32132300  1
  O  O71  1  0.04583500  0.65737300  0.17867700  1
  O  O72  1  0.04583500  0.34262700  0.67867700  1
  O  O73  1  0.45416500  0.84262700  0.82132300  1
  O  O74  1  0.35599450  0.85141450  0.37909200  1
  O  O75  1  0.14400550  0.35141450  0.12090800  1
  O  O76  1  0.14400550  0.64858550  0.62090800  1
  O  O77  1  0.35599450  0.14858550  0.87909200  1
  O  O78  1  0.19289600  0.81035100  0.20446800  1
  O  O79  1  0.30710400  0.31035100  0.29553200  1
  O  O80  1  0.30710400  0.68964900  0.79553200  1
  O  O81  1  0.19289600  0.18964900  0.70446800  1
  O  O82  1  0.40595250  0.28091050  0.48255800  1
  O  O83  1  0.09404750  0.78091050  0.01744200  1
