# generated using pymatgen
data_Ni12P5
_symmetry_space_group_name_H-M   'P 1'
_cell_length_a   8.62873800
_cell_length_b   8.62873800
_cell_length_c   5.03646200
_cell_angle_alpha   90.00000000
_cell_angle_beta   90.00000000
_cell_angle_gamma   90.00000000
_symmetry_Int_Tables_number   1
_chemical_formula_structural   Ni12P5
_chemical_formula_sum   'Ni24 P10'
_cell_volume   374.99037993
_cell_formula_units_Z   2
loop_
 _symmetry_equiv_pos_site_id
 _symmetry_equiv_pos_as_xyz
  1  'x, y, z'
loop_
 _atom_site_type_symbol
 _atom_site_label
 _atom_site_symmetry_multiplicity
 _atom_site_fract_x
 _atom_site_fract_y
 _atom_site_fract_z
 _atom_site_occupancy
  Ni  Ni0  1  0.61689300  0.31908800  0.74879900  1
  Ni  Ni1  1  0.38310700  0.68091200  0.74879900  1
  Ni  Ni2  1  0.81908800  0.88310700  0.24879900  1
  Ni  Ni3  1  0.43965000  0.13386200  0.50000000  1
  Ni  Ni4  1  0.63386200  0.06035000  0.00000000  1
  Ni  Ni5  1  0.36613800  0.93965000  0.00000000  1
  Ni  Ni6  1  0.56035000  0.86613800  0.50000000  1
  Ni  Ni7  1  0.18091200  0.11689300  0.24879900  1
  Ni  Ni8  1  0.18091200  0.11689300  0.75120100  1
  Ni  Ni9  1  0.61689300  0.31908800  0.25120100  1
  Ni  Ni10  1  0.38310700  0.68091200  0.25120100  1
  Ni  Ni11  1  0.81908800  0.88310700  0.75120100  1
  Ni  Ni12  1  0.11689300  0.81908800  0.24879900  1
  Ni  Ni13  1  0.88310700  0.18091200  0.24879900  1
  Ni  Ni14  1  0.31908800  0.38310700  0.74879900  1
  Ni  Ni15  1  0.93965000  0.63386200  0.00000000  1
  Ni  Ni16  1  0.13386200  0.56035000  0.50000000  1
  Ni  Ni17  1  0.86613800  0.43965000  0.50000000  1
  Ni  Ni18  1  0.06035000  0.36613800  0.00000000  1
  Ni  Ni19  1  0.68091200  0.61689300  0.74879900  1
  Ni  Ni20  1  0.68091200  0.61689300  0.25120100  1
  Ni  Ni21  1  0.11689300  0.81908800  0.75120100  1
  Ni  Ni22  1  0.88310700  0.18091200  0.75120100  1
  Ni  Ni23  1  0.31908800  0.38310700  0.25120100  1
  P  P24  1  0.00000000  0.00000000  0.00000000  1
  P  P25  1  0.41312800  0.19456800  0.00000000  1
  P  P26  1  0.69456800  0.08687200  0.50000000  1
  P  P27  1  0.30543200  0.91312800  0.50000000  1
  P  P28  1  0.58687200  0.80543200  0.00000000  1
  P  P29  1  0.50000000  0.50000000  0.50000000  1
  P  P30  1  0.91312800  0.69456800  0.50000000  1
  P  P31  1  0.19456800  0.58687200  0.00000000  1
  P  P32  1  0.80543200  0.41312800  0.00000000  1
  P  P33  1  0.08687200  0.30543200  0.50000000  1
