# generated using pymatgen
data_NiO2
_symmetry_space_group_name_H-M   'P 1'
_cell_length_a   7.94188600
_cell_length_b   7.94188600
_cell_length_c   7.94188600
_cell_angle_alpha   90.00000000
_cell_angle_beta   90.00000000
_cell_angle_gamma   90.00000000
_symmetry_Int_Tables_number   1
_chemical_formula_structural   NiO2
_chemical_formula_sum   'Ni16 O32'
_cell_volume   500.92296942
_cell_formula_units_Z   16
loop_
 _symmetry_equiv_pos_site_id
 _symmetry_equiv_pos_as_xyz
  1  'x, y, z'
loop_
 _atom_site_type_symbol
 _atom_site_label
 _atom_site_symmetry_multiplicity
 _atom_site_fract_x
 _atom_site_fract_y
 _atom_site_fract_z
 _atom_site_occupancy
  Ni  Ni0  1  0.12500000  0.62500000  0.12500000  1
  Ni  Ni1  1  0.37500000  0.87500000  0.12500000  1
  Ni  Ni2  1  0.37500000  0.62500000  0.37500000  1
  Ni  Ni3  1  0.12500000  0.87500000  0.37500000  1
  Ni  Ni4  1  0.12500000  0.12500000  0.62500000  1
  Ni  Ni5  1  0.37500000  0.37500000  0.62500000  1
  Ni  Ni6  1  0.37500000  0.12500000  0.87500000  1
  Ni  Ni7  1  0.12500000  0.37500000  0.87500000  1
  Ni  Ni8  1  0.62500000  0.62500000  0.62500000  1
  Ni  Ni9  1  0.87500000  0.87500000  0.62500000  1
  Ni  Ni10  1  0.87500000  0.62500000  0.87500000  1
  Ni  Ni11  1  0.62500000  0.87500000  0.87500000  1
  Ni  Ni12  1  0.62500000  0.12500000  0.12500000  1
  Ni  Ni13  1  0.87500000  0.37500000  0.12500000  1
  Ni  Ni14  1  0.87500000  0.12500000  0.37500000  1
  Ni  Ni15  1  0.62500000  0.37500000  0.37500000  1
  O  O16  1  0.86078633  0.13921367  0.13921367  1
  O  O17  1  0.36078633  0.86078633  0.36078633  1
  O  O18  1  0.38921367  0.11078633  0.11078633  1
  O  O19  1  0.11078633  0.11078633  0.38921367  1
  O  O20  1  0.38921367  0.38921367  0.38921367  1
  O  O21  1  0.11078633  0.38921367  0.11078633  1
  O  O22  1  0.63921367  0.13921367  0.36078633  1
  O  O23  1  0.13921367  0.86078633  0.13921367  1
  O  O24  1  0.86078633  0.63921367  0.63921367  1
  O  O25  1  0.36078633  0.36078633  0.86078633  1
  O  O26  1  0.38921367  0.61078633  0.61078633  1
  O  O27  1  0.11078633  0.61078633  0.88921367  1
  O  O28  1  0.38921367  0.88921367  0.88921367  1
  O  O29  1  0.11078633  0.88921367  0.61078633  1
  O  O30  1  0.63921367  0.63921367  0.86078633  1
  O  O31  1  0.13921367  0.36078633  0.63921367  1
  O  O32  1  0.36078633  0.13921367  0.63921367  1
  O  O33  1  0.86078633  0.86078633  0.86078633  1
  O  O34  1  0.88921367  0.11078633  0.61078633  1
  O  O35  1  0.61078633  0.11078633  0.88921367  1
  O  O36  1  0.88921367  0.38921367  0.88921367  1
  O  O37  1  0.61078633  0.38921367  0.61078633  1
  O  O38  1  0.13921367  0.13921367  0.86078633  1
  O  O39  1  0.63921367  0.86078633  0.63921367  1
  O  O40  1  0.36078633  0.63921367  0.13921367  1
  O  O41  1  0.86078633  0.36078633  0.36078633  1
  O  O42  1  0.88921367  0.61078633  0.11078633  1
  O  O43  1  0.61078633  0.61078633  0.38921367  1
  O  O44  1  0.88921367  0.88921367  0.38921367  1
  O  O45  1  0.61078633  0.88921367  0.11078633  1
  O  O46  1  0.13921367  0.63921367  0.36078633  1
  O  O47  1  0.63921367  0.36078633  0.13921367  1
