# generated using pymatgen
data_Mn6Ni16P7
_symmetry_space_group_name_H-M   'P 1'
_cell_length_a   10.97127200
_cell_length_b   10.97127200
_cell_length_c   10.97127200
_cell_angle_alpha   90.00000000
_cell_angle_beta   90.00000000
_cell_angle_gamma   90.00000000
_symmetry_Int_Tables_number   1
_chemical_formula_structural   Mn6Ni16P7
_chemical_formula_sum   'Mn24 Ni64 P28'
_cell_volume   1320.59894712
_cell_formula_units_Z   4
loop_
 _symmetry_equiv_pos_site_id
 _symmetry_equiv_pos_as_xyz
  1  'x, y, z'
loop_
 _atom_site_type_symbol
 _atom_site_label
 _atom_site_symmetry_multiplicity
 _atom_site_fract_x
 _atom_site_fract_y
 _atom_site_fract_z
 _atom_site_occupancy
  Mn  Mn0  1  0.50000000  0.30863100  0.00000000  1
  Mn  Mn1  1  0.50000000  0.00000000  0.69136900  1
  Mn  Mn2  1  0.00000000  0.00000000  0.80863100  1
  Mn  Mn3  1  0.19136900  0.00000000  0.00000000  1
  Mn  Mn4  1  0.80863100  0.00000000  0.00000000  1
  Mn  Mn5  1  0.50000000  0.69136900  0.00000000  1
  Mn  Mn6  1  0.50000000  0.80863100  0.50000000  1
  Mn  Mn7  1  0.50000000  0.50000000  0.19136900  1
  Mn  Mn8  1  0.00000000  0.50000000  0.30863100  1
  Mn  Mn9  1  0.19136900  0.50000000  0.50000000  1
  Mn  Mn10  1  0.80863100  0.50000000  0.50000000  1
  Mn  Mn11  1  0.50000000  0.19136900  0.50000000  1
  Mn  Mn12  1  0.00000000  0.30863100  0.50000000  1
  Mn  Mn13  1  0.00000000  0.00000000  0.19136900  1
  Mn  Mn14  1  0.50000000  0.00000000  0.30863100  1
  Mn  Mn15  1  0.69136900  0.00000000  0.50000000  1
  Mn  Mn16  1  0.30863100  0.00000000  0.50000000  1
  Mn  Mn17  1  0.00000000  0.69136900  0.50000000  1
  Mn  Mn18  1  0.00000000  0.80863100  0.00000000  1
  Mn  Mn19  1  0.00000000  0.50000000  0.69136900  1
  Mn  Mn20  1  0.50000000  0.50000000  0.80863100  1
  Mn  Mn21  1  0.69136900  0.50000000  0.00000000  1
  Mn  Mn22  1  0.30863100  0.50000000  0.00000000  1
  Mn  Mn23  1  0.00000000  0.19136900  0.00000000  1
  Ni  Ni24  1  0.16421667  0.83578333  0.83578333  1
  Ni  Ni25  1  0.33578333  0.33578333  0.83578333  1
  Ni  Ni26  1  0.61674733  0.88325267  0.88325267  1
  Ni  Ni27  1  0.38325267  0.11674733  0.88325267  1
  Ni  Ni28  1  0.88325267  0.88325267  0.61674733  1
  Ni  Ni29  1  0.11674733  0.88325267  0.61674733  1
  Ni  Ni30  1  0.61674733  0.11674733  0.88325267  1
  Ni  Ni31  1  0.88325267  0.11674733  0.61674733  1
  Ni  Ni32  1  0.11674733  0.11674733  0.61674733  1
  Ni  Ni33  1  0.33578333  0.83578333  0.66421667  1
  Ni  Ni34  1  0.33578333  0.66421667  0.83578333  1
  Ni  Ni35  1  0.16421667  0.16421667  0.83578333  1
  Ni  Ni36  1  0.16421667  0.33578333  0.66421667  1
  Ni  Ni37  1  0.33578333  0.16421667  0.66421667  1
  Ni  Ni38  1  0.16421667  0.66421667  0.66421667  1
  Ni  Ni39  1  0.38325267  0.88325267  0.88325267  1
  Ni  Ni40  1  0.16421667  0.33578333  0.33578333  1
  Ni  Ni41  1  0.33578333  0.83578333  0.33578333  1
  Ni  Ni42  1  0.61674733  0.38325267  0.38325267  1
  Ni  Ni43  1  0.38325267  0.61674733  0.38325267  1
  Ni  Ni44  1  0.88325267  0.38325267  0.11674733  1
  Ni  Ni45  1  0.11674733  0.38325267  0.11674733  1
  Ni  Ni46  1  0.61674733  0.61674733  0.38325267  1
  Ni  Ni47  1  0.88325267  0.61674733  0.11674733  1
  Ni  Ni48  1  0.11674733  0.61674733  0.11674733  1
  Ni  Ni49  1  0.33578333  0.33578333  0.16421667  1
  Ni  Ni50  1  0.33578333  0.16421667  0.33578333  1
  Ni  Ni51  1  0.16421667  0.66421667  0.33578333  1
  Ni  Ni52  1  0.16421667  0.83578333  0.16421667  1
  Ni  Ni53  1  0.33578333  0.66421667  0.16421667  1
  Ni  Ni54  1  0.16421667  0.16421667  0.16421667  1
  Ni  Ni55  1  0.38325267  0.38325267  0.38325267  1
  Ni  Ni56  1  0.66421667  0.83578333  0.33578333  1
  Ni  Ni57  1  0.83578333  0.33578333  0.33578333  1
  Ni  Ni58  1  0.11674733  0.88325267  0.38325267  1
  Ni  Ni59  1  0.88325267  0.11674733  0.38325267  1
  Ni  Ni60  1  0.38325267  0.88325267  0.11674733  1
  Ni  Ni61  1  0.61674733  0.88325267  0.11674733  1
  Ni  Ni62  1  0.11674733  0.11674733  0.38325267  1
  Ni  Ni63  1  0.38325267  0.11674733  0.11674733  1
  Ni  Ni64  1  0.61674733  0.11674733  0.11674733  1
  Ni  Ni65  1  0.83578333  0.83578333  0.16421667  1
  Ni  Ni66  1  0.83578333  0.66421667  0.33578333  1
  Ni  Ni67  1  0.66421667  0.16421667  0.33578333  1
  Ni  Ni68  1  0.66421667  0.33578333  0.16421667  1
  Ni  Ni69  1  0.83578333  0.16421667  0.16421667  1
  Ni  Ni70  1  0.66421667  0.66421667  0.16421667  1
  Ni  Ni71  1  0.88325267  0.88325267  0.38325267  1
  Ni  Ni72  1  0.66421667  0.33578333  0.83578333  1
  Ni  Ni73  1  0.83578333  0.83578333  0.83578333  1
  Ni  Ni74  1  0.11674733  0.38325267  0.88325267  1
  Ni  Ni75  1  0.88325267  0.61674733  0.88325267  1
  Ni  Ni76  1  0.38325267  0.38325267  0.61674733  1
  Ni  Ni77  1  0.61674733  0.38325267  0.61674733  1
  Ni  Ni78  1  0.11674733  0.61674733  0.88325267  1
  Ni  Ni79  1  0.38325267  0.61674733  0.61674733  1
  Ni  Ni80  1  0.61674733  0.61674733  0.61674733  1
  Ni  Ni81  1  0.83578333  0.33578333  0.66421667  1
  Ni  Ni82  1  0.83578333  0.16421667  0.83578333  1
  Ni  Ni83  1  0.66421667  0.66421667  0.83578333  1
  Ni  Ni84  1  0.66421667  0.83578333  0.66421667  1
  Ni  Ni85  1  0.83578333  0.66421667  0.66421667  1
  Ni  Ni86  1  0.66421667  0.16421667  0.66421667  1
  Ni  Ni87  1  0.88325267  0.38325267  0.88325267  1
  P  P88  1  0.50000000  0.00000000  0.00000000  1
  P  P89  1  0.75000000  0.00000000  0.75000000  1
  P  P90  1  0.00000000  0.75000000  0.75000000  1
  P  P91  1  0.00000000  0.25000000  0.75000000  1
  P  P92  1  0.25000000  0.00000000  0.75000000  1
  P  P93  1  0.25000000  0.25000000  0.00000000  1
  P  P94  1  0.25000000  0.75000000  0.00000000  1
  P  P95  1  0.50000000  0.50000000  0.50000000  1
  P  P96  1  0.75000000  0.50000000  0.25000000  1
  P  P97  1  0.00000000  0.25000000  0.25000000  1
  P  P98  1  0.00000000  0.75000000  0.25000000  1
  P  P99  1  0.25000000  0.50000000  0.25000000  1
  P  P100  1  0.25000000  0.75000000  0.50000000  1
  P  P101  1  0.25000000  0.25000000  0.50000000  1
  P  P102  1  0.00000000  0.00000000  0.50000000  1
  P  P103  1  0.25000000  0.00000000  0.25000000  1
  P  P104  1  0.50000000  0.75000000  0.25000000  1
  P  P105  1  0.50000000  0.25000000  0.25000000  1
  P  P106  1  0.75000000  0.00000000  0.25000000  1
  P  P107  1  0.75000000  0.25000000  0.50000000  1
  P  P108  1  0.75000000  0.75000000  0.50000000  1
  P  P109  1  0.00000000  0.50000000  0.00000000  1
  P  P110  1  0.25000000  0.50000000  0.75000000  1
  P  P111  1  0.50000000  0.25000000  0.75000000  1
  P  P112  1  0.50000000  0.75000000  0.75000000  1
  P  P113  1  0.75000000  0.50000000  0.75000000  1
  P  P114  1  0.75000000  0.75000000  0.00000000  1
  P  P115  1  0.75000000  0.25000000  0.00000000  1
