# generated using pymatgen
data_Na2W2O7
_symmetry_space_group_name_H-M   'P 1'
_cell_length_a   7.38425200
_cell_length_b   12.10836800
_cell_length_c   15.04439300
_cell_angle_alpha   90.00000000
_cell_angle_beta   90.00000000
_cell_angle_gamma   90.00000000
_symmetry_Int_Tables_number   1
_chemical_formula_structural   Na2W2O7
_chemical_formula_sum   'Na16 W16 O56'
_cell_volume   1345.13784252
_cell_formula_units_Z   8
loop_
 _symmetry_equiv_pos_site_id
 _symmetry_equiv_pos_as_xyz
  1  'x, y, z'
loop_
 _atom_site_type_symbol
 _atom_site_label
 _atom_site_symmetry_multiplicity
 _atom_site_fract_x
 _atom_site_fract_y
 _atom_site_fract_z
 _atom_site_occupancy
  Na  Na0  1  0.50000000  0.83065100  0.34605300  1
  Na  Na1  1  0.25029300  0.00000000  0.00000000  1
  Na  Na2  1  0.50000000  0.16934900  0.65394700  1
  Na  Na3  1  0.74970700  0.00000000  0.00000000  1
  Na  Na4  1  0.24970700  0.00000000  0.50000000  1
  Na  Na5  1  0.75029300  0.00000000  0.50000000  1
  Na  Na6  1  0.50000000  0.33065100  0.15394700  1
  Na  Na7  1  0.50000000  0.66934900  0.84605300  1
  Na  Na8  1  0.00000000  0.33065100  0.34605300  1
  Na  Na9  1  0.75029300  0.50000000  0.00000000  1
  Na  Na10  1  0.00000000  0.66934900  0.65394700  1
  Na  Na11  1  0.24970700  0.50000000  0.00000000  1
  Na  Na12  1  0.74970700  0.50000000  0.50000000  1
  Na  Na13  1  0.25029300  0.50000000  0.50000000  1
  Na  Na14  1  0.00000000  0.83065100  0.15394700  1
  Na  Na15  1  0.00000000  0.16934900  0.84605300  1
  W  W16  1  0.25000000  0.08768900  0.25000000  1
  W  W17  1  0.50000000  0.75391800  0.58633600  1
  W  W18  1  0.25000000  0.91231100  0.75000000  1
  W  W19  1  0.75000000  0.91231100  0.75000000  1
  W  W20  1  0.50000000  0.74608200  0.08633600  1
  W  W21  1  0.50000000  0.24608200  0.41366400  1
  W  W22  1  0.50000000  0.25391800  0.91366400  1
  W  W23  1  0.75000000  0.08768900  0.25000000  1
  W  W24  1  0.75000000  0.58768900  0.25000000  1
  W  W25  1  0.00000000  0.25391800  0.58633600  1
  W  W26  1  0.75000000  0.41231100  0.75000000  1
  W  W27  1  0.25000000  0.41231100  0.75000000  1
  W  W28  1  0.00000000  0.24608200  0.08633600  1
  W  W29  1  0.00000000  0.74608200  0.41366400  1
  W  W30  1  0.00000000  0.75391800  0.91366400  1
  W  W31  1  0.25000000  0.58768900  0.25000000  1
  O  O32  1  0.50000000  0.37632800  0.46918200  1
  O  O33  1  0.50000000  0.63971300  0.00226900  1
  O  O34  1  0.20244550  0.00562050  0.83884800  1
  O  O35  1  0.50000000  0.12367200  0.96918200  1
  O  O36  1  0.70244550  0.00562050  0.66115200  1
  O  O37  1  0.79755450  0.00562050  0.83884800  1
  O  O38  1  0.70335500  0.76824500  0.65661300  1
  O  O39  1  0.79755450  0.99437950  0.16115200  1
  O  O40  1  0.70335500  0.26824500  0.84338700  1
  O  O41  1  0.29755450  0.00562050  0.66115200  1
  O  O42  1  0.50000000  0.62333300  0.28151100  1
  O  O43  1  0.50000000  0.86028700  0.50226900  1
  O  O44  1  0.50000000  0.37666700  0.71848900  1
  O  O45  1  0.50000000  0.87632800  0.03081800  1
  O  O46  1  0.50000000  0.12333300  0.21848900  1
  O  O47  1  0.50000000  0.36028700  0.99773100  1
  O  O48  1  0.29664500  0.76824500  0.65661300  1
  O  O49  1  0.29664500  0.26824500  0.84338700  1
  O  O50  1  0.70335500  0.23175500  0.34338700  1
  O  O51  1  0.50000000  0.13971300  0.49773100  1
  O  O52  1  0.50000000  0.87666700  0.78151100  1
  O  O53  1  0.29664500  0.23175500  0.34338700  1
  O  O54  1  0.20244550  0.99437950  0.16115200  1
  O  O55  1  0.70335500  0.73175500  0.15661300  1
  O  O56  1  0.29664500  0.73175500  0.15661300  1
  O  O57  1  0.29755450  0.99437950  0.33884800  1
  O  O58  1  0.50000000  0.62367200  0.53081800  1
  O  O59  1  0.70244550  0.99437950  0.33884800  1
  O  O60  1  0.00000000  0.87632800  0.46918200  1
  O  O61  1  0.00000000  0.13971300  0.00226900  1
  O  O62  1  0.70244550  0.50562050  0.83884800  1
  O  O63  1  0.00000000  0.62367200  0.96918200  1
  O  O64  1  0.20244550  0.50562050  0.66115200  1
  O  O65  1  0.29755450  0.50562050  0.83884800  1
  O  O66  1  0.20335500  0.26824500  0.65661300  1
  O  O67  1  0.29755450  0.49437950  0.16115200  1
  O  O68  1  0.20335500  0.76824500  0.84338700  1
  O  O69  1  0.79755450  0.50562050  0.66115200  1
  O  O70  1  0.00000000  0.12333300  0.28151100  1
  O  O71  1  0.00000000  0.36028700  0.50226900  1
  O  O72  1  0.00000000  0.87666700  0.71848900  1
  O  O73  1  0.00000000  0.37632800  0.03081800  1
  O  O74  1  0.00000000  0.62333300  0.21848900  1
  O  O75  1  0.00000000  0.86028700  0.99773100  1
  O  O76  1  0.79664500  0.26824500  0.65661300  1
  O  O77  1  0.79664500  0.76824500  0.84338700  1
  O  O78  1  0.20335500  0.73175500  0.34338700  1
  O  O79  1  0.00000000  0.63971300  0.49773100  1
  O  O80  1  0.00000000  0.37666700  0.78151100  1
  O  O81  1  0.79664500  0.73175500  0.34338700  1
  O  O82  1  0.70244550  0.49437950  0.16115200  1
  O  O83  1  0.20335500  0.23175500  0.15661300  1
  O  O84  1  0.79664500  0.23175500  0.15661300  1
  O  O85  1  0.79755450  0.49437950  0.33884800  1
  O  O86  1  0.00000000  0.12367200  0.53081800  1
  O  O87  1  0.20244550  0.49437950  0.33884800  1
