# generated using pymatgen
data_Nd2MoO6
_symmetry_space_group_name_H-M   'P 1'
_cell_length_a   5.73804600
_cell_length_b   5.73804600
_cell_length_c   32.00995200
_cell_angle_alpha   90.00000000
_cell_angle_beta   90.00000000
_cell_angle_gamma   90.00000000
_symmetry_Int_Tables_number   1
_chemical_formula_structural   Nd2MoO6
_chemical_formula_sum   'Nd16 Mo8 O48'
_cell_volume   1053.93317205
_cell_formula_units_Z   8
loop_
 _symmetry_equiv_pos_site_id
 _symmetry_equiv_pos_as_xyz
  1  'x, y, z'
loop_
 _atom_site_type_symbol
 _atom_site_label
 _atom_site_symmetry_multiplicity
 _atom_site_fract_x
 _atom_site_fract_y
 _atom_site_fract_z
 _atom_site_occupancy
  Nd  Nd0  1  0.50000000  0.50000000  0.33738900  1
  Nd  Nd1  1  0.00000000  0.50000000  0.08738900  1
  Nd  Nd2  1  0.50000000  0.00000000  0.41261100  1
  Nd  Nd3  1  0.50000000  0.50000000  0.16261100  1
  Nd  Nd4  1  0.00000000  0.50000000  0.41261100  1
  Nd  Nd5  1  0.00000000  0.00000000  0.16261100  1
  Nd  Nd6  1  0.00000000  0.00000000  0.33738900  1
  Nd  Nd7  1  0.50000000  0.00000000  0.08738900  1
  Nd  Nd8  1  0.00000000  0.00000000  0.83738900  1
  Nd  Nd9  1  0.50000000  0.00000000  0.58738900  1
  Nd  Nd10  1  0.00000000  0.50000000  0.91261100  1
  Nd  Nd11  1  0.00000000  0.00000000  0.66261100  1
  Nd  Nd12  1  0.50000000  0.00000000  0.91261100  1
  Nd  Nd13  1  0.50000000  0.50000000  0.66261100  1
  Nd  Nd14  1  0.50000000  0.50000000  0.83738900  1
  Nd  Nd15  1  0.00000000  0.50000000  0.58738900  1
  Mo  Mo16  1  0.00000000  0.00000000  0.00000000  1
  Mo  Mo17  1  0.00000000  0.50000000  0.25000000  1
  Mo  Mo18  1  0.50000000  0.00000000  0.25000000  1
  Mo  Mo19  1  0.50000000  0.50000000  0.00000000  1
  Mo  Mo20  1  0.50000000  0.50000000  0.50000000  1
  Mo  Mo21  1  0.50000000  0.00000000  0.75000000  1
  Mo  Mo22  1  0.00000000  0.50000000  0.75000000  1
  Mo  Mo23  1  0.00000000  0.00000000  0.50000000  1
  O  O24  1  0.25000000  0.74363900  0.12500000  1
  O  O25  1  0.25636100  0.75000000  0.37500000  1
  O  O26  1  0.74363900  0.25000000  0.37500000  1
  O  O27  1  0.75000000  0.25636100  0.12500000  1
  O  O28  1  0.75000000  0.75636100  0.12500000  1
  O  O29  1  0.24363900  0.25000000  0.37500000  1
  O  O30  1  0.75636100  0.75000000  0.37500000  1
  O  O31  1  0.25000000  0.24363900  0.12500000  1
  O  O32  1  0.32608550  0.83103550  0.21365750  1
  O  O33  1  0.83103550  0.32608550  0.28634250  1
  O  O34  1  0.16896450  0.67391450  0.28634250  1
  O  O35  1  0.82608550  0.16896450  0.03634250  1
  O  O36  1  0.32608550  0.33103550  0.03634250  1
  O  O37  1  0.66896450  0.82608550  0.28634250  1
  O  O38  1  0.33103550  0.17391450  0.28634250  1
  O  O39  1  0.82608550  0.66896450  0.21365750  1
  O  O40  1  0.17391450  0.33103550  0.21365750  1
  O  O41  1  0.33103550  0.32608550  0.46365750  1
  O  O42  1  0.66896450  0.67391450  0.46365750  1
  O  O43  1  0.67391450  0.66896450  0.03634250  1
  O  O44  1  0.67391450  0.16896450  0.21365750  1
  O  O45  1  0.83103550  0.17391450  0.46365750  1
  O  O46  1  0.16896450  0.82608550  0.46365750  1
  O  O47  1  0.17391450  0.83103550  0.03634250  1
  O  O48  1  0.75000000  0.24363900  0.62500000  1
  O  O49  1  0.75636100  0.25000000  0.87500000  1
  O  O50  1  0.24363900  0.75000000  0.87500000  1
  O  O51  1  0.25000000  0.75636100  0.62500000  1
  O  O52  1  0.25000000  0.25636100  0.62500000  1
  O  O53  1  0.74363900  0.75000000  0.87500000  1
  O  O54  1  0.25636100  0.25000000  0.87500000  1
  O  O55  1  0.75000000  0.74363900  0.62500000  1
  O  O56  1  0.82608550  0.33103550  0.71365750  1
  O  O57  1  0.33103550  0.82608550  0.78634250  1
  O  O58  1  0.66896450  0.17391450  0.78634250  1
  O  O59  1  0.32608550  0.66896450  0.53634250  1
  O  O60  1  0.82608550  0.83103550  0.53634250  1
  O  O61  1  0.16896450  0.32608550  0.78634250  1
  O  O62  1  0.83103550  0.67391450  0.78634250  1
  O  O63  1  0.32608550  0.16896450  0.71365750  1
  O  O64  1  0.67391450  0.83103550  0.71365750  1
  O  O65  1  0.83103550  0.82608550  0.96365750  1
  O  O66  1  0.16896450  0.17391450  0.96365750  1
  O  O67  1  0.17391450  0.16896450  0.53634250  1
  O  O68  1  0.17391450  0.66896450  0.71365750  1
  O  O69  1  0.33103550  0.67391450  0.96365750  1
  O  O70  1  0.66896450  0.32608550  0.96365750  1
  O  O71  1  0.67391450  0.33103550  0.53634250  1
