# generated using pymatgen
data_U(PdS2)2
_symmetry_space_group_name_H-M   'P 1'
_cell_length_a   6.78054800
_cell_length_b   6.78054800
_cell_length_c   11.87543800
_cell_angle_alpha   90.00000000
_cell_angle_beta   90.00000000
_cell_angle_gamma   90.00000000
_symmetry_Int_Tables_number   1
_chemical_formula_structural   U(PdS2)2
_chemical_formula_sum   'U4 Pd8 S16'
_cell_volume   545.98313268
_cell_formula_units_Z   4
loop_
 _symmetry_equiv_pos_site_id
 _symmetry_equiv_pos_as_xyz
  1  'x, y, z'
loop_
 _atom_site_type_symbol
 _atom_site_label
 _atom_site_symmetry_multiplicity
 _atom_site_fract_x
 _atom_site_fract_y
 _atom_site_fract_z
 _atom_site_occupancy
  U  U0  1  0.00000000  0.00000000  0.00000000  1
  U  U1  1  0.00000000  0.50000000  0.25000000  1
  U  U2  1  0.50000000  0.50000000  0.50000000  1
  U  U3  1  0.50000000  0.00000000  0.75000000  1
  Pd  Pd4  1  0.50000000  0.25000000  0.12500000  1
  Pd  Pd5  1  0.75000000  0.00000000  0.37500000  1
  Pd  Pd6  1  0.25000000  0.00000000  0.37500000  1
  Pd  Pd7  1  0.50000000  0.75000000  0.12500000  1
  Pd  Pd8  1  0.00000000  0.75000000  0.62500000  1
  Pd  Pd9  1  0.25000000  0.50000000  0.87500000  1
  Pd  Pd10  1  0.75000000  0.50000000  0.87500000  1
  Pd  Pd11  1  0.00000000  0.25000000  0.62500000  1
  S  S12  1  0.80622500  0.34982300  0.05271000  1
  S  S13  1  0.65017700  0.30622500  0.30271000  1
  S  S14  1  0.34982300  0.69377500  0.30271000  1
  S  S15  1  0.19377500  0.65017700  0.05271000  1
  S  S16  1  0.19377500  0.15017700  0.19729000  1
  S  S17  1  0.84982300  0.69377500  0.44729000  1
  S  S18  1  0.80622500  0.84982300  0.19729000  1
  S  S19  1  0.15017700  0.30622500  0.44729000  1
  S  S20  1  0.30622500  0.84982300  0.55271000  1
  S  S21  1  0.15017700  0.80622500  0.80271000  1
  S  S22  1  0.84982300  0.19377500  0.80271000  1
  S  S23  1  0.69377500  0.15017700  0.55271000  1
  S  S24  1  0.69377500  0.65017700  0.69729000  1
  S  S25  1  0.34982300  0.19377500  0.94729000  1
  S  S26  1  0.30622500  0.34982300  0.69729000  1
  S  S27  1  0.65017700  0.80622500  0.94729000  1
