# generated using pymatgen
data_Y2(Ga3Co)3
_symmetry_space_group_name_H-M   'P 1'
_cell_length_a   7.39522000
_cell_length_b   12.76145200
_cell_length_c   9.46164100
_cell_angle_alpha   90.00000000
_cell_angle_beta   90.00000000
_cell_angle_gamma   90.00000000
_symmetry_Int_Tables_number   1
_chemical_formula_structural   Y2(Ga3Co)3
_chemical_formula_sum   'Y8 Ga36 Co12'
_cell_volume   892.93049558
_cell_formula_units_Z   4
loop_
 _symmetry_equiv_pos_site_id
 _symmetry_equiv_pos_as_xyz
  1  'x, y, z'
loop_
 _atom_site_type_symbol
 _atom_site_label
 _atom_site_symmetry_multiplicity
 _atom_site_fract_x
 _atom_site_fract_y
 _atom_site_fract_z
 _atom_site_occupancy
  Y  Y0  1  0.83246850  0.83564150  0.75000000  1
  Y  Y1  1  0.16753150  0.16435850  0.25000000  1
  Y  Y2  1  0.83246850  0.16435850  0.75000000  1
  Y  Y3  1  0.16753150  0.83564150  0.25000000  1
  Y  Y4  1  0.33246850  0.33564150  0.75000000  1
  Y  Y5  1  0.66753150  0.66435850  0.25000000  1
  Y  Y6  1  0.33246850  0.66435850  0.75000000  1
  Y  Y7  1  0.66753150  0.33564150  0.25000000  1
  Ga  Ga8  1  0.83271300  0.16674100  0.07136200  1
  Ga  Ga9  1  0.83271300  0.83325900  0.42863800  1
  Ga  Ga10  1  0.83271300  0.16674100  0.42863800  1
  Ga  Ga11  1  0.16728700  0.83325900  0.92863800  1
  Ga  Ga12  1  0.83271300  0.83325900  0.07136200  1
  Ga  Ga13  1  0.16728700  0.16674100  0.92863800  1
  Ga  Ga14  1  0.66587800  0.00000000  0.55734100  1
  Ga  Ga15  1  0.33412200  0.00000000  0.05734100  1
  Ga  Ga16  1  0.66587800  0.00000000  0.94265900  1
  Ga  Ga17  1  0.33412200  0.00000000  0.44265900  1
  Ga  Ga18  1  0.12127800  0.00000000  0.75000000  1
  Ga  Ga19  1  0.87872200  0.00000000  0.25000000  1
  Ga  Ga20  1  0.55710600  0.10666500  0.25000000  1
  Ga  Ga21  1  0.44289400  0.89333500  0.75000000  1
  Ga  Ga22  1  0.55710600  0.89333500  0.25000000  1
  Ga  Ga23  1  0.44289400  0.10666500  0.75000000  1
  Ga  Ga24  1  0.16728700  0.16674100  0.57136200  1
  Ga  Ga25  1  0.16728700  0.83325900  0.57136200  1
  Ga  Ga26  1  0.33271300  0.66674100  0.07136200  1
  Ga  Ga27  1  0.33271300  0.33325900  0.42863800  1
  Ga  Ga28  1  0.33271300  0.66674100  0.42863800  1
  Ga  Ga29  1  0.66728700  0.33325900  0.92863800  1
  Ga  Ga30  1  0.33271300  0.33325900  0.07136200  1
  Ga  Ga31  1  0.66728700  0.66674100  0.92863800  1
  Ga  Ga32  1  0.16587800  0.50000000  0.55734100  1
  Ga  Ga33  1  0.83412200  0.50000000  0.05734100  1
  Ga  Ga34  1  0.16587800  0.50000000  0.94265900  1
  Ga  Ga35  1  0.83412200  0.50000000  0.44265900  1
  Ga  Ga36  1  0.62127800  0.50000000  0.75000000  1
  Ga  Ga37  1  0.37872200  0.50000000  0.25000000  1
  Ga  Ga38  1  0.05710600  0.60666500  0.25000000  1
  Ga  Ga39  1  0.94289400  0.39333500  0.75000000  1
  Ga  Ga40  1  0.05710600  0.39333500  0.25000000  1
  Ga  Ga41  1  0.94289400  0.60666500  0.75000000  1
  Ga  Ga42  1  0.66728700  0.66674100  0.57136200  1
  Ga  Ga43  1  0.66728700  0.33325900  0.57136200  1
  Co  Co44  1  0.50000000  0.17094600  0.00000000  1
  Co  Co45  1  0.50000000  0.82905400  0.50000000  1
  Co  Co46  1  0.50000000  0.82905400  0.00000000  1
  Co  Co47  1  0.50000000  0.17094600  0.50000000  1
  Co  Co48  1  0.00000000  0.00000000  0.00000000  1
  Co  Co49  1  0.00000000  0.00000000  0.50000000  1
  Co  Co50  1  0.00000000  0.67094600  0.00000000  1
  Co  Co51  1  0.00000000  0.32905400  0.50000000  1
  Co  Co52  1  0.00000000  0.32905400  0.00000000  1
  Co  Co53  1  0.00000000  0.67094600  0.50000000  1
  Co  Co54  1  0.50000000  0.50000000  0.00000000  1
  Co  Co55  1  0.50000000  0.50000000  0.50000000  1
