# generated using pymatgen
data_Li2Ta3N5
_symmetry_space_group_name_H-M   'P 1'
_cell_length_a   9.86619800
_cell_length_b   4.22610800
_cell_length_c   9.69119688
_cell_angle_alpha   90.00000000
_cell_angle_beta   90.95454253
_cell_angle_gamma   90.00000000
_symmetry_Int_Tables_number   1
_chemical_formula_structural   Li2Ta3N5
_chemical_formula_sum   'Li8 Ta12 N20'
_cell_volume   404.02437035
_cell_formula_units_Z   4
loop_
 _symmetry_equiv_pos_site_id
 _symmetry_equiv_pos_as_xyz
  1  'x, y, z'
loop_
 _atom_site_type_symbol
 _atom_site_label
 _atom_site_symmetry_multiplicity
 _atom_site_fract_x
 _atom_site_fract_y
 _atom_site_fract_z
 _atom_site_occupancy
  Li  Li0  1  0.64669500  0.00000000  0.54835400  1
  Li  Li1  1  0.95628500  0.50000000  0.15296700  1
  Li  Li2  1  0.54371500  0.00000000  0.84703300  1
  Li  Li3  1  0.85330500  0.50000000  0.45164600  1
  Li  Li4  1  0.14669500  0.50000000  0.54835400  1
  Li  Li5  1  0.45628500  0.00000000  0.15296700  1
  Li  Li6  1  0.04371500  0.50000000  0.84703300  1
  Li  Li7  1  0.35330500  0.00000000  0.45164600  1
  Ta  Ta8  1  0.55490100  0.50000000  0.35626500  1
  Ta  Ta9  1  0.94509900  0.00000000  0.64373500  1
  Ta  Ta10  1  0.76258000  0.00000000  0.25589100  1
  Ta  Ta11  1  0.73742000  0.50000000  0.74410900  1
  Ta  Ta12  1  0.64324900  0.50000000  0.04749200  1
  Ta  Ta13  1  0.85675100  0.00000000  0.95250800  1
  Ta  Ta14  1  0.05490100  0.00000000  0.35626500  1
  Ta  Ta15  1  0.44509900  0.50000000  0.64373500  1
  Ta  Ta16  1  0.26258000  0.50000000  0.25589100  1
  Ta  Ta17  1  0.23742000  0.00000000  0.74410900  1
  Ta  Ta18  1  0.14324900  0.00000000  0.04749200  1
  Ta  Ta19  1  0.35675100  0.50000000  0.95250800  1
  N  N20  1  0.56745700  0.00000000  0.34402900  1
  N  N21  1  0.93254300  0.50000000  0.65597100  1
  N  N22  1  0.86082700  0.00000000  0.44666400  1
  N  N23  1  0.54635500  0.50000000  0.84720700  1
  N  N24  1  0.95364500  0.00000000  0.15279300  1
  N  N25  1  0.63917300  0.50000000  0.55333600  1
  N  N26  1  0.84606800  0.50000000  0.95054300  1
  N  N27  1  0.65393200  0.00000000  0.04945700  1
  N  N28  1  0.74945800  0.00000000  0.74949500  1
  N  N29  1  0.75054200  0.50000000  0.25050500  1
  N  N30  1  0.06745700  0.50000000  0.34402900  1
  N  N31  1  0.43254300  0.00000000  0.65597100  1
  N  N32  1  0.36082700  0.50000000  0.44666400  1
  N  N33  1  0.04635500  0.00000000  0.84720700  1
  N  N34  1  0.45364500  0.50000000  0.15279300  1
  N  N35  1  0.13917300  0.00000000  0.55333600  1
  N  N36  1  0.34606800  0.00000000  0.95054300  1
  N  N37  1  0.15393200  0.50000000  0.04945700  1
  N  N38  1  0.24945800  0.50000000  0.74949500  1
  N  N39  1  0.25054200  0.00000000  0.25050500  1
