# generated using pymatgen
data_Ga9Ni13
_symmetry_space_group_name_H-M   'P 1'
_cell_length_a   9.95160400
_cell_length_b   7.90224200
_cell_length_c   8.47684498
_cell_angle_alpha   90.00000000
_cell_angle_beta   125.72112372
_cell_angle_gamma   90.00000000
_symmetry_Int_Tables_number   1
_chemical_formula_structural   Ga9Ni13
_chemical_formula_sum   'Ga18 Ni26'
_cell_volume   541.20681215
_cell_formula_units_Z   2
loop_
 _symmetry_equiv_pos_site_id
 _symmetry_equiv_pos_as_xyz
  1  'x, y, z'
loop_
 _atom_site_type_symbol
 _atom_site_label
 _atom_site_symmetry_multiplicity
 _atom_site_fract_x
 _atom_site_fract_y
 _atom_site_fract_z
 _atom_site_occupancy
  Ga  Ga0  1  0.96105250  0.78961550  0.69104700  1
  Ga  Ga1  1  0.03894750  0.78961550  0.30895300  1
  Ga  Ga2  1  0.53894750  0.71038450  0.30895300  1
  Ga  Ga3  1  0.46105250  0.71038450  0.69104700  1
  Ga  Ga4  1  0.82957200  0.00000000  0.88724100  1
  Ga  Ga5  1  0.67042800  0.50000000  0.11275900  1
  Ga  Ga6  1  0.29191500  0.00000000  0.83265900  1
  Ga  Ga7  1  0.20808500  0.50000000  0.16734100  1
  Ga  Ga8  1  0.50000000  0.00000000  0.50000000  1
  Ga  Ga9  1  0.46105250  0.28961550  0.69104700  1
  Ga  Ga10  1  0.53894750  0.28961550  0.30895300  1
  Ga  Ga11  1  0.03894750  0.21038450  0.30895300  1
  Ga  Ga12  1  0.96105250  0.21038450  0.69104700  1
  Ga  Ga13  1  0.32957200  0.50000000  0.88724100  1
  Ga  Ga14  1  0.17042800  0.00000000  0.11275900  1
  Ga  Ga15  1  0.79191500  0.50000000  0.83265900  1
  Ga  Ga16  1  0.70808500  0.00000000  0.16734100  1
  Ga  Ga17  1  0.00000000  0.50000000  0.50000000  1
  Ni  Ni18  1  0.80371450  0.73854450  0.33908100  1
  Ni  Ni19  1  0.19628550  0.73854450  0.66091900  1
  Ni  Ni20  1  0.69628550  0.76145550  0.66091900  1
  Ni  Ni21  1  0.30371450  0.76145550  0.33908100  1
  Ni  Ni22  1  0.55087000  0.00000000  0.82124600  1
  Ni  Ni23  1  0.94913000  0.50000000  0.17875400  1
  Ni  Ni24  1  0.24179800  0.50000000  0.48763500  1
  Ni  Ni25  1  0.25820200  0.00000000  0.51236500  1
  Ni  Ni26  1  0.00000000  0.74009900  0.00000000  1
  Ni  Ni27  1  0.00000000  0.00000000  0.50000000  1
  Ni  Ni28  1  0.75000000  0.75000000  0.00000000  1
  Ni  Ni29  1  0.25000000  0.75000000  0.00000000  1
  Ni  Ni30  1  0.00000000  0.25990100  0.00000000  1
  Ni  Ni31  1  0.30371450  0.23854450  0.33908100  1
  Ni  Ni32  1  0.69628550  0.23854450  0.66091900  1
  Ni  Ni33  1  0.19628550  0.26145550  0.66091900  1
  Ni  Ni34  1  0.80371450  0.26145550  0.33908100  1
  Ni  Ni35  1  0.05087000  0.50000000  0.82124600  1
  Ni  Ni36  1  0.44913000  0.00000000  0.17875400  1
  Ni  Ni37  1  0.74179800  0.00000000  0.48763500  1
  Ni  Ni38  1  0.75820200  0.50000000  0.51236500  1
  Ni  Ni39  1  0.50000000  0.24009900  0.00000000  1
  Ni  Ni40  1  0.50000000  0.50000000  0.50000000  1
  Ni  Ni41  1  0.25000000  0.25000000  0.00000000  1
  Ni  Ni42  1  0.75000000  0.25000000  0.00000000  1
  Ni  Ni43  1  0.50000000  0.75990100  0.00000000  1
