# generated using pymatgen
data_U2Cu4As5
_symmetry_space_group_name_H-M   'P 1'
_cell_length_a   3.99175600
_cell_length_b   3.99175600
_cell_length_c   24.30460400
_cell_angle_alpha   90.00000000
_cell_angle_beta   90.00000000
_cell_angle_gamma   90.00000000
_symmetry_Int_Tables_number   1
_chemical_formula_structural   U2Cu4As5
_chemical_formula_sum   'U4 Cu8 As10'
_cell_volume   387.27237858
_cell_formula_units_Z   2
loop_
 _symmetry_equiv_pos_site_id
 _symmetry_equiv_pos_as_xyz
  1  'x, y, z'
loop_
 _atom_site_type_symbol
 _atom_site_label
 _atom_site_symmetry_multiplicity
 _atom_site_fract_x
 _atom_site_fract_y
 _atom_site_fract_z
 _atom_site_occupancy
  U  U0  1  0.50000000  0.50000000  0.34207300  1
  U  U1  1  0.00000000  0.00000000  0.15792700  1
  U  U2  1  0.00000000  0.00000000  0.84207300  1
  U  U3  1  0.50000000  0.50000000  0.65792700  1
  Cu  Cu4  1  0.50000000  0.00000000  0.44202700  1
  Cu  Cu5  1  0.00000000  0.50000000  0.05797300  1
  Cu  Cu6  1  0.50000000  0.00000000  0.05797300  1
  Cu  Cu7  1  0.00000000  0.50000000  0.44202700  1
  Cu  Cu8  1  0.00000000  0.50000000  0.94202700  1
  Cu  Cu9  1  0.50000000  0.00000000  0.55797300  1
  Cu  Cu10  1  0.00000000  0.50000000  0.55797300  1
  Cu  Cu11  1  0.50000000  0.00000000  0.94202700  1
  As  As12  1  0.00000000  0.00000000  0.37578100  1
  As  As13  1  0.50000000  0.50000000  0.12421900  1
  As  As14  1  0.00000000  0.00000000  0.00000000  1
  As  As15  1  0.50000000  0.00000000  0.25000000  1
  As  As16  1  0.00000000  0.50000000  0.25000000  1
  As  As17  1  0.50000000  0.50000000  0.87578100  1
  As  As18  1  0.00000000  0.00000000  0.62421900  1
  As  As19  1  0.50000000  0.50000000  0.50000000  1
  As  As20  1  0.00000000  0.50000000  0.75000000  1
  As  As21  1  0.50000000  0.00000000  0.75000000  1
