# generated using pymatgen
data_Li3VPCO7
_symmetry_space_group_name_H-M   'P 1'
_cell_length_a   5.00399075
_cell_length_b   6.60990300
_cell_length_c   8.53227940
_cell_angle_alpha   90.00000000
_cell_angle_beta   96.56163568
_cell_angle_gamma   90.00000000
_symmetry_Int_Tables_number   1
_chemical_formula_structural   Li3VPCO7
_chemical_formula_sum   'Li6 V2 P2 C2 O14'
_cell_volume   280.36413044
_cell_formula_units_Z   2
loop_
 _symmetry_equiv_pos_site_id
 _symmetry_equiv_pos_as_xyz
  1  'x, y, z'
loop_
 _atom_site_type_symbol
 _atom_site_label
 _atom_site_symmetry_multiplicity
 _atom_site_fract_x
 _atom_site_fract_y
 _atom_site_fract_z
 _atom_site_occupancy
  Li  Li0  1  0.79587800  0.25000000  0.89487000  1
  Li  Li1  1  0.20412200  0.75000000  0.10513000  1
  Li  Li2  1  0.73279800  0.97807600  0.27938700  1
  Li  Li3  1  0.26720200  0.02192400  0.72061300  1
  Li  Li4  1  0.26720200  0.47807600  0.72061300  1
  Li  Li5  1  0.73279800  0.52192400  0.27938700  1
  V  V6  1  0.79149000  0.75000000  0.67430200  1
  V  V7  1  0.20851000  0.25000000  0.32569800  1
  P  P8  1  0.73132000  0.25000000  0.59003100  1
  P  P9  1  0.26868000  0.75000000  0.40996900  1
  C  C10  1  0.67130200  0.75000000  0.96376400  1
  C  C11  1  0.32869800  0.25000000  0.03623600  1
  O  O12  1  0.51323800  0.25000000  0.15798600  1
  O  O13  1  0.48676200  0.75000000  0.84201400  1
  O  O14  1  0.91998800  0.75000000  0.93387400  1
  O  O15  1  0.08001200  0.25000000  0.06612600  1
  O  O16  1  0.16792400  0.75000000  0.57398100  1
  O  O17  1  0.83207600  0.25000000  0.42601900  1
  O  O18  1  0.41681700  0.25000000  0.56749900  1
  O  O19  1  0.58318300  0.75000000  0.43250100  1
  O  O20  1  0.60670800  0.75000000  0.10631700  1
  O  O21  1  0.39329200  0.25000000  0.89368300  1
  O  O22  1  0.16198800  0.56722000  0.30581600  1
  O  O23  1  0.16198800  0.93278000  0.30581600  1
  O  O24  1  0.83801200  0.43278000  0.69418400  1
  O  O25  1  0.83801200  0.06722000  0.69418400  1
