# generated using pymatgen
data_RbMoAsO6
_symmetry_space_group_name_H-M   'P 1'
_cell_length_a   11.31350600
_cell_length_b   13.16739800
_cell_length_c   16.61540800
_cell_angle_alpha   90.00000000
_cell_angle_beta   90.00000000
_cell_angle_gamma   90.00000000
_symmetry_Int_Tables_number   1
_chemical_formula_structural   RbMoAsO6
_chemical_formula_sum   'Rb16 Mo16 As16 O96'
_cell_volume   2475.18796328
_cell_formula_units_Z   16
loop_
 _symmetry_equiv_pos_site_id
 _symmetry_equiv_pos_as_xyz
  1  'x, y, z'
loop_
 _atom_site_type_symbol
 _atom_site_label
 _atom_site_symmetry_multiplicity
 _atom_site_fract_x
 _atom_site_fract_y
 _atom_site_fract_z
 _atom_site_occupancy
  Rb  Rb0  1  0.20205900  0.00000000  0.00000000  1
  Rb  Rb1  1  0.54794100  0.75000000  0.25000000  1
  Rb  Rb2  1  0.79794100  0.00000000  0.00000000  1
  Rb  Rb3  1  0.95205900  0.75000000  0.25000000  1
  Rb  Rb4  1  0.20205900  0.50000000  0.50000000  1
  Rb  Rb5  1  0.54794100  0.25000000  0.75000000  1
  Rb  Rb6  1  0.79794100  0.50000000  0.50000000  1
  Rb  Rb7  1  0.95205900  0.25000000  0.75000000  1
  Rb  Rb8  1  0.70205900  0.00000000  0.50000000  1
  Rb  Rb9  1  0.04794100  0.75000000  0.75000000  1
  Rb  Rb10  1  0.29794100  0.00000000  0.50000000  1
  Rb  Rb11  1  0.45205900  0.75000000  0.75000000  1
  Rb  Rb12  1  0.70205900  0.50000000  0.00000000  1
  Rb  Rb13  1  0.04794100  0.25000000  0.25000000  1
  Rb  Rb14  1  0.29794100  0.50000000  0.00000000  1
  Rb  Rb15  1  0.45205900  0.25000000  0.25000000  1
  Mo  Mo16  1  0.50000000  0.22122000  0.00000000  1
  Mo  Mo17  1  0.50000000  0.77878000  0.00000000  1
  Mo  Mo18  1  0.75000000  0.02878000  0.25000000  1
  Mo  Mo19  1  0.75000000  0.47122000  0.25000000  1
  Mo  Mo20  1  0.50000000  0.72122000  0.50000000  1
  Mo  Mo21  1  0.50000000  0.27878000  0.50000000  1
  Mo  Mo22  1  0.75000000  0.52878000  0.75000000  1
  Mo  Mo23  1  0.75000000  0.97122000  0.75000000  1
  Mo  Mo24  1  0.00000000  0.22122000  0.50000000  1
  Mo  Mo25  1  0.00000000  0.77878000  0.50000000  1
  Mo  Mo26  1  0.25000000  0.02878000  0.75000000  1
  Mo  Mo27  1  0.25000000  0.47122000  0.75000000  1
  Mo  Mo28  1  0.00000000  0.72122000  0.00000000  1
  Mo  Mo29  1  0.00000000  0.27878000  0.00000000  1
  Mo  Mo30  1  0.25000000  0.52878000  0.25000000  1
  Mo  Mo31  1  0.25000000  0.97122000  0.25000000  1
  As  As32  1  0.50000000  0.00000000  0.12942600  1
  As  As33  1  0.00000000  0.00000000  0.37057400  1
  As  As34  1  0.75000000  0.25000000  0.37942600  1
  As  As35  1  0.75000000  0.25000000  0.12057400  1
  As  As36  1  0.50000000  0.50000000  0.62942600  1
  As  As37  1  0.00000000  0.50000000  0.87057400  1
  As  As38  1  0.75000000  0.75000000  0.87942600  1
  As  As39  1  0.75000000  0.75000000  0.62057400  1
  As  As40  1  0.00000000  0.00000000  0.62942600  1
  As  As41  1  0.50000000  0.00000000  0.87057400  1
  As  As42  1  0.25000000  0.25000000  0.87942600  1
  As  As43  1  0.25000000  0.25000000  0.62057400  1
  As  As44  1  0.00000000  0.50000000  0.12942600  1
  As  As45  1  0.50000000  0.50000000  0.37057400  1
  As  As46  1  0.25000000  0.75000000  0.37942600  1
  As  As47  1  0.25000000  0.75000000  0.12057400  1
  O  O48  1  0.05062750  0.30515000  0.42770150  1
  O  O49  1  0.55062750  0.69485000  0.07229850  1
  O  O50  1  0.44937250  0.30515000  0.07229850  1
  O  O51  1  0.94937250  0.69485000  0.42770150  1
  O  O52  1  0.69937250  0.94485000  0.32229850  1
  O  O53  1  0.69937250  0.55515000  0.17770150  1
  O  O54  1  0.80062750  0.94485000  0.17770150  1
  O  O55  1  0.80062750  0.55515000  0.32229850  1
  O  O56  1  0.84653850  0.18576600  0.44691250  1
  O  O57  1  0.34653850  0.81423400  0.05308750  1
  O  O58  1  0.65346150  0.18576600  0.05308750  1
  O  O59  1  0.15346150  0.81423400  0.44691250  1
  O  O60  1  0.82425050  0.34126000  0.32600250  1
  O  O61  1  0.82425050  0.15874000  0.17399750  1
  O  O62  1  0.67574950  0.34126000  0.17399750  1
  O  O63  1  0.67574950  0.15874000  0.32600250  1
  O  O64  1  0.92574950  0.90874000  0.42399750  1
  O  O65  1  0.42574950  0.09126000  0.07600250  1
  O  O66  1  0.57425050  0.90874000  0.07600250  1
  O  O67  1  0.07425050  0.09126000  0.42399750  1
  O  O68  1  0.09653850  0.93576600  0.30308750  1
  O  O69  1  0.59653850  0.06423400  0.19691250  1
  O  O70  1  0.40346150  0.93576600  0.19691250  1
  O  O71  1  0.90346150  0.06423400  0.30308750  1
  O  O72  1  0.05062750  0.80515000  0.92770150  1
  O  O73  1  0.55062750  0.19485000  0.57229850  1
  O  O74  1  0.44937250  0.80515000  0.57229850  1
  O  O75  1  0.94937250  0.19485000  0.92770150  1
  O  O76  1  0.69937250  0.44485000  0.82229850  1
  O  O77  1  0.69937250  0.05515000  0.67770150  1
  O  O78  1  0.80062750  0.44485000  0.67770150  1
  O  O79  1  0.80062750  0.05515000  0.82229850  1
  O  O80  1  0.84653850  0.68576600  0.94691250  1
  O  O81  1  0.34653850  0.31423400  0.55308750  1
  O  O82  1  0.65346150  0.68576600  0.55308750  1
  O  O83  1  0.15346150  0.31423400  0.94691250  1
  O  O84  1  0.82425050  0.84126000  0.82600250  1
  O  O85  1  0.82425050  0.65874000  0.67399750  1
  O  O86  1  0.67574950  0.84126000  0.67399750  1
  O  O87  1  0.67574950  0.65874000  0.82600250  1
  O  O88  1  0.92574950  0.40874000  0.92399750  1
  O  O89  1  0.42574950  0.59126000  0.57600250  1
  O  O90  1  0.57425050  0.40874000  0.57600250  1
  O  O91  1  0.07425050  0.59126000  0.92399750  1
  O  O92  1  0.09653850  0.43576600  0.80308750  1
  O  O93  1  0.59653850  0.56423400  0.69691250  1
  O  O94  1  0.40346150  0.43576600  0.69691250  1
  O  O95  1  0.90346150  0.56423400  0.80308750  1
  O  O96  1  0.55062750  0.30515000  0.92770150  1
  O  O97  1  0.05062750  0.69485000  0.57229850  1
  O  O98  1  0.94937250  0.30515000  0.57229850  1
  O  O99  1  0.44937250  0.69485000  0.92770150  1
  O  O100  1  0.19937250  0.94485000  0.82229850  1
  O  O101  1  0.19937250  0.55515000  0.67770150  1
  O  O102  1  0.30062750  0.94485000  0.67770150  1
  O  O103  1  0.30062750  0.55515000  0.82229850  1
  O  O104  1  0.34653850  0.18576600  0.94691250  1
  O  O105  1  0.84653850  0.81423400  0.55308750  1
  O  O106  1  0.15346150  0.18576600  0.55308750  1
  O  O107  1  0.65346150  0.81423400  0.94691250  1
  O  O108  1  0.32425050  0.34126000  0.82600250  1
  O  O109  1  0.32425050  0.15874000  0.67399750  1
  O  O110  1  0.17574950  0.34126000  0.67399750  1
  O  O111  1  0.17574950  0.15874000  0.82600250  1
  O  O112  1  0.42574950  0.90874000  0.92399750  1
  O  O113  1  0.92574950  0.09126000  0.57600250  1
  O  O114  1  0.07425050  0.90874000  0.57600250  1
  O  O115  1  0.57425050  0.09126000  0.92399750  1
  O  O116  1  0.59653850  0.93576600  0.80308750  1
  O  O117  1  0.09653850  0.06423400  0.69691250  1
  O  O118  1  0.90346150  0.93576600  0.69691250  1
  O  O119  1  0.40346150  0.06423400  0.80308750  1
  O  O120  1  0.55062750  0.80515000  0.42770150  1
  O  O121  1  0.05062750  0.19485000  0.07229850  1
  O  O122  1  0.94937250  0.80515000  0.07229850  1
  O  O123  1  0.44937250  0.19485000  0.42770150  1
  O  O124  1  0.19937250  0.44485000  0.32229850  1
  O  O125  1  0.19937250  0.05515000  0.17770150  1
  O  O126  1  0.30062750  0.44485000  0.17770150  1
  O  O127  1  0.30062750  0.05515000  0.32229850  1
  O  O128  1  0.34653850  0.68576600  0.44691250  1
  O  O129  1  0.84653850  0.31423400  0.05308750  1
  O  O130  1  0.15346150  0.68576600  0.05308750  1
  O  O131  1  0.65346150  0.31423400  0.44691250  1
  O  O132  1  0.32425050  0.84126000  0.32600250  1
  O  O133  1  0.32425050  0.65874000  0.17399750  1
  O  O134  1  0.17574950  0.84126000  0.17399750  1
  O  O135  1  0.17574950  0.65874000  0.32600250  1
  O  O136  1  0.42574950  0.40874000  0.42399750  1
  O  O137  1  0.92574950  0.59126000  0.07600250  1
  O  O138  1  0.07425050  0.40874000  0.07600250  1
  O  O139  1  0.57425050  0.59126000  0.42399750  1
  O  O140  1  0.59653850  0.43576600  0.30308750  1
  O  O141  1  0.09653850  0.56423400  0.19691250  1
  O  O142  1  0.90346150  0.43576600  0.19691250  1
  O  O143  1  0.40346150  0.56423400  0.30308750  1
