# generated using pymatgen
data_Zn2BIr2
_symmetry_space_group_name_H-M   'P 1'
_cell_length_a   2.83830400
_cell_length_b   26.78550000
_cell_length_c   10.29398300
_cell_angle_alpha   90.00000000
_cell_angle_beta   90.00000000
_cell_angle_gamma   90.00000000
_symmetry_Int_Tables_number   1
_chemical_formula_structural   Zn2BIr2
_chemical_formula_sum   'Zn24 B12 Ir24'
_cell_volume   782.60409068
_cell_formula_units_Z   12
loop_
 _symmetry_equiv_pos_site_id
 _symmetry_equiv_pos_as_xyz
  1  'x, y, z'
loop_
 _atom_site_type_symbol
 _atom_site_label
 _atom_site_symmetry_multiplicity
 _atom_site_fract_x
 _atom_site_fract_y
 _atom_site_fract_z
 _atom_site_occupancy
  Zn  Zn0  1  0.00000000  0.91135700  0.11980500  1
  Zn  Zn1  1  0.50000000  0.58864300  0.88019500  1
  Zn  Zn2  1  0.50000000  0.58864300  0.61980500  1
  Zn  Zn3  1  0.00000000  0.91135700  0.38019500  1
  Zn  Zn4  1  0.00000000  0.76082800  0.61092700  1
  Zn  Zn5  1  0.50000000  0.73917200  0.38907300  1
  Zn  Zn6  1  0.00000000  0.00000000  0.00000000  1
  Zn  Zn7  1  0.00000000  0.00000000  0.50000000  1
  Zn  Zn8  1  0.50000000  0.68029500  0.75000000  1
  Zn  Zn9  1  0.00000000  0.81970500  0.25000000  1
  Zn  Zn10  1  0.00000000  0.76082800  0.88907300  1
  Zn  Zn11  1  0.50000000  0.73917200  0.11092700  1
  Zn  Zn12  1  0.50000000  0.41135700  0.11980500  1
  Zn  Zn13  1  0.00000000  0.08864300  0.88019500  1
  Zn  Zn14  1  0.00000000  0.08864300  0.61980500  1
  Zn  Zn15  1  0.50000000  0.41135700  0.38019500  1
  Zn  Zn16  1  0.50000000  0.26082800  0.61092700  1
  Zn  Zn17  1  0.00000000  0.23917200  0.38907300  1
  Zn  Zn18  1  0.50000000  0.50000000  0.00000000  1
  Zn  Zn19  1  0.50000000  0.50000000  0.50000000  1
  Zn  Zn20  1  0.00000000  0.18029500  0.75000000  1
  Zn  Zn21  1  0.50000000  0.31970500  0.25000000  1
  Zn  Zn22  1  0.50000000  0.26082800  0.88907300  1
  Zn  Zn23  1  0.00000000  0.23917200  0.11092700  1
  B  B24  1  0.00000000  0.86148700  0.60632500  1
  B  B25  1  0.50000000  0.63851300  0.39367500  1
  B  B26  1  0.50000000  0.63851300  0.10632500  1
  B  B27  1  0.00000000  0.86148700  0.89367500  1
  B  B28  1  0.50000000  0.54108800  0.25000000  1
  B  B29  1  0.00000000  0.95891200  0.75000000  1
  B  B30  1  0.50000000  0.36148700  0.60632500  1
  B  B31  1  0.00000000  0.13851300  0.39367500  1
  B  B32  1  0.00000000  0.13851300  0.10632500  1
  B  B33  1  0.50000000  0.36148700  0.89367500  1
  B  B34  1  0.00000000  0.04108800  0.25000000  1
  B  B35  1  0.50000000  0.45891200  0.75000000  1
  Ir  Ir36  1  0.00000000  0.66855900  0.53059300  1
  Ir  Ir37  1  0.50000000  0.83144100  0.46940700  1
  Ir  Ir38  1  0.50000000  0.83144100  0.03059300  1
  Ir  Ir39  1  0.00000000  0.66855900  0.96940700  1
  Ir  Ir40  1  0.50000000  0.98086100  0.25000000  1
  Ir  Ir41  1  0.00000000  0.51913900  0.75000000  1
  Ir  Ir42  1  0.00000000  0.67129900  0.25000000  1
  Ir  Ir43  1  0.50000000  0.82870100  0.75000000  1
  Ir  Ir44  1  0.50000000  0.92530800  0.60914500  1
  Ir  Ir45  1  0.00000000  0.57469200  0.39085500  1
  Ir  Ir46  1  0.00000000  0.57469200  0.10914500  1
  Ir  Ir47  1  0.50000000  0.92530800  0.89085500  1
  Ir  Ir48  1  0.50000000  0.16855900  0.53059300  1
  Ir  Ir49  1  0.00000000  0.33144100  0.46940700  1
  Ir  Ir50  1  0.00000000  0.33144100  0.03059300  1
  Ir  Ir51  1  0.50000000  0.16855900  0.96940700  1
  Ir  Ir52  1  0.00000000  0.48086100  0.25000000  1
  Ir  Ir53  1  0.50000000  0.01913900  0.75000000  1
  Ir  Ir54  1  0.50000000  0.17129900  0.25000000  1
  Ir  Ir55  1  0.00000000  0.32870100  0.75000000  1
  Ir  Ir56  1  0.00000000  0.42530800  0.60914500  1
  Ir  Ir57  1  0.50000000  0.07469200  0.39085500  1
  Ir  Ir58  1  0.50000000  0.07469200  0.10914500  1
  Ir  Ir59  1  0.00000000  0.42530800  0.89085500  1
