# generated using pymatgen
data_CsMoPO6
_symmetry_space_group_name_H-M   'P 1'
_cell_length_a   11.19820664
_cell_length_b   12.98524200
_cell_length_c   16.35337671
_cell_angle_alpha   90.00000000
_cell_angle_beta   90.00000000
_cell_angle_gamma   90.00000000
_symmetry_Int_Tables_number   1
_chemical_formula_structural   CsMoPO6
_chemical_formula_sum   'Cs16 Mo16 P16 O96'
_cell_volume   2377.96778123
_cell_formula_units_Z   16
loop_
 _symmetry_equiv_pos_site_id
 _symmetry_equiv_pos_as_xyz
  1  'x, y, z'
loop_
 _atom_site_type_symbol
 _atom_site_label
 _atom_site_symmetry_multiplicity
 _atom_site_fract_x
 _atom_site_fract_y
 _atom_site_fract_z
 _atom_site_occupancy
  Cs  Cs0  1  0.69278107  0.50000000  0.00000000  1
  Cs  Cs1  1  0.80721893  0.00000000  0.00000000  1
  Cs  Cs2  1  0.05721893  0.25000000  0.25000000  1
  Cs  Cs3  1  0.94278107  0.75000000  0.25000000  1
  Cs  Cs4  1  0.69278107  0.00000000  0.50000000  1
  Cs  Cs5  1  0.80721893  0.50000000  0.50000000  1
  Cs  Cs6  1  0.05721893  0.75000000  0.75000000  1
  Cs  Cs7  1  0.94278107  0.25000000  0.75000000  1
  Cs  Cs8  1  0.19278107  0.50000000  0.50000000  1
  Cs  Cs9  1  0.30721893  0.00000000  0.50000000  1
  Cs  Cs10  1  0.55721893  0.25000000  0.75000000  1
  Cs  Cs11  1  0.44278107  0.75000000  0.75000000  1
  Cs  Cs12  1  0.19278107  0.00000000  0.00000000  1
  Cs  Cs13  1  0.30721893  0.50000000  0.00000000  1
  Cs  Cs14  1  0.55721893  0.75000000  0.25000000  1
  Cs  Cs15  1  0.44278107  0.25000000  0.25000000  1
  Mo  Mo16  1  0.50000000  0.78357360  0.00000000  1
  Mo  Mo17  1  0.00000000  0.71642640  0.00000000  1
  Mo  Mo18  1  0.75000000  0.03357360  0.25000000  1
  Mo  Mo19  1  0.25000000  0.96642640  0.25000000  1
  Mo  Mo20  1  0.50000000  0.28357360  0.50000000  1
  Mo  Mo21  1  0.00000000  0.21642640  0.50000000  1
  Mo  Mo22  1  0.75000000  0.53357360  0.75000000  1
  Mo  Mo23  1  0.25000000  0.46642640  0.75000000  1
  Mo  Mo24  1  0.00000000  0.78357360  0.50000000  1
  Mo  Mo25  1  0.50000000  0.71642640  0.50000000  1
  Mo  Mo26  1  0.25000000  0.03357360  0.75000000  1
  Mo  Mo27  1  0.75000000  0.96642640  0.75000000  1
  Mo  Mo28  1  0.00000000  0.28357360  0.00000000  1
  Mo  Mo29  1  0.50000000  0.21642640  0.00000000  1
  Mo  Mo30  1  0.25000000  0.53357360  0.25000000  1
  Mo  Mo31  1  0.75000000  0.46642640  0.25000000  1
  P  P32  1  0.00000000  0.50000000  0.13018468  1
  P  P33  1  0.00000000  0.00000000  0.36981532  1
  P  P34  1  0.75000000  0.25000000  0.11981532  1
  P  P35  1  0.75000000  0.75000000  0.88018468  1
  P  P36  1  0.00000000  0.00000000  0.63018468  1
  P  P37  1  0.00000000  0.50000000  0.86981532  1
  P  P38  1  0.75000000  0.75000000  0.61981532  1
  P  P39  1  0.75000000  0.25000000  0.38018468  1
  P  P40  1  0.50000000  0.50000000  0.63018468  1
  P  P41  1  0.50000000  0.00000000  0.86981532  1
  P  P42  1  0.25000000  0.25000000  0.61981532  1
  P  P43  1  0.25000000  0.75000000  0.38018468  1
  P  P44  1  0.50000000  0.00000000  0.13018468  1
  P  P45  1  0.50000000  0.50000000  0.36981532  1
  P  P46  1  0.25000000  0.75000000  0.11981532  1
  P  P47  1  0.25000000  0.25000000  0.88018468  1
  O  O48  1  0.55832171  0.91452169  0.07902288  1
  O  O49  1  0.55832171  0.08547831  0.92097712  1
  O  O50  1  0.44167829  0.91452169  0.92097712  1
  O  O51  1  0.94167829  0.58547831  0.07902288  1
  O  O52  1  0.19167829  0.83547831  0.17097712  1
  O  O53  1  0.19167829  0.66452169  0.32902288  1
  O  O54  1  0.30832171  0.83547831  0.32902288  1
  O  O55  1  0.80832171  0.16452169  0.17097712  1
  O  O56  1  0.65518451  0.80141611  0.93795474  1
  O  O57  1  0.65518451  0.19858389  0.06204526  1
  O  O58  1  0.84481549  0.30141611  0.06204526  1
  O  O59  1  0.84481549  0.69858389  0.93795474  1
  O  O60  1  0.81266780  0.94821383  0.18058782  1
  O  O61  1  0.31266780  0.05178617  0.31941218  1
  O  O62  1  0.68733220  0.94821383  0.31941218  1
  O  O63  1  0.18733220  0.05178617  0.18058782  1
  O  O64  1  0.93733220  0.80178617  0.06941218  1
  O  O65  1  0.43733220  0.69821383  0.93058782  1
  O  O66  1  0.09481549  0.94858389  0.31204526  1
  O  O67  1  0.56266780  0.69821383  0.06941218  1
  O  O68  1  0.90518451  0.05141611  0.31204526  1
  O  O69  1  0.90518451  0.44858389  0.18795474  1
  O  O70  1  0.09481549  0.55141611  0.18795474  1
  O  O71  1  0.06266780  0.80178617  0.93058782  1
  O  O72  1  0.55832171  0.41452169  0.57902288  1
  O  O73  1  0.55832171  0.58547831  0.42097712  1
  O  O74  1  0.44167829  0.41452169  0.42097712  1
  O  O75  1  0.94167829  0.08547831  0.57902288  1
  O  O76  1  0.19167829  0.33547831  0.67097712  1
  O  O77  1  0.19167829  0.16452169  0.82902288  1
  O  O78  1  0.30832171  0.33547831  0.82902288  1
  O  O79  1  0.80832171  0.66452169  0.67097712  1
  O  O80  1  0.65518451  0.30141611  0.43795474  1
  O  O81  1  0.65518451  0.69858389  0.56204526  1
  O  O82  1  0.84481549  0.80141611  0.56204526  1
  O  O83  1  0.84481549  0.19858389  0.43795474  1
  O  O84  1  0.81266780  0.44821383  0.68058782  1
  O  O85  1  0.31266780  0.55178617  0.81941218  1
  O  O86  1  0.68733220  0.44821383  0.81941218  1
  O  O87  1  0.18733220  0.55178617  0.68058782  1
  O  O88  1  0.93733220  0.30178617  0.56941218  1
  O  O89  1  0.43733220  0.19821383  0.43058782  1
  O  O90  1  0.09481549  0.44858389  0.81204526  1
  O  O91  1  0.56266780  0.19821383  0.56941218  1
  O  O92  1  0.90518451  0.55141611  0.81204526  1
  O  O93  1  0.90518451  0.94858389  0.68795474  1
  O  O94  1  0.09481549  0.05141611  0.68795474  1
  O  O95  1  0.06266780  0.30178617  0.43058782  1
  O  O96  1  0.05832171  0.91452169  0.57902288  1
  O  O97  1  0.05832171  0.08547831  0.42097712  1
  O  O98  1  0.94167829  0.91452169  0.42097712  1
  O  O99  1  0.44167829  0.58547831  0.57902288  1
  O  O100  1  0.69167829  0.83547831  0.67097712  1
  O  O101  1  0.69167829  0.66452169  0.82902288  1
  O  O102  1  0.80832171  0.83547831  0.82902288  1
  O  O103  1  0.30832171  0.16452169  0.67097712  1
  O  O104  1  0.15518451  0.80141611  0.43795474  1
  O  O105  1  0.15518451  0.19858389  0.56204526  1
  O  O106  1  0.34481549  0.30141611  0.56204526  1
  O  O107  1  0.34481549  0.69858389  0.43795474  1
  O  O108  1  0.31266780  0.94821383  0.68058782  1
  O  O109  1  0.81266780  0.05178617  0.81941218  1
  O  O110  1  0.18733220  0.94821383  0.81941218  1
  O  O111  1  0.68733220  0.05178617  0.68058782  1
  O  O112  1  0.43733220  0.80178617  0.56941218  1
  O  O113  1  0.93733220  0.69821383  0.43058782  1
  O  O114  1  0.59481549  0.94858389  0.81204526  1
  O  O115  1  0.06266780  0.69821383  0.56941218  1
  O  O116  1  0.40518451  0.05141611  0.81204526  1
  O  O117  1  0.40518451  0.44858389  0.68795474  1
  O  O118  1  0.59481549  0.55141611  0.68795474  1
  O  O119  1  0.56266780  0.80178617  0.43058782  1
  O  O120  1  0.05832171  0.41452169  0.07902288  1
  O  O121  1  0.05832171  0.58547831  0.92097712  1
  O  O122  1  0.94167829  0.41452169  0.92097712  1
  O  O123  1  0.44167829  0.08547831  0.07902288  1
  O  O124  1  0.69167829  0.33547831  0.17097712  1
  O  O125  1  0.69167829  0.16452169  0.32902288  1
  O  O126  1  0.80832171  0.33547831  0.32902288  1
  O  O127  1  0.30832171  0.66452169  0.17097712  1
  O  O128  1  0.15518451  0.30141611  0.93795474  1
  O  O129  1  0.15518451  0.69858389  0.06204526  1
  O  O130  1  0.34481549  0.80141611  0.06204526  1
  O  O131  1  0.34481549  0.19858389  0.93795474  1
  O  O132  1  0.31266780  0.44821383  0.18058782  1
  O  O133  1  0.81266780  0.55178617  0.31941218  1
  O  O134  1  0.18733220  0.44821383  0.31941218  1
  O  O135  1  0.68733220  0.55178617  0.18058782  1
  O  O136  1  0.43733220  0.30178617  0.06941218  1
  O  O137  1  0.93733220  0.19821383  0.93058782  1
  O  O138  1  0.59481549  0.44858389  0.31204526  1
  O  O139  1  0.06266780  0.19821383  0.06941218  1
  O  O140  1  0.40518451  0.55141611  0.31204526  1
  O  O141  1  0.40518451  0.94858389  0.18795474  1
  O  O142  1  0.59481549  0.05141611  0.18795474  1
  O  O143  1  0.56266780  0.30178617  0.93058782  1
