# generated using pymatgen
data_CrHO2
_symmetry_space_group_name_H-M   'P 1'
_cell_length_a   3.04076442
_cell_length_b   4.36961474
_cell_length_c   4.94854274
_cell_angle_alpha   90.00000000
_cell_angle_beta   90.00000000
_cell_angle_gamma   90.00000000
_symmetry_Int_Tables_number   1
_chemical_formula_structural   CrHO2
_chemical_formula_sum   'Cr2 H2 O4'
_cell_volume   65.75113413
_cell_formula_units_Z   2
loop_
 _symmetry_equiv_pos_site_id
 _symmetry_equiv_pos_as_xyz
  1  'x, y, z'
loop_
 _atom_site_type_symbol
 _atom_site_label
 _atom_site_symmetry_multiplicity
 _atom_site_fract_x
 _atom_site_fract_y
 _atom_site_fract_z
 _atom_site_occupancy
  Cr  Cr0  1  0.50000000  0.26340359  0.48453150  1
  Cr  Cr1  1  0.00000000  0.73659641  0.98453150  1
  H  H2  1  0.50000000  0.20911471  0.96821847  1
  H  H3  1  0.00000000  0.79088529  0.46821847  1
  O  O4  1  0.00000000  0.51440571  0.62856460  1
  O  O5  1  0.50000000  0.48559429  0.12856460  1
  O  O6  1  0.50000000  0.01254302  0.84158470  1
  O  O7  1  0.00000000  0.98745698  0.34158470  1
