# generated using pymatgen
data_MnBPbO4
_symmetry_space_group_name_H-M   'P 1'
_cell_length_a   6.07646700
_cell_length_b   6.81441801
_cell_length_c   8.76399201
_cell_angle_alpha   90.00000000
_cell_angle_beta   90.00000000
_cell_angle_gamma   90.00000000
_symmetry_Int_Tables_number   1
_chemical_formula_structural   MnBPbO4
_chemical_formula_sum   'Mn4 B4 Pb4 O16'
_cell_volume   362.89575420
_cell_formula_units_Z   4
loop_
 _symmetry_equiv_pos_site_id
 _symmetry_equiv_pos_as_xyz
  1  'x, y, z'
loop_
 _atom_site_type_symbol
 _atom_site_label
 _atom_site_symmetry_multiplicity
 _atom_site_fract_x
 _atom_site_fract_y
 _atom_site_fract_z
 _atom_site_occupancy
  Mn  Mn0  1  0.00000000  0.50000000  0.50000000  1
  Mn  Mn1  1  0.50000000  0.50000000  0.50000000  1
  Mn  Mn2  1  0.50000000  0.00000000  0.00000000  1
  Mn  Mn3  1  0.00000000  0.00000000  0.00000000  1
  B  B4  1  0.75000000  0.29748050  0.76295650  1
  B  B5  1  0.75000000  0.79748050  0.73704350  1
  B  B6  1  0.25000000  0.70251950  0.23704350  1
  B  B7  1  0.25000000  0.20251950  0.26295650  1
  Pb  Pb8  1  0.75000000  0.03621350  0.35055850  1
  Pb  Pb9  1  0.75000000  0.53621350  0.14944150  1
  Pb  Pb10  1  0.25000000  0.96378650  0.64944150  1
  Pb  Pb11  1  0.25000000  0.46378650  0.85055850  1
  O  O12  1  0.75000000  0.39044750  0.39776150  1
  O  O13  1  0.75000000  0.89044750  0.10223850  1
  O  O14  1  0.25000000  0.60955250  0.60223850  1
  O  O15  1  0.25000000  0.10955250  0.89776150  1
  O  O16  1  0.75000000  0.22073550  0.90728850  1
  O  O17  1  0.75000000  0.72073550  0.59271150  1
  O  O18  1  0.25000000  0.77926450  0.09271150  1
  O  O19  1  0.25000000  0.27926450  0.40728850  1
  O  O20  1  0.55000150  0.33855250  0.68908550  1
  O  O21  1  0.94999850  0.83855250  0.81091450  1
  O  O22  1  0.05000150  0.66144750  0.31091450  1
  O  O23  1  0.44999850  0.16144750  0.18908550  1
  O  O24  1  0.44999850  0.66144750  0.31091450  1
  O  O25  1  0.05000150  0.16144750  0.18908550  1
  O  O26  1  0.94999850  0.33855250  0.68908550  1
  O  O27  1  0.55000150  0.83855250  0.81091450  1
