# generated using pymatgen
data_Co3AgP3(HO6)2
_symmetry_space_group_name_H-M   'P 1'
_cell_length_a   12.10240000
_cell_length_b   12.24770600
_cell_length_c   6.59595288
_cell_angle_alpha   90.00000000
_cell_angle_beta   114.29318252
_cell_angle_gamma   90.00000000
_symmetry_Int_Tables_number   1
_chemical_formula_structural   Co3AgP3(HO6)2
_chemical_formula_sum   'Co12 Ag4 P12 H8 O48'
_cell_volume   891.12312664
_cell_formula_units_Z   4
loop_
 _symmetry_equiv_pos_site_id
 _symmetry_equiv_pos_as_xyz
  1  'x, y, z'
loop_
 _atom_site_type_symbol
 _atom_site_label
 _atom_site_symmetry_multiplicity
 _atom_site_fract_x
 _atom_site_fract_y
 _atom_site_fract_z
 _atom_site_occupancy
  Co  Co0  1  0.50000000  0.72146100  0.75000000  1
  Co  Co1  1  0.28974050  0.16135650  0.38018700  1
  Co  Co2  1  0.28974050  0.83864350  0.88018700  1
  Co  Co3  1  0.71025950  0.83864350  0.61981300  1
  Co  Co4  1  0.71025950  0.16135650  0.11981300  1
  Co  Co5  1  0.50000000  0.27853900  0.25000000  1
  Co  Co6  1  0.00000000  0.22146100  0.75000000  1
  Co  Co7  1  0.78974050  0.66135650  0.38018700  1
  Co  Co8  1  0.78974050  0.33864350  0.88018700  1
  Co  Co9  1  0.21025950  0.33864350  0.61981300  1
  Co  Co10  1  0.21025950  0.66135650  0.11981300  1
  Co  Co11  1  0.00000000  0.77853900  0.25000000  1
  Ag  Ag12  1  0.50000000  0.04031600  0.75000000  1
  Ag  Ag13  1  0.50000000  0.95968400  0.25000000  1
  Ag  Ag14  1  0.00000000  0.54031600  0.75000000  1
  Ag  Ag15  1  0.00000000  0.45968400  0.25000000  1
  P  P16  1  0.50000000  0.31905500  0.75000000  1
  P  P17  1  0.50000000  0.68094500  0.25000000  1
  P  P18  1  0.72062100  0.11378900  0.61066300  1
  P  P19  1  0.27937900  0.11378900  0.88933700  1
  P  P20  1  0.27937900  0.88621100  0.38933700  1
  P  P21  1  0.72062100  0.88621100  0.11066300  1
  P  P22  1  0.00000000  0.81905500  0.75000000  1
  P  P23  1  0.00000000  0.18094500  0.25000000  1
  P  P24  1  0.22062100  0.61378900  0.61066300  1
  P  P25  1  0.77937900  0.61378900  0.88933700  1
  P  P26  1  0.77937900  0.38621100  0.38933700  1
  P  P27  1  0.22062100  0.38621100  0.11066300  1
  H  H28  1  0.88252450  0.00683550  0.68829200  1
  H  H29  1  0.11747550  0.00683550  0.81170800  1
  H  H30  1  0.11747550  0.99316450  0.31170800  1
  H  H31  1  0.88252450  0.99316450  0.18829200  1
  H  H32  1  0.38252450  0.50683550  0.68829200  1
  H  H33  1  0.61747550  0.50683550  0.81170800  1
  H  H34  1  0.61747550  0.49316450  0.31170800  1
  H  H35  1  0.38252450  0.49316450  0.18829200  1
  O  O36  1  0.28236000  0.18210100  0.69629200  1
  O  O37  1  0.14027150  0.09241250  0.84462500  1
  O  O38  1  0.14027150  0.90758750  0.34462500  1
  O  O39  1  0.85972850  0.90758750  0.15537500  1
  O  O40  1  0.66182900  0.00083300  0.60429800  1
  O  O41  1  0.33817100  0.00083300  0.89570200  1
  O  O42  1  0.33817100  0.99916700  0.39570200  1
  O  O43  1  0.66182900  0.99916700  0.10429800  1
  O  O44  1  0.71764000  0.18210100  0.80370800  1
  O  O45  1  0.85972850  0.09241250  0.65537500  1
  O  O46  1  0.10787050  0.10611550  0.27095200  1
  O  O47  1  0.89212950  0.10611550  0.22904800  1
  O  O48  1  0.89212950  0.89388450  0.72904800  1
  O  O49  1  0.10787050  0.89388450  0.77095200  1
  O  O50  1  0.53473850  0.75498850  0.46179800  1
  O  O51  1  0.46526150  0.75498850  0.03820200  1
  O  O52  1  0.46526150  0.24501150  0.53820200  1
  O  O53  1  0.28236000  0.81789900  0.19629200  1
  O  O54  1  0.34327200  0.17323000  0.11393300  1
  O  O55  1  0.65672800  0.17323000  0.38606700  1
  O  O56  1  0.65672800  0.82677000  0.88606700  1
  O  O57  1  0.34327200  0.82677000  0.61393300  1
  O  O58  1  0.71764000  0.81789900  0.30370800  1
  O  O59  1  0.53473850  0.24501150  0.96179800  1
  O  O60  1  0.78236000  0.68210100  0.69629200  1
  O  O61  1  0.64027150  0.59241250  0.84462500  1
  O  O62  1  0.64027150  0.40758750  0.34462500  1
  O  O63  1  0.35972850  0.40758750  0.15537500  1
  O  O64  1  0.16182900  0.50083300  0.60429800  1
  O  O65  1  0.83817100  0.50083300  0.89570200  1
  O  O66  1  0.83817100  0.49916700  0.39570200  1
  O  O67  1  0.16182900  0.49916700  0.10429800  1
  O  O68  1  0.21764000  0.68210100  0.80370800  1
  O  O69  1  0.35972850  0.59241250  0.65537500  1
  O  O70  1  0.60787050  0.60611550  0.27095200  1
  O  O71  1  0.39212950  0.60611550  0.22904800  1
  O  O72  1  0.39212950  0.39388450  0.72904800  1
  O  O73  1  0.60787050  0.39388450  0.77095200  1
  O  O74  1  0.03473850  0.25498850  0.46179800  1
  O  O75  1  0.96526150  0.25498850  0.03820200  1
  O  O76  1  0.96526150  0.74501150  0.53820200  1
  O  O77  1  0.78236000  0.31789900  0.19629200  1
  O  O78  1  0.84327200  0.67323000  0.11393300  1
  O  O79  1  0.15672800  0.67323000  0.38606700  1
  O  O80  1  0.15672800  0.32677000  0.88606700  1
  O  O81  1  0.84327200  0.32677000  0.61393300  1
  O  O82  1  0.21764000  0.31789900  0.30370800  1
  O  O83  1  0.03473850  0.74501150  0.96179800  1
