# generated using pymatgen
data_FeNi2BO5
_symmetry_space_group_name_H-M   'P 1'
_cell_length_a   3.03659513
_cell_length_b   9.32560812
_cell_length_c   12.35701046
_cell_angle_alpha   90.00000000
_cell_angle_beta   90.00000000
_cell_angle_gamma   90.00000000
_symmetry_Int_Tables_number   1
_chemical_formula_structural   FeNi2BO5
_chemical_formula_sum   'Fe4 Ni8 B4 O20'
_cell_volume   349.92701097
_cell_formula_units_Z   4
loop_
 _symmetry_equiv_pos_site_id
 _symmetry_equiv_pos_as_xyz
  1  'x, y, z'
loop_
 _atom_site_type_symbol
 _atom_site_label
 _atom_site_symmetry_multiplicity
 _atom_site_fract_x
 _atom_site_fract_y
 _atom_site_fract_z
 _atom_site_occupancy
  Fe  Fe0  1  0.00000000  0.76027999  0.61457132  1
  Fe  Fe1  1  0.00000000  0.23972001  0.38542868  1
  Fe  Fe2  1  0.00000000  0.26027998  0.88542868  1
  Fe  Fe3  1  0.00000000  0.73972001  0.11457132  1
  Ni  Ni4  1  0.50000000  0.00000000  0.50000000  1
  Ni  Ni5  1  0.00000000  0.00000000  0.00000000  1
  Ni  Ni6  1  0.00000000  0.50000000  0.50000000  1
  Ni  Ni7  1  0.50000000  0.50000000  0.00000000  1
  Ni  Ni8  1  0.50000000  0.99927542  0.78207660  1
  Ni  Ni9  1  0.50000000  0.00072458  0.21792340  1
  Ni  Ni10  1  0.50000000  0.49927542  0.71792340  1
  Ni  Ni11  1  0.50000000  0.50072458  0.28207660  1
  B  B12  1  0.00000000  0.77334788  0.36025843  1
  B  B13  1  0.00000000  0.72665212  0.86025843  1
  B  B14  1  0.00000000  0.27334788  0.13974157  1
  B  B15  1  0.00000000  0.22665212  0.63974157  1
  O  O16  1  0.00000000  0.62504676  0.35893734  1
  O  O17  1  0.50000000  0.38363974  0.42243346  1
  O  O18  1  0.50000000  0.11636026  0.92243346  1
  O  O19  1  0.50000000  0.88363974  0.07756654  1
  O  O20  1  0.00000000  0.87495324  0.85893734  1
  O  O21  1  0.00000000  0.12504676  0.14106266  1
  O  O22  1  0.00000000  0.37495324  0.64106266  1
  O  O23  1  0.50000000  0.61636026  0.57756654  1
  O  O24  1  0.00000000  0.65160023  0.76281533  1
  O  O25  1  0.00000000  0.84839977  0.26281533  1
  O  O26  1  0.00000000  0.15160023  0.73718467  1
  O  O27  1  0.00000000  0.34839977  0.23718467  1
  O  O28  1  0.00000000  0.65078641  0.95759528  1
  O  O29  1  0.00000000  0.34921359  0.04240472  1
  O  O30  1  0.50000000  0.89260512  0.64330246  1
  O  O31  1  0.00000000  0.84921359  0.45759528  1
  O  O32  1  0.50000000  0.60739488  0.14330246  1
  O  O33  1  0.50000000  0.39260512  0.85669754  1
  O  O34  1  0.50000000  0.10739488  0.35669754  1
  O  O35  1  0.00000000  0.15078641  0.54240472  1
