# generated using pymatgen
data_Li3Ti2(PO4)3
_symmetry_space_group_name_H-M   'P 1'
_cell_length_a   8.49767565
_cell_length_b   8.49767565
_cell_length_c   22.89518023
_cell_angle_alpha   90.00000000
_cell_angle_beta   90.00000000
_cell_angle_gamma   120.00000000
_symmetry_Int_Tables_number   1
_chemical_formula_structural   Li3Ti2(PO4)3
_chemical_formula_sum   'Li18 Ti12 P18 O72'
_cell_volume   1431.77573730
_cell_formula_units_Z   6
loop_
 _symmetry_equiv_pos_site_id
 _symmetry_equiv_pos_as_xyz
  1  'x, y, z'
loop_
 _atom_site_type_symbol
 _atom_site_label
 _atom_site_symmetry_multiplicity
 _atom_site_fract_x
 _atom_site_fract_y
 _atom_site_fract_z
 _atom_site_occupancy
  Li  Li0  1  0.98151200  0.36050900  0.28284300  1
  Li  Li1  1  0.63949100  0.62100300  0.28284300  1
  Li  Li2  1  0.02717567  0.71233033  0.05049033  1
  Li  Li3  1  0.68515467  0.97282433  0.05049033  1
  Li  Li4  1  0.28766967  0.31484533  0.05049033  1
  Li  Li5  1  0.37899700  0.01848800  0.28284300  1
  Li  Li6  1  0.64817867  0.69384233  0.61617633  1
  Li  Li7  1  0.30615767  0.95433633  0.61617633  1
  Li  Li8  1  0.69384233  0.04566367  0.38382367  1
  Li  Li9  1  0.35182133  0.30615767  0.38382367  1
  Li  Li10  1  0.95433633  0.64817867  0.38382367  1
  Li  Li11  1  0.04566367  0.35182133  0.61617633  1
  Li  Li12  1  0.31484533  0.02717567  0.94950967  1
  Li  Li13  1  0.97282433  0.28766967  0.94950967  1
  Li  Li14  1  0.36050900  0.37899700  0.71715700  1
  Li  Li15  1  0.01848800  0.63949100  0.71715700  1
  Li  Li16  1  0.62100300  0.98151200  0.71715700  1
  Li  Li17  1  0.71233033  0.68515467  0.94950967  1
  Ti  Ti18  1  0.66666667  0.33333333  0.18683233  1
  Ti  Ti19  1  0.33333333  0.66666667  0.31837467  1
  Ti  Ti20  1  0.00000000  0.00000000  0.14650100  1
  Ti  Ti21  1  0.33333333  0.66666667  0.01495867  1
  Ti  Ti22  1  0.33333333  0.66666667  0.52016567  1
  Ti  Ti23  1  0.00000000  0.00000000  0.65170800  1
  Ti  Ti24  1  0.66666667  0.33333333  0.47983433  1
  Ti  Ti25  1  0.00000000  0.00000000  0.34829200  1
  Ti  Ti26  1  0.00000000  0.00000000  0.85349900  1
  Ti  Ti27  1  0.66666667  0.33333333  0.98504133  1
  Ti  Ti28  1  0.33333333  0.66666667  0.81316767  1
  Ti  Ti29  1  0.66666667  0.33333333  0.68162533  1
  P  P30  1  0.66621933  0.62453567  0.08360667  1
  P  P31  1  0.29120233  0.29164967  0.24972667  1
  P  P32  1  0.37546433  0.04168367  0.08360667  1
  P  P33  1  0.70835033  0.99955267  0.24972667  1
  P  P34  1  0.00044733  0.70879767  0.24972667  1
  P  P35  1  0.95831633  0.33378067  0.08360667  1
  P  P36  1  0.33288600  0.95786900  0.41694000  1
  P  P37  1  0.95786900  0.62498300  0.58306000  1
  P  P38  1  0.04213100  0.37501700  0.41694000  1
  P  P39  1  0.37501700  0.33288600  0.58306000  1
  P  P40  1  0.66711400  0.04213100  0.58306000  1
  P  P41  1  0.62498300  0.66711400  0.41694000  1
  P  P42  1  0.99955267  0.29120233  0.75027333  1
  P  P43  1  0.62453567  0.95831633  0.91639333  1
  P  P44  1  0.70879767  0.70835033  0.75027333  1
  P  P45  1  0.04168367  0.66621933  0.91639333  1
  P  P46  1  0.33378067  0.37546433  0.91639333  1
  P  P47  1  0.29164967  0.00044733  0.75027333  1
  O  O48  1  0.66366533  0.52818267  0.13996567  1
  O  O49  1  0.90729067  0.76094433  0.30012233  1
  O  O50  1  0.47018567  0.57027833  0.06451033  1
  O  O51  1  0.00300133  0.80515067  0.19336767  1
  O  O52  1  0.88284133  0.49897967  0.24403967  1
  O  O53  1  0.78382533  0.83435367  0.08929367  1
  O  O54  1  0.80214933  0.99699867  0.19336767  1
  O  O55  1  0.85365367  0.09270933  0.30012233  1
  O  O56  1  0.47181733  0.13548267  0.13996567  1
  O  O57  1  0.19648100  0.76305500  0.26882300  1
  O  O58  1  0.81301300  0.24062400  0.03321100  1
  O  O59  1  0.50102033  0.38386167  0.24403967  1
  O  O60  1  0.56657400  0.80351900  0.26882300  1
  O  O61  1  0.75937600  0.57238900  0.03321100  1
  O  O62  1  0.23905567  0.14634633  0.30012233  1
  O  O63  1  0.16564633  0.94947167  0.08929367  1
  O  O64  1  0.42761100  0.18698700  0.03321100  1
  O  O65  1  0.19484933  0.19785067  0.19336767  1
  O  O66  1  0.10009267  0.52981433  0.06451033  1
  O  O67  1  0.61613833  0.11715867  0.24403967  1
  O  O68  1  0.05052833  0.21617467  0.08929367  1
  O  O69  1  0.42972167  0.89990733  0.06451033  1
  O  O70  1  0.86451733  0.33633467  0.13996567  1
  O  O71  1  0.23694500  0.43342600  0.26882300  1
  O  O72  1  0.33033200  0.86151600  0.47329900  1
  O  O73  1  0.57395733  0.09427767  0.63345567  1
  O  O74  1  0.13685233  0.90361167  0.39784367  1
  O  O75  1  0.66966800  0.13848400  0.52670100  1
  O  O76  1  0.54950800  0.83231300  0.57737300  1
  O  O77  1  0.45049200  0.16768700  0.42262700  1
  O  O78  1  0.46881600  0.33033200  0.52670100  1
  O  O79  1  0.52032033  0.42604267  0.63345567  1
  O  O80  1  0.13848400  0.46881600  0.47329900  1
  O  O81  1  0.86314767  0.09638833  0.60215633  1
  O  O82  1  0.47967967  0.57395733  0.36654433  1
  O  O83  1  0.16768700  0.71719500  0.57737300  1
  O  O84  1  0.23324067  0.13685233  0.60215633  1
  O  O85  1  0.42604267  0.90572233  0.36654433  1
  O  O86  1  0.90572233  0.47967967  0.63345567  1
  O  O87  1  0.83231300  0.28280500  0.42262700  1
  O  O88  1  0.09427767  0.52032033  0.36654433  1
  O  O89  1  0.86151600  0.53118400  0.52670100  1
  O  O90  1  0.76675933  0.86314767  0.39784367  1
  O  O91  1  0.28280500  0.45049200  0.57737300  1
  O  O92  1  0.71719500  0.54950800  0.42262700  1
  O  O93  1  0.09638833  0.23324067  0.39784367  1
  O  O94  1  0.53118400  0.66966800  0.47329900  1
  O  O95  1  0.90361167  0.76675933  0.60215633  1
  O  O96  1  0.99699867  0.19484933  0.80663233  1
  O  O97  1  0.24062400  0.42761100  0.96678900  1
  O  O98  1  0.80351900  0.23694500  0.73117700  1
  O  O99  1  0.33633467  0.47181733  0.86003433  1
  O  O100  1  0.21617467  0.16564633  0.91070633  1
  O  O101  1  0.11715867  0.50102033  0.75596033  1
  O  O102  1  0.13548267  0.66366533  0.86003433  1
  O  O103  1  0.18698700  0.75937600  0.96678900  1
  O  O104  1  0.80515067  0.80214933  0.80663233  1
  O  O105  1  0.52981433  0.42972167  0.93548967  1
  O  O106  1  0.14634633  0.90729067  0.69987767  1
  O  O107  1  0.83435367  0.05052833  0.91070633  1
  O  O108  1  0.89990733  0.47018567  0.93548967  1
  O  O109  1  0.09270933  0.23905567  0.69987767  1
  O  O110  1  0.57238900  0.81301300  0.96678900  1
  O  O111  1  0.49897967  0.61613833  0.75596033  1
  O  O112  1  0.76094433  0.85365367  0.69987767  1
  O  O113  1  0.52818267  0.86451733  0.86003433  1
  O  O114  1  0.43342600  0.19648100  0.73117700  1
  O  O115  1  0.94947167  0.78382533  0.91070633  1
  O  O116  1  0.38386167  0.88284133  0.75596033  1
  O  O117  1  0.76305500  0.56657400  0.73117700  1
  O  O118  1  0.19785067  0.00300133  0.80663233  1
  O  O119  1  0.57027833  0.10009267  0.93548967  1
