# generated using pymatgen
data_La2NiO4
_symmetry_space_group_name_H-M   'P 1'
_cell_length_a   5.60789200
_cell_length_b   5.60789200
_cell_length_c   12.42322900
_cell_angle_alpha   90.00000000
_cell_angle_beta   90.00000000
_cell_angle_gamma   90.00000000
_symmetry_Int_Tables_number   1
_chemical_formula_structural   La2NiO4
_chemical_formula_sum   'La8 Ni4 O16'
_cell_volume   390.69132938
_cell_formula_units_Z   4
loop_
 _symmetry_equiv_pos_site_id
 _symmetry_equiv_pos_as_xyz
  1  'x, y, z'
loop_
 _atom_site_type_symbol
 _atom_site_label
 _atom_site_symmetry_multiplicity
 _atom_site_fract_x
 _atom_site_fract_y
 _atom_site_fract_z
 _atom_site_occupancy
  La  La0  1  0.26280300  0.76280300  0.38701700  1
  La  La1  1  0.73719700  0.23719700  0.38701700  1
  La  La2  1  0.76280300  0.26280300  0.11298300  1
  La  La3  1  0.26280300  0.23719700  0.88701700  1
  La  La4  1  0.73719700  0.76280300  0.88701700  1
  La  La5  1  0.23719700  0.26280300  0.61298300  1
  La  La6  1  0.76280300  0.73719700  0.61298300  1
  La  La7  1  0.23719700  0.73719700  0.11298300  1
  Ni  Ni8  1  0.75000000  0.75000000  0.25000000  1
  Ni  Ni9  1  0.25000000  0.75000000  0.75000000  1
  Ni  Ni10  1  0.75000000  0.25000000  0.75000000  1
  Ni  Ni11  1  0.25000000  0.25000000  0.25000000  1
  O  O12  1  0.00000000  0.00000000  0.25000000  1
  O  O13  1  0.50000000  0.50000000  0.75000000  1
  O  O14  1  0.50000000  0.50000000  0.25000000  1
  O  O15  1  0.00000000  0.00000000  0.75000000  1
  O  O16  1  0.50000000  0.00000000  0.72520200  1
  O  O17  1  0.50000000  0.00000000  0.22520200  1
  O  O18  1  0.00000000  0.50000000  0.27479800  1
  O  O19  1  0.00000000  0.50000000  0.77479800  1
  O  O20  1  0.20352900  0.70352900  0.57066900  1
  O  O21  1  0.79647100  0.29647100  0.57066900  1
  O  O22  1  0.70352900  0.20352900  0.92933100  1
  O  O23  1  0.20352900  0.29647100  0.07066900  1
  O  O24  1  0.79647100  0.70352900  0.07066900  1
  O  O25  1  0.29647100  0.20352900  0.42933100  1
  O  O26  1  0.70352900  0.79647100  0.42933100  1
  O  O27  1  0.29647100  0.79647100  0.92933100  1
