# generated using pymatgen
data_LiCoAsO4
_symmetry_space_group_name_H-M   'P 1'
_cell_length_a   4.96432707
_cell_length_b   6.04960400
_cell_length_c   10.59866116
_cell_angle_alpha   90.00000000
_cell_angle_beta   90.00000000
_cell_angle_gamma   90.00000000
_symmetry_Int_Tables_number   1
_chemical_formula_structural   LiCoAsO4
_chemical_formula_sum   'Li4 Co4 As4 O16'
_cell_volume   318.30124878
_cell_formula_units_Z   4
loop_
 _symmetry_equiv_pos_site_id
 _symmetry_equiv_pos_as_xyz
  1  'x, y, z'
loop_
 _atom_site_type_symbol
 _atom_site_label
 _atom_site_symmetry_multiplicity
 _atom_site_fract_x
 _atom_site_fract_y
 _atom_site_fract_z
 _atom_site_occupancy
  Li  Li0  1  0.50000000  0.00000000  0.00000000  1
  Li  Li1  1  0.00000000  0.00000000  0.50000000  1
  Li  Li2  1  0.50000000  0.50000000  0.00000000  1
  Li  Li3  1  0.00000000  0.50000000  0.50000000  1
  Co  Co4  1  0.99444500  0.75000000  0.77721900  1
  Co  Co5  1  0.00555500  0.25000000  0.22278100  1
  Co  Co6  1  0.50555500  0.75000000  0.27721900  1
  Co  Co7  1  0.49444500  0.25000000  0.72278100  1
  As  As8  1  0.56202800  0.25000000  0.40452100  1
  As  As9  1  0.93797200  0.25000000  0.90452100  1
  As  As10  1  0.43797200  0.75000000  0.59547900  1
  As  As11  1  0.06202800  0.75000000  0.09547900  1
  O  O12  1  0.28206000  0.25000000  0.90407000  1
  O  O13  1  0.71794000  0.75000000  0.09593000  1
  O  O14  1  0.21794000  0.25000000  0.40407000  1
  O  O15  1  0.78206000  0.75000000  0.59593000  1
  O  O16  1  0.29324800  0.75000000  0.44728300  1
  O  O17  1  0.20675200  0.75000000  0.94728300  1
  O  O18  1  0.79324800  0.25000000  0.05271700  1
  O  O19  1  0.70675200  0.25000000  0.55271700  1
  O  O20  1  0.27943800  0.53011700  0.67193600  1
  O  O21  1  0.72056200  0.46988300  0.32806400  1
  O  O22  1  0.22056200  0.53011700  0.17193600  1
  O  O23  1  0.27943800  0.96988300  0.67193600  1
  O  O24  1  0.77943800  0.03011700  0.82806400  1
  O  O25  1  0.77943800  0.46988300  0.82806400  1
  O  O26  1  0.72056200  0.03011700  0.32806400  1
  O  O27  1  0.22056200  0.96988300  0.17193600  1
