# generated using pymatgen
data_Na2Mn2Se3
_symmetry_space_group_name_H-M   'P 1'
_cell_length_a   15.65597600
_cell_length_b   14.01338800
_cell_length_c   7.31363484
_cell_angle_alpha   90.00000000
_cell_angle_beta   117.51942559
_cell_angle_gamma   90.00000000
_symmetry_Int_Tables_number   1
_chemical_formula_structural   Na2Mn2Se3
_chemical_formula_sum   'Na16 Mn16 Se24'
_cell_volume   1423.01280695
_cell_formula_units_Z   8
loop_
 _symmetry_equiv_pos_site_id
 _symmetry_equiv_pos_as_xyz
  1  'x, y, z'
loop_
 _atom_site_type_symbol
 _atom_site_label
 _atom_site_symmetry_multiplicity
 _atom_site_fract_x
 _atom_site_fract_y
 _atom_site_fract_z
 _atom_site_occupancy
  Na  Na0  1  0.60473300  0.58483300  0.63903100  1
  Na  Na1  1  0.39526700  0.58483300  0.86096900  1
  Na  Na2  1  0.39526700  0.41516700  0.36096900  1
  Na  Na3  1  0.60473300  0.41516700  0.13903100  1
  Na  Na4  1  0.00000000  0.27908200  0.75000000  1
  Na  Na5  1  0.00000000  0.72091800  0.25000000  1
  Na  Na6  1  0.00000000  0.56988300  0.75000000  1
  Na  Na7  1  0.00000000  0.43011700  0.25000000  1
  Na  Na8  1  0.10473300  0.08483300  0.63903100  1
  Na  Na9  1  0.89526700  0.08483300  0.86096900  1
  Na  Na10  1  0.89526700  0.91516700  0.36096900  1
  Na  Na11  1  0.10473300  0.91516700  0.13903100  1
  Na  Na12  1  0.50000000  0.77908200  0.75000000  1
  Na  Na13  1  0.50000000  0.22091800  0.25000000  1
  Na  Na14  1  0.50000000  0.06988300  0.75000000  1
  Na  Na15  1  0.50000000  0.93011700  0.25000000  1
  Mn  Mn16  1  0.18304550  0.73634650  0.75805600  1
  Mn  Mn17  1  0.81695450  0.73634650  0.74194400  1
  Mn  Mn18  1  0.81695450  0.26365350  0.24194400  1
  Mn  Mn19  1  0.18304550  0.26365350  0.25805600  1
  Mn  Mn20  1  0.21019800  0.57611500  0.29638700  1
  Mn  Mn21  1  0.78980200  0.57611500  0.20361300  1
  Mn  Mn22  1  0.78980200  0.42388500  0.70361300  1
  Mn  Mn23  1  0.21019800  0.42388500  0.79638700  1
  Mn  Mn24  1  0.68304550  0.23634650  0.75805600  1
  Mn  Mn25  1  0.31695450  0.23634650  0.74194400  1
  Mn  Mn26  1  0.31695450  0.76365350  0.24194400  1
  Mn  Mn27  1  0.68304550  0.76365350  0.25805600  1
  Mn  Mn28  1  0.71019800  0.07611500  0.29638700  1
  Mn  Mn29  1  0.28980200  0.07611500  0.20361300  1
  Mn  Mn30  1  0.28980200  0.92388500  0.70361300  1
  Mn  Mn31  1  0.71019800  0.92388500  0.79638700  1
  Se  Se32  1  0.11235600  0.88516800  0.54739100  1
  Se  Se33  1  0.88764400  0.88516800  0.95260900  1
  Se  Se34  1  0.88764400  0.11483200  0.45260900  1
  Se  Se35  1  0.11235600  0.11483200  0.04739100  1
  Se  Se36  1  0.13463600  0.28119800  0.54973500  1
  Se  Se37  1  0.86536400  0.28119800  0.95026500  1
  Se  Se38  1  0.86536400  0.71880200  0.45026500  1
  Se  Se39  1  0.13463600  0.71880200  0.04973500  1
  Se  Se40  1  0.14653100  0.57531800  0.56644400  1
  Se  Se41  1  0.85346900  0.57531800  0.93355600  1
  Se  Se42  1  0.85346900  0.42468200  0.43355600  1
  Se  Se43  1  0.14653100  0.42468200  0.06644400  1
  Se  Se44  1  0.61235600  0.38516800  0.54739100  1
  Se  Se45  1  0.38764400  0.38516800  0.95260900  1
  Se  Se46  1  0.38764400  0.61483200  0.45260900  1
  Se  Se47  1  0.61235600  0.61483200  0.04739100  1
  Se  Se48  1  0.63463600  0.78119800  0.54973500  1
  Se  Se49  1  0.36536400  0.78119800  0.95026500  1
  Se  Se50  1  0.36536400  0.21880200  0.45026500  1
  Se  Se51  1  0.63463600  0.21880200  0.04973500  1
  Se  Se52  1  0.64653100  0.07531800  0.56644400  1
  Se  Se53  1  0.35346900  0.07531800  0.93355600  1
  Se  Se54  1  0.35346900  0.92468200  0.43355600  1
  Se  Se55  1  0.64653100  0.92468200  0.06644400  1
