# generated using pymatgen
data_FeAg2SnS4
_symmetry_space_group_name_H-M   'P 1'
_cell_length_a   5.60309600
_cell_length_b   5.60309600
_cell_length_c   11.87507200
_cell_angle_alpha   90.00000000
_cell_angle_beta   90.00000000
_cell_angle_gamma   90.00000000
_symmetry_Int_Tables_number   1
_chemical_formula_structural   FeAg2SnS4
_chemical_formula_sum   'Fe2 Ag4 Sn2 S8'
_cell_volume   372.81414224
_cell_formula_units_Z   2
loop_
 _symmetry_equiv_pos_site_id
 _symmetry_equiv_pos_as_xyz
  1  'x, y, z'
loop_
 _atom_site_type_symbol
 _atom_site_label
 _atom_site_symmetry_multiplicity
 _atom_site_fract_x
 _atom_site_fract_y
 _atom_site_fract_z
 _atom_site_occupancy
  Fe  Fe0  1  0.00000000  0.00000000  0.00000000  1
  Fe  Fe1  1  0.50000000  0.50000000  0.50000000  1
  Ag  Ag2  1  0.50000000  0.00000000  0.25000000  1
  Ag  Ag3  1  0.00000000  0.50000000  0.25000000  1
  Ag  Ag4  1  0.00000000  0.50000000  0.75000000  1
  Ag  Ag5  1  0.50000000  0.00000000  0.75000000  1
  Sn  Sn6  1  0.50000000  0.50000000  0.00000000  1
  Sn  Sn7  1  0.00000000  0.00000000  0.50000000  1
  S  S8  1  0.76555300  0.76555300  0.11443000  1
  S  S9  1  0.26555300  0.73444700  0.38557000  1
  S  S10  1  0.73444700  0.26555300  0.38557000  1
  S  S11  1  0.23444700  0.23444700  0.11443000  1
  S  S12  1  0.26555300  0.26555300  0.61443000  1
  S  S13  1  0.76555300  0.23444700  0.88557000  1
  S  S14  1  0.23444700  0.76555300  0.88557000  1
  S  S15  1  0.73444700  0.73444700  0.61443000  1
