# generated using pymatgen
data_La2NiIrO6
_symmetry_space_group_name_H-M   'P 1'
_cell_length_a   5.55109804
_cell_length_b   5.78024811
_cell_length_c   9.66621870
_cell_angle_alpha   90.00000000
_cell_angle_beta   124.83647192
_cell_angle_gamma   90.00000000
_symmetry_Int_Tables_number   1
_chemical_formula_structural   La2NiIrO6
_chemical_formula_sum   'La4 Ni2 Ir2 O12'
_cell_volume   254.57268540
_cell_formula_units_Z   2
loop_
 _symmetry_equiv_pos_site_id
 _symmetry_equiv_pos_as_xyz
  1  'x, y, z'
loop_
 _atom_site_type_symbol
 _atom_site_label
 _atom_site_symmetry_multiplicity
 _atom_site_fract_x
 _atom_site_fract_y
 _atom_site_fract_z
 _atom_site_occupancy
  La  La0  1  0.23539000  0.94230350  0.24913800  1
  La  La1  1  0.76461000  0.44230350  0.25086200  1
  La  La2  1  0.23539000  0.55769650  0.74913800  1
  La  La3  1  0.76461000  0.05769650  0.75086200  1
  Ni  Ni4  1  0.00000000  0.50000000  0.00000000  1
  Ni  Ni5  1  0.00000000  0.00000000  0.50000000  1
  Ir  Ir6  1  0.50000000  0.50000000  0.50000000  1
  Ir  Ir7  1  0.50000000  0.00000000  0.00000000  1
  O  O8  1  0.34289500  0.97482000  0.75185550  1
  O  O9  1  0.65710500  0.47482000  0.74814450  1
  O  O10  1  0.65710500  0.02518000  0.24814450  1
  O  O11  1  0.34289500  0.52518000  0.25185550  1
  O  O12  1  0.74279000  0.70670100  0.04900100  1
  O  O13  1  0.25721000  0.20670100  0.45099900  1
  O  O14  1  0.25721000  0.29329900  0.95099900  1
  O  O15  1  0.74279000  0.79329900  0.54900100  1
  O  O16  1  0.84601800  0.30000100  0.54841700  1
  O  O17  1  0.15398200  0.80000100  0.95158300  1
  O  O18  1  0.15398200  0.69999900  0.45158300  1
  O  O19  1  0.84601800  0.19999900  0.04841700  1
