# generated using pymatgen
data_Nd6Fe13Sn
_symmetry_space_group_name_H-M   'P 1'
_cell_length_a   8.06790400
_cell_length_b   8.06790400
_cell_length_c   23.50304600
_cell_angle_alpha   90.00000000
_cell_angle_beta   90.00000000
_cell_angle_gamma   90.00000000
_symmetry_Int_Tables_number   1
_chemical_formula_structural   Nd6Fe13Sn
_chemical_formula_sum   'Nd24 Fe52 Sn4'
_cell_volume   1529.83852881
_cell_formula_units_Z   4
loop_
 _symmetry_equiv_pos_site_id
 _symmetry_equiv_pos_as_xyz
  1  'x, y, z'
loop_
 _atom_site_type_symbol
 _atom_site_label
 _atom_site_symmetry_multiplicity
 _atom_site_fract_x
 _atom_site_fract_y
 _atom_site_fract_z
 _atom_site_occupancy
  Nd  Nd0  1  0.33588850  0.16411150  0.31541150  1
  Nd  Nd1  1  0.00000000  0.00000000  0.39565100  1
  Nd  Nd2  1  0.50000000  0.50000000  0.39565100  1
  Nd  Nd3  1  0.50000000  0.50000000  0.10434900  1
  Nd  Nd4  1  0.16411150  0.33588850  0.18458850  1
  Nd  Nd5  1  0.00000000  0.00000000  0.10434900  1
  Nd  Nd6  1  0.66411150  0.83588850  0.31541150  1
  Nd  Nd7  1  0.16411150  0.66411150  0.31541150  1
  Nd  Nd8  1  0.83588850  0.33588850  0.31541150  1
  Nd  Nd9  1  0.66411150  0.16411150  0.18458850  1
  Nd  Nd10  1  0.33588850  0.83588850  0.18458850  1
  Nd  Nd11  1  0.83588850  0.66411150  0.18458850  1
  Nd  Nd12  1  0.83588850  0.66411150  0.81541150  1
  Nd  Nd13  1  0.50000000  0.50000000  0.89565100  1
  Nd  Nd14  1  0.00000000  0.00000000  0.89565100  1
  Nd  Nd15  1  0.00000000  0.00000000  0.60434900  1
  Nd  Nd16  1  0.66411150  0.83588850  0.68458850  1
  Nd  Nd17  1  0.50000000  0.50000000  0.60434900  1
  Nd  Nd18  1  0.16411150  0.33588850  0.81541150  1
  Nd  Nd19  1  0.66411150  0.16411150  0.81541150  1
  Nd  Nd20  1  0.33588850  0.83588850  0.81541150  1
  Nd  Nd21  1  0.16411150  0.66411150  0.68458850  1
  Nd  Nd22  1  0.83588850  0.33588850  0.68458850  1
  Nd  Nd23  1  0.33588850  0.16411150  0.68458850  1
  Fe  Fe24  1  0.38672450  0.11327550  0.09316250  1
  Fe  Fe25  1  0.88672450  0.61327550  0.40683750  1
  Fe  Fe26  1  0.50000000  0.00000000  0.00000000  1
  Fe  Fe27  1  0.00000000  0.50000000  0.00000000  1
  Fe  Fe28  1  0.70957100  0.43360600  0.00000000  1
  Fe  Fe29  1  0.93360600  0.20957100  0.00000000  1
  Fe  Fe30  1  0.06639400  0.79042900  0.00000000  1
  Fe  Fe31  1  0.70957100  0.56639400  0.50000000  1
  Fe  Fe32  1  0.79042900  0.93360600  0.00000000  1
  Fe  Fe33  1  0.06639400  0.20957100  0.50000000  1
  Fe  Fe34  1  0.43360600  0.29042900  0.00000000  1
  Fe  Fe35  1  0.29042900  0.56639400  0.00000000  1
  Fe  Fe36  1  0.82109350  0.67890650  0.05836850  1
  Fe  Fe37  1  0.11327550  0.38672450  0.40683750  1
  Fe  Fe38  1  0.67890650  0.17890650  0.05836850  1
  Fe  Fe39  1  0.82109350  0.32109350  0.44163150  1
  Fe  Fe40  1  0.17890650  0.67890650  0.44163150  1
  Fe  Fe41  1  0.67890650  0.82109350  0.44163150  1
  Fe  Fe42  1  0.32109350  0.17890650  0.44163150  1
  Fe  Fe43  1  0.17890650  0.32109350  0.05836850  1
  Fe  Fe44  1  0.32109350  0.82109350  0.05836850  1
  Fe  Fe45  1  0.88672450  0.38672450  0.09316250  1
  Fe  Fe46  1  0.11327550  0.61327550  0.09316250  1
  Fe  Fe47  1  0.38672450  0.88672450  0.40683750  1
  Fe  Fe48  1  0.61327550  0.11327550  0.40683750  1
  Fe  Fe49  1  0.61327550  0.88672450  0.09316250  1
  Fe  Fe50  1  0.88672450  0.61327550  0.59316250  1
  Fe  Fe51  1  0.38672450  0.11327550  0.90683750  1
  Fe  Fe52  1  0.00000000  0.50000000  0.50000000  1
  Fe  Fe53  1  0.50000000  0.00000000  0.50000000  1
  Fe  Fe54  1  0.20957100  0.93360600  0.50000000  1
  Fe  Fe55  1  0.43360600  0.70957100  0.50000000  1
  Fe  Fe56  1  0.56639400  0.29042900  0.50000000  1
  Fe  Fe57  1  0.20957100  0.06639400  0.00000000  1
  Fe  Fe58  1  0.29042900  0.43360600  0.50000000  1
  Fe  Fe59  1  0.56639400  0.70957100  0.00000000  1
  Fe  Fe60  1  0.93360600  0.79042900  0.50000000  1
  Fe  Fe61  1  0.79042900  0.06639400  0.50000000  1
  Fe  Fe62  1  0.32109350  0.17890650  0.55836850  1
  Fe  Fe63  1  0.61327550  0.88672450  0.90683750  1
  Fe  Fe64  1  0.17890650  0.67890650  0.55836850  1
  Fe  Fe65  1  0.32109350  0.82109350  0.94163150  1
  Fe  Fe66  1  0.67890650  0.17890650  0.94163150  1
  Fe  Fe67  1  0.17890650  0.32109350  0.94163150  1
  Fe  Fe68  1  0.82109350  0.67890650  0.94163150  1
  Fe  Fe69  1  0.67890650  0.82109350  0.55836850  1
  Fe  Fe70  1  0.82109350  0.32109350  0.55836850  1
  Fe  Fe71  1  0.38672450  0.88672450  0.59316250  1
  Fe  Fe72  1  0.61327550  0.11327550  0.59316250  1
  Fe  Fe73  1  0.88672450  0.38672450  0.90683750  1
  Fe  Fe74  1  0.11327550  0.61327550  0.90683750  1
  Fe  Fe75  1  0.11327550  0.38672450  0.59316250  1
  Sn  Sn76  1  0.50000000  0.50000000  0.25000000  1
  Sn  Sn77  1  0.00000000  0.00000000  0.25000000  1
  Sn  Sn78  1  0.00000000  0.00000000  0.75000000  1
  Sn  Sn79  1  0.50000000  0.50000000  0.75000000  1
