# generated using pymatgen
data_Co7(AsO6)2
_symmetry_space_group_name_H-M   'P 1'
_cell_length_a   5.92111600
_cell_length_b   8.56376200
_cell_length_c   18.30619800
_cell_angle_alpha   90.00000000
_cell_angle_beta   90.00000000
_cell_angle_gamma   90.00000000
_symmetry_Int_Tables_number   1
_chemical_formula_structural   Co7(AsO6)2
_chemical_formula_sum   'Co28 As8 O48'
_cell_volume   928.25289819
_cell_formula_units_Z   4
loop_
 _symmetry_equiv_pos_site_id
 _symmetry_equiv_pos_as_xyz
  1  'x, y, z'
loop_
 _atom_site_type_symbol
 _atom_site_label
 _atom_site_symmetry_multiplicity
 _atom_site_fract_x
 _atom_site_fract_y
 _atom_site_fract_z
 _atom_site_occupancy
  Co  Co0  1  0.50000000  0.12914950  0.07176950  1
  Co  Co1  1  0.25000000  0.75000000  0.08813500  1
  Co  Co2  1  0.75000000  0.75000000  0.08813500  1
  Co  Co3  1  0.00000000  0.01965350  0.16387150  1
  Co  Co4  1  0.75000000  0.75000000  0.41186500  1
  Co  Co5  1  0.50000000  0.48034650  0.33612850  1
  Co  Co6  1  0.00000000  0.37085050  0.42823050  1
  Co  Co7  1  0.00000000  0.01965350  0.33612850  1
  Co  Co8  1  0.75000000  0.75000000  0.25000000  1
  Co  Co9  1  0.25000000  0.75000000  0.41186500  1
  Co  Co10  1  0.50000000  0.48034650  0.16387150  1
  Co  Co11  1  0.50000000  0.12914950  0.42823050  1
  Co  Co12  1  0.00000000  0.37085050  0.07176950  1
  Co  Co13  1  0.25000000  0.75000000  0.25000000  1
  Co  Co14  1  0.00000000  0.62914950  0.57176950  1
  Co  Co15  1  0.75000000  0.25000000  0.58813500  1
  Co  Co16  1  0.25000000  0.25000000  0.58813500  1
  Co  Co17  1  0.50000000  0.51965350  0.66387150  1
  Co  Co18  1  0.25000000  0.25000000  0.91186500  1
  Co  Co19  1  0.00000000  0.98034650  0.83612850  1
  Co  Co20  1  0.50000000  0.87085050  0.92823050  1
  Co  Co21  1  0.50000000  0.51965350  0.83612850  1
  Co  Co22  1  0.25000000  0.25000000  0.75000000  1
  Co  Co23  1  0.75000000  0.25000000  0.91186500  1
  Co  Co24  1  0.00000000  0.98034650  0.66387150  1
  Co  Co25  1  0.00000000  0.62914950  0.92823050  1
  Co  Co26  1  0.50000000  0.87085050  0.57176950  1
  Co  Co27  1  0.75000000  0.25000000  0.75000000  1
  As  As28  1  0.00000000  0.37757500  0.25000000  1
  As  As29  1  0.50000000  0.12242500  0.25000000  1
  As  As30  1  0.00000000  0.00000000  0.00000000  1
  As  As31  1  0.50000000  0.50000000  0.00000000  1
  As  As32  1  0.50000000  0.87757500  0.75000000  1
  As  As33  1  0.00000000  0.62242500  0.75000000  1
  As  As34  1  0.50000000  0.50000000  0.50000000  1
  As  As35  1  0.00000000  0.00000000  0.50000000  1
  O  O36  1  0.78022050  0.00399450  0.07407250  1
  O  O37  1  0.74216600  0.00874600  0.25000000  1
  O  O38  1  0.25783400  0.00874600  0.25000000  1
  O  O39  1  0.00000000  0.78095450  0.49080050  1
  O  O40  1  0.71977950  0.49600550  0.07407250  1
  O  O41  1  0.00000000  0.78095450  0.00919950  1
  O  O42  1  0.75783400  0.49125400  0.25000000  1
  O  O43  1  0.28022050  0.49600550  0.07407250  1
  O  O44  1  0.21977950  0.00399450  0.07407250  1
  O  O45  1  0.50000000  0.72243600  0.33087000  1
  O  O46  1  0.00000000  0.77756400  0.33087000  1
  O  O47  1  0.78022050  0.00399450  0.42592750  1
  O  O48  1  0.71977950  0.49600550  0.42592750  1
  O  O49  1  0.50000000  0.71904550  0.00919950  1
  O  O50  1  0.00000000  0.26474900  0.17118500  1
  O  O51  1  0.50000000  0.23525100  0.17118500  1
  O  O52  1  0.24216600  0.49125400  0.25000000  1
  O  O53  1  0.50000000  0.23525100  0.32881500  1
  O  O54  1  0.00000000  0.26474900  0.32881500  1
  O  O55  1  0.28022050  0.49600550  0.42592750  1
  O  O56  1  0.00000000  0.77756400  0.16913000  1
  O  O57  1  0.50000000  0.71904550  0.49080050  1
  O  O58  1  0.21977950  0.00399450  0.42592750  1
  O  O59  1  0.50000000  0.72243600  0.16913000  1
  O  O60  1  0.28022050  0.50399450  0.57407250  1
  O  O61  1  0.24216600  0.50874600  0.75000000  1
  O  O62  1  0.75783400  0.50874600  0.75000000  1
  O  O63  1  0.50000000  0.28095450  0.99080050  1
  O  O64  1  0.21977950  0.99600550  0.57407250  1
  O  O65  1  0.50000000  0.28095450  0.50919950  1
  O  O66  1  0.25783400  0.99125400  0.75000000  1
  O  O67  1  0.78022050  0.99600550  0.57407250  1
  O  O68  1  0.71977950  0.50399450  0.57407250  1
  O  O69  1  0.00000000  0.22243600  0.83087000  1
  O  O70  1  0.50000000  0.27756400  0.83087000  1
  O  O71  1  0.28022050  0.50399450  0.92592750  1
  O  O72  1  0.21977950  0.99600550  0.92592750  1
  O  O73  1  0.00000000  0.21904550  0.50919950  1
  O  O74  1  0.50000000  0.76474900  0.67118500  1
  O  O75  1  0.00000000  0.73525100  0.67118500  1
  O  O76  1  0.74216600  0.99125400  0.75000000  1
  O  O77  1  0.00000000  0.73525100  0.82881500  1
  O  O78  1  0.50000000  0.76474900  0.82881500  1
  O  O79  1  0.78022050  0.99600550  0.92592750  1
  O  O80  1  0.50000000  0.27756400  0.66913000  1
  O  O81  1  0.00000000  0.21904550  0.99080050  1
  O  O82  1  0.71977950  0.50399450  0.92592750  1
  O  O83  1  0.00000000  0.22243600  0.66913000  1
