# generated using pymatgen
data_Cr2Se3
_symmetry_space_group_name_H-M   'P 1'
_cell_length_a   6.35920799
_cell_length_b   6.35920799
_cell_length_c   17.68308449
_cell_angle_alpha   90.00000000
_cell_angle_beta   90.00000000
_cell_angle_gamma   120.00000000
_symmetry_Int_Tables_number   1
_chemical_formula_structural   Cr2Se3
_chemical_formula_sum   'Cr12 Se18'
_cell_volume   619.29092061
_cell_formula_units_Z   6
loop_
 _symmetry_equiv_pos_site_id
 _symmetry_equiv_pos_as_xyz
  1  'x, y, z'
loop_
 _atom_site_type_symbol
 _atom_site_label
 _atom_site_symmetry_multiplicity
 _atom_site_fract_x
 _atom_site_fract_y
 _atom_site_fract_z
 _atom_site_occupancy
  Cr  Cr0  1  0.00000000  0.00000000  0.00000000  1
  Cr  Cr1  1  0.33333333  0.66666667  0.16666667  1
  Cr  Cr2  1  0.66666667  0.33333333  0.00942833  1
  Cr  Cr3  1  0.00000000  0.00000000  0.32390500  1
  Cr  Cr4  1  0.66666667  0.33333333  0.33333333  1
  Cr  Cr5  1  1.00000000  0.00000000  0.50000000  1
  Cr  Cr6  1  0.33333333  0.66666667  0.34276167  1
  Cr  Cr7  1  0.66666667  0.33333333  0.65723833  1
  Cr  Cr8  1  0.33333333  0.66666667  0.66666667  1
  Cr  Cr9  1  0.66666667  0.33333333  0.83333333  1
  Cr  Cr10  1  0.00000000  0.00000000  0.67609500  1
  Cr  Cr11  1  0.33333333  0.66666667  0.99057167  1
  Se  Se12  1  0.65875467  0.67541833  0.07916933  1
  Se  Se13  1  0.32458167  0.98333633  0.07916933  1
  Se  Se14  1  0.01666367  0.34124533  0.07916933  1
  Se  Se15  1  0.00791200  0.65791500  0.25416400  1
  Se  Se16  1  0.34208500  0.34999700  0.25416400  1
  Se  Se17  1  0.65000300  0.99208800  0.25416400  1
  Se  Se18  1  0.32542133  0.00875167  0.41250267  1
  Se  Se19  1  0.99124833  0.31666967  0.41250267  1
  Se  Se20  1  0.68333033  0.67457867  0.41250267  1
  Se  Se21  1  0.67457867  0.99124833  0.58749733  1
  Se  Se22  1  0.00875167  0.68333033  0.58749733  1
  Se  Se23  1  0.31666967  0.32542133  0.58749733  1
  Se  Se24  1  0.99208800  0.34208500  0.74583600  1
  Se  Se25  1  0.65791500  0.65000300  0.74583600  1
  Se  Se26  1  0.34999700  0.00791200  0.74583600  1
  Se  Se27  1  0.34124533  0.32458167  0.92083067  1
  Se  Se28  1  0.67541833  0.01666367  0.92083067  1
  Se  Se29  1  0.98333633  0.65875467  0.92083067  1
