# generated using pymatgen
data_LiVPO4
_symmetry_space_group_name_H-M   'P 1'
_cell_length_a   4.76669615
_cell_length_b   6.11325149
_cell_length_c   10.53061771
_cell_angle_alpha   90.00000000
_cell_angle_beta   90.00000000
_cell_angle_gamma   90.00000000
_symmetry_Int_Tables_number   1
_chemical_formula_structural   LiVPO4
_chemical_formula_sum   'Li4 V4 P4 O16'
_cell_volume   306.86233003
_cell_formula_units_Z   4
loop_
 _symmetry_equiv_pos_site_id
 _symmetry_equiv_pos_as_xyz
  1  'x, y, z'
loop_
 _atom_site_type_symbol
 _atom_site_label
 _atom_site_symmetry_multiplicity
 _atom_site_fract_x
 _atom_site_fract_y
 _atom_site_fract_z
 _atom_site_occupancy
  Li  Li0  1  0.00000000  0.00000000  0.50000000  1
  Li  Li1  1  0.50000000  0.00000000  0.00000000  1
  Li  Li2  1  0.00000000  0.50000000  0.50000000  1
  Li  Li3  1  0.50000000  0.50000000  0.00000000  1
  V  V4  1  0.01666504  0.75000000  0.77486995  1
  V  V5  1  0.48333496  0.75000000  0.27486995  1
  V  V6  1  0.98333496  0.25000000  0.22513005  1
  V  V7  1  0.51666504  0.25000000  0.72513005  1
  P  P8  1  0.58645430  0.75000000  0.59099017  1
  P  P9  1  0.91354570  0.75000000  0.09099017  1
  P  P10  1  0.41354570  0.25000000  0.40900983  1
  P  P11  1  0.08645430  0.25000000  0.90900983  1
  O  O12  1  0.77738826  0.54766799  0.16046203  1
  O  O13  1  0.22261174  0.45233201  0.83953798  1
  O  O14  1  0.72261174  0.54766799  0.66046202  1
  O  O15  1  0.77738826  0.95233201  0.16046203  1
  O  O16  1  0.27738826  0.04766799  0.33953797  1
  O  O17  1  0.73578693  0.25000000  0.40407765  1
  O  O18  1  0.27738826  0.45233201  0.33953797  1
  O  O19  1  0.22261174  0.04766799  0.83953798  1
  O  O20  1  0.26421307  0.75000000  0.59592234  1
  O  O21  1  0.76421307  0.25000000  0.90407766  1
  O  O22  1  0.79261834  0.75000000  0.95405765  1
  O  O23  1  0.23578693  0.75000000  0.09592235  1
  O  O24  1  0.70738166  0.75000000  0.45405765  1
  O  O25  1  0.29261834  0.25000000  0.54594235  1
  O  O26  1  0.20738166  0.25000000  0.04594235  1
  O  O27  1  0.72261174  0.95233201  0.66046202  1
