# generated using pymatgen
data_Ca4In2N
_symmetry_space_group_name_H-M   'P 1'
_cell_length_a   4.93532000
_cell_length_b   4.93532000
_cell_length_c   29.15424400
_cell_angle_alpha   90.00000000
_cell_angle_beta   90.00000000
_cell_angle_gamma   90.00000000
_symmetry_Int_Tables_number   1
_chemical_formula_structural   Ca4In2N
_chemical_formula_sum   'Ca16 In8 N4'
_cell_volume   710.12110183
_cell_formula_units_Z   4
loop_
 _symmetry_equiv_pos_site_id
 _symmetry_equiv_pos_as_xyz
  1  'x, y, z'
loop_
 _atom_site_type_symbol
 _atom_site_label
 _atom_site_symmetry_multiplicity
 _atom_site_fract_x
 _atom_site_fract_y
 _atom_site_fract_z
 _atom_site_occupancy
  Ca  Ca0  1  0.50000000  0.00000000  0.16883200  1
  Ca  Ca1  1  0.50000000  0.00000000  0.00079600  1
  Ca  Ca2  1  0.50000000  0.00000000  0.33116800  1
  Ca  Ca3  1  0.00000000  0.00000000  0.41883200  1
  Ca  Ca4  1  0.50000000  0.50000000  0.08116800  1
  Ca  Ca5  1  0.50000000  0.00000000  0.49920400  1
  Ca  Ca6  1  0.50000000  0.50000000  0.24920400  1
  Ca  Ca7  1  0.00000000  0.00000000  0.25079600  1
  Ca  Ca8  1  0.00000000  0.50000000  0.66883200  1
  Ca  Ca9  1  0.00000000  0.50000000  0.50079600  1
  Ca  Ca10  1  0.00000000  0.50000000  0.83116800  1
  Ca  Ca11  1  0.50000000  0.50000000  0.91883200  1
  Ca  Ca12  1  0.00000000  0.00000000  0.58116800  1
  Ca  Ca13  1  0.00000000  0.50000000  0.99920400  1
  Ca  Ca14  1  0.00000000  0.00000000  0.74920400  1
  Ca  Ca15  1  0.50000000  0.50000000  0.75079600  1
  In  In16  1  0.50000000  0.50000000  0.40950200  1
  In  In17  1  0.00000000  0.50000000  0.15950200  1
  In  In18  1  0.00000000  0.00000000  0.09049800  1
  In  In19  1  0.00000000  0.50000000  0.34049800  1
  In  In20  1  0.00000000  0.00000000  0.90950200  1
  In  In21  1  0.50000000  0.00000000  0.65950200  1
  In  In22  1  0.50000000  0.50000000  0.59049800  1
  In  In23  1  0.50000000  0.00000000  0.84049800  1
  N  N24  1  0.50000000  0.00000000  0.25000000  1
  N  N25  1  0.50000000  0.50000000  0.00000000  1
  N  N26  1  0.00000000  0.50000000  0.75000000  1
  N  N27  1  0.00000000  0.00000000  0.50000000  1
