# generated using pymatgen
data_Si2Ni3
_symmetry_space_group_name_H-M   'P 1'
_cell_length_a   10.80699000
_cell_length_b   12.21395000
_cell_length_c   6.91738300
_cell_angle_alpha   90.00000000
_cell_angle_beta   90.00000000
_cell_angle_gamma   90.00000000
_symmetry_Int_Tables_number   1
_chemical_formula_structural   Si2Ni3
_chemical_formula_sum   'Si32 Ni48'
_cell_volume   913.06713211
_cell_formula_units_Z   16
loop_
 _symmetry_equiv_pos_site_id
 _symmetry_equiv_pos_as_xyz
  1  'x, y, z'
loop_
 _atom_site_type_symbol
 _atom_site_label
 _atom_site_symmetry_multiplicity
 _atom_site_fract_x
 _atom_site_fract_y
 _atom_site_fract_z
 _atom_site_occupancy
  Si  Si0  1  0.59242500  0.00000000  0.25000000  1
  Si  Si1  1  0.40757500  0.00000000  0.75000000  1
  Si  Si2  1  0.84385100  0.00000000  0.75000000  1
  Si  Si3  1  0.15614900  0.00000000  0.25000000  1
  Si  Si4  1  0.34218150  0.15142350  0.45799500  1
  Si  Si5  1  0.65781850  0.84857650  0.95799500  1
  Si  Si6  1  0.65781850  0.15142350  0.95799500  1
  Si  Si7  1  0.34218150  0.84857650  0.45799500  1
  Si  Si8  1  0.34218150  0.15142350  0.04200500  1
  Si  Si9  1  0.65781850  0.84857650  0.54200500  1
  Si  Si10  1  0.65781850  0.15142350  0.54200500  1
  Si  Si11  1  0.34218150  0.84857650  0.04200500  1
  Si  Si12  1  0.55685200  0.61922200  0.75000000  1
  Si  Si13  1  0.44314800  0.38077800  0.25000000  1
  Si  Si14  1  0.44314800  0.61922200  0.25000000  1
  Si  Si15  1  0.55685200  0.38077800  0.75000000  1
  Si  Si16  1  0.09242500  0.50000000  0.25000000  1
  Si  Si17  1  0.90757500  0.50000000  0.75000000  1
  Si  Si18  1  0.34385100  0.50000000  0.75000000  1
  Si  Si19  1  0.65614900  0.50000000  0.25000000  1
  Si  Si20  1  0.84218150  0.65142350  0.45799500  1
  Si  Si21  1  0.15781850  0.34857650  0.95799500  1
  Si  Si22  1  0.15781850  0.65142350  0.95799500  1
  Si  Si23  1  0.84218150  0.34857650  0.45799500  1
  Si  Si24  1  0.84218150  0.65142350  0.04200500  1
  Si  Si25  1  0.15781850  0.34857650  0.54200500  1
  Si  Si26  1  0.15781850  0.65142350  0.54200500  1
  Si  Si27  1  0.84218150  0.34857650  0.04200500  1
  Si  Si28  1  0.05685200  0.11922200  0.75000000  1
  Si  Si29  1  0.94314800  0.88077800  0.25000000  1
  Si  Si30  1  0.94314800  0.11922200  0.25000000  1
  Si  Si31  1  0.05685200  0.88077800  0.75000000  1
  Ni  Ni32  1  0.00000000  0.00000000  0.50000000  1
  Ni  Ni33  1  0.00000000  0.00000000  0.00000000  1
  Ni  Ni34  1  0.23494500  0.00000000  0.56091200  1
  Ni  Ni35  1  0.76505500  0.00000000  0.06091200  1
  Ni  Ni36  1  0.23494500  0.00000000  0.93908800  1
  Ni  Ni37  1  0.76505500  0.00000000  0.43908800  1
  Ni  Ni38  1  0.38333700  0.00000000  0.25000000  1
  Ni  Ni39  1  0.61666300  0.00000000  0.75000000  1
  Ni  Ni40  1  0.49567300  0.18073200  0.75000000  1
  Ni  Ni41  1  0.50432700  0.81926800  0.25000000  1
  Ni  Ni42  1  0.50432700  0.18073200  0.25000000  1
  Ni  Ni43  1  0.49567300  0.81926800  0.75000000  1
  Ni  Ni44  1  0.24678200  0.19683300  0.75000000  1
  Ni  Ni45  1  0.75321800  0.80316700  0.25000000  1
  Ni  Ni46  1  0.75321800  0.19683300  0.25000000  1
  Ni  Ni47  1  0.24678200  0.80316700  0.75000000  1
  Ni  Ni48  1  0.61898900  0.67212500  0.43855800  1
  Ni  Ni49  1  0.38101100  0.32787500  0.93855800  1
  Ni  Ni50  1  0.38101100  0.67212500  0.93855800  1
  Ni  Ni51  1  0.61898900  0.32787500  0.43855800  1
  Ni  Ni52  1  0.61898900  0.67212500  0.06144200  1
  Ni  Ni53  1  0.38101100  0.32787500  0.56144200  1
  Ni  Ni54  1  0.38101100  0.67212500  0.56144200  1
  Ni  Ni55  1  0.61898900  0.32787500  0.06144200  1
  Ni  Ni56  1  0.50000000  0.50000000  0.50000000  1
  Ni  Ni57  1  0.50000000  0.50000000  0.00000000  1
  Ni  Ni58  1  0.73494500  0.50000000  0.56091200  1
  Ni  Ni59  1  0.26505500  0.50000000  0.06091200  1
  Ni  Ni60  1  0.73494500  0.50000000  0.93908800  1
  Ni  Ni61  1  0.26505500  0.50000000  0.43908800  1
  Ni  Ni62  1  0.88333700  0.50000000  0.25000000  1
  Ni  Ni63  1  0.11666300  0.50000000  0.75000000  1
  Ni  Ni64  1  0.99567300  0.68073200  0.75000000  1
  Ni  Ni65  1  0.00432700  0.31926800  0.25000000  1
  Ni  Ni66  1  0.00432700  0.68073200  0.25000000  1
  Ni  Ni67  1  0.99567300  0.31926800  0.75000000  1
  Ni  Ni68  1  0.74678200  0.69683300  0.75000000  1
  Ni  Ni69  1  0.25321800  0.30316700  0.25000000  1
  Ni  Ni70  1  0.25321800  0.69683300  0.25000000  1
  Ni  Ni71  1  0.74678200  0.30316700  0.75000000  1
  Ni  Ni72  1  0.11898900  0.17212500  0.43855800  1
  Ni  Ni73  1  0.88101100  0.82787500  0.93855800  1
  Ni  Ni74  1  0.88101100  0.17212500  0.93855800  1
  Ni  Ni75  1  0.11898900  0.82787500  0.43855800  1
  Ni  Ni76  1  0.11898900  0.17212500  0.06144200  1
  Ni  Ni77  1  0.88101100  0.82787500  0.56144200  1
  Ni  Ni78  1  0.88101100  0.17212500  0.56144200  1
  Ni  Ni79  1  0.11898900  0.82787500  0.06144200  1
