# generated using pymatgen
data_Ca2PdWO6
_symmetry_space_group_name_H-M   'P 1'
_cell_length_a   5.63517200
_cell_length_b   6.10287600
_cell_length_c   8.12921400
_cell_angle_alpha   90.00000000
_cell_angle_beta   90.00000000
_cell_angle_gamma   90.00000000
_symmetry_Int_Tables_number   1
_chemical_formula_structural   Ca2PdWO6
_chemical_formula_sum   'Ca4 Pd2 W2 O12'
_cell_volume   279.56981478
_cell_formula_units_Z   2
loop_
 _symmetry_equiv_pos_site_id
 _symmetry_equiv_pos_as_xyz
  1  'x, y, z'
loop_
 _atom_site_type_symbol
 _atom_site_label
 _atom_site_symmetry_multiplicity
 _atom_site_fract_x
 _atom_site_fract_y
 _atom_site_fract_z
 _atom_site_occupancy
  Ca  Ca0  1  0.50000000  0.92415200  0.75151700  1
  Ca  Ca1  1  0.50000000  0.92415200  0.24848300  1
  Ca  Ca2  1  0.00000000  0.42415200  0.25151700  1
  Ca  Ca3  1  0.00000000  0.42415200  0.74848300  1
  Pd  Pd4  1  0.00000000  0.01602500  0.50000000  1
  Pd  Pd5  1  0.50000000  0.51602500  0.00000000  1
  W  W6  1  0.50000000  0.52533300  0.50000000  1
  W  W7  1  0.00000000  0.02533300  0.00000000  1
  O  O8  1  0.00000000  0.04269600  0.23749700  1
  O  O9  1  0.00000000  0.04269600  0.76250300  1
  O  O10  1  0.24324900  0.31992300  0.50000000  1
  O  O11  1  0.75675100  0.31992300  0.50000000  1
  O  O12  1  0.27721200  0.77754900  0.50000000  1
  O  O13  1  0.72278800  0.77754900  0.50000000  1
  O  O14  1  0.50000000  0.54269600  0.73749700  1
  O  O15  1  0.50000000  0.54269600  0.26250300  1
  O  O16  1  0.74324900  0.81992300  0.00000000  1
  O  O17  1  0.25675100  0.81992300  0.00000000  1
  O  O18  1  0.77721200  0.27754900  0.00000000  1
  O  O19  1  0.22278800  0.27754900  0.00000000  1
