# generated using pymatgen
data_Tb2MoO6
_symmetry_space_group_name_H-M   'P 1'
_cell_length_a   16.55396861
_cell_length_b   11.18622286
_cell_length_c   5.42638176
_cell_angle_alpha   90.00000000
_cell_angle_beta   108.13675200
_cell_angle_gamma   90.00000000
_symmetry_Int_Tables_number   1
_chemical_formula_structural   Tb2MoO6
_chemical_formula_sum   'Tb16 Mo8 O48'
_cell_volume   954.91363982
_cell_formula_units_Z   8
loop_
 _symmetry_equiv_pos_site_id
 _symmetry_equiv_pos_as_xyz
  1  'x, y, z'
loop_
 _atom_site_type_symbol
 _atom_site_label
 _atom_site_symmetry_multiplicity
 _atom_site_fract_x
 _atom_site_fract_y
 _atom_site_fract_z
 _atom_site_occupancy
  Tb  Tb0  1  0.66842786  0.88412728  0.87925733  1
  Tb  Tb1  1  0.66842786  0.11587272  0.37925733  1
  Tb  Tb2  1  0.33157214  0.11587272  0.12074267  1
  Tb  Tb3  1  0.33157214  0.88412728  0.62074267  1
  Tb  Tb4  1  0.50000000  0.63541876  0.75000000  1
  Tb  Tb5  1  0.50000000  0.36458124  0.25000000  1
  Tb  Tb6  1  0.50000000  0.10736483  0.75000000  1
  Tb  Tb7  1  0.50000000  0.89263517  0.25000000  1
  Tb  Tb8  1  0.16842786  0.38412728  0.87925733  1
  Tb  Tb9  1  0.16842786  0.61587272  0.37925733  1
  Tb  Tb10  1  0.83157214  0.61587272  0.12074267  1
  Tb  Tb11  1  0.83157214  0.38412728  0.62074267  1
  Tb  Tb12  1  0.00000000  0.13541876  0.75000000  1
  Tb  Tb13  1  0.00000000  0.86458124  0.25000000  1
  Tb  Tb14  1  0.00000000  0.60736483  0.75000000  1
  Tb  Tb15  1  0.00000000  0.39263517  0.25000000  1
  Mo  Mo16  1  0.15368443  0.14253324  0.44011695  1
  Mo  Mo17  1  0.84631557  0.14253324  0.05988305  1
  Mo  Mo18  1  0.84631557  0.85746676  0.55988305  1
  Mo  Mo19  1  0.15368443  0.85746676  0.94011695  1
  Mo  Mo20  1  0.65368443  0.64253324  0.44011695  1
  Mo  Mo21  1  0.34631557  0.64253324  0.05988305  1
  Mo  Mo22  1  0.34631557  0.35746676  0.55988305  1
  Mo  Mo23  1  0.65368443  0.35746676  0.94011695  1
  O  O24  1  0.59132489  0.01736108  0.57824650  1
  O  O25  1  0.40867511  0.01736108  0.92175350  1
  O  O26  1  0.40867511  0.98263892  0.42175350  1
  O  O27  1  0.59132489  0.98263892  0.07824650  1
  O  O28  1  0.57290129  0.76397057  0.58319789  1
  O  O29  1  0.42709871  0.76397057  0.91680211  1
  O  O30  1  0.42709871  0.23602943  0.41680211  1
  O  O31  1  0.57290129  0.23602943  0.08319789  1
  O  O32  1  0.60527508  0.72144212  0.13042556  1
  O  O33  1  0.39472492  0.72144212  0.36957444  1
  O  O34  1  0.39472492  0.27855788  0.86957444  1
  O  O35  1  0.60527508  0.27855788  0.63042556  1
  O  O36  1  0.23578432  0.94613124  0.86355238  1
  O  O37  1  0.76421568  0.94613124  0.63644762  1
  O  O38  1  0.76421568  0.05386876  0.13644762  1
  O  O39  1  0.23578432  0.05386876  0.36355238  1
  O  O40  1  0.07965086  0.96899670  0.98488412  1
  O  O41  1  0.92034914  0.96899670  0.51511588  1
  O  O42  1  0.22808653  0.20269885  0.74472580  1
  O  O43  1  0.07965086  0.03100330  0.48488412  1
  O  O44  1  0.22808653  0.79730115  0.24472580  1
  O  O45  1  0.77191347  0.79730115  0.25527420  1
  O  O46  1  0.77191347  0.20269885  0.75527420  1
  O  O47  1  0.92034914  0.03100330  0.01511588  1
  O  O48  1  0.09132489  0.51736108  0.57824650  1
  O  O49  1  0.90867511  0.51736108  0.92175350  1
  O  O50  1  0.90867511  0.48263892  0.42175350  1
  O  O51  1  0.09132489  0.48263892  0.07824650  1
  O  O52  1  0.07290129  0.26397057  0.58319789  1
  O  O53  1  0.92709872  0.26397057  0.91680211  1
  O  O54  1  0.92709872  0.73602943  0.41680211  1
  O  O55  1  0.07290129  0.73602943  0.08319789  1
  O  O56  1  0.10527508  0.22144212  0.13042556  1
  O  O57  1  0.89472492  0.22144212  0.36957444  1
  O  O58  1  0.89472492  0.77855788  0.86957444  1
  O  O59  1  0.10527508  0.77855788  0.63042556  1
  O  O60  1  0.73578432  0.44613124  0.86355238  1
  O  O61  1  0.26421568  0.44613124  0.63644762  1
  O  O62  1  0.26421568  0.55386876  0.13644762  1
  O  O63  1  0.73578432  0.55386876  0.36355238  1
  O  O64  1  0.57965086  0.46899670  0.98488412  1
  O  O65  1  0.42034914  0.46899670  0.51511588  1
  O  O66  1  0.72808653  0.70269885  0.74472580  1
  O  O67  1  0.57965086  0.53100330  0.48488412  1
  O  O68  1  0.72808653  0.29730115  0.24472580  1
  O  O69  1  0.27191347  0.29730115  0.25527420  1
  O  O70  1  0.27191347  0.70269885  0.75527420  1
  O  O71  1  0.42034914  0.53100330  0.01511588  1
