# generated using pymatgen
data_Tb(FeGe)6
_symmetry_space_group_name_H-M   'P 1'
_cell_length_a   8.17452600
_cell_length_b   17.74308400
_cell_length_c   5.13105100
_cell_angle_alpha   90.00000000
_cell_angle_beta   90.00000000
_cell_angle_gamma   90.00000000
_symmetry_Int_Tables_number   1
_chemical_formula_structural   Tb(FeGe)6
_chemical_formula_sum   'Tb4 Fe24 Ge24'
_cell_volume   744.21431499
_cell_formula_units_Z   4
loop_
 _symmetry_equiv_pos_site_id
 _symmetry_equiv_pos_as_xyz
  1  'x, y, z'
loop_
 _atom_site_type_symbol
 _atom_site_label
 _atom_site_symmetry_multiplicity
 _atom_site_fract_x
 _atom_site_fract_y
 _atom_site_fract_z
 _atom_site_occupancy
  Tb  Tb0  1  0.50000000  0.37277500  0.75000000  1
  Tb  Tb1  1  0.00000000  0.12722500  0.25000000  1
  Tb  Tb2  1  0.00000000  0.87277500  0.75000000  1
  Tb  Tb3  1  0.50000000  0.62722500  0.25000000  1
  Fe  Fe4  1  0.25030850  0.12499450  0.75000000  1
  Fe  Fe5  1  0.24969150  0.37500550  0.25000000  1
  Fe  Fe6  1  0.75041900  0.00000000  0.00000000  1
  Fe  Fe7  1  0.24958100  0.00000000  0.50000000  1
  Fe  Fe8  1  0.24958100  0.00000000  0.00000000  1
  Fe  Fe9  1  0.75041900  0.00000000  0.50000000  1
  Fe  Fe10  1  0.25000000  0.25000000  0.00000000  1
  Fe  Fe11  1  0.25000000  0.25000000  0.50000000  1
  Fe  Fe12  1  0.75000000  0.25000000  0.00000000  1
  Fe  Fe13  1  0.75000000  0.25000000  0.50000000  1
  Fe  Fe14  1  0.75030850  0.37500550  0.25000000  1
  Fe  Fe15  1  0.74969150  0.12499450  0.75000000  1
  Fe  Fe16  1  0.75030850  0.62499450  0.75000000  1
  Fe  Fe17  1  0.74969150  0.87500550  0.25000000  1
  Fe  Fe18  1  0.25041900  0.50000000  0.00000000  1
  Fe  Fe19  1  0.74958100  0.50000000  0.50000000  1
  Fe  Fe20  1  0.74958100  0.50000000  0.00000000  1
  Fe  Fe21  1  0.25041900  0.50000000  0.50000000  1
  Fe  Fe22  1  0.75000000  0.75000000  0.00000000  1
  Fe  Fe23  1  0.75000000  0.75000000  0.50000000  1
  Fe  Fe24  1  0.25000000  0.75000000  0.00000000  1
  Fe  Fe25  1  0.25000000  0.75000000  0.50000000  1
  Fe  Fe26  1  0.25030850  0.87500550  0.25000000  1
  Fe  Fe27  1  0.24969150  0.62499450  0.75000000  1
  Ge  Ge28  1  0.15317350  0.37574450  0.75000000  1
  Ge  Ge29  1  0.34682650  0.12425550  0.25000000  1
  Ge  Ge30  1  0.00000000  0.29543300  0.25000000  1
  Ge  Ge31  1  0.50000000  0.20456700  0.75000000  1
  Ge  Ge32  1  0.50000000  0.28848700  0.25000000  1
  Ge  Ge33  1  0.00000000  0.21151300  0.75000000  1
  Ge  Ge34  1  0.00000000  0.45932300  0.25000000  1
  Ge  Ge35  1  0.50000000  0.04067700  0.75000000  1
  Ge  Ge36  1  0.50000000  0.45796700  0.25000000  1
  Ge  Ge37  1  0.00000000  0.04203300  0.75000000  1
  Ge  Ge38  1  0.84682650  0.37574450  0.75000000  1
  Ge  Ge39  1  0.65317350  0.12425550  0.25000000  1
  Ge  Ge40  1  0.65317350  0.87574450  0.75000000  1
  Ge  Ge41  1  0.84682650  0.62425550  0.25000000  1
  Ge  Ge42  1  0.50000000  0.79543300  0.25000000  1
  Ge  Ge43  1  0.00000000  0.70456700  0.75000000  1
  Ge  Ge44  1  0.00000000  0.78848700  0.25000000  1
  Ge  Ge45  1  0.50000000  0.71151300  0.75000000  1
  Ge  Ge46  1  0.50000000  0.95932300  0.25000000  1
  Ge  Ge47  1  0.00000000  0.54067700  0.75000000  1
  Ge  Ge48  1  0.00000000  0.95796700  0.25000000  1
  Ge  Ge49  1  0.50000000  0.54203300  0.75000000  1
  Ge  Ge50  1  0.34682650  0.87574450  0.75000000  1
  Ge  Ge51  1  0.15317350  0.62425550  0.25000000  1
