# generated using pymatgen
data_P3Au2
_symmetry_space_group_name_H-M   'P 1'
_cell_length_a   5.93891600
_cell_length_b   14.59061000
_cell_length_c   4.76367429
_cell_angle_alpha   90.00000000
_cell_angle_beta   107.93181868
_cell_angle_gamma   90.00000000
_symmetry_Int_Tables_number   1
_chemical_formula_structural   P3Au2
_chemical_formula_sum   'P12 Au8'
_cell_volume   392.73227879
_cell_formula_units_Z   4
loop_
 _symmetry_equiv_pos_site_id
 _symmetry_equiv_pos_as_xyz
  1  'x, y, z'
loop_
 _atom_site_type_symbol
 _atom_site_label
 _atom_site_symmetry_multiplicity
 _atom_site_fract_x
 _atom_site_fract_y
 _atom_site_fract_z
 _atom_site_occupancy
  P  P0  1  0.68285000  0.00000000  0.47072800  1
  P  P1  1  0.31715000  0.00000000  0.52927200  1
  P  P2  1  0.82890200  0.62126600  0.82030400  1
  P  P3  1  0.17109800  0.62126600  0.17969600  1
  P  P4  1  0.32890200  0.87873400  0.82030400  1
  P  P5  1  0.67109800  0.87873400  0.17969600  1
  P  P6  1  0.18285000  0.50000000  0.47072800  1
  P  P7  1  0.81715000  0.50000000  0.52927200  1
  P  P8  1  0.32890200  0.12126600  0.82030400  1
  P  P9  1  0.67109800  0.12126600  0.17969600  1
  P  P10  1  0.82890200  0.37873400  0.82030400  1
  P  P11  1  0.17109800  0.37873400  0.17969600  1
  Au  Au12  1  0.00000000  0.89168800  0.00000000  1
  Au  Au13  1  0.50000000  0.60831200  0.00000000  1
  Au  Au14  1  0.75000000  0.75000000  0.50000000  1
  Au  Au15  1  0.25000000  0.75000000  0.50000000  1
  Au  Au16  1  0.50000000  0.39168800  0.00000000  1
  Au  Au17  1  0.00000000  0.10831200  0.00000000  1
  Au  Au18  1  0.25000000  0.25000000  0.50000000  1
  Au  Au19  1  0.75000000  0.25000000  0.50000000  1
