# generated using pymatgen
data_ErNiB4
_symmetry_space_group_name_H-M   'P 1'
_cell_length_a   7.49855200
_cell_length_b   7.49855200
_cell_length_c   8.48850000
_cell_angle_alpha   90.00000000
_cell_angle_beta   90.00000000
_cell_angle_gamma   90.00000000
_symmetry_Int_Tables_number   1
_chemical_formula_structural   ErNiB4
_chemical_formula_sum   'Er8 Ni8 B32'
_cell_volume   477.29377258
_cell_formula_units_Z   8
loop_
 _symmetry_equiv_pos_site_id
 _symmetry_equiv_pos_as_xyz
  1  'x, y, z'
loop_
 _atom_site_type_symbol
 _atom_site_label
 _atom_site_symmetry_multiplicity
 _atom_site_fract_x
 _atom_site_fract_y
 _atom_site_fract_z
 _atom_site_occupancy
  Er  Er0  1  0.50000000  0.00000000  0.25000000  1
  Er  Er1  1  0.00000000  0.50000000  0.25000000  1
  Er  Er2  1  0.00000000  0.00000000  0.79662200  1
  Er  Er3  1  0.00000000  0.00000000  0.20337800  1
  Er  Er4  1  0.00000000  0.50000000  0.75000000  1
  Er  Er5  1  0.50000000  0.00000000  0.75000000  1
  Er  Er6  1  0.50000000  0.50000000  0.29662200  1
  Er  Er7  1  0.50000000  0.50000000  0.70337800  1
  Ni  Ni8  1  0.22844100  0.00000000  0.50000000  1
  Ni  Ni9  1  0.00000000  0.22844100  0.50000000  1
  Ni  Ni10  1  0.50000000  0.27155900  0.00000000  1
  Ni  Ni11  1  0.27155900  0.50000000  0.00000000  1
  Ni  Ni12  1  0.72844100  0.50000000  0.00000000  1
  Ni  Ni13  1  0.50000000  0.72844100  0.00000000  1
  Ni  Ni14  1  0.00000000  0.77155900  0.50000000  1
  Ni  Ni15  1  0.77155900  0.00000000  0.50000000  1
  B  B16  1  0.26680750  0.26680750  0.84690050  1
  B  B17  1  0.23319250  0.23319250  0.34690050  1
  B  B18  1  0.23319250  0.23319250  0.65309950  1
  B  B19  1  0.76680750  0.23319250  0.34690050  1
  B  B20  1  0.23319250  0.76680750  0.34690050  1
  B  B21  1  0.76680750  0.23319250  0.65309950  1
  B  B22  1  0.23319250  0.76680750  0.65309950  1
  B  B23  1  0.26680750  0.26680750  0.15309950  1
  B  B24  1  0.27563300  0.11149000  0.00000000  1
  B  B25  1  0.38851000  0.77563300  0.50000000  1
  B  B26  1  0.11149000  0.72436700  0.00000000  1
  B  B27  1  0.72436700  0.11149000  0.00000000  1
  B  B28  1  0.77563300  0.38851000  0.50000000  1
  B  B29  1  0.22436700  0.38851000  0.50000000  1
  B  B30  1  0.38851000  0.22436700  0.50000000  1
  B  B31  1  0.11149000  0.27563300  0.00000000  1
  B  B32  1  0.76680750  0.76680750  0.34690050  1
  B  B33  1  0.73319250  0.73319250  0.84690050  1
  B  B34  1  0.73319250  0.73319250  0.15309950  1
  B  B35  1  0.26680750  0.73319250  0.84690050  1
  B  B36  1  0.73319250  0.26680750  0.84690050  1
  B  B37  1  0.26680750  0.73319250  0.15309950  1
  B  B38  1  0.73319250  0.26680750  0.15309950  1
  B  B39  1  0.76680750  0.76680750  0.65309950  1
  B  B40  1  0.77563300  0.61149000  0.50000000  1
  B  B41  1  0.88851000  0.27563300  0.00000000  1
  B  B42  1  0.61149000  0.22436700  0.50000000  1
  B  B43  1  0.22436700  0.61149000  0.50000000  1
  B  B44  1  0.27563300  0.88851000  0.00000000  1
  B  B45  1  0.72436700  0.88851000  0.00000000  1
  B  B46  1  0.88851000  0.72436700  0.00000000  1
  B  B47  1  0.61149000  0.77563300  0.50000000  1
