# generated using pymatgen
data_NaFe(GeO3)2
_symmetry_space_group_name_H-M   'P 1'
_cell_length_a   10.19552000
_cell_length_b   9.03451400
_cell_length_c   5.59431657
_cell_angle_alpha   90.00000000
_cell_angle_beta   107.80911859
_cell_angle_gamma   90.00000000
_symmetry_Int_Tables_number   1
_chemical_formula_structural   NaFe(GeO3)2
_chemical_formula_sum   'Na4 Fe4 Ge8 O24'
_cell_volume   490.60841100
_cell_formula_units_Z   4
loop_
 _symmetry_equiv_pos_site_id
 _symmetry_equiv_pos_as_xyz
  1  'x, y, z'
loop_
 _atom_site_type_symbol
 _atom_site_label
 _atom_site_symmetry_multiplicity
 _atom_site_fract_x
 _atom_site_fract_y
 _atom_site_fract_z
 _atom_site_occupancy
  Na  Na0  1  0.00000000  0.70002200  0.25000000  1
  Na  Na1  1  0.00000000  0.29997800  0.75000000  1
  Na  Na2  1  0.50000000  0.20002200  0.25000000  1
  Na  Na3  1  0.50000000  0.79997800  0.75000000  1
  Fe  Fe4  1  0.00000000  0.09715000  0.25000000  1
  Fe  Fe5  1  0.00000000  0.90285000  0.75000000  1
  Fe  Fe6  1  0.50000000  0.59715000  0.25000000  1
  Fe  Fe7  1  0.50000000  0.40285000  0.75000000  1
  Ge  Ge8  1  0.21309650  0.40695650  0.27377700  1
  Ge  Ge9  1  0.78690350  0.40695650  0.22622300  1
  Ge  Ge10  1  0.78690350  0.59304350  0.72622300  1
  Ge  Ge11  1  0.21309650  0.59304350  0.77377700  1
  Ge  Ge12  1  0.71309650  0.90695650  0.27377700  1
  Ge  Ge13  1  0.28690350  0.90695650  0.22622300  1
  Ge  Ge14  1  0.28690350  0.09304350  0.72622300  1
  Ge  Ge15  1  0.71309650  0.09304350  0.77377700  1
  O  O16  1  0.14123400  0.23079900  0.20210700  1
  O  O17  1  0.85876600  0.23079900  0.29789300  1
  O  O18  1  0.85876600  0.76920100  0.79789300  1
  O  O19  1  0.14123400  0.76920100  0.70210700  1
  O  O20  1  0.39490000  0.42013800  0.37096700  1
  O  O21  1  0.60510000  0.42013800  0.12903300  1
  O  O22  1  0.60510000  0.57986200  0.62903300  1
  O  O23  1  0.39490000  0.57986200  0.87096700  1
  O  O24  1  0.13931500  0.49502400  0.48543600  1
  O  O25  1  0.86068500  0.49502400  0.01456400  1
  O  O26  1  0.86068500  0.50497600  0.51456400  1
  O  O27  1  0.13931500  0.50497600  0.98543600  1
  O  O28  1  0.64123400  0.73079900  0.20210700  1
  O  O29  1  0.35876600  0.73079900  0.29789300  1
  O  O30  1  0.35876600  0.26920100  0.79789300  1
  O  O31  1  0.64123400  0.26920100  0.70210700  1
  O  O32  1  0.89490000  0.92013800  0.37096700  1
  O  O33  1  0.10510000  0.92013800  0.12903300  1
  O  O34  1  0.10510000  0.07986200  0.62903300  1
  O  O35  1  0.89490000  0.07986200  0.87096700  1
  O  O36  1  0.63931500  0.99502400  0.48543600  1
  O  O37  1  0.36068500  0.99502400  0.01456400  1
  O  O38  1  0.36068500  0.00497600  0.51456400  1
  O  O39  1  0.63931500  0.00497600  0.98543600  1
