# generated using pymatgen
data_Ni5Sb2
_symmetry_space_group_name_H-M   'P 1'
_cell_length_a   12.96726000
_cell_length_b   5.41666200
_cell_length_c   6.14276726
_cell_angle_alpha   90.00000000
_cell_angle_beta   117.90198480
_cell_angle_gamma   90.00000000
_symmetry_Int_Tables_number   1
_chemical_formula_structural   Ni5Sb2
_chemical_formula_sum   'Ni20 Sb8'
_cell_volume   381.30557722
_cell_formula_units_Z   4
loop_
 _symmetry_equiv_pos_site_id
 _symmetry_equiv_pos_as_xyz
  1  'x, y, z'
loop_
 _atom_site_type_symbol
 _atom_site_label
 _atom_site_symmetry_multiplicity
 _atom_site_fract_x
 _atom_site_fract_y
 _atom_site_fract_z
 _atom_site_occupancy
  Ni  Ni0  1  0.00000000  0.75200300  0.00000000  1
  Ni  Ni1  1  0.00000000  0.24799700  0.00000000  1
  Ni  Ni2  1  0.12779300  0.50000000  0.85049700  1
  Ni  Ni3  1  0.37220700  0.00000000  0.14950300  1
  Ni  Ni4  1  0.10183400  0.00000000  0.40526800  1
  Ni  Ni5  1  0.39816600  0.50000000  0.59473200  1
  Ni  Ni6  1  0.22901000  0.75270700  0.25858800  1
  Ni  Ni7  1  0.27099000  0.25270700  0.74141200  1
  Ni  Ni8  1  0.22901000  0.24729300  0.25858800  1
  Ni  Ni9  1  0.27099000  0.74729300  0.74141200  1
  Ni  Ni10  1  0.50000000  0.25200300  0.00000000  1
  Ni  Ni11  1  0.50000000  0.74799700  0.00000000  1
  Ni  Ni12  1  0.62779300  0.00000000  0.85049700  1
  Ni  Ni13  1  0.87220700  0.50000000  0.14950300  1
  Ni  Ni14  1  0.60183400  0.50000000  0.40526800  1
  Ni  Ni15  1  0.89816600  0.00000000  0.59473200  1
  Ni  Ni16  1  0.72901000  0.25270700  0.25858800  1
  Ni  Ni17  1  0.77099000  0.75270700  0.74141200  1
  Ni  Ni18  1  0.72901000  0.74729300  0.25858800  1
  Ni  Ni19  1  0.77099000  0.24729300  0.74141200  1
  Sb  Sb20  1  0.12691200  0.00000000  0.84941600  1
  Sb  Sb21  1  0.37308800  0.50000000  0.15058400  1
  Sb  Sb22  1  0.10282800  0.50000000  0.40264600  1
  Sb  Sb23  1  0.39717200  0.00000000  0.59735400  1
  Sb  Sb24  1  0.62691200  0.50000000  0.84941600  1
  Sb  Sb25  1  0.87308800  0.00000000  0.15058400  1
  Sb  Sb26  1  0.60282800  0.00000000  0.40264600  1
  Sb  Sb27  1  0.89717200  0.50000000  0.59735400  1
