# generated using pymatgen
data_Nb2Cr4Si5
_symmetry_space_group_name_H-M   'P 1'
_cell_length_a   4.85739000
_cell_length_b   7.51407800
_cell_length_c   15.79977600
_cell_angle_alpha   90.00000000
_cell_angle_beta   90.00000000
_cell_angle_gamma   90.00000000
_symmetry_Int_Tables_number   1
_chemical_formula_structural   Nb2Cr4Si5
_chemical_formula_sum   'Nb8 Cr16 Si20'
_cell_volume   576.67298018
_cell_formula_units_Z   4
loop_
 _symmetry_equiv_pos_site_id
 _symmetry_equiv_pos_as_xyz
  1  'x, y, z'
loop_
 _atom_site_type_symbol
 _atom_site_label
 _atom_site_symmetry_multiplicity
 _atom_site_fract_x
 _atom_site_fract_y
 _atom_site_fract_z
 _atom_site_occupancy
  Nb  Nb0  1  0.50000000  0.11999800  0.14129300  1
  Nb  Nb1  1  0.00000000  0.38000200  0.35870700  1
  Nb  Nb2  1  0.50000000  0.61999800  0.35870700  1
  Nb  Nb3  1  0.00000000  0.88000200  0.14129300  1
  Nb  Nb4  1  0.00000000  0.61999800  0.64129300  1
  Nb  Nb5  1  0.50000000  0.88000200  0.85870700  1
  Nb  Nb6  1  0.00000000  0.11999800  0.85870700  1
  Nb  Nb7  1  0.50000000  0.38000200  0.64129300  1
  Cr  Cr8  1  0.75000000  0.50000000  0.19236800  1
  Cr  Cr9  1  0.25000000  0.00000000  0.30763200  1
  Cr  Cr10  1  0.50000000  0.24473750  0.43914450  1
  Cr  Cr11  1  0.00000000  0.25526250  0.06085550  1
  Cr  Cr12  1  0.50000000  0.74473750  0.06085550  1
  Cr  Cr13  1  0.00000000  0.75526250  0.43914450  1
  Cr  Cr14  1  0.75000000  0.00000000  0.30763200  1
  Cr  Cr15  1  0.25000000  0.50000000  0.19236800  1
  Cr  Cr16  1  0.25000000  0.00000000  0.69236800  1
  Cr  Cr17  1  0.75000000  0.50000000  0.80763200  1
  Cr  Cr18  1  0.00000000  0.74473750  0.93914450  1
  Cr  Cr19  1  0.50000000  0.75526250  0.56085550  1
  Cr  Cr20  1  0.00000000  0.24473750  0.56085550  1
  Cr  Cr21  1  0.50000000  0.25526250  0.93914450  1
  Cr  Cr22  1  0.25000000  0.50000000  0.80763200  1
  Cr  Cr23  1  0.75000000  0.00000000  0.69236800  1
  Si  Si24  1  0.25000000  0.00000000  0.00000000  1
  Si  Si25  1  0.75000000  0.00000000  0.00000000  1
  Si  Si26  1  0.50000000  0.42291150  0.06496850  1
  Si  Si27  1  0.00000000  0.07708850  0.43503150  1
  Si  Si28  1  0.50000000  0.29190300  0.28818300  1
  Si  Si29  1  0.00000000  0.20809700  0.21181700  1
  Si  Si30  1  0.50000000  0.79190300  0.21181700  1
  Si  Si31  1  0.00000000  0.70809700  0.28818300  1
  Si  Si32  1  0.00000000  0.57708850  0.06496850  1
  Si  Si33  1  0.50000000  0.92291150  0.43503150  1
  Si  Si34  1  0.75000000  0.50000000  0.50000000  1
  Si  Si35  1  0.25000000  0.50000000  0.50000000  1
  Si  Si36  1  0.00000000  0.92291150  0.56496850  1
  Si  Si37  1  0.50000000  0.57708850  0.93503150  1
  Si  Si38  1  0.00000000  0.79190300  0.78818300  1
  Si  Si39  1  0.50000000  0.70809700  0.71181700  1
  Si  Si40  1  0.00000000  0.29190300  0.71181700  1
  Si  Si41  1  0.50000000  0.20809700  0.78818300  1
  Si  Si42  1  0.50000000  0.07708850  0.56496850  1
  Si  Si43  1  0.00000000  0.42291150  0.93503150  1
