# generated using pymatgen
data_Na2MoO4
_symmetry_space_group_name_H-M   'P 1'
_cell_length_a   6.50692600
_cell_length_b   10.66985800
_cell_length_c   12.86923000
_cell_angle_alpha   90.00000000
_cell_angle_beta   90.00000000
_cell_angle_gamma   90.00000000
_symmetry_Int_Tables_number   1
_chemical_formula_structural   Na2MoO4
_chemical_formula_sum   'Na16 Mo8 O32'
_cell_volume   893.48459720
_cell_formula_units_Z   8
loop_
 _symmetry_equiv_pos_site_id
 _symmetry_equiv_pos_as_xyz
  1  'x, y, z'
loop_
 _atom_site_type_symbol
 _atom_site_label
 _atom_site_symmetry_multiplicity
 _atom_site_fract_x
 _atom_site_fract_y
 _atom_site_fract_z
 _atom_site_occupancy
  Na  Na0  1  0.50000000  0.31885600  0.00000000  1
  Na  Na1  1  0.50000000  0.68114400  0.00000000  1
  Na  Na2  1  0.75000000  0.56885600  0.25000000  1
  Na  Na3  1  0.75000000  0.93114400  0.25000000  1
  Na  Na4  1  0.50000000  0.81885600  0.50000000  1
  Na  Na5  1  0.50000000  0.18114400  0.50000000  1
  Na  Na6  1  0.75000000  0.06885600  0.75000000  1
  Na  Na7  1  0.75000000  0.43114400  0.75000000  1
  Na  Na8  1  0.00000000  0.31885600  0.50000000  1
  Na  Na9  1  0.00000000  0.68114400  0.50000000  1
  Na  Na10  1  0.25000000  0.56885600  0.75000000  1
  Na  Na11  1  0.25000000  0.93114400  0.75000000  1
  Na  Na12  1  0.00000000  0.81885600  0.00000000  1
  Na  Na13  1  0.00000000  0.18114400  0.00000000  1
  Na  Na14  1  0.25000000  0.06885600  0.25000000  1
  Na  Na15  1  0.25000000  0.43114400  0.25000000  1
  Mo  Mo16  1  0.50000000  0.00000000  0.00000000  1
  Mo  Mo17  1  0.75000000  0.25000000  0.25000000  1
  Mo  Mo18  1  0.50000000  0.50000000  0.50000000  1
  Mo  Mo19  1  0.75000000  0.75000000  0.75000000  1
  Mo  Mo20  1  0.00000000  0.00000000  0.50000000  1
  Mo  Mo21  1  0.25000000  0.25000000  0.75000000  1
  Mo  Mo22  1  0.00000000  0.50000000  0.00000000  1
  Mo  Mo23  1  0.25000000  0.75000000  0.25000000  1
  O  O24  1  0.90761300  0.35201950  0.32773350  1
  O  O25  1  0.90761300  0.14798050  0.17226650  1
  O  O26  1  0.59238700  0.35201950  0.17226650  1
  O  O27  1  0.59238700  0.14798050  0.32773350  1
  O  O28  1  0.84238700  0.89798050  0.42226650  1
  O  O29  1  0.34238700  0.10201950  0.07773350  1
  O  O30  1  0.15761300  0.10201950  0.42226650  1
  O  O31  1  0.65761300  0.89798050  0.07773350  1
  O  O32  1  0.90761300  0.85201950  0.82773350  1
  O  O33  1  0.90761300  0.64798050  0.67226650  1
  O  O34  1  0.59238700  0.85201950  0.67226650  1
  O  O35  1  0.59238700  0.64798050  0.82773350  1
  O  O36  1  0.84238700  0.39798050  0.92226650  1
  O  O37  1  0.34238700  0.60201950  0.57773350  1
  O  O38  1  0.15761300  0.60201950  0.92226650  1
  O  O39  1  0.65761300  0.39798050  0.57773350  1
  O  O40  1  0.40761300  0.35201950  0.82773350  1
  O  O41  1  0.40761300  0.14798050  0.67226650  1
  O  O42  1  0.09238700  0.35201950  0.67226650  1
  O  O43  1  0.09238700  0.14798050  0.82773350  1
  O  O44  1  0.34238700  0.89798050  0.92226650  1
  O  O45  1  0.84238700  0.10201950  0.57773350  1
  O  O46  1  0.65761300  0.10201950  0.92226650  1
  O  O47  1  0.15761300  0.89798050  0.57773350  1
  O  O48  1  0.40761300  0.85201950  0.32773350  1
  O  O49  1  0.40761300  0.64798050  0.17226650  1
  O  O50  1  0.09238700  0.85201950  0.17226650  1
  O  O51  1  0.09238700  0.64798050  0.32773350  1
  O  O52  1  0.34238700  0.39798050  0.42226650  1
  O  O53  1  0.84238700  0.60201950  0.07773350  1
  O  O54  1  0.65761300  0.60201950  0.42226650  1
  O  O55  1  0.15761300  0.39798050  0.07773350  1
