# generated using pymatgen
data_WBr5
_symmetry_space_group_name_H-M   'P 1'
_cell_length_a   20.74815000
_cell_length_b   19.27323400
_cell_length_c   6.46924999
_cell_angle_alpha   90.00000000
_cell_angle_beta   90.26074906
_cell_angle_gamma   90.00000000
_symmetry_Int_Tables_number   1
_chemical_formula_structural   WBr5
_chemical_formula_sum   'W12 Br60'
_cell_volume   2586.92245142
_cell_formula_units_Z   12
loop_
 _symmetry_equiv_pos_site_id
 _symmetry_equiv_pos_as_xyz
  1  'x, y, z'
loop_
 _atom_site_type_symbol
 _atom_site_label
 _atom_site_symmetry_multiplicity
 _atom_site_fract_x
 _atom_site_fract_y
 _atom_site_fract_z
 _atom_site_occupancy
  W  W0  1  0.66674200  0.89319300  0.48088700  1
  W  W1  1  0.33325800  0.89319300  0.51911300  1
  W  W2  1  0.33325800  0.10680700  0.51911300  1
  W  W3  1  0.66674200  0.10680700  0.48088700  1
  W  W4  1  0.50000000  0.39347100  0.00000000  1
  W  W5  1  0.50000000  0.60652900  0.00000000  1
  W  W6  1  0.16674200  0.39319300  0.48088700  1
  W  W7  1  0.83325800  0.39319300  0.51911300  1
  W  W8  1  0.83325800  0.60680700  0.51911300  1
  W  W9  1  0.16674200  0.60680700  0.48088700  1
  W  W10  1  0.00000000  0.89347100  0.00000000  1
  W  W11  1  0.00000000  0.10652900  0.00000000  1
  Br  Br12  1  0.57009350  0.90322850  0.26234300  1
  Br  Br13  1  0.42990650  0.90322850  0.73765700  1
  Br  Br14  1  0.42990650  0.09677150  0.73765700  1
  Br  Br15  1  0.57009350  0.09677150  0.26234300  1
  Br  Br16  1  0.61543100  0.81173300  0.71543200  1
  Br  Br17  1  0.38456900  0.81173300  0.28456800  1
  Br  Br18  1  0.95218500  0.00000000  0.77993000  1
  Br  Br19  1  0.04781500  0.00000000  0.22007000  1
  Br  Br20  1  0.44913400  0.68908000  0.76586400  1
  Br  Br21  1  0.55086600  0.68908000  0.23413600  1
  Br  Br22  1  0.55086600  0.31092000  0.23413600  1
  Br  Br23  1  0.44913400  0.31092000  0.76586400  1
  Br  Br24  1  0.90357050  0.09574150  0.21576100  1
  Br  Br25  1  0.09642950  0.09574150  0.78423900  1
  Br  Br26  1  0.09642950  0.90425850  0.78423900  1
  Br  Br27  1  0.90357050  0.90425850  0.21576100  1
  Br  Br28  1  0.71415700  0.00000000  0.26355300  1
  Br  Br29  1  0.28584300  0.00000000  0.73644700  1
  Br  Br30  1  0.71817700  0.18919700  0.24998700  1
  Br  Br31  1  0.28182300  0.18919700  0.75001300  1
  Br  Br32  1  0.28182300  0.81080300  0.75001300  1
  Br  Br33  1  0.71817700  0.81080300  0.24998700  1
  Br  Br34  1  0.76324600  0.09625400  0.70054900  1
  Br  Br35  1  0.23675400  0.09625400  0.29945100  1
  Br  Br36  1  0.23675400  0.90374600  0.29945100  1
  Br  Br37  1  0.76324600  0.90374600  0.70054900  1
  Br  Br38  1  0.61931400  0.00000000  0.69787900  1
  Br  Br39  1  0.38068600  0.00000000  0.30212100  1
  Br  Br40  1  0.61543100  0.18826700  0.71543200  1
  Br  Br41  1  0.38456900  0.18826700  0.28456800  1
  Br  Br42  1  0.07009350  0.40322850  0.26234300  1
  Br  Br43  1  0.92990650  0.40322850  0.73765700  1
  Br  Br44  1  0.92990650  0.59677150  0.73765700  1
  Br  Br45  1  0.07009350  0.59677150  0.26234300  1
  Br  Br46  1  0.11543100  0.31173300  0.71543200  1
  Br  Br47  1  0.88456900  0.31173300  0.28456800  1
  Br  Br48  1  0.45218500  0.50000000  0.77993000  1
  Br  Br49  1  0.54781500  0.50000000  0.22007000  1
  Br  Br50  1  0.94913400  0.18908000  0.76586400  1
  Br  Br51  1  0.05086600  0.18908000  0.23413600  1
  Br  Br52  1  0.05086600  0.81092000  0.23413600  1
  Br  Br53  1  0.94913400  0.81092000  0.76586400  1
  Br  Br54  1  0.40357050  0.59574150  0.21576100  1
  Br  Br55  1  0.59642950  0.59574150  0.78423900  1
  Br  Br56  1  0.59642950  0.40425850  0.78423900  1
  Br  Br57  1  0.40357050  0.40425850  0.21576100  1
  Br  Br58  1  0.21415700  0.50000000  0.26355300  1
  Br  Br59  1  0.78584300  0.50000000  0.73644700  1
  Br  Br60  1  0.21817700  0.68919700  0.24998700  1
  Br  Br61  1  0.78182300  0.68919700  0.75001300  1
  Br  Br62  1  0.78182300  0.31080300  0.75001300  1
  Br  Br63  1  0.21817700  0.31080300  0.24998700  1
  Br  Br64  1  0.26324600  0.59625400  0.70054900  1
  Br  Br65  1  0.73675400  0.59625400  0.29945100  1
  Br  Br66  1  0.73675400  0.40374600  0.29945100  1
  Br  Br67  1  0.26324600  0.40374600  0.70054900  1
  Br  Br68  1  0.11931400  0.50000000  0.69787900  1
  Br  Br69  1  0.88068600  0.50000000  0.30212100  1
  Br  Br70  1  0.11543100  0.68826700  0.71543200  1
  Br  Br71  1  0.88456900  0.68826700  0.28456800  1
