# generated using pymatgen
data_Yb4Bi3
_symmetry_space_group_name_H-M   'P 1'
_cell_length_a   9.64180200
_cell_length_b   9.64180200
_cell_length_c   9.64180200
_cell_angle_alpha   90.00000000
_cell_angle_beta   90.00000000
_cell_angle_gamma   90.00000000
_symmetry_Int_Tables_number   1
_chemical_formula_structural   Yb4Bi3
_chemical_formula_sum   'Yb16 Bi12'
_cell_volume   896.34381533
_cell_formula_units_Z   4
loop_
 _symmetry_equiv_pos_site_id
 _symmetry_equiv_pos_as_xyz
  1  'x, y, z'
loop_
 _atom_site_type_symbol
 _atom_site_label
 _atom_site_symmetry_multiplicity
 _atom_site_fract_x
 _atom_site_fract_y
 _atom_site_fract_z
 _atom_site_occupancy
  Yb  Yb0  1  0.17541050  0.82458950  0.32458950  1
  Yb  Yb1  1  0.92541050  0.07458950  0.57458950  1
  Yb  Yb2  1  0.07458950  0.57458950  0.92541050  1
  Yb  Yb3  1  0.17541050  0.17541050  0.17541050  1
  Yb  Yb4  1  0.82458950  0.32458950  0.17541050  1
  Yb  Yb5  1  0.57458950  0.92541050  0.07458950  1
  Yb  Yb6  1  0.42541050  0.42541050  0.42541050  1
  Yb  Yb7  1  0.32458950  0.17541050  0.82458950  1
  Yb  Yb8  1  0.67541050  0.32458950  0.82458950  1
  Yb  Yb9  1  0.42541050  0.57458950  0.07458950  1
  Yb  Yb10  1  0.57458950  0.07458950  0.42541050  1
  Yb  Yb11  1  0.67541050  0.67541050  0.67541050  1
  Yb  Yb12  1  0.32458950  0.82458950  0.67541050  1
  Yb  Yb13  1  0.07458950  0.42541050  0.57458950  1
  Yb  Yb14  1  0.92541050  0.92541050  0.92541050  1
  Yb  Yb15  1  0.82458950  0.67541050  0.32458950  1
  Bi  Bi16  1  0.50000000  0.25000000  0.12500000  1
  Bi  Bi17  1  0.75000000  0.37500000  0.50000000  1
  Bi  Bi18  1  0.25000000  0.12500000  0.50000000  1
  Bi  Bi19  1  0.50000000  0.75000000  0.37500000  1
  Bi  Bi20  1  0.37500000  0.50000000  0.75000000  1
  Bi  Bi21  1  0.12500000  0.50000000  0.25000000  1
  Bi  Bi22  1  0.00000000  0.75000000  0.62500000  1
  Bi  Bi23  1  0.25000000  0.87500000  0.00000000  1
  Bi  Bi24  1  0.75000000  0.62500000  0.00000000  1
  Bi  Bi25  1  0.00000000  0.25000000  0.87500000  1
  Bi  Bi26  1  0.87500000  0.00000000  0.25000000  1
  Bi  Bi27  1  0.62500000  0.00000000  0.75000000  1
