# generated using pymatgen
data_Cs2FeH12(SO7)2
_symmetry_space_group_name_H-M   'P 1'
_cell_length_a   6.46504825
_cell_length_b   13.01446780
_cell_length_c   9.40319953
_cell_angle_alpha   90.00000000
_cell_angle_beta   106.19660907
_cell_angle_gamma   90.00000000
_symmetry_Int_Tables_number   1
_chemical_formula_structural   Cs2FeH12(SO7)2
_chemical_formula_sum   'Cs4 Fe2 H24 S4 O28'
_cell_volume   759.77565792
_cell_formula_units_Z   2
loop_
 _symmetry_equiv_pos_site_id
 _symmetry_equiv_pos_as_xyz
  1  'x, y, z'
loop_
 _atom_site_type_symbol
 _atom_site_label
 _atom_site_symmetry_multiplicity
 _atom_site_fract_x
 _atom_site_fract_y
 _atom_site_fract_z
 _atom_site_occupancy
  Cs  Cs0  1  0.64760818  0.35678628  0.87267843  1
  Cs  Cs1  1  0.35239182  0.85678628  0.62732157  1
  Cs  Cs2  1  0.35239182  0.64321372  0.12732157  1
  Cs  Cs3  1  0.64760818  0.14321372  0.37267843  1
  Fe  Fe4  1  0.00000000  0.50000000  0.50000000  1
  Fe  Fe5  1  0.00000000  0.00000000  0.00000000  1
  H  H6  1  0.68740476  0.64136987  0.47480915  1
  H  H7  1  0.31259524  0.14136987  0.02519085  1
  H  H8  1  0.31259524  0.35863013  0.52519085  1
  H  H9  1  0.68740476  0.85863013  0.97480915  1
  H  H10  1  0.66603786  0.56557528  0.60078014  1
  H  H11  1  0.33396214  0.06557528  0.89921986  1
  H  H12  1  0.07398397  0.40091513  0.78113292  1
  H  H13  1  0.92601603  0.90091513  0.71886708  1
  H  H14  1  0.92601603  0.59908487  0.21886708  1
  H  H15  1  0.07398397  0.09908487  0.28113292  1
  H  H16  1  0.90670908  0.36954119  0.26151645  1
  H  H17  1  0.09329092  0.86954119  0.23848355  1
  H  H18  1  0.09329092  0.63045881  0.73848355  1
  H  H19  1  0.90670908  0.13045881  0.76151645  1
  H  H20  1  0.67474704  0.39893567  0.28565506  1
  H  H21  1  0.32525296  0.89893567  0.21434494  1
  H  H22  1  0.32525296  0.60106433  0.71434494  1
  H  H23  1  0.67474704  0.10106433  0.78565506  1
  H  H24  1  0.98102835  0.81493146  0.84266086  1
  H  H25  1  0.01897165  0.31493146  0.65733914  1
  H  H26  1  0.66603786  0.93442472  0.10078014  1
  H  H27  1  0.33396214  0.43442472  0.39921986  1
  H  H28  1  0.98102835  0.68506854  0.34266086  1
  H  H29  1  0.01897165  0.18506854  0.15733914  1
  S  S30  1  0.74084080  0.85245768  0.39485295  1
  S  S31  1  0.25915920  0.35245768  0.10514705  1
  S  S32  1  0.74084080  0.64754232  0.89485295  1
  S  S33  1  0.25915920  0.14754232  0.60514705  1
  O  O34  1  0.16986699  0.88695819  0.16388253  1
  O  O35  1  0.16986699  0.61304181  0.66388253  1
  O  O36  1  0.99248550  0.11159846  0.17612713  1
  O  O37  1  0.00751450  0.61159846  0.32387287  1
  O  O38  1  0.00751450  0.88840154  0.82387287  1
  O  O39  1  0.99248550  0.38840154  0.67612713  1
  O  O40  1  0.70593162  0.93204812  0.00611001  1
  O  O41  1  0.83013301  0.11304181  0.83611747  1
  O  O42  1  0.29406838  0.06795188  0.99388999  1
  O  O43  1  0.70593162  0.56795188  0.50611001  1
  O  O44  1  0.05861126  0.31727758  0.14159136  1
  O  O45  1  0.94138874  0.81727758  0.35840864  1
  O  O46  1  0.94138874  0.68272242  0.85840864  1
  O  O47  1  0.05861126  0.18272242  0.64159136  1
  O  O48  1  0.39417921  0.41561557  0.23106969  1
  O  O49  1  0.60582079  0.91561557  0.26893031  1
  O  O50  1  0.60582079  0.58438443  0.76893031  1
  O  O51  1  0.39417921  0.08438443  0.73106969  1
  O  O52  1  0.20278449  0.41702808  0.96925240  1
  O  O53  1  0.79721551  0.91702808  0.53074760  1
  O  O54  1  0.79721551  0.58297192  0.03074760  1
  O  O55  1  0.20278449  0.08297192  0.46925240  1
  O  O56  1  0.38819492  0.26143154  0.08474087  1
  O  O57  1  0.61180508  0.76143154  0.41525913  1
  O  O58  1  0.61180508  0.73856846  0.91525913  1
  O  O59  1  0.38819492  0.23856846  0.58474087  1
  O  O60  1  0.83013301  0.38695819  0.33611747  1
  O  O61  1  0.29406838  0.43204812  0.49388999  1
