# generated using pymatgen
data_LuMnGe2
_symmetry_space_group_name_H-M   'P 1'
_cell_length_a   5.39590400
_cell_length_b   18.36386800
_cell_length_c   8.19764200
_cell_angle_alpha   90.00000000
_cell_angle_beta   90.00000000
_cell_angle_gamma   90.00000000
_symmetry_Int_Tables_number   1
_chemical_formula_structural   LuMnGe2
_chemical_formula_sum   'Lu12 Mn12 Ge24'
_cell_volume   812.30163069
_cell_formula_units_Z   12
loop_
 _symmetry_equiv_pos_site_id
 _symmetry_equiv_pos_as_xyz
  1  'x, y, z'
loop_
 _atom_site_type_symbol
 _atom_site_label
 _atom_site_symmetry_multiplicity
 _atom_site_fract_x
 _atom_site_fract_y
 _atom_site_fract_z
 _atom_site_occupancy
  Lu  Lu0  1  0.00000000  0.90636500  0.25205100  1
  Lu  Lu1  1  0.50000000  0.59363500  0.74794900  1
  Lu  Lu2  1  0.50000000  0.59363500  0.25205100  1
  Lu  Lu3  1  0.00000000  0.90636500  0.74794900  1
  Lu  Lu4  1  0.00000000  0.64059500  0.50000000  1
  Lu  Lu5  1  0.50000000  0.85940500  0.50000000  1
  Lu  Lu6  1  0.50000000  0.40636500  0.25205100  1
  Lu  Lu7  1  0.00000000  0.09363500  0.74794900  1
  Lu  Lu8  1  0.00000000  0.09363500  0.25205100  1
  Lu  Lu9  1  0.50000000  0.40636500  0.74794900  1
  Lu  Lu10  1  0.50000000  0.14059500  0.50000000  1
  Lu  Lu11  1  0.00000000  0.35940500  0.50000000  1
  Mn  Mn12  1  0.25000000  0.75000000  0.74792700  1
  Mn  Mn13  1  0.75000000  0.75000000  0.74792700  1
  Mn  Mn14  1  0.25000000  0.75000000  0.25207300  1
  Mn  Mn15  1  0.75000000  0.75000000  0.25207300  1
  Mn  Mn16  1  0.50000000  0.00000000  0.24861200  1
  Mn  Mn17  1  0.50000000  0.00000000  0.75138800  1
  Mn  Mn18  1  0.75000000  0.25000000  0.74792700  1
  Mn  Mn19  1  0.25000000  0.25000000  0.74792700  1
  Mn  Mn20  1  0.75000000  0.25000000  0.25207300  1
  Mn  Mn21  1  0.25000000  0.25000000  0.25207300  1
  Mn  Mn22  1  0.00000000  0.50000000  0.24861200  1
  Mn  Mn23  1  0.00000000  0.50000000  0.75138800  1
  Ge  Ge24  1  0.00000000  0.79730300  0.50000000  1
  Ge  Ge25  1  0.50000000  0.70269700  0.50000000  1
  Ge  Ge26  1  0.50000000  0.86184400  0.15541200  1
  Ge  Ge27  1  0.50000000  0.86184400  0.84458800  1
  Ge  Ge28  1  0.00000000  0.63815600  0.15541200  1
  Ge  Ge29  1  0.00000000  0.63815600  0.84458800  1
  Ge  Ge30  1  0.24570700  0.00000000  0.00000000  1
  Ge  Ge31  1  0.75429300  0.00000000  0.00000000  1
  Ge  Ge32  1  0.24635700  0.00000000  0.50000000  1
  Ge  Ge33  1  0.75364300  0.00000000  0.50000000  1
  Ge  Ge34  1  0.00000000  0.78908400  0.00000000  1
  Ge  Ge35  1  0.50000000  0.71091600  0.00000000  1
  Ge  Ge36  1  0.50000000  0.29730300  0.50000000  1
  Ge  Ge37  1  0.00000000  0.20269700  0.50000000  1
  Ge  Ge38  1  0.00000000  0.36184400  0.15541200  1
  Ge  Ge39  1  0.00000000  0.36184400  0.84458800  1
  Ge  Ge40  1  0.50000000  0.13815600  0.15541200  1
  Ge  Ge41  1  0.50000000  0.13815600  0.84458800  1
  Ge  Ge42  1  0.74570700  0.50000000  0.00000000  1
  Ge  Ge43  1  0.25429300  0.50000000  0.00000000  1
  Ge  Ge44  1  0.74635700  0.50000000  0.50000000  1
  Ge  Ge45  1  0.25364300  0.50000000  0.50000000  1
  Ge  Ge46  1  0.50000000  0.28908400  0.00000000  1
  Ge  Ge47  1  0.00000000  0.21091600  0.00000000  1
