# generated using pymatgen
data_RbV3(SeO6)2
_symmetry_space_group_name_H-M   'P 1'
_cell_length_a   7.16851222
_cell_length_b   7.16851222
_cell_length_c   12.09522600
_cell_angle_alpha   90.00000000
_cell_angle_beta   90.00000000
_cell_angle_gamma   120.00000000
_symmetry_Int_Tables_number   1
_chemical_formula_structural   RbV3(SeO6)2
_chemical_formula_sum   'Rb2 V6 Se4 O24'
_cell_volume   538.27310256
_cell_formula_units_Z   2
loop_
 _symmetry_equiv_pos_site_id
 _symmetry_equiv_pos_as_xyz
  1  'x, y, z'
loop_
 _atom_site_type_symbol
 _atom_site_label
 _atom_site_symmetry_multiplicity
 _atom_site_fract_x
 _atom_site_fract_y
 _atom_site_fract_z
 _atom_site_occupancy
  Rb  Rb0  1  0.66666667  0.33333333  0.04151200  1
  Rb  Rb1  1  0.33333333  0.66666667  0.54151200  1
  V  V2  1  0.33293900  0.20639800  0.70834200  1
  V  V3  1  0.87345900  0.66706100  0.70834200  1
  V  V4  1  0.20639800  0.87345900  0.20834200  1
  V  V5  1  0.66706100  0.79360200  0.20834200  1
  V  V6  1  0.79360200  0.12654100  0.70834200  1
  V  V7  1  0.12654100  0.33293900  0.20834200  1
  Se  Se8  1  0.00000000  0.00000000  0.92346300  1
  Se  Se9  1  0.66666667  0.33333333  0.48994900  1
  Se  Se10  1  0.33333333  0.66666667  0.98994900  1
  Se  Se11  1  0.00000000  0.00000000  0.42346300  1
  O  O12  1  0.87520200  0.12598500  0.17810300  1
  O  O13  1  0.74921700  0.87520200  0.67810300  1
  O  O14  1  0.12598500  0.25078300  0.67810300  1
  O  O15  1  0.87401500  0.74921700  0.17810300  1
  O  O16  1  0.25078300  0.12479800  0.17810300  1
  O  O17  1  0.12479800  0.87401500  0.67810300  1
  O  O18  1  0.08283700  0.54149500  0.23233500  1
  O  O19  1  0.54134200  0.08283700  0.73233500  1
  O  O20  1  0.54149500  0.45865800  0.73233500  1
  O  O21  1  0.45850500  0.54134200  0.23233500  1
  O  O22  1  0.45865800  0.91716300  0.23233500  1
  O  O23  1  0.91716300  0.45850500  0.73233500  1
  O  O24  1  0.78824500  0.58738400  0.54953800  1
  O  O25  1  0.20086100  0.78824500  0.04953800  1
  O  O26  1  0.58738400  0.79913900  0.04953800  1
  O  O27  1  0.41261600  0.20086100  0.54953800  1
  O  O28  1  0.79913900  0.21175500  0.54953800  1
  O  O29  1  0.21175500  0.41261600  0.04953800  1
  O  O30  1  0.86880900  0.74588400  0.86227700  1
  O  O31  1  0.12292500  0.86880900  0.36227700  1
  O  O32  1  0.74588400  0.87707500  0.36227700  1
  O  O33  1  0.25411600  0.12292500  0.86227700  1
  O  O34  1  0.87707500  0.13119100  0.86227700  1
  O  O35  1  0.13119100  0.25411600  0.36227700  1
