# generated using pymatgen
data_U3Co2Ge7
_symmetry_space_group_name_H-M   'P 1'
_cell_length_a   4.14514600
_cell_length_b   24.91625000
_cell_length_c   4.17751800
_cell_angle_alpha   90.00000000
_cell_angle_beta   90.00000000
_cell_angle_gamma   90.00000000
_symmetry_Int_Tables_number   1
_chemical_formula_structural   U3Co2Ge7
_chemical_formula_sum   'U6 Co4 Ge14'
_cell_volume   431.46030035
_cell_formula_units_Z   2
loop_
 _symmetry_equiv_pos_site_id
 _symmetry_equiv_pos_as_xyz
  1  'x, y, z'
loop_
 _atom_site_type_symbol
 _atom_site_label
 _atom_site_symmetry_multiplicity
 _atom_site_fract_x
 _atom_site_fract_y
 _atom_site_fract_z
 _atom_site_occupancy
  U  U0  1  0.00000000  0.81418700  0.00000000  1
  U  U1  1  0.50000000  0.68581300  0.00000000  1
  U  U2  1  0.50000000  0.00000000  0.50000000  1
  U  U3  1  0.50000000  0.31418700  0.00000000  1
  U  U4  1  0.00000000  0.18581300  0.00000000  1
  U  U5  1  0.00000000  0.50000000  0.50000000  1
  Co  Co6  1  0.00000000  0.62770400  0.50000000  1
  Co  Co7  1  0.50000000  0.87229600  0.50000000  1
  Co  Co8  1  0.50000000  0.12770400  0.50000000  1
  Co  Co9  1  0.00000000  0.37229600  0.50000000  1
  Ge  Ge10  1  0.00000000  0.72028900  0.50000000  1
  Ge  Ge11  1  0.00000000  0.00000000  0.00000000  1
  Ge  Ge12  1  0.50000000  0.91196800  0.00000000  1
  Ge  Ge13  1  0.00000000  0.58803200  0.00000000  1
  Ge  Ge14  1  0.50000000  0.58710800  0.50000000  1
  Ge  Ge15  1  0.00000000  0.91289200  0.50000000  1
  Ge  Ge16  1  0.50000000  0.77971100  0.50000000  1
  Ge  Ge17  1  0.50000000  0.22028900  0.50000000  1
  Ge  Ge18  1  0.50000000  0.50000000  0.00000000  1
  Ge  Ge19  1  0.00000000  0.41196800  0.00000000  1
  Ge  Ge20  1  0.50000000  0.08803200  0.00000000  1
  Ge  Ge21  1  0.00000000  0.08710800  0.50000000  1
  Ge  Ge22  1  0.50000000  0.41289200  0.50000000  1
  Ge  Ge23  1  0.00000000  0.27971100  0.50000000  1
