# generated using pymatgen
data_KVBP2HO9
_symmetry_space_group_name_H-M   'P 1'
_cell_length_a   5.24627341
_cell_length_b   8.22822018
_cell_length_c   8.49172992
_cell_angle_alpha   87.01053360
_cell_angle_beta   80.33712770
_cell_angle_gamma   86.35899249
_symmetry_Int_Tables_number   1
_chemical_formula_structural   KVBP2HO9
_chemical_formula_sum   'K2 V2 B2 P4 H2 O18'
_cell_volume   360.31571306
_cell_formula_units_Z   2
loop_
 _symmetry_equiv_pos_site_id
 _symmetry_equiv_pos_as_xyz
  1  'x, y, z'
loop_
 _atom_site_type_symbol
 _atom_site_label
 _atom_site_symmetry_multiplicity
 _atom_site_fract_x
 _atom_site_fract_y
 _atom_site_fract_z
 _atom_site_occupancy
  K  K0  1  0.27856600  0.67447900  0.88829900  1
  K  K1  1  0.72143400  0.32552100  0.11170100  1
  V  V2  1  0.26690650  0.19573950  0.80543850  1
  V  V3  1  0.73309350  0.80426050  0.19456150  1
  B  B4  1  0.87544400  0.73263400  0.55458300  1
  B  B5  1  0.12455600  0.26736600  0.44541700  1
  P  P6  1  0.78318150  0.93572700  0.81305800  1
  P  P7  1  0.21681850  0.06427300  0.18694200  1
  P  P8  1  0.19796500  0.58178900  0.30321600  1
  P  P9  1  0.80203500  0.41821100  0.69678400  1
  H  H10  1  0.53036350  0.83388100  0.49602800  1
  H  H11  1  0.46963650  0.16611900  0.50397200  1
  O  O12  1  0.44685100  0.64461050  0.20657450  1
  O  O13  1  0.55314900  0.35538950  0.79342550  1
  O  O14  1  0.70590550  0.80519800  0.44311900  1
  O  O15  1  0.29409450  0.19480200  0.55688100  1
  O  O16  1  0.94169450  0.85155800  0.66123100  1
  O  O17  1  0.05830550  0.14844200  0.33876900  1
  O  O18  1  0.75784900  0.80453500  0.95120400  1
  O  O19  1  0.24215100  0.19546500  0.04879600  1
  O  O20  1  0.02609350  0.40635400  0.79379100  1
  O  O21  1  0.97390650  0.59364600  0.20620900  1
  O  O22  1  0.26843500  0.39931550  0.34802250  1
  O  O23  1  0.73156500  0.60068450  0.65197750  1
  O  O24  1  0.51146050  0.99427450  0.77864450  1
  O  O25  1  0.48853950  0.00572550  0.22135550  1
  O  O26  1  0.12392550  0.67466650  0.46261150  1
  O  O27  1  0.87607450  0.32533350  0.53738850  1
  O  O28  1  0.05863550  0.92381150  0.15465150  1
  O  O29  1  0.94136450  0.07618850  0.84534850  1
