# generated using pymatgen
data_La2(WO4)3
_symmetry_space_group_name_H-M   'P 1'
_cell_length_a   8.04992400
_cell_length_b   11.96801600
_cell_length_c   11.80975342
_cell_angle_alpha   90.00000000
_cell_angle_beta   109.40790045
_cell_angle_gamma   90.00000000
_symmetry_Int_Tables_number   1
_chemical_formula_structural   La2(WO4)3
_chemical_formula_sum   'La8 W12 O48'
_cell_volume   1073.11904534
_cell_formula_units_Z   4
loop_
 _symmetry_equiv_pos_site_id
 _symmetry_equiv_pos_as_xyz
  1  'x, y, z'
loop_
 _atom_site_type_symbol
 _atom_site_label
 _atom_site_symmetry_multiplicity
 _atom_site_fract_x
 _atom_site_fract_y
 _atom_site_fract_z
 _atom_site_occupancy
  La  La0  1  0.81809950  0.12698350  0.40350600  1
  La  La1  1  0.18190050  0.12698350  0.09649400  1
  La  La2  1  0.18190050  0.87301650  0.59649400  1
  La  La3  1  0.81809950  0.87301650  0.90350600  1
  La  La4  1  0.31809950  0.62698350  0.40350600  1
  La  La5  1  0.68190050  0.62698350  0.09649400  1
  La  La6  1  0.68190050  0.37301650  0.59649400  1
  La  La7  1  0.31809950  0.37301650  0.90350600  1
  W  W8  1  0.65248950  0.14768750  0.04512200  1
  W  W9  1  0.34751050  0.14768750  0.45487800  1
  W  W10  1  0.34751050  0.85231250  0.95487800  1
  W  W11  1  0.65248950  0.85231250  0.54512200  1
  W  W12  1  0.50000000  0.38226900  0.25000000  1
  W  W13  1  0.50000000  0.61773100  0.75000000  1
  W  W14  1  0.15248950  0.64768750  0.04512200  1
  W  W15  1  0.84751050  0.64768750  0.45487800  1
  W  W16  1  0.84751050  0.35231250  0.95487800  1
  W  W17  1  0.15248950  0.35231250  0.54512200  1
  W  W18  1  0.00000000  0.88226900  0.25000000  1
  W  W19  1  0.00000000  0.11773100  0.75000000  1
  O  O20  1  0.61600600  0.71285500  0.42672900  1
  O  O21  1  0.38399400  0.71285500  0.07327100  1
  O  O22  1  0.38399400  0.28714500  0.57327100  1
  O  O23  1  0.61600600  0.28714500  0.92672900  1
  O  O24  1  0.57294200  0.19891300  0.46397800  1
  O  O25  1  0.42705800  0.19891300  0.03602200  1
  O  O26  1  0.42705800  0.80108700  0.53602200  1
  O  O27  1  0.57294200  0.80108700  0.96397800  1
  O  O28  1  0.71863150  0.07815950  0.19140000  1
  O  O29  1  0.28136850  0.07815950  0.30860000  1
  O  O30  1  0.28136850  0.92184050  0.80860000  1
  O  O31  1  0.71863150  0.92184050  0.69140000  1
  O  O32  1  0.69023950  0.29376950  0.28098700  1
  O  O33  1  0.30976050  0.29376950  0.21901300  1
  O  O34  1  0.30976050  0.70623050  0.71901300  1
  O  O35  1  0.69023950  0.70623050  0.78098700  1
  O  O36  1  0.64080350  0.96165150  0.43979500  1
  O  O37  1  0.35919650  0.96165150  0.06020500  1
  O  O38  1  0.35919650  0.03834850  0.56020500  1
  O  O39  1  0.64080350  0.03834850  0.93979500  1
  O  O40  1  0.51182300  0.46011000  0.38727000  1
  O  O41  1  0.48817700  0.46011000  0.11273000  1
  O  O42  1  0.48817700  0.53989000  0.61273000  1
  O  O43  1  0.51182300  0.53989000  0.88727000  1
  O  O44  1  0.11600600  0.21285500  0.42672900  1
  O  O45  1  0.88399400  0.21285500  0.07327100  1
  O  O46  1  0.88399400  0.78714500  0.57327100  1
  O  O47  1  0.11600600  0.78714500  0.92672900  1
  O  O48  1  0.07294200  0.69891300  0.46397800  1
  O  O49  1  0.92705800  0.69891300  0.03602200  1
  O  O50  1  0.92705800  0.30108700  0.53602200  1
  O  O51  1  0.07294200  0.30108700  0.96397800  1
  O  O52  1  0.21863150  0.57815950  0.19140000  1
  O  O53  1  0.78136850  0.57815950  0.30860000  1
  O  O54  1  0.78136850  0.42184050  0.80860000  1
  O  O55  1  0.21863150  0.42184050  0.69140000  1
  O  O56  1  0.19023950  0.79376950  0.28098700  1
  O  O57  1  0.80976050  0.79376950  0.21901300  1
  O  O58  1  0.80976050  0.20623050  0.71901300  1
  O  O59  1  0.19023950  0.20623050  0.78098700  1
  O  O60  1  0.14080350  0.46165150  0.43979500  1
  O  O61  1  0.85919650  0.46165150  0.06020500  1
  O  O62  1  0.85919650  0.53834850  0.56020500  1
  O  O63  1  0.14080350  0.53834850  0.93979500  1
  O  O64  1  0.01182300  0.96011000  0.38727000  1
  O  O65  1  0.98817700  0.96011000  0.11273000  1
  O  O66  1  0.98817700  0.03989000  0.61273000  1
  O  O67  1  0.01182300  0.03989000  0.88727000  1
