# generated using pymatgen
data_Ta6S
_symmetry_space_group_name_H-M   'P 1'
_cell_length_a   14.24153800
_cell_length_b   5.31682000
_cell_length_c   14.89308861
_cell_angle_alpha   90.00000000
_cell_angle_beta   118.10524804
_cell_angle_gamma   90.00000000
_symmetry_Int_Tables_number   1
_chemical_formula_structural   Ta6S
_chemical_formula_sum   'Ta48 S8'
_cell_volume   994.72591072
_cell_formula_units_Z   8
loop_
 _symmetry_equiv_pos_site_id
 _symmetry_equiv_pos_as_xyz
  1  'x, y, z'
loop_
 _atom_site_type_symbol
 _atom_site_label
 _atom_site_symmetry_multiplicity
 _atom_site_fract_x
 _atom_site_fract_y
 _atom_site_fract_z
 _atom_site_occupancy
  Ta  Ta0  1  0.33911250  0.65903650  0.45401600  1
  Ta  Ta1  1  0.16088750  0.15903650  0.04598400  1
  Ta  Ta2  1  0.66088750  0.34096350  0.54598400  1
  Ta  Ta3  1  0.83911250  0.84096350  0.95401600  1
  Ta  Ta4  1  0.43657600  0.16278800  0.40558200  1
  Ta  Ta5  1  0.06342400  0.66278800  0.09441800  1
  Ta  Ta6  1  0.56342400  0.83721200  0.59441800  1
  Ta  Ta7  1  0.93657600  0.33721200  0.90558200  1
  Ta  Ta8  1  0.53569450  0.64615450  0.17369800  1
  Ta  Ta9  1  0.46430550  0.64615450  0.32630200  1
  Ta  Ta10  1  0.46430550  0.35384550  0.82630200  1
  Ta  Ta11  1  0.53569450  0.35384550  0.67369800  1
  Ta  Ta12  1  0.21080050  0.14730550  0.39693600  1
  Ta  Ta13  1  0.28919950  0.64730550  0.10306400  1
  Ta  Ta14  1  0.78919950  0.85269450  0.60306400  1
  Ta  Ta15  1  0.71080050  0.35269450  0.89693600  1
  Ta  Ta16  1  0.60596200  0.18132700  0.31721400  1
  Ta  Ta17  1  0.39403800  0.18132700  0.18278600  1
  Ta  Ta18  1  0.39403800  0.81867300  0.68278600  1
  Ta  Ta19  1  0.60596200  0.81867300  0.81721400  1
  Ta  Ta20  1  0.74759050  0.09300650  0.75171300  1
  Ta  Ta21  1  0.75240950  0.59300650  0.74828700  1
  Ta  Ta22  1  0.25240950  0.90699350  0.24828700  1
  Ta  Ta23  1  0.24759050  0.40699350  0.25171300  1
  Ta  Ta24  1  0.83911250  0.15903650  0.45401600  1
  Ta  Ta25  1  0.66088750  0.65903650  0.04598400  1
  Ta  Ta26  1  0.16088750  0.84096350  0.54598400  1
  Ta  Ta27  1  0.33911250  0.34096350  0.95401600  1
  Ta  Ta28  1  0.93657600  0.66278800  0.40558200  1
  Ta  Ta29  1  0.56342400  0.16278800  0.09441800  1
  Ta  Ta30  1  0.06342400  0.33721200  0.59441800  1
  Ta  Ta31  1  0.43657600  0.83721200  0.90558200  1
  Ta  Ta32  1  0.03569450  0.14615450  0.17369800  1
  Ta  Ta33  1  0.96430550  0.14615450  0.32630200  1
  Ta  Ta34  1  0.96430550  0.85384550  0.82630200  1
  Ta  Ta35  1  0.03569450  0.85384550  0.67369800  1
  Ta  Ta36  1  0.71080050  0.64730550  0.39693600  1
  Ta  Ta37  1  0.78919950  0.14730550  0.10306400  1
  Ta  Ta38  1  0.28919950  0.35269450  0.60306400  1
  Ta  Ta39  1  0.21080050  0.85269450  0.89693600  1
  Ta  Ta40  1  0.10596200  0.68132700  0.31721400  1
  Ta  Ta41  1  0.89403800  0.68132700  0.18278600  1
  Ta  Ta42  1  0.89403800  0.31867300  0.68278600  1
  Ta  Ta43  1  0.10596200  0.31867300  0.81721400  1
  Ta  Ta44  1  0.24759050  0.59300650  0.75171300  1
  Ta  Ta45  1  0.25240950  0.09300650  0.74828700  1
  Ta  Ta46  1  0.75240950  0.40699350  0.24828700  1
  Ta  Ta47  1  0.74759050  0.90699350  0.25171300  1
  S  S48  1  0.39105100  0.08449000  0.54357000  1
  S  S49  1  0.60894900  0.08449000  0.95643000  1
  S  S50  1  0.60894900  0.91551000  0.45643000  1
  S  S51  1  0.39105100  0.91551000  0.04357000  1
  S  S52  1  0.89105100  0.58449000  0.54357000  1
  S  S53  1  0.10894900  0.58449000  0.95643000  1
  S  S54  1  0.10894900  0.41551000  0.45643000  1
  S  S55  1  0.89105100  0.41551000  0.04357000  1
