# generated using pymatgen
data_V2PbO6
_symmetry_space_group_name_H-M   'P 1'
_cell_length_a   16.25475753
_cell_length_b   3.71437716
_cell_length_c   9.67269494
_cell_angle_alpha   90.00000000
_cell_angle_beta   108.94253899
_cell_angle_gamma   90.00000000
_symmetry_Int_Tables_number   1
_chemical_formula_structural   V2PbO6
_chemical_formula_sum   'V8 Pb4 O24'
_cell_volume   552.37470003
_cell_formula_units_Z   4
loop_
 _symmetry_equiv_pos_site_id
 _symmetry_equiv_pos_as_xyz
  1  'x, y, z'
loop_
 _atom_site_type_symbol
 _atom_site_label
 _atom_site_symmetry_multiplicity
 _atom_site_fract_x
 _atom_site_fract_y
 _atom_site_fract_z
 _atom_site_occupancy
  V  V0  1  0.09808452  0.50000000  0.34179605  1
  V  V1  1  0.40191548  0.00000000  0.65820395  1
  V  V2  1  0.33509714  0.50000000  0.86121238  1
  V  V3  1  0.16490286  0.00000000  0.13878762  1
  V  V4  1  0.59808452  0.00000000  0.34179605  1
  V  V5  1  0.90191548  0.50000000  0.65820395  1
  V  V6  1  0.83509714  0.00000000  0.86121238  1
  V  V7  1  0.66490286  0.50000000  0.13878762  1
  Pb  Pb8  1  0.37522038  0.50000000  0.27216482  1
  Pb  Pb9  1  0.12477962  0.00000000  0.72783518  1
  Pb  Pb10  1  0.87522038  0.00000000  0.27216482  1
  Pb  Pb11  1  0.62477962  0.50000000  0.72783518  1
  O  O12  1  0.16239067  0.50000000  0.19572560  1
  O  O13  1  0.33760933  0.00000000  0.80427440  1
  O  O14  1  0.39254176  0.50000000  0.70738823  1
  O  O15  1  0.10745824  0.00000000  0.29261177  1
  O  O16  1  0.15194683  0.50000000  0.52066431  1
  O  O17  1  0.34805317  0.00000000  0.47933569  1
  O  O18  1  0.10199006  0.00000000  0.96406844  1
  O  O19  1  0.39800994  0.50000000  0.03593156  1
  O  O20  1  0.48883676  0.00000000  0.31772035  1
  O  O21  1  0.22800224  0.50000000  0.85215332  1
  O  O22  1  0.27199776  0.00000000  0.14784668  1
  O  O23  1  0.01116324  0.50000000  0.68227965  1
  O  O24  1  0.66239067  0.00000000  0.19572560  1
  O  O25  1  0.83760933  0.50000000  0.80427440  1
  O  O26  1  0.89254176  0.00000000  0.70738823  1
  O  O27  1  0.60745824  0.50000000  0.29261177  1
  O  O28  1  0.65194683  0.00000000  0.52066431  1
  O  O29  1  0.84805317  0.50000000  0.47933569  1
  O  O30  1  0.60199006  0.50000000  0.96406844  1
  O  O31  1  0.89800994  0.00000000  0.03593156  1
  O  O32  1  0.98883676  0.50000000  0.31772035  1
  O  O33  1  0.72800224  0.00000000  0.85215332  1
  O  O34  1  0.77199776  0.50000000  0.14784668  1
  O  O35  1  0.51116324  0.00000000  0.68227965  1
