# generated using pymatgen
data_In6WO12
_symmetry_space_group_name_H-M   'P 1'
_cell_length_a   9.66145246
_cell_length_b   9.66145246
_cell_length_c   9.08413189
_cell_angle_alpha   90.00000000
_cell_angle_beta   90.00000000
_cell_angle_gamma   120.00000000
_symmetry_Int_Tables_number   1
_chemical_formula_structural   In6WO12
_chemical_formula_sum   'In18 W3 O36'
_cell_volume   734.34290852
_cell_formula_units_Z   3
loop_
 _symmetry_equiv_pos_site_id
 _symmetry_equiv_pos_as_xyz
  1  'x, y, z'
loop_
 _atom_site_type_symbol
 _atom_site_label
 _atom_site_symmetry_multiplicity
 _atom_site_fract_x
 _atom_site_fract_y
 _atom_site_fract_z
 _atom_site_occupancy
  In  In0  1  0.75170600  0.78407800  0.64386600  1
  In  In1  1  0.21592200  0.96762800  0.64386600  1
  In  In2  1  0.03237200  0.24829400  0.64386600  1
  In  In3  1  0.24829400  0.21592200  0.35613400  1
  In  In4  1  0.78407800  0.03237200  0.35613400  1
  In  In5  1  0.96762800  0.75170600  0.35613400  1
  In  In6  1  0.41837267  0.11741133  0.97719933  1
  In  In7  1  0.88258867  0.30096133  0.97719933  1
  In  In8  1  0.69903867  0.58162733  0.97719933  1
  In  In9  1  0.91496067  0.54925533  0.68946733  1
  In  In10  1  0.45074467  0.36570533  0.68946733  1
  In  In11  1  0.63429467  0.08503933  0.68946733  1
  In  In12  1  0.08503933  0.45074467  0.31053267  1
  In  In13  1  0.54925533  0.63429467  0.31053267  1
  In  In14  1  0.36570533  0.91496067  0.31053267  1
  In  In15  1  0.58162733  0.88258867  0.02280067  1
  In  In16  1  0.11741133  0.69903867  0.02280067  1
  In  In17  1  0.30096133  0.41837267  0.02280067  1
  W  W18  1  0.00000000  0.00000000  0.00000000  1
  W  W19  1  0.66666667  0.33333333  0.33333333  1
  W  W20  1  0.33333333  0.66666667  0.66666667  1
  O  O21  1  0.78091033  0.79983167  0.39505267  1
  O  O22  1  0.20016833  0.98107867  0.39505267  1
  O  O23  1  0.01892133  0.21908967  0.39505267  1
  O  O24  1  0.21908967  0.20016833  0.60494733  1
  O  O25  1  0.79983167  0.01892133  0.60494733  1
  O  O26  1  0.98107867  0.78091033  0.60494733  1
  O  O27  1  0.15653867  0.50602633  0.54765233  1
  O  O28  1  0.65051233  0.15653867  0.45234767  1
  O  O29  1  0.50602633  0.34948767  0.45234767  1
  O  O30  1  0.84346133  0.49397367  0.45234767  1
  O  O31  1  0.34948767  0.84346133  0.54765233  1
  O  O32  1  0.49397367  0.65051233  0.54765233  1
  O  O33  1  0.44757700  0.13316500  0.72838600  1
  O  O34  1  0.86683500  0.31441200  0.72838600  1
  O  O35  1  0.68558800  0.55242300  0.72838600  1
  O  O36  1  0.88575633  0.53350167  0.93828067  1
  O  O37  1  0.46649833  0.35225467  0.93828067  1
  O  O38  1  0.64774533  0.11424367  0.93828067  1
  O  O39  1  0.82320533  0.83935967  0.88098567  1
  O  O40  1  0.31717900  0.48987200  0.78568100  1
  O  O41  1  0.17269300  0.68282100  0.78568100  1
  O  O42  1  0.51012800  0.82730700  0.78568100  1
  O  O43  1  0.01615433  0.17679467  0.88098567  1
  O  O44  1  0.16064033  0.98384567  0.88098567  1
  O  O45  1  0.11424367  0.46649833  0.06171933  1
  O  O46  1  0.53350167  0.64774533  0.06171933  1
  O  O47  1  0.35225467  0.88575633  0.06171933  1
  O  O48  1  0.55242300  0.86683500  0.27161400  1
  O  O49  1  0.13316500  0.68558800  0.27161400  1
  O  O50  1  0.31441200  0.44757700  0.27161400  1
  O  O51  1  0.48987200  0.17269300  0.21431900  1
  O  O52  1  0.98384567  0.82320533  0.11901433  1
  O  O53  1  0.83935967  0.01615433  0.11901433  1
  O  O54  1  0.17679467  0.16064033  0.11901433  1
  O  O55  1  0.68282100  0.51012800  0.21431900  1
  O  O56  1  0.82730700  0.31717900  0.21431900  1
