# generated using pymatgen
data_CaIn
_symmetry_space_group_name_H-M   'P 1'
_cell_length_a   7.43847800
_cell_length_b   7.43847800
_cell_length_c   8.33268000
_cell_angle_alpha   90.00000000
_cell_angle_beta   90.00000000
_cell_angle_gamma   90.00000000
_symmetry_Int_Tables_number   1
_chemical_formula_structural   CaIn
_chemical_formula_sum   'Ca8 In8'
_cell_volume   461.05514175
_cell_formula_units_Z   8
loop_
 _symmetry_equiv_pos_site_id
 _symmetry_equiv_pos_as_xyz
  1  'x, y, z'
loop_
 _atom_site_type_symbol
 _atom_site_label
 _atom_site_symmetry_multiplicity
 _atom_site_fract_x
 _atom_site_fract_y
 _atom_site_fract_z
 _atom_site_occupancy
  Ca  Ca0  1  0.00000000  0.50000000  0.25000000  1
  Ca  Ca1  1  0.50000000  0.00000000  0.25000000  1
  Ca  Ca2  1  0.00000000  0.00000000  0.71006000  1
  Ca  Ca3  1  0.00000000  0.00000000  0.28994000  1
  Ca  Ca4  1  0.50000000  0.00000000  0.75000000  1
  Ca  Ca5  1  0.00000000  0.50000000  0.75000000  1
  Ca  Ca6  1  0.50000000  0.50000000  0.21006000  1
  Ca  Ca7  1  0.50000000  0.50000000  0.78994000  1
  In  In8  1  0.27891500  0.27891500  0.50000000  1
  In  In9  1  0.72108500  0.27891500  0.50000000  1
  In  In10  1  0.27891500  0.72108500  0.50000000  1
  In  In11  1  0.22108500  0.22108500  0.00000000  1
  In  In12  1  0.77891500  0.77891500  0.00000000  1
  In  In13  1  0.22108500  0.77891500  0.00000000  1
  In  In14  1  0.77891500  0.22108500  0.00000000  1
  In  In15  1  0.72108500  0.72108500  0.50000000  1
