# generated using pymatgen
data_Zr9S2
_symmetry_space_group_name_H-M   'P 1'
_cell_length_a   9.79216400
_cell_length_b   9.79216400
_cell_length_c   19.39147600
_cell_angle_alpha   90.00000000
_cell_angle_beta   90.00000000
_cell_angle_gamma   90.00000000
_symmetry_Int_Tables_number   1
_chemical_formula_structural   Zr9S2
_chemical_formula_sum   'Zr72 S16'
_cell_volume   1859.38029426
_cell_formula_units_Z   8
loop_
 _symmetry_equiv_pos_site_id
 _symmetry_equiv_pos_as_xyz
  1  'x, y, z'
loop_
 _atom_site_type_symbol
 _atom_site_label
 _atom_site_symmetry_multiplicity
 _atom_site_fract_x
 _atom_site_fract_y
 _atom_site_fract_z
 _atom_site_occupancy
  Zr  Zr0  1  0.00000000  0.14839950  0.42627250  1
  Zr  Zr1  1  0.35160050  0.00000000  0.17627250  1
  Zr  Zr2  1  0.64839950  0.00000000  0.17627250  1
  Zr  Zr3  1  0.50000000  0.85160050  0.32372750  1
  Zr  Zr4  1  0.50000000  0.14839950  0.32372750  1
  Zr  Zr5  1  0.64839950  0.50000000  0.07372750  1
  Zr  Zr6  1  0.35160050  0.50000000  0.07372750  1
  Zr  Zr7  1  0.00000000  0.85160050  0.42627250  1
  Zr  Zr8  1  0.50000000  0.32788150  0.19356650  1
  Zr  Zr9  1  0.67211850  0.00000000  0.44356650  1
  Zr  Zr10  1  0.32788150  0.00000000  0.44356650  1
  Zr  Zr11  1  0.50000000  0.17211850  0.05643350  1
  Zr  Zr12  1  0.50000000  0.82788150  0.05643350  1
  Zr  Zr13  1  0.82788150  0.00000000  0.30643350  1
  Zr  Zr14  1  0.17211850  0.00000000  0.30643350  1
  Zr  Zr15  1  0.50000000  0.67211850  0.19356650  1
  Zr  Zr16  1  0.00000000  0.72027750  0.26765050  1
  Zr  Zr17  1  0.77972250  0.00000000  0.01765050  1
  Zr  Zr18  1  0.22027750  0.00000000  0.01765050  1
  Zr  Zr19  1  0.50000000  0.27972250  0.48234950  1
  Zr  Zr20  1  0.50000000  0.72027750  0.48234950  1
  Zr  Zr21  1  0.22027750  0.50000000  0.23234950  1
  Zr  Zr22  1  0.77972250  0.50000000  0.23234950  1
  Zr  Zr23  1  0.00000000  0.27972250  0.26765050  1
  Zr  Zr24  1  0.00000000  0.00000000  0.13499450  1
  Zr  Zr25  1  0.00000000  0.50000000  0.38499450  1
  Zr  Zr26  1  0.00000000  0.50000000  0.11500550  1
  Zr  Zr27  1  0.50000000  0.50000000  0.36500550  1
  Zr  Zr28  1  0.17912750  0.25000000  0.12500000  1
  Zr  Zr29  1  0.75000000  0.67912750  0.37500000  1
  Zr  Zr30  1  0.25000000  0.32087250  0.37500000  1
  Zr  Zr31  1  0.82087250  0.75000000  0.12500000  1
  Zr  Zr32  1  0.82087250  0.25000000  0.12500000  1
  Zr  Zr33  1  0.75000000  0.32087250  0.37500000  1
  Zr  Zr34  1  0.25000000  0.67912750  0.37500000  1
  Zr  Zr35  1  0.17912750  0.75000000  0.12500000  1
  Zr  Zr36  1  0.50000000  0.64839950  0.92627250  1
  Zr  Zr37  1  0.85160050  0.50000000  0.67627250  1
  Zr  Zr38  1  0.14839950  0.50000000  0.67627250  1
  Zr  Zr39  1  0.00000000  0.35160050  0.82372750  1
  Zr  Zr40  1  0.00000000  0.64839950  0.82372750  1
  Zr  Zr41  1  0.14839950  0.00000000  0.57372750  1
  Zr  Zr42  1  0.85160050  0.00000000  0.57372750  1
  Zr  Zr43  1  0.50000000  0.35160050  0.92627250  1
  Zr  Zr44  1  0.00000000  0.82788150  0.69356650  1
  Zr  Zr45  1  0.17211850  0.50000000  0.94356650  1
  Zr  Zr46  1  0.82788150  0.50000000  0.94356650  1
  Zr  Zr47  1  0.00000000  0.67211850  0.55643350  1
  Zr  Zr48  1  0.00000000  0.32788150  0.55643350  1
  Zr  Zr49  1  0.32788150  0.50000000  0.80643350  1
  Zr  Zr50  1  0.67211850  0.50000000  0.80643350  1
  Zr  Zr51  1  0.00000000  0.17211850  0.69356650  1
  Zr  Zr52  1  0.50000000  0.22027750  0.76765050  1
  Zr  Zr53  1  0.27972250  0.50000000  0.51765050  1
  Zr  Zr54  1  0.72027750  0.50000000  0.51765050  1
  Zr  Zr55  1  0.00000000  0.77972250  0.98234950  1
  Zr  Zr56  1  0.00000000  0.22027750  0.98234950  1
  Zr  Zr57  1  0.72027750  0.00000000  0.73234950  1
  Zr  Zr58  1  0.27972250  0.00000000  0.73234950  1
  Zr  Zr59  1  0.50000000  0.77972250  0.76765050  1
  Zr  Zr60  1  0.50000000  0.50000000  0.63499450  1
  Zr  Zr61  1  0.50000000  0.00000000  0.88499450  1
  Zr  Zr62  1  0.50000000  0.00000000  0.61500550  1
  Zr  Zr63  1  0.00000000  0.00000000  0.86500550  1
  Zr  Zr64  1  0.67912750  0.75000000  0.62500000  1
  Zr  Zr65  1  0.25000000  0.17912750  0.87500000  1
  Zr  Zr66  1  0.75000000  0.82087250  0.87500000  1
  Zr  Zr67  1  0.32087250  0.25000000  0.62500000  1
  Zr  Zr68  1  0.32087250  0.75000000  0.62500000  1
  Zr  Zr69  1  0.25000000  0.82087250  0.87500000  1
  Zr  Zr70  1  0.75000000  0.17912750  0.87500000  1
  Zr  Zr71  1  0.67912750  0.25000000  0.62500000  1
  S  S72  1  0.27211700  0.77211700  0.25000000  1
  S  S73  1  0.72788300  0.27211700  0.00000000  1
  S  S74  1  0.27211700  0.72788300  0.00000000  1
  S  S75  1  0.72788300  0.22788300  0.25000000  1
  S  S76  1  0.72788300  0.72788300  0.00000000  1
  S  S77  1  0.27211700  0.22788300  0.25000000  1
  S  S78  1  0.72788300  0.77211700  0.25000000  1
  S  S79  1  0.77211700  0.77211700  0.50000000  1
  S  S80  1  0.77211700  0.27211700  0.75000000  1
  S  S81  1  0.22788300  0.77211700  0.50000000  1
  S  S82  1  0.77211700  0.22788300  0.50000000  1
  S  S83  1  0.22788300  0.72788300  0.75000000  1
  S  S84  1  0.22788300  0.22788300  0.50000000  1
  S  S85  1  0.77211700  0.72788300  0.75000000  1
  S  S86  1  0.22788300  0.27211700  0.75000000  1
  S  S87  1  0.27211700  0.27211700  0.00000000  1
