# generated using pymatgen
data_CsUCuTe3
_symmetry_space_group_name_H-M   'P 1'
_cell_length_a   4.37274400
_cell_length_b   17.36695600
_cell_length_c   11.29624300
_cell_angle_alpha   90.00000000
_cell_angle_beta   90.00000000
_cell_angle_gamma   90.00000000
_symmetry_Int_Tables_number   1
_chemical_formula_structural   CsUCuTe3
_chemical_formula_sum   'Cs4 U4 Cu4 Te12'
_cell_volume   857.85084363
_cell_formula_units_Z   4
loop_
 _symmetry_equiv_pos_site_id
 _symmetry_equiv_pos_as_xyz
  1  'x, y, z'
loop_
 _atom_site_type_symbol
 _atom_site_label
 _atom_site_symmetry_multiplicity
 _atom_site_fract_x
 _atom_site_fract_y
 _atom_site_fract_z
 _atom_site_occupancy
  Cs  Cs0  1  0.50000000  0.24349400  0.25000000  1
  Cs  Cs1  1  0.00000000  0.25650600  0.75000000  1
  Cs  Cs2  1  0.00000000  0.74349400  0.25000000  1
  Cs  Cs3  1  0.50000000  0.75650600  0.75000000  1
  U  U4  1  0.00000000  0.00000000  0.00000000  1
  U  U5  1  0.00000000  0.00000000  0.50000000  1
  U  U6  1  0.50000000  0.50000000  0.00000000  1
  U  U7  1  0.50000000  0.50000000  0.50000000  1
  Cu  Cu8  1  0.00000000  0.46685100  0.25000000  1
  Cu  Cu9  1  0.50000000  0.03314900  0.75000000  1
  Cu  Cu10  1  0.50000000  0.96685100  0.25000000  1
  Cu  Cu11  1  0.00000000  0.53314900  0.75000000  1
  Te  Te12  1  0.00000000  0.38319500  0.44087000  1
  Te  Te13  1  0.50000000  0.11680500  0.94087000  1
  Te  Te14  1  0.50000000  0.11680500  0.55913000  1
  Te  Te15  1  0.00000000  0.38319500  0.05913000  1
  Te  Te16  1  0.50000000  0.44341500  0.75000000  1
  Te  Te17  1  0.00000000  0.05658500  0.25000000  1
  Te  Te18  1  0.50000000  0.88319500  0.44087000  1
  Te  Te19  1  0.00000000  0.61680500  0.94087000  1
  Te  Te20  1  0.00000000  0.61680500  0.55913000  1
  Te  Te21  1  0.50000000  0.88319500  0.05913000  1
  Te  Te22  1  0.00000000  0.94341500  0.75000000  1
  Te  Te23  1  0.50000000  0.55658500  0.25000000  1
