# generated using pymatgen
data_K3(PtO2)2
_symmetry_space_group_name_H-M   'P 1'
_cell_length_a   6.15994800
_cell_length_b   9.39415400
_cell_length_c   11.79592800
_cell_angle_alpha   90.00000000
_cell_angle_beta   90.00000000
_cell_angle_gamma   90.00000000
_symmetry_Int_Tables_number   1
_chemical_formula_structural   K3(PtO2)2
_chemical_formula_sum   'K12 Pt8 O16'
_cell_volume   682.60086524
_cell_formula_units_Z   4
loop_
 _symmetry_equiv_pos_site_id
 _symmetry_equiv_pos_as_xyz
  1  'x, y, z'
loop_
 _atom_site_type_symbol
 _atom_site_label
 _atom_site_symmetry_multiplicity
 _atom_site_fract_x
 _atom_site_fract_y
 _atom_site_fract_z
 _atom_site_occupancy
  K  K0  1  0.50000000  0.14816800  0.93227400  1
  K  K1  1  0.50000000  0.85183200  0.43227400  1
  K  K2  1  0.50000000  0.85183200  0.06772600  1
  K  K3  1  0.50000000  0.14816800  0.56772600  1
  K  K4  1  0.50000000  0.78939300  0.75000000  1
  K  K5  1  0.50000000  0.21060700  0.25000000  1
  K  K6  1  0.00000000  0.64816800  0.93227400  1
  K  K7  1  0.00000000  0.35183200  0.43227400  1
  K  K8  1  0.00000000  0.35183200  0.06772600  1
  K  K9  1  0.00000000  0.64816800  0.56772600  1
  K  K10  1  0.00000000  0.28939300  0.75000000  1
  K  K11  1  0.00000000  0.71060700  0.25000000  1
  Pt  Pt12  1  0.00000000  0.00000000  0.00000000  1
  Pt  Pt13  1  0.00000000  0.00000000  0.50000000  1
  Pt  Pt14  1  0.50000000  0.42186000  0.75000000  1
  Pt  Pt15  1  0.50000000  0.57814000  0.25000000  1
  Pt  Pt16  1  0.50000000  0.50000000  0.00000000  1
  Pt  Pt17  1  0.50000000  0.50000000  0.50000000  1
  Pt  Pt18  1  0.00000000  0.92186000  0.75000000  1
  Pt  Pt19  1  0.00000000  0.07814000  0.25000000  1
  O  O20  1  0.79154450  0.08103950  0.11586800  1
  O  O21  1  0.20845550  0.91896050  0.61586800  1
  O  O22  1  0.79154450  0.91896050  0.88413200  1
  O  O23  1  0.20845550  0.08103950  0.38413200  1
  O  O24  1  0.20845550  0.91896050  0.88413200  1
  O  O25  1  0.79154450  0.08103950  0.38413200  1
  O  O26  1  0.20845550  0.08103950  0.11586800  1
  O  O27  1  0.79154450  0.91896050  0.61586800  1
  O  O28  1  0.29154450  0.58103950  0.11586800  1
  O  O29  1  0.70845550  0.41896050  0.61586800  1
  O  O30  1  0.29154450  0.41896050  0.88413200  1
  O  O31  1  0.70845550  0.58103950  0.38413200  1
  O  O32  1  0.70845550  0.41896050  0.88413200  1
  O  O33  1  0.29154450  0.58103950  0.38413200  1
  O  O34  1  0.70845550  0.58103950  0.11586800  1
  O  O35  1  0.29154450  0.41896050  0.61586800  1
