# generated using pymatgen
data_Ge2Pt3
_symmetry_space_group_name_H-M   'P 1'
_cell_length_a   3.54311000
_cell_length_b   12.25718400
_cell_length_c   7.67381300
_cell_angle_alpha   90.00000000
_cell_angle_beta   90.00000000
_cell_angle_gamma   90.00000000
_symmetry_Int_Tables_number   1
_chemical_formula_structural   Ge2Pt3
_chemical_formula_sum   'Ge8 Pt12'
_cell_volume   333.26258079
_cell_formula_units_Z   4
loop_
 _symmetry_equiv_pos_site_id
 _symmetry_equiv_pos_as_xyz
  1  'x, y, z'
loop_
 _atom_site_type_symbol
 _atom_site_label
 _atom_site_symmetry_multiplicity
 _atom_site_fract_x
 _atom_site_fract_y
 _atom_site_fract_z
 _atom_site_occupancy
  Ge  Ge0  1  0.50000000  0.00000000  0.50000000  1
  Ge  Ge1  1  0.00000000  0.24448700  0.75000000  1
  Ge  Ge2  1  0.50000000  0.00000000  0.00000000  1
  Ge  Ge3  1  0.50000000  0.25551300  0.25000000  1
  Ge  Ge4  1  0.00000000  0.50000000  0.50000000  1
  Ge  Ge5  1  0.50000000  0.74448700  0.75000000  1
  Ge  Ge6  1  0.00000000  0.50000000  0.00000000  1
  Ge  Ge7  1  0.00000000  0.75551300  0.25000000  1
  Pt  Pt8  1  0.00000000  0.16057500  0.44188900  1
  Pt  Pt9  1  0.50000000  0.33942500  0.94188900  1
  Pt  Pt10  1  0.50000000  0.46632700  0.25000000  1
  Pt  Pt11  1  0.50000000  0.33942500  0.55811100  1
  Pt  Pt12  1  0.00000000  0.03367300  0.75000000  1
  Pt  Pt13  1  0.00000000  0.16057500  0.05811100  1
  Pt  Pt14  1  0.50000000  0.66057500  0.44188900  1
  Pt  Pt15  1  0.00000000  0.83942500  0.94188900  1
  Pt  Pt16  1  0.00000000  0.96632700  0.25000000  1
  Pt  Pt17  1  0.00000000  0.83942500  0.55811100  1
  Pt  Pt18  1  0.50000000  0.53367300  0.75000000  1
  Pt  Pt19  1  0.50000000  0.66057500  0.05811100  1
