# generated using pymatgen
data_BiO2
_symmetry_space_group_name_H-M   'P 1'
_cell_length_a   4.15979200
_cell_length_b   6.66686200
_cell_length_c   15.47103000
_cell_angle_alpha   90.00000000
_cell_angle_beta   90.00000000
_cell_angle_gamma   90.00000000
_symmetry_Int_Tables_number   1
_chemical_formula_structural   BiO2
_chemical_formula_sum   'Bi8 O16'
_cell_volume   429.05434976
_cell_formula_units_Z   8
loop_
 _symmetry_equiv_pos_site_id
 _symmetry_equiv_pos_as_xyz
  1  'x, y, z'
loop_
 _atom_site_type_symbol
 _atom_site_label
 _atom_site_symmetry_multiplicity
 _atom_site_fract_x
 _atom_site_fract_y
 _atom_site_fract_z
 _atom_site_occupancy
  Bi  Bi0  1  0.50000000  0.21756300  0.11183600  1
  Bi  Bi1  1  0.50000000  0.71756300  0.38816400  1
  Bi  Bi2  1  0.00000000  0.78243700  0.11183600  1
  Bi  Bi3  1  0.00000000  0.28243700  0.38816400  1
  Bi  Bi4  1  0.00000000  0.71756300  0.61183600  1
  Bi  Bi5  1  0.00000000  0.21756300  0.88816400  1
  Bi  Bi6  1  0.50000000  0.28243700  0.61183600  1
  Bi  Bi7  1  0.50000000  0.78243700  0.88816400  1
  O  O8  1  0.50000000  0.21301200  0.25043600  1
  O  O9  1  0.50000000  0.39103200  0.41319900  1
  O  O10  1  0.00000000  0.60896800  0.41319900  1
  O  O11  1  0.50000000  0.71301200  0.24956400  1
  O  O12  1  0.00000000  0.28698800  0.24956400  1
  O  O13  1  0.00000000  0.10896800  0.08680100  1
  O  O14  1  0.50000000  0.89103200  0.08680100  1
  O  O15  1  0.00000000  0.78698800  0.25043600  1
  O  O16  1  0.00000000  0.71301200  0.75043600  1
  O  O17  1  0.00000000  0.89103200  0.91319900  1
  O  O18  1  0.50000000  0.10896800  0.91319900  1
  O  O19  1  0.00000000  0.21301200  0.74956400  1
  O  O20  1  0.50000000  0.78698800  0.74956400  1
  O  O21  1  0.50000000  0.60896800  0.58680100  1
  O  O22  1  0.00000000  0.39103200  0.58680100  1
  O  O23  1  0.50000000  0.28698800  0.75043600  1
