# generated using pymatgen
data_NaMn3P3(HO6)2
_symmetry_space_group_name_H-M   'P 1'
_cell_length_a   12.29581600
_cell_length_b   12.53936800
_cell_length_c   6.74816483
_cell_angle_alpha   90.00000000
_cell_angle_beta   114.61884204
_cell_angle_gamma   90.00000000
_symmetry_Int_Tables_number   1
_chemical_formula_structural   NaMn3P3(HO6)2
_chemical_formula_sum   'Na4 Mn12 P12 H8 O48'
_cell_volume   945.86671667
_cell_formula_units_Z   4
loop_
 _symmetry_equiv_pos_site_id
 _symmetry_equiv_pos_as_xyz
  1  'x, y, z'
loop_
 _atom_site_type_symbol
 _atom_site_label
 _atom_site_symmetry_multiplicity
 _atom_site_fract_x
 _atom_site_fract_y
 _atom_site_fract_z
 _atom_site_occupancy
  Na  Na0  1  0.50000000  0.52313200  0.75000000  1
  Na  Na1  1  0.50000000  0.47686800  0.25000000  1
  Na  Na2  1  0.00000000  0.02313200  0.75000000  1
  Na  Na3  1  0.00000000  0.97686800  0.25000000  1
  Mn  Mn4  1  0.21186950  0.16141950  0.12796200  1
  Mn  Mn5  1  0.78813050  0.16141950  0.37203800  1
  Mn  Mn6  1  0.50000000  0.21691700  0.75000000  1
  Mn  Mn7  1  0.50000000  0.78308300  0.25000000  1
  Mn  Mn8  1  0.78813050  0.83858050  0.87203800  1
  Mn  Mn9  1  0.21186950  0.83858050  0.62796200  1
  Mn  Mn10  1  0.71186950  0.66141950  0.12796200  1
  Mn  Mn11  1  0.28813050  0.66141950  0.37203800  1
  Mn  Mn12  1  0.00000000  0.71691700  0.75000000  1
  Mn  Mn13  1  0.00000000  0.28308300  0.25000000  1
  Mn  Mn14  1  0.28813050  0.33858050  0.87203800  1
  Mn  Mn15  1  0.71186950  0.33858050  0.62796200  1
  P  P16  1  0.78666750  0.89013050  0.38856200  1
  P  P17  1  0.78666750  0.10986950  0.88856200  1
  P  P18  1  0.50000000  0.82142500  0.75000000  1
  P  P19  1  0.50000000  0.17857500  0.25000000  1
  P  P20  1  0.21333250  0.89013050  0.11143800  1
  P  P21  1  0.21333250  0.10986950  0.61143800  1
  P  P22  1  0.28666750  0.39013050  0.38856200  1
  P  P23  1  0.28666750  0.60986950  0.88856200  1
  P  P24  1  0.00000000  0.32142500  0.75000000  1
  P  P25  1  0.00000000  0.67857500  0.25000000  1
  P  P26  1  0.71333250  0.39013050  0.11143800  1
  P  P27  1  0.71333250  0.60986950  0.61143800  1
  H  H28  1  0.62378650  0.00550150  0.81154200  1
  H  H29  1  0.37621350  0.00550150  0.68845800  1
  H  H30  1  0.37621350  0.99449850  0.18845800  1
  H  H31  1  0.62378650  0.99449850  0.31154200  1
  H  H32  1  0.12378650  0.50550150  0.81154200  1
  H  H33  1  0.87621350  0.50550150  0.68845800  1
  H  H34  1  0.87621350  0.49449850  0.18845800  1
  H  H35  1  0.12378650  0.49449850  0.31154200  1
  O  O36  1  0.35026100  0.08756000  0.65299700  1
  O  O37  1  0.15024600  0.00214600  0.59734900  1
  O  O38  1  0.15024600  0.99785400  0.09734900  1
  O  O39  1  0.84975400  0.99785400  0.40265100  1
  O  O40  1  0.21342100  0.17714700  0.80122200  1
  O  O41  1  0.78657900  0.17714700  0.69877800  1
  O  O42  1  0.78657900  0.82285300  0.19877800  1
  O  O43  1  0.21342100  0.82285300  0.30122200  1
  O  O44  1  0.64973900  0.08756000  0.84700300  1
  O  O45  1  0.84975400  0.00214600  0.90265100  1
  O  O46  1  0.46356550  0.74974750  0.54230800  1
  O  O47  1  0.53643450  0.74974750  0.95769200  1
  O  O48  1  0.53643450  0.25025250  0.45769200  1
  O  O49  1  0.46356550  0.25025250  0.04230800  1
  O  O50  1  0.60556150  0.10533550  0.26497300  1
  O  O51  1  0.39443850  0.10533550  0.23502700  1
  O  O52  1  0.39443850  0.89466450  0.73502700  1
  O  O53  1  0.35026100  0.91244000  0.15299700  1
  O  O54  1  0.34704000  0.67023900  0.10785200  1
  O  O55  1  0.65296000  0.67023900  0.39214800  1
  O  O56  1  0.65296000  0.32976100  0.89214800  1
  O  O57  1  0.34704000  0.32976100  0.60785200  1
  O  O58  1  0.64973900  0.91244000  0.34700300  1
  O  O59  1  0.60556150  0.89466450  0.76497300  1
  O  O60  1  0.85026100  0.58756000  0.65299700  1
  O  O61  1  0.65024600  0.50214600  0.59734900  1
  O  O62  1  0.65024600  0.49785400  0.09734900  1
  O  O63  1  0.34975400  0.49785400  0.40265100  1
  O  O64  1  0.71342100  0.67714700  0.80122200  1
  O  O65  1  0.28657900  0.67714700  0.69877800  1
  O  O66  1  0.28657900  0.32285300  0.19877800  1
  O  O67  1  0.71342100  0.32285300  0.30122200  1
  O  O68  1  0.14973900  0.58756000  0.84700300  1
  O  O69  1  0.34975400  0.50214600  0.90265100  1
  O  O70  1  0.96356550  0.24974750  0.54230800  1
  O  O71  1  0.03643450  0.24974750  0.95769200  1
  O  O72  1  0.03643450  0.75025250  0.45769200  1
  O  O73  1  0.96356550  0.75025250  0.04230800  1
  O  O74  1  0.10556150  0.60533550  0.26497300  1
  O  O75  1  0.89443850  0.60533550  0.23502700  1
  O  O76  1  0.89443850  0.39466450  0.73502700  1
  O  O77  1  0.85026100  0.41244000  0.15299700  1
  O  O78  1  0.84704000  0.17023900  0.10785200  1
  O  O79  1  0.15296000  0.17023900  0.39214800  1
  O  O80  1  0.15296000  0.82976100  0.89214800  1
  O  O81  1  0.84704000  0.82976100  0.60785200  1
  O  O82  1  0.14973900  0.41244000  0.34700300  1
  O  O83  1  0.10556150  0.39466450  0.76497300  1
