# generated using pymatgen
data_Mo3Se4
_symmetry_space_group_name_H-M   'P 1'
_cell_length_a   9.68635997
_cell_length_b   9.68635997
_cell_length_c   11.35788866
_cell_angle_alpha   90.00000000
_cell_angle_beta   90.00000000
_cell_angle_gamma   120.00000000
_symmetry_Int_Tables_number   1
_chemical_formula_structural   Mo3Se4
_chemical_formula_sum   'Mo18 Se24'
_cell_volume   922.88895289
_cell_formula_units_Z   6
loop_
 _symmetry_equiv_pos_site_id
 _symmetry_equiv_pos_as_xyz
  1  'x, y, z'
loop_
 _atom_site_type_symbol
 _atom_site_label
 _atom_site_symmetry_multiplicity
 _atom_site_fract_x
 _atom_site_fract_y
 _atom_site_fract_z
 _atom_site_occupancy
  Mo  Mo0  1  0.98123233  0.15088167  0.60463667  1
  Mo  Mo1  1  0.84911833  0.83035067  0.60463667  1
  Mo  Mo2  1  0.16964933  0.01876767  0.60463667  1
  Mo  Mo3  1  0.01876767  0.84911833  0.39536333  1
  Mo  Mo4  1  0.15088167  0.16964933  0.39536333  1
  Mo  Mo5  1  0.83035067  0.98123233  0.39536333  1
  Mo  Mo6  1  0.64789900  0.48421500  0.93797000  1
  Mo  Mo7  1  0.51578500  0.16368400  0.93797000  1
  Mo  Mo8  1  0.83631600  0.35210100  0.93797000  1
  Mo  Mo9  1  0.68543433  0.18245167  0.72869667  1
  Mo  Mo10  1  0.81754833  0.50298267  0.72869667  1
  Mo  Mo11  1  0.49701733  0.31456567  0.72869667  1
  Mo  Mo12  1  0.31456567  0.81754833  0.27130333  1
  Mo  Mo13  1  0.18245167  0.49701733  0.27130333  1
  Mo  Mo14  1  0.50298267  0.68543433  0.27130333  1
  Mo  Mo15  1  0.35210100  0.51578500  0.06203000  1
  Mo  Mo16  1  0.48421500  0.83631600  0.06203000  1
  Mo  Mo17  1  0.16368400  0.64789900  0.06203000  1
  Se  Se18  1  0.00000000  0.00000000  0.78358600  1
  Se  Se19  1  0.00000000  0.00000000  0.21641400  1
  Se  Se20  1  0.28935133  0.32547767  0.58245167  1
  Se  Se21  1  0.67452233  0.96387367  0.58245167  1
  Se  Se22  1  0.03612633  0.71064867  0.58245167  1
  Se  Se23  1  0.71064867  0.67452233  0.41754833  1
  Se  Se24  1  0.32547767  0.03612633  0.41754833  1
  Se  Se25  1  0.96387367  0.28935133  0.41754833  1
  Se  Se26  1  0.66666667  0.33333333  0.11691933  1
  Se  Se27  1  0.66666667  0.33333333  0.54974733  1
  Se  Se28  1  0.95601800  0.65881100  0.91578500  1
  Se  Se29  1  0.34118900  0.29720700  0.91578500  1
  Se  Se30  1  0.70279300  0.04398200  0.91578500  1
  Se  Se31  1  0.37731533  0.00785567  0.75088167  1
  Se  Se32  1  0.99214433  0.36945967  0.75088167  1
  Se  Se33  1  0.63054033  0.62268467  0.75088167  1
  Se  Se34  1  0.33333333  0.66666667  0.45025267  1
  Se  Se35  1  0.33333333  0.66666667  0.88308067  1
  Se  Se36  1  0.62268467  0.99214433  0.24911833  1
  Se  Se37  1  0.00785567  0.63054033  0.24911833  1
  Se  Se38  1  0.36945967  0.37731533  0.24911833  1
  Se  Se39  1  0.04398200  0.34118900  0.08421500  1
  Se  Se40  1  0.65881100  0.70279300  0.08421500  1
  Se  Se41  1  0.29720700  0.95601800  0.08421500  1
