# generated using pymatgen
data_Tl5(Cu7Se5)2
_symmetry_space_group_name_H-M   'P 1'
_cell_length_a   18.42241800
_cell_length_b   3.93022600
_cell_length_c   18.45442460
_cell_angle_alpha   90.00000000
_cell_angle_beta   118.07015018
_cell_angle_gamma   90.00000000
_symmetry_Int_Tables_number   1
_chemical_formula_structural   Tl5(Cu7Se5)2
_chemical_formula_sum   'Tl10 Cu28 Se20'
_cell_volume   1179.00717750
_cell_formula_units_Z   2
loop_
 _symmetry_equiv_pos_site_id
 _symmetry_equiv_pos_as_xyz
  1  'x, y, z'
loop_
 _atom_site_type_symbol
 _atom_site_label
 _atom_site_symmetry_multiplicity
 _atom_site_fract_x
 _atom_site_fract_y
 _atom_site_fract_z
 _atom_site_occupancy
  Tl  Tl0  1  0.72273200  0.50000000  0.17862700  1
  Tl  Tl1  1  0.27726800  0.50000000  0.82137300  1
  Tl  Tl2  1  0.88694000  0.00000000  0.40115900  1
  Tl  Tl3  1  0.11306000  0.00000000  0.59884100  1
  Tl  Tl4  1  0.00000000  0.00000000  0.00000000  1
  Tl  Tl5  1  0.22273200  0.00000000  0.17862700  1
  Tl  Tl6  1  0.77726800  0.00000000  0.82137300  1
  Tl  Tl7  1  0.38694000  0.50000000  0.40115900  1
  Tl  Tl8  1  0.61306000  0.50000000  0.59884100  1
  Tl  Tl9  1  0.50000000  0.50000000  0.00000000  1
  Cu  Cu10  1  0.02421400  0.00000000  0.21611300  1
  Cu  Cu11  1  0.09005300  0.00000000  0.38040900  1
  Cu  Cu12  1  0.90994700  0.00000000  0.61959100  1
  Cu  Cu13  1  0.13580800  0.50000000  0.31426400  1
  Cu  Cu14  1  0.86419200  0.50000000  0.68573600  1
  Cu  Cu15  1  0.08069800  0.50000000  0.87213200  1
  Cu  Cu16  1  0.91930200  0.50000000  0.12786800  1
  Cu  Cu17  1  0.19572100  0.50000000  0.46954400  1
  Cu  Cu18  1  0.80427900  0.50000000  0.53045600  1
  Cu  Cu19  1  0.80921000  0.00000000  0.04798600  1
  Cu  Cu20  1  0.19079000  0.00000000  0.95201400  1
  Cu  Cu21  1  0.02354200  0.50000000  0.71772700  1
  Cu  Cu22  1  0.97645800  0.50000000  0.28227300  1
  Cu  Cu23  1  0.97578600  0.00000000  0.78388700  1
  Cu  Cu24  1  0.52421400  0.50000000  0.21611300  1
  Cu  Cu25  1  0.59005300  0.50000000  0.38040900  1
  Cu  Cu26  1  0.40994700  0.50000000  0.61959100  1
  Cu  Cu27  1  0.63580800  0.00000000  0.31426400  1
  Cu  Cu28  1  0.36419200  0.00000000  0.68573600  1
  Cu  Cu29  1  0.58069800  0.00000000  0.87213200  1
  Cu  Cu30  1  0.41930200  0.00000000  0.12786800  1
  Cu  Cu31  1  0.69572100  0.00000000  0.46954400  1
  Cu  Cu32  1  0.30427900  0.00000000  0.53045600  1
  Cu  Cu33  1  0.30921000  0.50000000  0.04798600  1
  Cu  Cu34  1  0.69079000  0.50000000  0.95201400  1
  Cu  Cu35  1  0.52354200  0.00000000  0.71772700  1
  Cu  Cu36  1  0.47645800  0.00000000  0.28227300  1
  Cu  Cu37  1  0.47578600  0.50000000  0.78388700  1
  Se  Se38  1  0.95548800  0.50000000  0.57050100  1
  Se  Se39  1  0.72730400  0.50000000  0.38301700  1
  Se  Se40  1  0.92974900  0.50000000  0.83207300  1
  Se  Se41  1  0.07025100  0.50000000  0.16792700  1
  Se  Se42  1  0.04451200  0.50000000  0.42949900  1
  Se  Se43  1  0.88453600  0.00000000  0.20632600  1
  Se  Se44  1  0.11546400  0.00000000  0.79367400  1
  Se  Se45  1  0.66314900  0.00000000  0.01890400  1
  Se  Se46  1  0.33685100  0.00000000  0.98109600  1
  Se  Se47  1  0.27269600  0.50000000  0.61698300  1
  Se  Se48  1  0.45548800  0.00000000  0.57050100  1
  Se  Se49  1  0.22730400  0.00000000  0.38301700  1
  Se  Se50  1  0.42974900  0.00000000  0.83207300  1
  Se  Se51  1  0.57025100  0.00000000  0.16792700  1
  Se  Se52  1  0.54451200  0.00000000  0.42949900  1
  Se  Se53  1  0.38453600  0.50000000  0.20632600  1
  Se  Se54  1  0.61546400  0.50000000  0.79367400  1
  Se  Se55  1  0.16314900  0.50000000  0.01890400  1
  Se  Se56  1  0.83685100  0.50000000  0.98109600  1
  Se  Se57  1  0.77269600  0.00000000  0.61698300  1
