# generated using pymatgen
data_Ce7O12
_symmetry_space_group_name_H-M   'P 1'
_cell_length_a   10.37020341
_cell_length_b   10.37020341
_cell_length_c   9.59982202
_cell_angle_alpha   90.00000000
_cell_angle_beta   90.00000000
_cell_angle_gamma   120.00000000
_symmetry_Int_Tables_number   1
_chemical_formula_structural   Ce7O12
_chemical_formula_sum   'Ce21 O36'
_cell_volume   894.06349567
_cell_formula_units_Z   3
loop_
 _symmetry_equiv_pos_site_id
 _symmetry_equiv_pos_as_xyz
  1  'x, y, z'
loop_
 _atom_site_type_symbol
 _atom_site_label
 _atom_site_symmetry_multiplicity
 _atom_site_fract_x
 _atom_site_fract_y
 _atom_site_fract_z
 _atom_site_occupancy
  Ce  Ce0  1  0.04647767  0.79190833  0.65366533  1
  Ce  Ce1  1  0.20809167  0.25456933  0.65366533  1
  Ce  Ce2  1  0.74543067  0.95352233  0.65366533  1
  Ce  Ce3  1  0.95352233  0.20809167  0.34633467  1
  Ce  Ce4  1  0.79190833  0.74543067  0.34633467  1
  Ce  Ce5  1  0.25456933  0.04647767  0.34633467  1
  Ce  Ce6  1  0.00000000  0.00000000  0.00000000  1
  Ce  Ce7  1  0.71314433  0.12524167  0.98699867  1
  Ce  Ce8  1  0.87475833  0.58790267  0.98699867  1
  Ce  Ce9  1  0.41209733  0.28685567  0.98699867  1
  Ce  Ce10  1  0.62018900  0.54142500  0.67966800  1
  Ce  Ce11  1  0.45857500  0.07876400  0.67966800  1
  Ce  Ce12  1  0.92123600  0.37981100  0.67966800  1
  Ce  Ce13  1  0.66666667  0.33333333  0.33333333  1
  Ce  Ce14  1  0.37981100  0.45857500  0.32033200  1
  Ce  Ce15  1  0.54142500  0.92123600  0.32033200  1
  Ce  Ce16  1  0.07876400  0.62018900  0.32033200  1
  Ce  Ce17  1  0.28685567  0.87475833  0.01300133  1
  Ce  Ce18  1  0.12524167  0.41209733  0.01300133  1
  Ce  Ce19  1  0.58790267  0.71314433  0.01300133  1
  Ce  Ce20  1  0.33333333  0.66666667  0.66666667  1
  O  O21  1  0.36992433  0.48859267  0.56036067  1
  O  O22  1  0.51140733  0.88133167  0.56036067  1
  O  O23  1  0.11866833  0.63007567  0.56036067  1
  O  O24  1  0.63007567  0.51140733  0.43963933  1
  O  O25  1  0.48859267  0.11866833  0.43963933  1
  O  O26  1  0.88133167  0.36992433  0.43963933  1
  O  O27  1  0.21987500  0.03488300  0.60243700  1
  O  O28  1  0.18499200  0.21987500  0.39756300  1
  O  O29  1  0.03488300  0.81500800  0.39756300  1
  O  O30  1  0.78012500  0.96511700  0.39756300  1
  O  O31  1  0.81500800  0.78012500  0.60243700  1
  O  O32  1  0.96511700  0.18499200  0.60243700  1
  O  O33  1  0.03659100  0.82192600  0.89369400  1
  O  O34  1  0.17807400  0.21466500  0.89369400  1
  O  O35  1  0.78533500  0.96340900  0.89369400  1
  O  O36  1  0.29674233  0.84474067  0.77297267  1
  O  O37  1  0.15525933  0.45200167  0.77297267  1
  O  O38  1  0.54799833  0.70325767  0.77297267  1
  O  O39  1  0.88654167  0.36821633  0.93577033  1
  O  O40  1  0.85165867  0.55320833  0.73089633  1
  O  O41  1  0.70154967  0.14834133  0.73089633  1
  O  O42  1  0.44679167  0.29845033  0.73089633  1
  O  O43  1  0.48167467  0.11345833  0.93577033  1
  O  O44  1  0.63178367  0.51832533  0.93577033  1
  O  O45  1  0.70325767  0.15525933  0.22702733  1
  O  O46  1  0.84474067  0.54799833  0.22702733  1
  O  O47  1  0.45200167  0.29674233  0.22702733  1
  O  O48  1  0.96340900  0.17807400  0.10630600  1
  O  O49  1  0.82192600  0.78533500  0.10630600  1
  O  O50  1  0.21466500  0.03659100  0.10630600  1
  O  O51  1  0.55320833  0.70154967  0.26910367  1
  O  O52  1  0.51832533  0.88654167  0.06422967  1
  O  O53  1  0.36821633  0.48167467  0.06422967  1
  O  O54  1  0.11345833  0.63178367  0.06422967  1
  O  O55  1  0.14834133  0.44679167  0.26910367  1
  O  O56  1  0.29845033  0.85165867  0.26910367  1
