# generated using pymatgen
data_Sr2Co(BrO)2
_symmetry_space_group_name_H-M   'P 1'
_cell_length_a   4.10257590
_cell_length_b   4.10257590
_cell_length_c   17.35915652
_cell_angle_alpha   90.00000000
_cell_angle_beta   90.00000000
_cell_angle_gamma   90.00000000
_symmetry_Int_Tables_number   1
_chemical_formula_structural   Sr2Co(BrO)2
_chemical_formula_sum   'Sr4 Co2 Br4 O4'
_cell_volume   292.17420238
_cell_formula_units_Z   2
loop_
 _symmetry_equiv_pos_site_id
 _symmetry_equiv_pos_as_xyz
  1  'x, y, z'
loop_
 _atom_site_type_symbol
 _atom_site_label
 _atom_site_symmetry_multiplicity
 _atom_site_fract_x
 _atom_site_fract_y
 _atom_site_fract_z
 _atom_site_occupancy
  Sr  Sr0  1  0.00000000  0.00000000  0.40524950  1
  Sr  Sr1  1  0.50000000  0.50000000  0.09475050  1
  Sr  Sr2  1  0.50000000  0.50000000  0.90524950  1
  Sr  Sr3  1  0.00000000  0.00000000  0.59475050  1
  Co  Co4  1  0.00000000  0.00000000  0.00000000  1
  Co  Co5  1  0.50000000  0.50000000  0.50000000  1
  Br  Br6  1  0.00000000  0.00000000  0.17256450  1
  Br  Br7  1  0.50000000  0.50000000  0.32743550  1
  Br  Br8  1  0.50000000  0.50000000  0.67256450  1
  Br  Br9  1  0.00000000  0.00000000  0.82743550  1
  O  O10  1  0.00000000  0.50000000  0.00000000  1
  O  O11  1  0.50000000  0.00000000  0.00000000  1
  O  O12  1  0.50000000  0.00000000  0.50000000  1
  O  O13  1  0.00000000  0.50000000  0.50000000  1
