# generated using pymatgen
data_Te7Pd20
_symmetry_space_group_name_H-M   'P 1'
_cell_length_a   12.03401625
_cell_length_b   12.03401625
_cell_length_c   11.36908629
_cell_angle_alpha   90.00000000
_cell_angle_beta   90.00000000
_cell_angle_gamma   120.00000000
_symmetry_Int_Tables_number   1
_chemical_formula_structural   Te7Pd20
_chemical_formula_sum   'Te21 Pd60'
_cell_volume   1425.86162649
_cell_formula_units_Z   3
loop_
 _symmetry_equiv_pos_site_id
 _symmetry_equiv_pos_as_xyz
  1  'x, y, z'
loop_
 _atom_site_type_symbol
 _atom_site_label
 _atom_site_symmetry_multiplicity
 _atom_site_fract_x
 _atom_site_fract_y
 _atom_site_fract_z
 _atom_site_occupancy
  Te  Te0  1  0.00000000  0.00000000  0.00000000  1
  Te  Te1  1  0.19301100  0.23148900  0.68583200  1
  Te  Te2  1  0.03847800  0.80698900  0.68583200  1
  Te  Te3  1  0.76851100  0.96152200  0.68583200  1
  Te  Te4  1  0.80698900  0.76851100  0.31416800  1
  Te  Te5  1  0.96152200  0.19301100  0.31416800  1
  Te  Te6  1  0.23148900  0.03847800  0.31416800  1
  Te  Te7  1  0.66666667  0.33333333  0.33333333  1
  Te  Te8  1  0.85967767  0.56482233  0.01916533  1
  Te  Te9  1  0.70514467  0.14032233  0.01916533  1
  Te  Te10  1  0.43517767  0.29485533  0.01916533  1
  Te  Te11  1  0.47365567  0.10184433  0.64750133  1
  Te  Te12  1  0.62818867  0.52634433  0.64750133  1
  Te  Te13  1  0.89815567  0.37181133  0.64750133  1
  Te  Te14  1  0.33333333  0.66666667  0.66666667  1
  Te  Te15  1  0.52634433  0.89815567  0.35249867  1
  Te  Te16  1  0.37181133  0.47365567  0.35249867  1
  Te  Te17  1  0.10184433  0.62818867  0.35249867  1
  Te  Te18  1  0.14032233  0.43517767  0.98083467  1
  Te  Te19  1  0.29485533  0.85967767  0.98083467  1
  Te  Te20  1  0.56482233  0.70514467  0.98083467  1
  Pd  Pd21  1  0.00000000  0.00000000  0.37982400  1
  Pd  Pd22  1  0.00000000  0.00000000  0.62017600  1
  Pd  Pd23  1  0.14558567  0.17995033  0.18861533  1
  Pd  Pd24  1  0.03436467  0.85441433  0.18861533  1
  Pd  Pd25  1  0.82004967  0.96563533  0.18861533  1
  Pd  Pd26  1  0.85441433  0.82004967  0.81138467  1
  Pd  Pd27  1  0.96563533  0.14558567  0.81138467  1
  Pd  Pd28  1  0.17995033  0.03436467  0.81138467  1
  Pd  Pd29  1  0.53830367  0.91966733  0.60638933  1
  Pd  Pd30  1  0.38136367  0.46169633  0.60638933  1
  Pd  Pd31  1  0.08033267  0.61863633  0.60638933  1
  Pd  Pd32  1  0.46169633  0.08033267  0.39361067  1
  Pd  Pd33  1  0.61863633  0.53830367  0.39361067  1
  Pd  Pd34  1  0.91966733  0.38136367  0.39361067  1
  Pd  Pd35  1  0.22463367  0.23527733  0.45304733  1
  Pd  Pd36  1  0.01064367  0.77536633  0.45304733  1
  Pd  Pd37  1  0.76472267  0.98935633  0.45304733  1
  Pd  Pd38  1  0.77536633  0.76472267  0.54695267  1
  Pd  Pd39  1  0.98935633  0.22463367  0.54695267  1
  Pd  Pd40  1  0.23527733  0.01064367  0.54695267  1
  Pd  Pd41  1  0.66666667  0.33333333  0.71315733  1
  Pd  Pd42  1  0.66666667  0.33333333  0.95350933  1
  Pd  Pd43  1  0.81225233  0.51328367  0.52194867  1
  Pd  Pd44  1  0.70103133  0.18774767  0.52194867  1
  Pd  Pd45  1  0.48671633  0.29896867  0.52194867  1
  Pd  Pd46  1  0.52108100  0.15338300  0.14471800  1
  Pd  Pd47  1  0.63230200  0.47891900  0.14471800  1
  Pd  Pd48  1  0.84661700  0.36769800  0.14471800  1
  Pd  Pd49  1  0.20497033  0.25300067  0.93972267  1
  Pd  Pd50  1  0.04803033  0.79502967  0.93972267  1
  Pd  Pd51  1  0.74699933  0.95196967  0.93972267  1
  Pd  Pd52  1  0.12836300  0.41366600  0.72694400  1
  Pd  Pd53  1  0.28530300  0.87163700  0.72694400  1
  Pd  Pd54  1  0.58633400  0.71469700  0.72694400  1
  Pd  Pd55  1  0.89130033  0.56861067  0.78638067  1
  Pd  Pd56  1  0.67731033  0.10869967  0.78638067  1
  Pd  Pd57  1  0.43138933  0.32268967  0.78638067  1
  Pd  Pd58  1  0.44203300  0.09805600  0.88028600  1
  Pd  Pd59  1  0.65602300  0.55796700  0.88028600  1
  Pd  Pd60  1  0.90194400  0.34397700  0.88028600  1
  Pd  Pd61  1  0.33333333  0.66666667  0.04649067  1
  Pd  Pd62  1  0.33333333  0.66666667  0.28684267  1
  Pd  Pd63  1  0.47891900  0.84661700  0.85528200  1
  Pd  Pd64  1  0.36769800  0.52108100  0.85528200  1
  Pd  Pd65  1  0.15338300  0.63230200  0.85528200  1
  Pd  Pd66  1  0.18774767  0.48671633  0.47805133  1
  Pd  Pd67  1  0.29896867  0.81225233  0.47805133  1
  Pd  Pd68  1  0.51328367  0.70103133  0.47805133  1
  Pd  Pd69  1  0.87163700  0.58633400  0.27305600  1
  Pd  Pd70  1  0.71469700  0.12836300  0.27305600  1
  Pd  Pd71  1  0.41366600  0.28530300  0.27305600  1
  Pd  Pd72  1  0.79502967  0.74699933  0.06027733  1
  Pd  Pd73  1  0.95196967  0.20497033  0.06027733  1
  Pd  Pd74  1  0.25300067  0.04803033  0.06027733  1
  Pd  Pd75  1  0.55796700  0.90194400  0.11971400  1
  Pd  Pd76  1  0.34397700  0.44203300  0.11971400  1
  Pd  Pd77  1  0.09805600  0.65602300  0.11971400  1
  Pd  Pd78  1  0.10869967  0.43138933  0.21361933  1
  Pd  Pd79  1  0.32268967  0.89130033  0.21361933  1
  Pd  Pd80  1  0.56861067  0.67731033  0.21361933  1
