# generated using pymatgen
data_B2Pd5
_symmetry_space_group_name_H-M   'P 1'
_cell_length_a   12.97247200
_cell_length_b   5.01244000
_cell_length_c   5.53172559
_cell_angle_alpha   90.00000000
_cell_angle_beta   97.08573760
_cell_angle_gamma   90.00000000
_symmetry_Int_Tables_number   1
_chemical_formula_structural   B2Pd5
_chemical_formula_sum   'B8 Pd20'
_cell_volume   356.94637677
_cell_formula_units_Z   4
loop_
 _symmetry_equiv_pos_site_id
 _symmetry_equiv_pos_as_xyz
  1  'x, y, z'
loop_
 _atom_site_type_symbol
 _atom_site_label
 _atom_site_symmetry_multiplicity
 _atom_site_fract_x
 _atom_site_fract_y
 _atom_site_fract_z
 _atom_site_occupancy
  B  B0  1  0.61432150  0.20167150  0.57845600  1
  B  B1  1  0.88567850  0.70167150  0.92154400  1
  B  B2  1  0.88567850  0.29832850  0.42154400  1
  B  B3  1  0.61432150  0.79832850  0.07845600  1
  B  B4  1  0.11432150  0.70167150  0.57845600  1
  B  B5  1  0.38567850  0.20167150  0.92154400  1
  B  B6  1  0.38567850  0.79832850  0.42154400  1
  B  B7  1  0.11432150  0.29832850  0.07845600  1
  Pd  Pd8  1  0.90404050  0.90896450  0.58052900  1
  Pd  Pd9  1  0.59595950  0.40896450  0.91947100  1
  Pd  Pd10  1  0.71220450  0.07063450  0.31486300  1
  Pd  Pd11  1  0.78779550  0.57063450  0.18513700  1
  Pd  Pd12  1  0.78779550  0.42936550  0.68513700  1
  Pd  Pd13  1  0.71220450  0.92936550  0.81486300  1
  Pd  Pd14  1  0.90404050  0.09103550  0.08052900  1
  Pd  Pd15  1  0.59595950  0.59103550  0.41947100  1
  Pd  Pd16  1  0.00000000  0.43133000  0.75000000  1
  Pd  Pd17  1  0.00000000  0.56867000  0.25000000  1
  Pd  Pd18  1  0.40404050  0.40896450  0.58052900  1
  Pd  Pd19  1  0.09595950  0.90896450  0.91947100  1
  Pd  Pd20  1  0.21220450  0.57063450  0.31486300  1
  Pd  Pd21  1  0.28779550  0.07063450  0.18513700  1
  Pd  Pd22  1  0.28779550  0.92936550  0.68513700  1
  Pd  Pd23  1  0.21220450  0.42936550  0.81486300  1
  Pd  Pd24  1  0.40404050  0.59103550  0.08052900  1
  Pd  Pd25  1  0.09595950  0.09103550  0.41947100  1
  Pd  Pd26  1  0.50000000  0.93133000  0.75000000  1
  Pd  Pd27  1  0.50000000  0.06867000  0.25000000  1
