# generated using pymatgen
data_Nd4Ge7
_symmetry_space_group_name_H-M   'P 1'
_cell_length_a   6.04847400
_cell_length_b   14.04817400
_cell_length_c   12.09327500
_cell_angle_alpha   90.00000000
_cell_angle_beta   90.00000000
_cell_angle_gamma   90.00000000
_symmetry_Int_Tables_number   1
_chemical_formula_structural   Nd4Ge7
_chemical_formula_sum   'Nd16 Ge28'
_cell_volume   1027.56576040
_cell_formula_units_Z   4
loop_
 _symmetry_equiv_pos_site_id
 _symmetry_equiv_pos_as_xyz
  1  'x, y, z'
loop_
 _atom_site_type_symbol
 _atom_site_label
 _atom_site_symmetry_multiplicity
 _atom_site_fract_x
 _atom_site_fract_y
 _atom_site_fract_z
 _atom_site_occupancy
  Nd  Nd0  1  0.51437800  0.00000000  0.00000000  1
  Nd  Nd1  1  0.48562200  0.00000000  0.50000000  1
  Nd  Nd2  1  0.50000000  0.49512100  0.75000000  1
  Nd  Nd3  1  0.00000000  0.00487900  0.25000000  1
  Nd  Nd4  1  0.26333700  0.24522300  0.11967900  1
  Nd  Nd5  1  0.76333700  0.25477700  0.88032100  1
  Nd  Nd6  1  0.23666300  0.25477700  0.61967900  1
  Nd  Nd7  1  0.73666300  0.24522300  0.38032100  1
  Nd  Nd8  1  0.01437800  0.50000000  0.00000000  1
  Nd  Nd9  1  0.98562200  0.50000000  0.50000000  1
  Nd  Nd10  1  0.00000000  0.99512100  0.75000000  1
  Nd  Nd11  1  0.50000000  0.50487900  0.25000000  1
  Nd  Nd12  1  0.76333700  0.74522300  0.11967900  1
  Nd  Nd13  1  0.26333700  0.75477700  0.88032100  1
  Nd  Nd14  1  0.73666300  0.75477700  0.61967900  1
  Nd  Nd15  1  0.23666300  0.74522300  0.38032100  1
  Ge  Ge16  1  0.00000000  0.43896600  0.75000000  1
  Ge  Ge17  1  0.50000000  0.06103400  0.25000000  1
  Ge  Ge18  1  0.17281600  0.35282500  0.33709500  1
  Ge  Ge19  1  0.67281600  0.14717500  0.66290500  1
  Ge  Ge20  1  0.32718400  0.14717500  0.83709500  1
  Ge  Ge21  1  0.82718400  0.35282500  0.16290500  1
  Ge  Ge22  1  0.25354950  0.17263350  0.37129000  1
  Ge  Ge23  1  0.75354950  0.32736650  0.62871000  1
  Ge  Ge24  1  0.01813200  0.08846900  0.98967600  1
  Ge  Ge25  1  0.51813200  0.41153100  0.01032400  1
  Ge  Ge26  1  0.48186800  0.41153100  0.48967600  1
  Ge  Ge27  1  0.98186800  0.08846900  0.51032400  1
  Ge  Ge28  1  0.74645050  0.17263350  0.12871000  1
  Ge  Ge29  1  0.24645050  0.32736650  0.87129000  1
  Ge  Ge30  1  0.50000000  0.93896600  0.75000000  1
  Ge  Ge31  1  0.00000000  0.56103400  0.25000000  1
  Ge  Ge32  1  0.67281600  0.85282500  0.33709500  1
  Ge  Ge33  1  0.17281600  0.64717500  0.66290500  1
  Ge  Ge34  1  0.82718400  0.64717500  0.83709500  1
  Ge  Ge35  1  0.32718400  0.85282500  0.16290500  1
  Ge  Ge36  1  0.75354950  0.67263350  0.37129000  1
  Ge  Ge37  1  0.25354950  0.82736650  0.62871000  1
  Ge  Ge38  1  0.51813200  0.58846900  0.98967600  1
  Ge  Ge39  1  0.01813200  0.91153100  0.01032400  1
  Ge  Ge40  1  0.98186800  0.91153100  0.48967600  1
  Ge  Ge41  1  0.48186800  0.58846900  0.51032400  1
  Ge  Ge42  1  0.24645050  0.67263350  0.12871000  1
  Ge  Ge43  1  0.74645050  0.82736650  0.87129000  1
