# generated using pymatgen
data_V2Pb3O8
_symmetry_space_group_name_H-M   'P 1'
_cell_length_a   9.56461600
_cell_length_b   6.45528400
_cell_length_c   7.59407859
_cell_angle_alpha   90.00000000
_cell_angle_beta   115.98441322
_cell_angle_gamma   90.00000000
_symmetry_Int_Tables_number   1
_chemical_formula_structural   V2Pb3O8
_chemical_formula_sum   'V4 Pb6 O16'
_cell_volume   421.47883431
_cell_formula_units_Z   2
loop_
 _symmetry_equiv_pos_site_id
 _symmetry_equiv_pos_as_xyz
  1  'x, y, z'
loop_
 _atom_site_type_symbol
 _atom_site_label
 _atom_site_symmetry_multiplicity
 _atom_site_fract_x
 _atom_site_fract_y
 _atom_site_fract_z
 _atom_site_occupancy
  V  V0  1  0.90373750  0.49807650  0.19989200  1
  V  V1  1  0.09626250  0.49807650  0.80010800  1
  V  V2  1  0.40373750  0.99807650  0.19989200  1
  V  V3  1  0.59626250  0.99807650  0.80010800  1
  Pb  Pb4  1  0.26938900  0.43526600  0.37697000  1
  Pb  Pb5  1  0.73061100  0.43526600  0.62303000  1
  Pb  Pb6  1  0.00000000  0.98647500  0.00000000  1
  Pb  Pb7  1  0.76938900  0.93526600  0.37697000  1
  Pb  Pb8  1  0.23061100  0.93526600  0.62303000  1
  Pb  Pb9  1  0.50000000  0.48647500  0.00000000  1
  O  O10  1  0.77006600  0.45320800  0.95868600  1
  O  O11  1  0.22993400  0.45320800  0.04131400  1
  O  O12  1  0.79400000  0.55415200  0.32725400  1
  O  O13  1  0.20600000  0.55415200  0.67274600  1
  O  O14  1  0.03751000  0.69906500  0.23104200  1
  O  O15  1  0.97738500  0.27873500  0.71172600  1
  O  O16  1  0.02261500  0.27873500  0.28827400  1
  O  O17  1  0.96249000  0.69906500  0.76895800  1
  O  O18  1  0.27006600  0.95320800  0.95868600  1
  O  O19  1  0.72993400  0.95320800  0.04131400  1
  O  O20  1  0.29400000  0.05415200  0.32725400  1
  O  O21  1  0.70600000  0.05415200  0.67274600  1
  O  O22  1  0.53751000  0.19906500  0.23104200  1
  O  O23  1  0.47738500  0.77873500  0.71172600  1
  O  O24  1  0.52261500  0.77873500  0.28827400  1
  O  O25  1  0.46249000  0.19906500  0.76895800  1
