# generated using pymatgen
data_U2F9
_symmetry_space_group_name_H-M   'P 1'
_cell_length_a   8.53126600
_cell_length_b   8.53126600
_cell_length_c   8.53126600
_cell_angle_alpha   90.00000000
_cell_angle_beta   90.00000000
_cell_angle_gamma   90.00000000
_symmetry_Int_Tables_number   1
_chemical_formula_structural   U2F9
_chemical_formula_sum   'U8 F36'
_cell_volume   620.92686391
_cell_formula_units_Z   4
loop_
 _symmetry_equiv_pos_site_id
 _symmetry_equiv_pos_as_xyz
  1  'x, y, z'
loop_
 _atom_site_type_symbol
 _atom_site_label
 _atom_site_symmetry_multiplicity
 _atom_site_fract_x
 _atom_site_fract_y
 _atom_site_fract_z
 _atom_site_occupancy
  U  U0  1  0.31284300  0.31284300  0.31284300  1
  U  U1  1  0.18715700  0.81284300  0.18715700  1
  U  U2  1  0.81284300  0.18715700  0.18715700  1
  U  U3  1  0.18715700  0.18715700  0.81284300  1
  U  U4  1  0.81284300  0.81284300  0.81284300  1
  U  U5  1  0.68715700  0.31284300  0.68715700  1
  U  U6  1  0.31284300  0.68715700  0.68715700  1
  U  U7  1  0.68715700  0.68715700  0.31284300  1
  F  F8  1  0.77230700  0.00000000  0.00000000  1
  F  F9  1  0.22769300  0.00000000  0.00000000  1
  F  F10  1  0.00000000  0.22769300  0.00000000  1
  F  F11  1  0.00000000  0.77230700  0.00000000  1
  F  F12  1  0.20565000  0.20565000  0.56117000  1
  F  F13  1  0.79435000  0.20565000  0.43883000  1
  F  F14  1  0.20565000  0.79435000  0.43883000  1
  F  F15  1  0.29435000  0.06117000  0.29435000  1
  F  F16  1  0.79435000  0.43883000  0.20565000  1
  F  F17  1  0.43883000  0.79435000  0.20565000  1
  F  F18  1  0.06117000  0.29435000  0.29435000  1
  F  F19  1  0.56117000  0.20565000  0.20565000  1
  F  F20  1  0.20565000  0.56117000  0.20565000  1
  F  F21  1  0.20565000  0.43883000  0.79435000  1
  F  F22  1  0.43883000  0.20565000  0.79435000  1
  F  F23  1  0.29435000  0.29435000  0.06117000  1
  F  F24  1  0.00000000  0.00000000  0.77230700  1
  F  F25  1  0.00000000  0.00000000  0.22769300  1
  F  F26  1  0.27230700  0.50000000  0.50000000  1
  F  F27  1  0.72769300  0.50000000  0.50000000  1
  F  F28  1  0.50000000  0.72769300  0.50000000  1
  F  F29  1  0.50000000  0.27230700  0.50000000  1
  F  F30  1  0.70565000  0.70565000  0.06117000  1
  F  F31  1  0.29435000  0.70565000  0.93883000  1
  F  F32  1  0.70565000  0.29435000  0.93883000  1
  F  F33  1  0.79435000  0.56117000  0.79435000  1
  F  F34  1  0.29435000  0.93883000  0.70565000  1
  F  F35  1  0.93883000  0.29435000  0.70565000  1
  F  F36  1  0.56117000  0.79435000  0.79435000  1
  F  F37  1  0.06117000  0.70565000  0.70565000  1
  F  F38  1  0.70565000  0.06117000  0.70565000  1
  F  F39  1  0.70565000  0.93883000  0.29435000  1
  F  F40  1  0.93883000  0.70565000  0.29435000  1
  F  F41  1  0.79435000  0.79435000  0.56117000  1
  F  F42  1  0.50000000  0.50000000  0.27230700  1
  F  F43  1  0.50000000  0.50000000  0.72769300  1
