# generated using pymatgen
data_Mo3S4
_symmetry_space_group_name_H-M   'P 1'
_cell_length_a   9.28885836
_cell_length_b   9.28885836
_cell_length_c   10.98410462
_cell_angle_alpha   90.00000000
_cell_angle_beta   90.00000000
_cell_angle_gamma   120.00000000
_symmetry_Int_Tables_number   1
_chemical_formula_structural   Mo3S4
_chemical_formula_sum   'Mo18 S24'
_cell_volume   820.76716480
_cell_formula_units_Z   6
loop_
 _symmetry_equiv_pos_site_id
 _symmetry_equiv_pos_as_xyz
  1  'x, y, z'
loop_
 _atom_site_type_symbol
 _atom_site_label
 _atom_site_symmetry_multiplicity
 _atom_site_fract_x
 _atom_site_fract_y
 _atom_site_fract_z
 _atom_site_occupancy
  Mo  Mo0  1  0.01602667  0.17720433  0.38933033  1
  Mo  Mo1  1  0.82279567  0.83882233  0.38933033  1
  Mo  Mo2  1  0.16117767  0.98397333  0.38933033  1
  Mo  Mo3  1  0.98397333  0.82279567  0.61066967  1
  Mo  Mo4  1  0.17720433  0.16117767  0.61066967  1
  Mo  Mo5  1  0.83882233  0.01602667  0.61066967  1
  Mo  Mo6  1  0.68269333  0.51053767  0.72266367  1
  Mo  Mo7  1  0.48946233  0.17215567  0.72266367  1
  Mo  Mo8  1  0.82784433  0.31730667  0.72266367  1
  Mo  Mo9  1  0.65064000  0.15612900  0.94400300  1
  Mo  Mo10  1  0.84387100  0.49451100  0.94400300  1
  Mo  Mo11  1  0.50548900  0.34936000  0.94400300  1
  Mo  Mo12  1  0.34936000  0.84387100  0.05599700  1
  Mo  Mo13  1  0.15612900  0.50548900  0.05599700  1
  Mo  Mo14  1  0.49451100  0.65064000  0.05599700  1
  Mo  Mo15  1  0.31730667  0.48946233  0.27733633  1
  Mo  Mo16  1  0.51053767  0.82784433  0.27733633  1
  Mo  Mo17  1  0.17215567  0.68269333  0.27733633  1
  S  S18  1  0.71499867  0.02974133  0.41803333  1
  S  S19  1  0.97025867  0.68525733  0.41803333  1
  S  S20  1  0.31474267  0.28500133  0.41803333  1
  S  S21  1  0.28500133  0.97025867  0.58196667  1
  S  S22  1  0.02974133  0.31474267  0.58196667  1
  S  S23  1  0.68525733  0.71499867  0.58196667  1
  S  S24  1  0.00000000  0.00000000  0.22104100  1
  S  S25  1  0.00000000  0.00000000  0.77895900  1
  S  S26  1  0.38166533  0.36307467  0.75136667  1
  S  S27  1  0.63692533  0.01859067  0.75136667  1
  S  S28  1  0.98140933  0.61833467  0.75136667  1
  S  S29  1  0.95166800  0.30359200  0.91530000  1
  S  S30  1  0.69640800  0.64807600  0.91530000  1
  S  S31  1  0.35192400  0.04833200  0.91530000  1
  S  S32  1  0.66666667  0.33333333  0.55437433  1
  S  S33  1  0.66666667  0.33333333  0.11229233  1
  S  S34  1  0.04833200  0.69640800  0.08470000  1
  S  S35  1  0.30359200  0.35192400  0.08470000  1
  S  S36  1  0.64807600  0.95166800  0.08470000  1
  S  S37  1  0.61833467  0.63692533  0.24863333  1
  S  S38  1  0.36307467  0.98140933  0.24863333  1
  S  S39  1  0.01859067  0.38166533  0.24863333  1
  S  S40  1  0.33333333  0.66666667  0.88770767  1
  S  S41  1  0.33333333  0.66666667  0.44562567  1
