# generated using pymatgen
data_BaYbCo4O7
_symmetry_space_group_name_H-M   'P 1'
_cell_length_a   6.32436410
_cell_length_b   6.32436410
_cell_length_c   10.24361500
_cell_angle_alpha   90.00000000
_cell_angle_beta   90.00000000
_cell_angle_gamma   120.00000000
_symmetry_Int_Tables_number   1
_chemical_formula_structural   BaYbCo4O7
_chemical_formula_sum   'Ba2 Yb2 Co8 O14'
_cell_volume   354.82777533
_cell_formula_units_Z   2
loop_
 _symmetry_equiv_pos_site_id
 _symmetry_equiv_pos_as_xyz
  1  'x, y, z'
loop_
 _atom_site_type_symbol
 _atom_site_label
 _atom_site_symmetry_multiplicity
 _atom_site_fract_x
 _atom_site_fract_y
 _atom_site_fract_z
 _atom_site_occupancy
  Ba  Ba0  1  0.33333333  0.66666667  0.98126400  1
  Ba  Ba1  1  0.66666667  0.33333333  0.48126400  1
  Yb  Yb2  1  0.33333333  0.66666667  0.36215700  1
  Yb  Yb3  1  0.66666667  0.33333333  0.86215700  1
  Co  Co4  1  0.84927733  0.67272167  0.17835300  1
  Co  Co5  1  0.32727833  0.17655567  0.17835300  1
  Co  Co6  1  0.82344433  0.15072267  0.17835300  1
  Co  Co7  1  0.67272167  0.84927733  0.67835300  1
  Co  Co8  1  0.17655567  0.32727833  0.67835300  1
  Co  Co9  1  0.15072267  0.82344433  0.67835300  1
  Co  Co10  1  0.00000000  0.00000000  0.97549300  1
  Co  Co11  1  0.00000000  0.00000000  0.47549300  1
  O  O12  1  0.89000033  0.66780067  0.99321300  1
  O  O13  1  0.33219933  0.22219967  0.99321300  1
  O  O14  1  0.77780033  0.10999967  0.99321300  1
  O  O15  1  0.66780067  0.89000033  0.49321300  1
  O  O16  1  0.22219967  0.33219933  0.49321300  1
  O  O17  1  0.10999967  0.77780033  0.49321300  1
  O  O18  1  0.00000000  0.00000000  0.76034700  1
  O  O19  1  0.00000000  0.00000000  0.26034700  1
  O  O20  1  0.49309633  0.01487867  0.23558000  1
  O  O21  1  0.98512133  0.47821767  0.23558000  1
  O  O22  1  0.52178233  0.50690367  0.23558000  1
  O  O23  1  0.01487867  0.49309633  0.73558000  1
  O  O24  1  0.50690367  0.52178233  0.73558000  1
  O  O25  1  0.47821767  0.98512133  0.73558000  1
