# generated using pymatgen
data_EuSi
_symmetry_space_group_name_H-M   'P 1'
_cell_length_a   4.59321600
_cell_length_b   11.09778400
_cell_length_c   3.97353900
_cell_angle_alpha   90.00000000
_cell_angle_beta   90.00000000
_cell_angle_gamma   90.00000000
_symmetry_Int_Tables_number   1
_chemical_formula_structural   EuSi
_chemical_formula_sum   'Eu4 Si4'
_cell_volume   202.54923939
_cell_formula_units_Z   4
loop_
 _symmetry_equiv_pos_site_id
 _symmetry_equiv_pos_as_xyz
  1  'x, y, z'
loop_
 _atom_site_type_symbol
 _atom_site_label
 _atom_site_symmetry_multiplicity
 _atom_site_fract_x
 _atom_site_fract_y
 _atom_site_fract_z
 _atom_site_occupancy
  Eu  Eu0  1  0.50000000  0.35962100  0.75000000  1
  Eu  Eu1  1  0.00000000  0.14037900  0.25000000  1
  Eu  Eu2  1  0.00000000  0.85962100  0.75000000  1
  Eu  Eu3  1  0.50000000  0.64037900  0.25000000  1
  Si  Si4  1  0.50000000  0.06572200  0.75000000  1
  Si  Si5  1  0.00000000  0.43427800  0.25000000  1
  Si  Si6  1  0.00000000  0.56572200  0.75000000  1
  Si  Si7  1  0.50000000  0.93427800  0.25000000  1
