# generated using pymatgen
data_Ag(TeMo)6
_symmetry_space_group_name_H-M   'P 1'
_cell_length_a   18.52852200
_cell_length_b   4.61488400
_cell_length_c   9.69975811
_cell_angle_alpha   90.00000000
_cell_angle_beta   121.39011538
_cell_angle_gamma   90.00000000
_symmetry_Int_Tables_number   1
_chemical_formula_structural   Ag(TeMo)6
_chemical_formula_sum   'Ag2 Te12 Mo12'
_cell_volume   708.00702685
_cell_formula_units_Z   2
loop_
 _symmetry_equiv_pos_site_id
 _symmetry_equiv_pos_as_xyz
  1  'x, y, z'
loop_
 _atom_site_type_symbol
 _atom_site_label
 _atom_site_symmetry_multiplicity
 _atom_site_fract_x
 _atom_site_fract_y
 _atom_site_fract_z
 _atom_site_occupancy
  Ag  Ag0  1  0.00000000  0.00000000  0.00000000  1
  Ag  Ag1  1  0.50000000  0.50000000  0.00000000  1
  Te  Te2  1  0.87822400  0.00000000  0.38852300  1
  Te  Te3  1  0.95582100  0.50000000  0.16258000  1
  Te  Te4  1  0.04417900  0.50000000  0.83742000  1
  Te  Te5  1  0.67794400  0.50000000  0.24745300  1
  Te  Te6  1  0.32205600  0.50000000  0.75254700  1
  Te  Te7  1  0.12177600  0.00000000  0.61147700  1
  Te  Te8  1  0.37822400  0.50000000  0.38852300  1
  Te  Te9  1  0.45582100  0.00000000  0.16258000  1
  Te  Te10  1  0.54417900  0.00000000  0.83742000  1
  Te  Te11  1  0.17794400  0.00000000  0.24745300  1
  Te  Te12  1  0.82205600  0.00000000  0.75254700  1
  Te  Te13  1  0.62177600  0.50000000  0.61147700  1
  Mo  Mo14  1  0.28580600  0.00000000  0.88801400  1
  Mo  Mo15  1  0.71419400  0.00000000  0.11198600  1
  Mo  Mo16  1  0.15398600  0.00000000  0.93024000  1
  Mo  Mo17  1  0.84601400  0.00000000  0.06976000  1
  Mo  Mo18  1  0.81100800  0.50000000  0.18507200  1
  Mo  Mo19  1  0.18899200  0.50000000  0.81492800  1
  Mo  Mo20  1  0.78580600  0.50000000  0.88801400  1
  Mo  Mo21  1  0.21419400  0.50000000  0.11198600  1
  Mo  Mo22  1  0.65398600  0.50000000  0.93024000  1
  Mo  Mo23  1  0.34601400  0.50000000  0.06976000  1
  Mo  Mo24  1  0.31100800  0.00000000  0.18507200  1
  Mo  Mo25  1  0.68899200  0.00000000  0.81492800  1
