# generated using pymatgen
data_Nd3(BN2)2
_symmetry_space_group_name_H-M   'P 1'
_cell_length_a   3.55698800
_cell_length_b   6.30842800
_cell_length_c   10.85330000
_cell_angle_alpha   90.00000000
_cell_angle_beta   90.00000000
_cell_angle_gamma   90.00000000
_symmetry_Int_Tables_number   1
_chemical_formula_structural   Nd3(BN2)2
_chemical_formula_sum   'Nd6 B4 N8'
_cell_volume   243.53722795
_cell_formula_units_Z   2
loop_
 _symmetry_equiv_pos_site_id
 _symmetry_equiv_pos_as_xyz
  1  'x, y, z'
loop_
 _atom_site_type_symbol
 _atom_site_label
 _atom_site_symmetry_multiplicity
 _atom_site_fract_x
 _atom_site_fract_y
 _atom_site_fract_z
 _atom_site_occupancy
  Nd  Nd0  1  0.50000000  0.00000000  0.70182800  1
  Nd  Nd1  1  0.00000000  0.50000000  0.79817200  1
  Nd  Nd2  1  0.00000000  0.00000000  0.00000000  1
  Nd  Nd3  1  0.00000000  0.50000000  0.20182800  1
  Nd  Nd4  1  0.50000000  0.00000000  0.29817200  1
  Nd  Nd5  1  0.50000000  0.50000000  0.50000000  1
  B  B6  1  0.50000000  0.35696300  0.00000000  1
  B  B7  1  0.50000000  0.64303700  0.00000000  1
  B  B8  1  0.00000000  0.85696300  0.50000000  1
  B  B9  1  0.00000000  0.14303700  0.50000000  1
  N  N10  1  0.00000000  0.74378700  0.61895600  1
  N  N11  1  0.00000000  0.25621300  0.61895600  1
  N  N12  1  0.50000000  0.24378700  0.88104400  1
  N  N13  1  0.50000000  0.75621300  0.88104400  1
  N  N14  1  0.50000000  0.24378700  0.11895600  1
  N  N15  1  0.50000000  0.75621300  0.11895600  1
  N  N16  1  0.00000000  0.74378700  0.38104400  1
  N  N17  1  0.00000000  0.25621300  0.38104400  1
