# generated using pymatgen
data_Ba3NaIr2O9
_symmetry_space_group_name_H-M   'P 1'
_cell_length_a   5.98074400
_cell_length_b   10.31275000
_cell_length_c   14.87373521
_cell_angle_alpha   90.00000000
_cell_angle_beta   92.20170735
_cell_angle_gamma   90.00000000
_symmetry_Int_Tables_number   1
_chemical_formula_structural   Ba3NaIr2O9
_chemical_formula_sum   'Ba12 Na4 Ir8 O36'
_cell_volume   916.70377948
_cell_formula_units_Z   4
loop_
 _symmetry_equiv_pos_site_id
 _symmetry_equiv_pos_as_xyz
  1  'x, y, z'
loop_
 _atom_site_type_symbol
 _atom_site_label
 _atom_site_symmetry_multiplicity
 _atom_site_fract_x
 _atom_site_fract_y
 _atom_site_fract_z
 _atom_site_occupancy
  Ba  Ba0  1  0.49402700  0.16598300  0.91525200  1
  Ba  Ba1  1  0.50000000  0.50142500  0.75000000  1
  Ba  Ba2  1  0.50597300  0.16598300  0.58474800  1
  Ba  Ba3  1  0.50597300  0.83401700  0.08474800  1
  Ba  Ba4  1  0.50000000  0.49857500  0.25000000  1
  Ba  Ba5  1  0.49402700  0.83401700  0.41525200  1
  Ba  Ba6  1  0.99402700  0.66598300  0.91525200  1
  Ba  Ba7  1  0.00000000  0.00142500  0.75000000  1
  Ba  Ba8  1  0.00597300  0.66598300  0.58474800  1
  Ba  Ba9  1  0.00597300  0.33401700  0.08474800  1
  Ba  Ba10  1  0.00000000  0.99857500  0.25000000  1
  Ba  Ba11  1  0.99402700  0.33401700  0.41525200  1
  Na  Na12  1  0.00000000  0.00000000  0.50000000  1
  Na  Na13  1  0.00000000  0.00000000  0.00000000  1
  Na  Na14  1  0.50000000  0.50000000  0.50000000  1
  Na  Na15  1  0.50000000  0.50000000  0.00000000  1
  Ir  Ir16  1  0.51593100  0.83178100  0.65745000  1
  Ir  Ir17  1  0.51593100  0.16821900  0.15745000  1
  Ir  Ir18  1  0.48406900  0.16821900  0.34255000  1
  Ir  Ir19  1  0.48406900  0.83178100  0.84255000  1
  Ir  Ir20  1  0.01593100  0.33178100  0.65745000  1
  Ir  Ir21  1  0.01593100  0.66821900  0.15745000  1
  Ir  Ir22  1  0.98406900  0.66821900  0.34255000  1
  Ir  Ir23  1  0.98406900  0.33178100  0.84255000  1
  O  O24  1  0.23806400  0.09189600  0.40205600  1
  O  O25  1  0.76193600  0.09189600  0.09794400  1
  O  O26  1  0.76193600  0.90810400  0.59794400  1
  O  O27  1  0.23806400  0.90810400  0.90205600  1
  O  O28  1  0.46845100  0.67432600  0.90926300  1
  O  O29  1  0.53154900  0.67432600  0.59073700  1
  O  O30  1  0.53154900  0.32567400  0.09073700  1
  O  O31  1  0.46845100  0.32567400  0.40926300  1
  O  O32  1  0.70249150  0.90806650  0.92309700  1
  O  O33  1  0.29750850  0.90806650  0.57690300  1
  O  O34  1  0.29750850  0.09193350  0.07690300  1
  O  O35  1  0.70249150  0.09193350  0.42309700  1
  O  O36  1  0.27752800  0.24167900  0.23960800  1
  O  O37  1  0.72247200  0.24167900  0.26039200  1
  O  O38  1  0.72247200  0.75832100  0.76039200  1
  O  O39  1  0.27752800  0.75832100  0.73960800  1
  O  O40  1  0.50000000  0.01871800  0.25000000  1
  O  O41  1  0.50000000  0.98128200  0.75000000  1
  O  O42  1  0.73806400  0.59189600  0.40205600  1
  O  O43  1  0.26193600  0.59189600  0.09794400  1
  O  O44  1  0.26193600  0.40810400  0.59794400  1
  O  O45  1  0.73806400  0.40810400  0.90205600  1
  O  O46  1  0.96845100  0.17432600  0.90926300  1
  O  O47  1  0.03154900  0.17432600  0.59073700  1
  O  O48  1  0.03154900  0.82567400  0.09073700  1
  O  O49  1  0.96845100  0.82567400  0.40926300  1
  O  O50  1  0.20249150  0.40806650  0.92309700  1
  O  O51  1  0.79750850  0.40806650  0.57690300  1
  O  O52  1  0.79750850  0.59193350  0.07690300  1
  O  O53  1  0.20249150  0.59193350  0.42309700  1
  O  O54  1  0.77752800  0.74167900  0.23960800  1
  O  O55  1  0.22247200  0.74167900  0.26039200  1
  O  O56  1  0.22247200  0.25832100  0.76039200  1
  O  O57  1  0.77752800  0.25832100  0.73960800  1
  O  O58  1  0.00000000  0.51871800  0.25000000  1
  O  O59  1  0.00000000  0.48128200  0.75000000  1
