# generated using pymatgen
data_Ho2Ni12P7
_symmetry_space_group_name_H-M   'P 1'
_cell_length_a   9.02199623
_cell_length_b   9.02199623
_cell_length_c   3.67767600
_cell_angle_alpha   90.00000000
_cell_angle_beta   90.00000000
_cell_angle_gamma   120.00000000
_symmetry_Int_Tables_number   1
_chemical_formula_structural   Ho2Ni12P7
_chemical_formula_sum   'Ho2 Ni12 P7'
_cell_volume   259.24439791
_cell_formula_units_Z   1
loop_
 _symmetry_equiv_pos_site_id
 _symmetry_equiv_pos_as_xyz
  1  'x, y, z'
loop_
 _atom_site_type_symbol
 _atom_site_label
 _atom_site_symmetry_multiplicity
 _atom_site_fract_x
 _atom_site_fract_y
 _atom_site_fract_z
 _atom_site_occupancy
  Ho  Ho0  1  0.66666667  0.33333333  0.50000000  1
  Ho  Ho1  1  0.33333333  0.66666667  0.00000000  1
  Ni  Ni2  1  0.61840167  0.56925733  0.00000000  1
  Ni  Ni3  1  0.84781567  0.72527733  0.50000000  1
  Ni  Ni4  1  0.95085567  0.38159833  0.00000000  1
  Ni  Ni5  1  0.27472267  0.12253833  0.50000000  1
  Ni  Ni6  1  0.12152667  0.21493233  0.00000000  1
  Ni  Ni7  1  0.09340567  0.87847333  0.00000000  1
  Ni  Ni8  1  0.78506767  0.90659433  0.00000000  1
  Ni  Ni9  1  0.37297167  0.43409133  0.50000000  1
  Ni  Ni10  1  0.56590867  0.93888033  0.50000000  1
  Ni  Ni11  1  0.06111967  0.62702833  0.50000000  1
  Ni  Ni12  1  0.87746167  0.15218433  0.50000000  1
  Ni  Ni13  1  0.43074267  0.04914433  0.00000000  1
  P  P14  1  0.00000000  0.00000000  0.50000000  1
  P  P15  1  0.70537367  0.11083533  0.00000000  1
  P  P16  1  0.11309967  0.40757033  0.50000000  1
  P  P17  1  0.59242967  0.70552933  0.50000000  1
  P  P18  1  0.29447067  0.88690033  0.50000000  1
  P  P19  1  0.88916467  0.59453833  0.00000000  1
  P  P20  1  0.40546167  0.29462633  0.00000000  1
