# generated using pymatgen
data_LaIn2Ir
_symmetry_space_group_name_H-M   'P 1'
_cell_length_a   4.47570600
_cell_length_b   10.36617400
_cell_length_c   8.19650400
_cell_angle_alpha   90.00000000
_cell_angle_beta   90.00000000
_cell_angle_gamma   90.00000000
_symmetry_Int_Tables_number   1
_chemical_formula_structural   LaIn2Ir
_chemical_formula_sum   'La4 In8 Ir4'
_cell_volume   380.28456655
_cell_formula_units_Z   4
loop_
 _symmetry_equiv_pos_site_id
 _symmetry_equiv_pos_as_xyz
  1  'x, y, z'
loop_
 _atom_site_type_symbol
 _atom_site_label
 _atom_site_symmetry_multiplicity
 _atom_site_fract_x
 _atom_site_fract_y
 _atom_site_fract_z
 _atom_site_occupancy
  La  La0  1  0.00000000  0.06677900  0.25000000  1
  La  La1  1  0.50000000  0.43322100  0.75000000  1
  La  La2  1  0.50000000  0.56677900  0.25000000  1
  La  La3  1  0.00000000  0.93322100  0.75000000  1
  In  In4  1  0.00000000  0.35259800  0.05166900  1
  In  In5  1  0.50000000  0.14740200  0.94833100  1
  In  In6  1  0.00000000  0.35259800  0.44833100  1
  In  In7  1  0.50000000  0.14740200  0.55166900  1
  In  In8  1  0.50000000  0.85259800  0.05166900  1
  In  In9  1  0.00000000  0.64740200  0.94833100  1
  In  In10  1  0.50000000  0.85259800  0.44833100  1
  In  In11  1  0.00000000  0.64740200  0.55166900  1
  Ir  Ir12  1  0.00000000  0.21530700  0.75000000  1
  Ir  Ir13  1  0.50000000  0.28469300  0.25000000  1
  Ir  Ir14  1  0.50000000  0.71530700  0.75000000  1
  Ir  Ir15  1  0.00000000  0.78469300  0.25000000  1
