# generated using pymatgen
data_CaAsPt
_symmetry_space_group_name_H-M   'P 1'
_cell_length_a   4.22848800
_cell_length_b   4.22848800
_cell_length_c   44.35635600
_cell_angle_alpha   90.00000000
_cell_angle_beta   90.00000000
_cell_angle_gamma   90.00000000
_symmetry_Int_Tables_number   1
_chemical_formula_structural   CaAsPt
_chemical_formula_sum   'Ca12 As12 Pt12'
_cell_volume   793.09655846
_cell_formula_units_Z   12
loop_
 _symmetry_equiv_pos_site_id
 _symmetry_equiv_pos_as_xyz
  1  'x, y, z'
loop_
 _atom_site_type_symbol
 _atom_site_label
 _atom_site_symmetry_multiplicity
 _atom_site_fract_x
 _atom_site_fract_y
 _atom_site_fract_z
 _atom_site_occupancy
  Ca  Ca0  1  0.00000000  0.50000000  0.75044000  1
  Ca  Ca1  1  0.50000000  0.50000000  0.00044000  1
  Ca  Ca2  1  0.50000000  0.00000000  0.08416400  1
  Ca  Ca3  1  0.50000000  0.50000000  0.83416400  1
  Ca  Ca4  1  0.00000000  0.50000000  0.91695300  1
  Ca  Ca5  1  0.50000000  0.50000000  0.16695300  1
  Ca  Ca6  1  0.50000000  0.00000000  0.25044000  1
  Ca  Ca7  1  0.00000000  0.00000000  0.50044000  1
  Ca  Ca8  1  0.00000000  0.50000000  0.58416400  1
  Ca  Ca9  1  0.00000000  0.00000000  0.33416400  1
  Ca  Ca10  1  0.50000000  0.00000000  0.41695300  1
  Ca  Ca11  1  0.00000000  0.00000000  0.66695300  1
  As  As12  1  0.00000000  0.50000000  0.05632800  1
  As  As13  1  0.00000000  0.00000000  0.97286000  1
  As  As14  1  0.00000000  0.50000000  0.22286000  1
  As  As15  1  0.00000000  0.00000000  0.80632800  1
  As  As16  1  0.00000000  0.00000000  0.14001000  1
  As  As17  1  0.50000000  0.00000000  0.89001000  1
  As  As18  1  0.50000000  0.00000000  0.55632800  1
  As  As19  1  0.50000000  0.50000000  0.47286000  1
  As  As20  1  0.50000000  0.00000000  0.72286000  1
  As  As21  1  0.50000000  0.50000000  0.30632800  1
  As  As22  1  0.50000000  0.50000000  0.64001000  1
  As  As23  1  0.00000000  0.50000000  0.39001000  1
  Pt  Pt24  1  0.00000000  0.00000000  0.86179500  1
  Pt  Pt25  1  0.00000000  0.50000000  0.11179500  1
  Pt  Pt26  1  0.50000000  0.00000000  0.77795500  1
  Pt  Pt27  1  0.00000000  0.00000000  0.19549500  1
  Pt  Pt28  1  0.50000000  0.00000000  0.94549500  1
  Pt  Pt29  1  0.00000000  0.00000000  0.02795500  1
  Pt  Pt30  1  0.50000000  0.50000000  0.36179500  1
  Pt  Pt31  1  0.50000000  0.00000000  0.61179500  1
  Pt  Pt32  1  0.00000000  0.50000000  0.27795500  1
  Pt  Pt33  1  0.50000000  0.50000000  0.69549500  1
  Pt  Pt34  1  0.00000000  0.50000000  0.44549500  1
  Pt  Pt35  1  0.50000000  0.50000000  0.52795500  1
