# generated using pymatgen
data_Fe(WO4)2
_symmetry_space_group_name_H-M   'P 1'
_cell_length_a   9.47118000
_cell_length_b   11.86168600
_cell_length_c   5.06956868
_cell_angle_alpha   90.00000000
_cell_angle_beta   92.60172211
_cell_angle_gamma   90.00000000
_symmetry_Int_Tables_number   1
_chemical_formula_structural   Fe(WO4)2
_chemical_formula_sum   'Fe4 W8 O32'
_cell_volume   568.94937654
_cell_formula_units_Z   4
loop_
 _symmetry_equiv_pos_site_id
 _symmetry_equiv_pos_as_xyz
  1  'x, y, z'
loop_
 _atom_site_type_symbol
 _atom_site_label
 _atom_site_symmetry_multiplicity
 _atom_site_fract_x
 _atom_site_fract_y
 _atom_site_fract_z
 _atom_site_occupancy
  Fe  Fe0  1  0.50000000  0.17405200  0.75000000  1
  Fe  Fe1  1  0.50000000  0.82594800  0.25000000  1
  Fe  Fe2  1  0.00000000  0.67405200  0.75000000  1
  Fe  Fe3  1  0.00000000  0.32594800  0.25000000  1
  W  W4  1  0.25016800  0.08901600  0.23092700  1
  W  W5  1  0.25016800  0.91098400  0.73092700  1
  W  W6  1  0.74983200  0.91098400  0.76907300  1
  W  W7  1  0.74983200  0.08901600  0.26907300  1
  W  W8  1  0.75016800  0.58901600  0.23092700  1
  W  W9  1  0.75016800  0.41098400  0.73092700  1
  W  W10  1  0.24983200  0.41098400  0.76907300  1
  W  W11  1  0.24983200  0.58901600  0.26907300  1
  O  O12  1  0.61294050  0.17075850  0.08225500  1
  O  O13  1  0.84785200  0.96066100  0.46990200  1
  O  O14  1  0.15214800  0.03933900  0.53009800  1
  O  O15  1  0.15214800  0.96066100  0.03009800  1
  O  O16  1  0.37226850  0.30128050  0.87150200  1
  O  O17  1  0.37226850  0.69871950  0.37150200  1
  O  O18  1  0.36342750  0.06497150  0.91298100  1
  O  O19  1  0.36342750  0.93502850  0.41298100  1
  O  O20  1  0.38705950  0.82924150  0.91774500  1
  O  O21  1  0.38705950  0.17075850  0.41774500  1
  O  O22  1  0.61294050  0.82924150  0.58225500  1
  O  O23  1  0.84785200  0.03933900  0.96990200  1
  O  O24  1  0.63657250  0.06497150  0.58701900  1
  O  O25  1  0.63657250  0.93502850  0.08701900  1
  O  O26  1  0.62773150  0.30128050  0.62849800  1
  O  O27  1  0.62773150  0.69871950  0.12849800  1
  O  O28  1  0.11294050  0.67075850  0.08225500  1
  O  O29  1  0.34785200  0.46066100  0.46990200  1
  O  O30  1  0.65214800  0.53933900  0.53009800  1
  O  O31  1  0.65214800  0.46066100  0.03009800  1
  O  O32  1  0.87226850  0.80128050  0.87150200  1
  O  O33  1  0.87226850  0.19871950  0.37150200  1
  O  O34  1  0.86342750  0.56497150  0.91298100  1
  O  O35  1  0.86342750  0.43502850  0.41298100  1
  O  O36  1  0.88705950  0.32924150  0.91774500  1
  O  O37  1  0.88705950  0.67075850  0.41774500  1
  O  O38  1  0.11294050  0.32924150  0.58225500  1
  O  O39  1  0.34785200  0.53933900  0.96990200  1
  O  O40  1  0.13657250  0.56497150  0.58701900  1
  O  O41  1  0.13657250  0.43502850  0.08701900  1
  O  O42  1  0.12773150  0.80128050  0.62849800  1
  O  O43  1  0.12773150  0.19871950  0.12849800  1
