# generated using pymatgen
data_Li4(CuO2)3
_symmetry_space_group_name_H-M   'P 1'
_cell_length_a   10.11494400
_cell_length_b   8.32856600
_cell_length_c   7.35346211
_cell_angle_alpha   90.00000000
_cell_angle_beta   117.25355412
_cell_angle_gamma   90.00000000
_symmetry_Int_Tables_number   1
_chemical_formula_structural   Li4(CuO2)3
_chemical_formula_sum   'Li16 Cu12 O24'
_cell_volume   550.70856693
_cell_formula_units_Z   4
loop_
 _symmetry_equiv_pos_site_id
 _symmetry_equiv_pos_as_xyz
  1  'x, y, z'
loop_
 _atom_site_type_symbol
 _atom_site_label
 _atom_site_symmetry_multiplicity
 _atom_site_fract_x
 _atom_site_fract_y
 _atom_site_fract_z
 _atom_site_occupancy
  Li  Li0  1  0.86102850  0.16157150  0.13276200  1
  Li  Li1  1  0.13897150  0.16157150  0.86723800  1
  Li  Li2  1  0.86283200  0.50000000  0.14082000  1
  Li  Li3  1  0.00000000  0.68533800  0.50000000  1
  Li  Li4  1  0.86102850  0.83842850  0.13276200  1
  Li  Li5  1  0.13716800  0.50000000  0.85918000  1
  Li  Li6  1  0.13897150  0.83842850  0.86723800  1
  Li  Li7  1  0.00000000  0.31466200  0.50000000  1
  Li  Li8  1  0.36102850  0.66157150  0.13276200  1
  Li  Li9  1  0.63897150  0.66157150  0.86723800  1
  Li  Li10  1  0.36283200  0.00000000  0.14082000  1
  Li  Li11  1  0.50000000  0.18533800  0.50000000  1
  Li  Li12  1  0.36102850  0.33842850  0.13276200  1
  Li  Li13  1  0.63716800  0.00000000  0.85918000  1
  Li  Li14  1  0.63897150  0.33842850  0.86723800  1
  Li  Li15  1  0.50000000  0.81466200  0.50000000  1
  Cu  Cu16  1  0.84680900  0.33522700  0.74278600  1
  Cu  Cu17  1  0.65479600  0.50000000  0.26911100  1
  Cu  Cu18  1  0.84680900  0.66477300  0.74278600  1
  Cu  Cu19  1  0.15319100  0.33522700  0.25721400  1
  Cu  Cu20  1  0.34520400  0.50000000  0.73088900  1
  Cu  Cu21  1  0.15319100  0.66477300  0.25721400  1
  Cu  Cu22  1  0.34680900  0.83522700  0.74278600  1
  Cu  Cu23  1  0.15479600  0.00000000  0.26911100  1
  Cu  Cu24  1  0.34680900  0.16477300  0.74278600  1
  Cu  Cu25  1  0.65319100  0.83522700  0.25721400  1
  Cu  Cu26  1  0.84520400  0.00000000  0.73088900  1
  Cu  Cu27  1  0.65319100  0.16477300  0.25721400  1
  O  O28  1  0.73879600  0.66826400  0.17452300  1
  O  O29  1  0.93402500  0.50000000  0.65799700  1
  O  O30  1  0.77342200  0.50000000  0.84624900  1
  O  O31  1  0.06475050  0.17422650  0.33567500  1
  O  O32  1  0.93524950  0.17422650  0.66432500  1
  O  O33  1  0.73879600  0.33173600  0.17452300  1
  O  O34  1  0.26120400  0.66826400  0.82547700  1
  O  O35  1  0.06475050  0.82577350  0.33567500  1
  O  O36  1  0.93524950  0.82577350  0.66432500  1
  O  O37  1  0.22657800  0.50000000  0.15375100  1
  O  O38  1  0.26120400  0.33173600  0.82547700  1
  O  O39  1  0.06597500  0.50000000  0.34200300  1
  O  O40  1  0.23879600  0.16826400  0.17452300  1
  O  O41  1  0.43402500  0.00000000  0.65799700  1
  O  O42  1  0.27342200  0.00000000  0.84624900  1
  O  O43  1  0.56475050  0.67422650  0.33567500  1
  O  O44  1  0.43524950  0.67422650  0.66432500  1
  O  O45  1  0.23879600  0.83173600  0.17452300  1
  O  O46  1  0.76120400  0.16826400  0.82547700  1
  O  O47  1  0.56475050  0.32577350  0.33567500  1
  O  O48  1  0.43524950  0.32577350  0.66432500  1
  O  O49  1  0.72657800  0.00000000  0.15375100  1
  O  O50  1  0.76120400  0.83173600  0.82547700  1
  O  O51  1  0.56597500  0.00000000  0.34200300  1
