# generated using pymatgen
data_BaIn2Pt
_symmetry_space_group_name_H-M   'P 1'
_cell_length_a   4.58656400
_cell_length_b   11.82037800
_cell_length_c   8.15167700
_cell_angle_alpha   90.00000000
_cell_angle_beta   90.00000000
_cell_angle_gamma   90.00000000
_symmetry_Int_Tables_number   1
_chemical_formula_structural   BaIn2Pt
_chemical_formula_sum   'Ba4 In8 Pt4'
_cell_volume   441.94251806
_cell_formula_units_Z   4
loop_
 _symmetry_equiv_pos_site_id
 _symmetry_equiv_pos_as_xyz
  1  'x, y, z'
loop_
 _atom_site_type_symbol
 _atom_site_label
 _atom_site_symmetry_multiplicity
 _atom_site_fract_x
 _atom_site_fract_y
 _atom_site_fract_z
 _atom_site_occupancy
  Ba  Ba0  1  0.50000000  0.44726100  0.75000000  1
  Ba  Ba1  1  0.00000000  0.05273900  0.25000000  1
  Ba  Ba2  1  0.00000000  0.94726100  0.75000000  1
  Ba  Ba3  1  0.50000000  0.55273900  0.25000000  1
  In  In4  1  0.00000000  0.33689400  0.05638100  1
  In  In5  1  0.50000000  0.16310600  0.94361900  1
  In  In6  1  0.00000000  0.33689400  0.44361900  1
  In  In7  1  0.50000000  0.16310600  0.55638100  1
  In  In8  1  0.50000000  0.83689400  0.05638100  1
  In  In9  1  0.00000000  0.66310600  0.94361900  1
  In  In10  1  0.50000000  0.83689400  0.44361900  1
  In  In11  1  0.00000000  0.66310600  0.55638100  1
  Pt  Pt12  1  0.50000000  0.27586100  0.25000000  1
  Pt  Pt13  1  0.00000000  0.22413900  0.75000000  1
  Pt  Pt14  1  0.00000000  0.77586100  0.25000000  1
  Pt  Pt15  1  0.50000000  0.72413900  0.75000000  1
