# generated using pymatgen
data_Ni3P
_symmetry_space_group_name_H-M   'P 1'
_cell_length_a   8.93286400
_cell_length_b   8.93286400
_cell_length_c   4.37563400
_cell_angle_alpha   90.00000000
_cell_angle_beta   90.00000000
_cell_angle_gamma   90.00000000
_symmetry_Int_Tables_number   1
_chemical_formula_structural   Ni3P
_chemical_formula_sum   'Ni24 P8'
_cell_volume   349.15834989
_cell_formula_units_Z   8
loop_
 _symmetry_equiv_pos_site_id
 _symmetry_equiv_pos_as_xyz
  1  'x, y, z'
loop_
 _atom_site_type_symbol
 _atom_site_label
 _atom_site_symmetry_multiplicity
 _atom_site_fract_x
 _atom_site_fract_y
 _atom_site_fract_z
 _atom_site_occupancy
  Ni  Ni0  1  0.88790400  0.07853400  0.75919700  1
  Ni  Ni1  1  0.11209600  0.92146600  0.75919700  1
  Ni  Ni2  1  0.42146600  0.38790400  0.74080300  1
  Ni  Ni3  1  0.57853400  0.61209600  0.74080300  1
  Ni  Ni4  1  0.47032700  0.86497500  0.52255900  1
  Ni  Ni5  1  0.52967300  0.13502500  0.52255900  1
  Ni  Ni6  1  0.63502500  0.97032700  0.97744100  1
  Ni  Ni7  1  0.36497500  0.02967300  0.97744100  1
  Ni  Ni8  1  0.77887100  0.17044700  0.24988700  1
  Ni  Ni9  1  0.22112900  0.82955300  0.24988700  1
  Ni  Ni10  1  0.32955300  0.27887100  0.25011300  1
  Ni  Ni11  1  0.67044700  0.72112900  0.25011300  1
  Ni  Ni12  1  0.38790400  0.57853400  0.25919700  1
  Ni  Ni13  1  0.61209600  0.42146600  0.25919700  1
  Ni  Ni14  1  0.92146600  0.88790400  0.24080300  1
  Ni  Ni15  1  0.07853400  0.11209600  0.24080300  1
  Ni  Ni16  1  0.97032700  0.36497500  0.02255900  1
  Ni  Ni17  1  0.02967300  0.63502500  0.02255900  1
  Ni  Ni18  1  0.13502500  0.47032700  0.47744100  1
  Ni  Ni19  1  0.86497500  0.52967300  0.47744100  1
  Ni  Ni20  1  0.27887100  0.67044700  0.74988700  1
  Ni  Ni21  1  0.72112900  0.32955300  0.74988700  1
  Ni  Ni22  1  0.82955300  0.77887100  0.75011300  1
  Ni  Ni23  1  0.17044700  0.22112900  0.75011300  1
  P  P24  1  0.45442200  0.78519600  0.01806500  1
  P  P25  1  0.54557800  0.21480400  0.01806500  1
  P  P26  1  0.71480400  0.95442200  0.48193500  1
  P  P27  1  0.28519600  0.04557800  0.48193500  1
  P  P28  1  0.95442200  0.28519600  0.51806500  1
  P  P29  1  0.04557800  0.71480400  0.51806500  1
  P  P30  1  0.21480400  0.45442200  0.98193500  1
  P  P31  1  0.78519600  0.54557800  0.98193500  1
