# generated using pymatgen
data_Mn2GeO4
_symmetry_space_group_name_H-M   'P 1'
_cell_length_a   5.12001200
_cell_length_b   6.38680500
_cell_length_c   10.88922900
_cell_angle_alpha   90.00000000
_cell_angle_beta   90.00000000
_cell_angle_gamma   90.00000000
_symmetry_Int_Tables_number   1
_chemical_formula_structural   Mn2GeO4
_chemical_formula_sum   'Mn8 Ge4 O16'
_cell_volume   356.08343155
_cell_formula_units_Z   4
loop_
 _symmetry_equiv_pos_site_id
 _symmetry_equiv_pos_as_xyz
  1  'x, y, z'
loop_
 _atom_site_type_symbol
 _atom_site_label
 _atom_site_symmetry_multiplicity
 _atom_site_fract_x
 _atom_site_fract_y
 _atom_site_fract_z
 _atom_site_occupancy
  Mn  Mn0  1  0.00000000  0.00000000  0.50000000  1
  Mn  Mn1  1  0.00000000  0.50000000  0.50000000  1
  Mn  Mn2  1  0.99261600  0.75000000  0.77883400  1
  Mn  Mn3  1  0.00738400  0.25000000  0.22116600  1
  Mn  Mn4  1  0.50000000  0.00000000  0.00000000  1
  Mn  Mn5  1  0.50000000  0.50000000  0.00000000  1
  Mn  Mn6  1  0.49261600  0.25000000  0.72116600  1
  Mn  Mn7  1  0.50738400  0.75000000  0.27883400  1
  Ge  Ge8  1  0.06483000  0.75000000  0.09595200  1
  Ge  Ge9  1  0.56483000  0.25000000  0.40404800  1
  Ge  Ge10  1  0.93517000  0.25000000  0.90404800  1
  Ge  Ge11  1  0.43517000  0.75000000  0.59595200  1
  O  O12  1  0.27965700  0.75000000  0.44618400  1
  O  O13  1  0.77965700  0.25000000  0.05381600  1
  O  O14  1  0.72034300  0.25000000  0.55381600  1
  O  O15  1  0.22034300  0.75000000  0.94618400  1
  O  O16  1  0.72066800  0.75000000  0.09380600  1
  O  O17  1  0.22066800  0.25000000  0.40619400  1
  O  O18  1  0.27933200  0.25000000  0.90619400  1
  O  O19  1  0.77933200  0.75000000  0.59380600  1
  O  O20  1  0.72453700  0.47047550  0.33548600  1
  O  O21  1  0.22453700  0.52952450  0.16451400  1
  O  O22  1  0.27546300  0.97047550  0.66451400  1
  O  O23  1  0.77546300  0.02952450  0.83548600  1
  O  O24  1  0.27546300  0.52952450  0.66451400  1
  O  O25  1  0.77546300  0.47047550  0.83548600  1
  O  O26  1  0.72453700  0.02952450  0.33548600  1
  O  O27  1  0.22453700  0.97047550  0.16451400  1
