# generated using pymatgen
data_ThGa2
_symmetry_space_group_name_H-M   'P 1'
_cell_length_a   4.27151200
_cell_length_b   4.27151200
_cell_length_c   14.76857000
_cell_angle_alpha   90.00000000
_cell_angle_beta   90.00000000
_cell_angle_gamma   90.00000000
_symmetry_Int_Tables_number   1
_chemical_formula_structural   ThGa2
_chemical_formula_sum   'Th4 Ga8'
_cell_volume   269.46459258
_cell_formula_units_Z   4
loop_
 _symmetry_equiv_pos_site_id
 _symmetry_equiv_pos_as_xyz
  1  'x, y, z'
loop_
 _atom_site_type_symbol
 _atom_site_label
 _atom_site_symmetry_multiplicity
 _atom_site_fract_x
 _atom_site_fract_y
 _atom_site_fract_z
 _atom_site_occupancy
  Th  Th0  1  0.50000000  0.50000000  0.00000000  1
  Th  Th1  1  0.50000000  0.00000000  0.25000000  1
  Th  Th2  1  0.00000000  0.00000000  0.50000000  1
  Th  Th3  1  0.00000000  0.50000000  0.75000000  1
  Ga  Ga4  1  0.00000000  0.50000000  0.33321100  1
  Ga  Ga5  1  0.00000000  0.00000000  0.08321100  1
  Ga  Ga6  1  0.00000000  0.50000000  0.16678900  1
  Ga  Ga7  1  0.50000000  0.50000000  0.41678900  1
  Ga  Ga8  1  0.50000000  0.00000000  0.83321100  1
  Ga  Ga9  1  0.50000000  0.50000000  0.58321100  1
  Ga  Ga10  1  0.50000000  0.00000000  0.66678900  1
  Ga  Ga11  1  0.00000000  0.00000000  0.91678900  1
