# generated using pymatgen
data_HoZn2
_symmetry_space_group_name_H-M   'P 1'
_cell_length_a   4.45799200
_cell_length_b   7.06856600
_cell_length_c   7.59149600
_cell_angle_alpha   90.00000000
_cell_angle_beta   90.00000000
_cell_angle_gamma   90.00000000
_symmetry_Int_Tables_number   1
_chemical_formula_structural   HoZn2
_chemical_formula_sum   'Ho4 Zn8'
_cell_volume   239.22026643
_cell_formula_units_Z   4
loop_
 _symmetry_equiv_pos_site_id
 _symmetry_equiv_pos_as_xyz
  1  'x, y, z'
loop_
 _atom_site_type_symbol
 _atom_site_label
 _atom_site_symmetry_multiplicity
 _atom_site_fract_x
 _atom_site_fract_y
 _atom_site_fract_z
 _atom_site_occupancy
  Ho  Ho0  1  0.00000000  0.25000000  0.47208200  1
  Ho  Ho1  1  0.00000000  0.75000000  0.52791800  1
  Ho  Ho2  1  0.50000000  0.75000000  0.97208200  1
  Ho  Ho3  1  0.50000000  0.25000000  0.02791800  1
  Zn  Zn4  1  0.50000000  0.04069800  0.66592100  1
  Zn  Zn5  1  0.50000000  0.95930200  0.33407900  1
  Zn  Zn6  1  0.00000000  0.95930200  0.16592100  1
  Zn  Zn7  1  0.00000000  0.04069800  0.83407900  1
  Zn  Zn8  1  0.00000000  0.54069800  0.16592100  1
  Zn  Zn9  1  0.00000000  0.45930200  0.83407900  1
  Zn  Zn10  1  0.50000000  0.45930200  0.66592100  1
  Zn  Zn11  1  0.50000000  0.54069800  0.33407900  1
