# generated using pymatgen
data_Li7Ge2
_symmetry_space_group_name_H-M   'P 1'
_cell_length_a   9.21437600
_cell_length_b   13.22597400
_cell_length_c   4.48146700
_cell_angle_alpha   90.00000000
_cell_angle_beta   90.00000000
_cell_angle_gamma   90.00000000
_symmetry_Int_Tables_number   1
_chemical_formula_structural   Li7Ge2
_chemical_formula_sum   'Li28 Ge8'
_cell_volume   546.15233833
_cell_formula_units_Z   4
loop_
 _symmetry_equiv_pos_site_id
 _symmetry_equiv_pos_as_xyz
  1  'x, y, z'
loop_
 _atom_site_type_symbol
 _atom_site_label
 _atom_site_symmetry_multiplicity
 _atom_site_fract_x
 _atom_site_fract_y
 _atom_site_fract_z
 _atom_site_occupancy
  Li  Li0  1  0.65904450  0.15762350  0.50000000  1
  Li  Li1  1  0.34095550  0.84237650  0.50000000  1
  Li  Li2  1  0.65904450  0.84237650  0.50000000  1
  Li  Li3  1  0.34095550  0.15762350  0.50000000  1
  Li  Li4  1  0.00000000  0.00000000  0.00000000  1
  Li  Li5  1  0.50000000  0.00000000  0.50000000  1
  Li  Li6  1  0.33998000  0.00000000  0.00000000  1
  Li  Li7  1  0.66002000  0.00000000  0.00000000  1
  Li  Li8  1  0.50000000  0.67295000  0.50000000  1
  Li  Li9  1  0.50000000  0.32705000  0.50000000  1
  Li  Li10  1  0.18179850  0.16145050  0.00000000  1
  Li  Li11  1  0.81820150  0.83854950  0.00000000  1
  Li  Li12  1  0.18179850  0.83854950  0.00000000  1
  Li  Li13  1  0.81820150  0.16145050  0.00000000  1
  Li  Li14  1  0.15904450  0.65762350  0.50000000  1
  Li  Li15  1  0.84095550  0.34237650  0.50000000  1
  Li  Li16  1  0.15904450  0.34237650  0.50000000  1
  Li  Li17  1  0.84095550  0.65762350  0.50000000  1
  Li  Li18  1  0.50000000  0.50000000  0.00000000  1
  Li  Li19  1  0.00000000  0.50000000  0.50000000  1
  Li  Li20  1  0.83998000  0.50000000  0.00000000  1
  Li  Li21  1  0.16002000  0.50000000  0.00000000  1
  Li  Li22  1  0.00000000  0.17295000  0.50000000  1
  Li  Li23  1  0.00000000  0.82705000  0.50000000  1
  Li  Li24  1  0.68179850  0.66145050  0.00000000  1
  Li  Li25  1  0.31820150  0.33854950  0.00000000  1
  Li  Li26  1  0.68179850  0.33854950  0.00000000  1
  Li  Li27  1  0.31820150  0.66145050  0.00000000  1
  Ge  Ge28  1  0.84451200  0.00000000  0.50000000  1
  Ge  Ge29  1  0.15548800  0.00000000  0.50000000  1
  Ge  Ge30  1  0.50000000  0.17843800  0.00000000  1
  Ge  Ge31  1  0.50000000  0.82156200  0.00000000  1
  Ge  Ge32  1  0.34451200  0.50000000  0.50000000  1
  Ge  Ge33  1  0.65548800  0.50000000  0.50000000  1
  Ge  Ge34  1  0.00000000  0.67843800  0.00000000  1
  Ge  Ge35  1  0.00000000  0.32156200  0.00000000  1
