# generated using pymatgen
data_Cr(SiO3)2
_symmetry_space_group_name_H-M   'P 1'
_cell_length_a   9.63934200
_cell_length_b   8.74991600
_cell_length_c   5.33865626
_cell_angle_alpha   90.00000000
_cell_angle_beta   110.72952621
_cell_angle_gamma   90.00000000
_symmetry_Int_Tables_number   1
_chemical_formula_structural   Cr(SiO3)2
_chemical_formula_sum   'Cr4 Si8 O24'
_cell_volume   421.13021803
_cell_formula_units_Z   4
loop_
 _symmetry_equiv_pos_site_id
 _symmetry_equiv_pos_as_xyz
  1  'x, y, z'
loop_
 _atom_site_type_symbol
 _atom_site_label
 _atom_site_symmetry_multiplicity
 _atom_site_fract_x
 _atom_site_fract_y
 _atom_site_fract_z
 _atom_site_occupancy
  Cr  Cr0  1  0.00000000  0.60160500  0.25000000  1
  Cr  Cr1  1  0.00000000  0.39839500  0.75000000  1
  Cr  Cr2  1  0.50000000  0.10160500  0.25000000  1
  Cr  Cr3  1  0.50000000  0.89839500  0.75000000  1
  Si  Si4  1  0.69913600  0.41474300  0.25514400  1
  Si  Si5  1  0.30086400  0.58525700  0.74485600  1
  Si  Si6  1  0.30086400  0.41474300  0.24485600  1
  Si  Si7  1  0.69913600  0.58525700  0.75514400  1
  Si  Si8  1  0.19913600  0.91474300  0.25514400  1
  Si  Si9  1  0.80086400  0.08525700  0.74485600  1
  Si  Si10  1  0.80086400  0.91474300  0.24485600  1
  Si  Si11  1  0.19913600  0.08525700  0.75514400  1
  O  O12  1  0.35883500  0.49499500  0.53649300  1
  O  O13  1  0.14067150  0.73946750  0.22114700  1
  O  O14  1  0.11469200  0.43071300  0.12743600  1
  O  O15  1  0.64116500  0.50500500  0.46350700  1
  O  O16  1  0.85932850  0.26053250  0.77885300  1
  O  O17  1  0.88530800  0.56928700  0.87256400  1
  O  O18  1  0.85932850  0.73946750  0.27885300  1
  O  O19  1  0.88530800  0.43071300  0.37256400  1
  O  O20  1  0.35883500  0.50500500  0.03649300  1
  O  O21  1  0.64116500  0.49499500  0.96350700  1
  O  O22  1  0.11469200  0.56928700  0.62743600  1
  O  O23  1  0.14067150  0.26053250  0.72114700  1
  O  O24  1  0.85883500  0.99499500  0.53649300  1
  O  O25  1  0.64067150  0.23946750  0.22114700  1
  O  O26  1  0.61469200  0.93071300  0.12743600  1
  O  O27  1  0.14116500  0.00500500  0.46350700  1
  O  O28  1  0.35932850  0.76053250  0.77885300  1
  O  O29  1  0.38530800  0.06928700  0.87256400  1
  O  O30  1  0.35932850  0.23946750  0.27885300  1
  O  O31  1  0.38530800  0.93071300  0.37256400  1
  O  O32  1  0.85883500  0.00500500  0.03649300  1
  O  O33  1  0.14116500  0.99499500  0.96350700  1
  O  O34  1  0.61469200  0.06928700  0.62743600  1
  O  O35  1  0.64067150  0.76053250  0.72114700  1
