# generated using pymatgen
data_Co3B7ClO13
_symmetry_space_group_name_H-M   'P 1'
_cell_length_a   8.62445802
_cell_length_b   8.62445802
_cell_length_c   21.22760149
_cell_angle_alpha   90.00000000
_cell_angle_beta   90.00000000
_cell_angle_gamma   120.00000000
_symmetry_Int_Tables_number   1
_chemical_formula_structural   Co3B7ClO13
_chemical_formula_sum   'Co18 B42 Cl6 O78'
_cell_volume   1367.39876249
_cell_formula_units_Z   6
loop_
 _symmetry_equiv_pos_site_id
 _symmetry_equiv_pos_as_xyz
  1  'x, y, z'
loop_
 _atom_site_type_symbol
 _atom_site_label
 _atom_site_symmetry_multiplicity
 _atom_site_fract_x
 _atom_site_fract_y
 _atom_site_fract_z
 _atom_site_occupancy
  Co  Co0  1  0.85173133  0.70564067  0.17558167  1
  Co  Co1  1  0.29435933  0.14609067  0.17558167  1
  Co  Co2  1  0.85390933  0.14826867  0.17558167  1
  Co  Co3  1  0.51839800  0.47942400  0.00891500  1
  Co  Co4  1  0.96102600  0.48160200  0.00891500  1
  Co  Co5  1  0.52057600  0.03897400  0.00891500  1
  Co  Co6  1  0.51839800  0.03897400  0.50891500  1
  Co  Co7  1  0.96102600  0.47942400  0.50891500  1
  Co  Co8  1  0.52057600  0.48160200  0.50891500  1
  Co  Co9  1  0.18506467  0.81275733  0.34224833  1
  Co  Co10  1  0.62769267  0.81493533  0.34224833  1
  Co  Co11  1  0.18724267  0.37230733  0.34224833  1
  Co  Co12  1  0.18506467  0.37230733  0.84224833  1
  Co  Co13  1  0.62769267  0.81275733  0.84224833  1
  Co  Co14  1  0.18724267  0.81493533  0.84224833  1
  Co  Co15  1  0.85173133  0.14609067  0.67558167  1
  Co  Co16  1  0.29435933  0.14826867  0.67558167  1
  Co  Co17  1  0.85390933  0.70564067  0.67558167  1
  B  B18  1  0.23124400  0.46207600  0.19768100  1
  B  B19  1  0.33333333  0.66666667  0.06622067  1
  B  B20  1  0.66666667  0.33333333  0.23288733  1
  B  B21  1  0.23083200  0.76875600  0.19768100  1
  B  B22  1  0.53792400  0.76916800  0.19768100  1
  B  B23  1  0.20459067  0.10208933  0.03101433  1
  B  B24  1  0.89749867  0.79540933  0.03101433  1
  B  B25  1  0.89791067  0.10250133  0.03101433  1
  B  B26  1  0.50242567  0.49824233  0.25265533  1
  B  B27  1  0.50175767  0.00418333  0.25265533  1
  B  B28  1  0.99581667  0.49757433  0.25265533  1
  B  B29  1  0.66248333  0.83157567  0.08598867  1
  B  B30  1  0.16842433  0.83090767  0.08598867  1
  B  B31  1  0.16909233  0.33751667  0.08598867  1
  B  B32  1  0.89791067  0.79540933  0.53101433  1
  B  B33  1  0.00000000  0.00000000  0.39955400  1
  B  B34  1  0.33333333  0.66666667  0.56622067  1
  B  B35  1  0.89749867  0.10208933  0.53101433  1
  B  B36  1  0.20459067  0.10250133  0.53101433  1
  B  B37  1  0.87125733  0.43542267  0.36434767  1
  B  B38  1  0.56416533  0.12874267  0.36434767  1
  B  B39  1  0.56457733  0.43583467  0.36434767  1
  B  B40  1  0.16909233  0.83157567  0.58598867  1
  B  B41  1  0.16842433  0.33751667  0.58598867  1
  B  B42  1  0.66248333  0.83090767  0.58598867  1
  B  B43  1  0.32915000  0.16490900  0.41932200  1
  B  B44  1  0.83509100  0.16424100  0.41932200  1
  B  B45  1  0.83575900  0.67085000  0.41932200  1
  B  B46  1  0.56457733  0.12874267  0.86434767  1
  B  B47  1  0.66666667  0.33333333  0.73288733  1
  B  B48  1  0.00000000  0.00000000  0.89955400  1
  B  B49  1  0.56416533  0.43542267  0.86434767  1
  B  B50  1  0.87125733  0.43583467  0.86434767  1
  B  B51  1  0.53792400  0.76875600  0.69768100  1
  B  B52  1  0.23083200  0.46207600  0.69768100  1
  B  B53  1  0.23124400  0.76916800  0.69768100  1
  B  B54  1  0.83575900  0.16490900  0.91932200  1
  B  B55  1  0.83509100  0.67085000  0.91932200  1
  B  B56  1  0.32915000  0.16424100  0.91932200  1
  B  B57  1  0.99581667  0.49824233  0.75265533  1
  B  B58  1  0.50175767  0.49757433  0.75265533  1
  B  B59  1  0.50242567  0.00418333  0.75265533  1
  Cl  Cl60  1  0.00000000  0.00000000  0.23208000  1
  Cl  Cl61  1  0.66666667  0.33333333  0.06541333  1
  Cl  Cl62  1  0.66666667  0.33333333  0.56541333  1
  Cl  Cl63  1  0.33333333  0.66666667  0.39874667  1
  Cl  Cl64  1  0.33333333  0.66666667  0.89874667  1
  Cl  Cl65  1  0.00000000  0.00000000  0.73208000  1
  O  O66  1  0.64027733  0.74584967  0.14755667  1
  O  O67  1  0.13313933  0.44334667  0.25663867  1
  O  O68  1  0.97361067  0.56109433  0.31422333  1
  O  O69  1  0.43890567  0.41251633  0.31422333  1
  O  O70  1  0.58748367  0.02638933  0.31422333  1
  O  O71  1  0.31020733  0.86686067  0.25663867  1
  O  O72  1  0.25415033  0.89442767  0.14755667  1
  O  O73  1  0.10557233  0.35972267  0.14755667  1
  O  O74  1  0.00000000  0.00000000  0.01431800  1
  O  O75  1  0.33333333  0.66666667  0.18098467  1
  O  O76  1  0.55665333  0.68979267  0.25663867  1
  O  O77  1  0.66579633  0.49260667  0.22999767  1
  O  O78  1  0.50739333  0.17318967  0.22999767  1
  O  O79  1  0.17406000  0.66753700  0.06333100  1
  O  O80  1  0.33246300  0.50652300  0.06333100  1
  O  O81  1  0.49347700  0.82594000  0.06333100  1
  O  O82  1  0.70961367  0.73725133  0.03913833  1
  O  O83  1  0.26274867  0.97236233  0.03913833  1
  O  O84  1  0.02763767  0.29038633  0.03913833  1
  O  O85  1  0.36097100  0.40391800  0.20580500  1
  O  O86  1  0.59608200  0.95705300  0.20580500  1
  O  O87  1  0.04294700  0.63902900  0.20580500  1
  O  O88  1  0.79980600  0.02312600  0.08997200  1
  O  O89  1  0.97687400  0.77668000  0.08997200  1
  O  O90  1  0.22332000  0.20019400  0.08997200  1
  O  O91  1  0.82681033  0.33420367  0.22999767  1
  O  O92  1  0.30694400  0.07918300  0.48089000  1
  O  O93  1  0.79980600  0.77668000  0.58997200  1
  O  O94  1  0.64027733  0.89442767  0.64755667  1
  O  O95  1  0.10557233  0.74584967  0.64755667  1
  O  O96  1  0.25415033  0.35972267  0.64755667  1
  O  O97  1  0.97687400  0.20019400  0.58997200  1
  O  O98  1  0.92081700  0.22776100  0.48089000  1
  O  O99  1  0.77223900  0.69305600  0.48089000  1
  O  O100  1  0.66666667  0.33333333  0.34765133  1
  O  O101  1  0.00000000  0.00000000  0.51431800  1
  O  O102  1  0.22332000  0.02312600  0.58997200  1
  O  O103  1  0.33246300  0.82594000  0.56333100  1
  O  O104  1  0.17406000  0.50652300  0.56333100  1
  O  O105  1  0.84072667  0.00087033  0.39666433  1
  O  O106  1  0.99912967  0.83985633  0.39666433  1
  O  O107  1  0.16014367  0.15927333  0.39666433  1
  O  O108  1  0.37628033  0.07058467  0.37247167  1
  O  O109  1  0.92941533  0.30569567  0.37247167  1
  O  O110  1  0.69430433  0.62371967  0.37247167  1
  O  O111  1  0.02763767  0.73725133  0.53913833  1
  O  O112  1  0.26274867  0.29038633  0.53913833  1
  O  O113  1  0.70961367  0.97236233  0.53913833  1
  O  O114  1  0.46647267  0.35645933  0.42330533  1
  O  O115  1  0.64354067  0.11001333  0.42330533  1
  O  O116  1  0.88998667  0.53352733  0.42330533  1
  O  O117  1  0.49347700  0.66753700  0.56333100  1
  O  O118  1  0.97361067  0.41251633  0.81422333  1
  O  O119  1  0.46647267  0.11001333  0.92330533  1
  O  O120  1  0.30694400  0.22776100  0.98089000  1
  O  O121  1  0.77223900  0.07918300  0.98089000  1
  O  O122  1  0.92081700  0.69305600  0.98089000  1
  O  O123  1  0.64354067  0.53352733  0.92330533  1
  O  O124  1  0.58748367  0.56109433  0.81422333  1
  O  O125  1  0.43890567  0.02638933  0.81422333  1
  O  O126  1  0.33333333  0.66666667  0.68098467  1
  O  O127  1  0.66666667  0.33333333  0.84765133  1
  O  O128  1  0.88998667  0.35645933  0.92330533  1
  O  O129  1  0.99912967  0.15927333  0.89666433  1
  O  O130  1  0.84072667  0.83985633  0.89666433  1
  O  O131  1  0.50739333  0.33420367  0.72999767  1
  O  O132  1  0.66579633  0.17318967  0.72999767  1
  O  O133  1  0.82681033  0.49260667  0.72999767  1
  O  O134  1  0.04294700  0.40391800  0.70580500  1
  O  O135  1  0.59608200  0.63902900  0.70580500  1
  O  O136  1  0.36097100  0.95705300  0.70580500  1
  O  O137  1  0.69430433  0.07058467  0.87247167  1
  O  O138  1  0.92941533  0.62371967  0.87247167  1
  O  O139  1  0.37628033  0.30569567  0.87247167  1
  O  O140  1  0.13313933  0.68979267  0.75663867  1
  O  O141  1  0.31020733  0.44334667  0.75663867  1
  O  O142  1  0.55665333  0.86686067  0.75663867  1
  O  O143  1  0.16014367  0.00087033  0.89666433  1
