# generated using pymatgen
data_MnH8SO8
_symmetry_space_group_name_H-M   'P 1'
_cell_length_a   6.09100400
_cell_length_b   13.85004100
_cell_length_c   10.07318513
_cell_angle_alpha   90.00000000
_cell_angle_beta   126.96722308
_cell_angle_gamma   90.00000000
_symmetry_Int_Tables_number   1
_chemical_formula_structural   MnH8SO8
_chemical_formula_sum   'Mn4 H32 S4 O32'
_cell_volume   678.95732987
_cell_formula_units_Z   4
loop_
 _symmetry_equiv_pos_site_id
 _symmetry_equiv_pos_as_xyz
  1  'x, y, z'
loop_
 _atom_site_type_symbol
 _atom_site_label
 _atom_site_symmetry_multiplicity
 _atom_site_fract_x
 _atom_site_fract_y
 _atom_site_fract_z
 _atom_site_occupancy
  Mn  Mn0  1  0.85496500  0.39790800  0.28389000  1
  Mn  Mn1  1  0.14503500  0.89790800  0.21611000  1
  Mn  Mn2  1  0.14503500  0.60209200  0.71611000  1
  Mn  Mn3  1  0.85496500  0.10209200  0.78389000  1
  H  H4  1  0.86200800  0.19133600  0.27725300  1
  H  H5  1  0.13799200  0.69133600  0.22274700  1
  H  H6  1  0.13799200  0.80866400  0.72274700  1
  H  H7  1  0.86200800  0.30866400  0.77725300  1
  H  H8  1  0.03578200  0.23243800  0.21828300  1
  H  H9  1  0.96421800  0.73243800  0.28171700  1
  H  H10  1  0.96421800  0.76756200  0.78171700  1
  H  H11  1  0.03578200  0.26756200  0.71828300  1
  H  H12  1  0.36685400  0.39811100  0.94629700  1
  H  H13  1  0.63314600  0.89811100  0.55370300  1
  H  H14  1  0.63314600  0.60188900  0.05370300  1
  H  H15  1  0.36685400  0.10188900  0.44629700  1
  H  H16  1  0.34345400  0.31369800  0.04566900  1
  H  H17  1  0.65654600  0.81369800  0.45433100  1
  H  H18  1  0.65654600  0.68630200  0.95433100  1
  H  H19  1  0.34345400  0.18630200  0.54566900  1
  H  H20  1  0.60727700  0.40313500  0.44883200  1
  H  H21  1  0.39272300  0.90313500  0.05116800  1
  H  H22  1  0.39272300  0.59686500  0.55116800  1
  H  H23  1  0.60727700  0.09686500  0.94883200  1
  H  H24  1  0.53368800  0.30586800  0.34731400  1
  H  H25  1  0.46631200  0.80586800  0.15268600  1
  H  H26  1  0.46631200  0.69413200  0.65268600  1
  H  H27  1  0.53368800  0.19413200  0.84731400  1
  H  H28  1  0.13051300  0.48417400  0.16993000  1
  H  H29  1  0.86948700  0.98417400  0.33007000  1
  H  H30  1  0.86948700  0.51582600  0.83007000  1
  H  H31  1  0.13051300  0.01582600  0.66993000  1
  H  H32  1  0.89906700  0.41609000  0.02350200  1
  H  H33  1  0.10093300  0.91609000  0.47649800  1
  H  H34  1  0.10093300  0.58391000  0.97649800  1
  H  H35  1  0.89906700  0.08391000  0.52350200  1
  S  S36  1  0.38506800  0.38995800  0.68563000  1
  S  S37  1  0.61493200  0.88995800  0.81437000  1
  S  S38  1  0.61493200  0.61004200  0.31437000  1
  S  S39  1  0.38506800  0.11004200  0.18563000  1
  O  O40  1  0.97033300  0.24748800  0.28462500  1
  O  O41  1  0.02966700  0.74748800  0.21537500  1
  O  O42  1  0.02966700  0.75251200  0.71537500  1
  O  O43  1  0.97033300  0.25251200  0.78462500  1
  O  O44  1  0.44067100  0.37355200  0.05828000  1
  O  O45  1  0.55932900  0.87355200  0.44172000  1
  O  O46  1  0.55932900  0.62644800  0.94172000  1
  O  O47  1  0.44067100  0.12644800  0.55828000  1
  O  O48  1  0.68145400  0.35356800  0.41671900  1
  O  O49  1  0.31854600  0.85356800  0.08328100  1
  O  O50  1  0.31854600  0.64643200  0.58328100  1
  O  O51  1  0.68145400  0.14643200  0.91671900  1
  O  O52  1  0.01450900  0.42676600  0.14479400  1
  O  O53  1  0.98549100  0.92676600  0.35520600  1
  O  O54  1  0.98549100  0.57323400  0.85520600  1
  O  O55  1  0.01450900  0.07323400  0.64479400  1
  O  O56  1  0.32226600  0.28640600  0.68504100  1
  O  O57  1  0.67773400  0.78640600  0.81495900  1
  O  O58  1  0.67773400  0.71359400  0.31495900  1
  O  O59  1  0.32226600  0.21359400  0.18504100  1
  O  O60  1  0.69196200  0.40421500  0.79462400  1
  O  O61  1  0.30803800  0.90421500  0.70537600  1
  O  O62  1  0.30803800  0.59578500  0.20537600  1
  O  O63  1  0.69196200  0.09578500  0.29462400  1
  O  O64  1  0.26967000  0.42493700  0.51495000  1
  O  O65  1  0.73033000  0.92493700  0.98505000  1
  O  O66  1  0.73033000  0.57506300  0.48505000  1
  O  O67  1  0.26967000  0.07506300  0.01495000  1
  O  O68  1  0.26488600  0.44790000  0.75373400  1
  O  O69  1  0.73511400  0.94790000  0.74626600  1
  O  O70  1  0.73511400  0.55210000  0.24626600  1
  O  O71  1  0.26488600  0.05210000  0.25373400  1
