# generated using pymatgen
data_Li3V2(SiO5)2
_symmetry_space_group_name_H-M   'P 1'
_cell_length_a   9.00852600
_cell_length_b   9.03890400
_cell_length_c   9.13847900
_cell_angle_alpha   90.00000000
_cell_angle_beta   90.00000000
_cell_angle_gamma   90.00000000
_symmetry_Int_Tables_number   1
_chemical_formula_structural   Li3V2(SiO5)2
_chemical_formula_sum   'Li12 V8 Si8 O40'
_cell_volume   744.12077272
_cell_formula_units_Z   4
loop_
 _symmetry_equiv_pos_site_id
 _symmetry_equiv_pos_as_xyz
  1  'x, y, z'
loop_
 _atom_site_type_symbol
 _atom_site_label
 _atom_site_symmetry_multiplicity
 _atom_site_fract_x
 _atom_site_fract_y
 _atom_site_fract_z
 _atom_site_occupancy
  Li  Li0  1  0.00000000  0.00000000  0.00000000  1
  Li  Li1  1  0.25000000  0.25000000  0.00000000  1
  Li  Li2  1  0.25000000  0.25000000  0.50000000  1
  Li  Li3  1  0.50000000  0.00000000  0.50000000  1
  Li  Li4  1  0.25000000  0.75000000  0.00000000  1
  Li  Li5  1  0.25000000  0.75000000  0.50000000  1
  Li  Li6  1  0.50000000  0.50000000  0.00000000  1
  Li  Li7  1  0.75000000  0.75000000  0.00000000  1
  Li  Li8  1  0.75000000  0.75000000  0.50000000  1
  Li  Li9  1  0.00000000  0.50000000  0.50000000  1
  Li  Li10  1  0.75000000  0.25000000  0.00000000  1
  Li  Li11  1  0.75000000  0.25000000  0.50000000  1
  V  V12  1  0.25843600  0.00000000  0.79751100  1
  V  V13  1  0.24156400  0.00000000  0.29751100  1
  V  V14  1  0.74156400  0.00000000  0.20248900  1
  V  V15  1  0.75843600  0.00000000  0.70248900  1
  V  V16  1  0.75843600  0.50000000  0.79751100  1
  V  V17  1  0.74156400  0.50000000  0.29751100  1
  V  V18  1  0.24156400  0.50000000  0.20248900  1
  V  V19  1  0.25843600  0.50000000  0.70248900  1
  Si  Si20  1  0.49949700  0.25000000  0.25000000  1
  Si  Si21  1  0.50050300  0.25000000  0.75000000  1
  Si  Si22  1  0.50050300  0.75000000  0.75000000  1
  Si  Si23  1  0.49949700  0.75000000  0.25000000  1
  Si  Si24  1  0.99949700  0.75000000  0.25000000  1
  Si  Si25  1  0.00050300  0.75000000  0.75000000  1
  Si  Si26  1  0.00050300  0.25000000  0.75000000  1
  Si  Si27  1  0.99949700  0.25000000  0.25000000  1
  O  O28  1  0.39671050  0.35514650  0.14389100  1
  O  O29  1  0.39215500  0.34913900  0.64337900  1
  O  O30  1  0.39671050  0.14485350  0.35610900  1
  O  O31  1  0.23074300  0.00000000  0.11629100  1
  O  O32  1  0.26925700  0.00000000  0.61629100  1
  O  O33  1  0.39215500  0.15086100  0.85662100  1
  O  O34  1  0.60328950  0.35514650  0.85610900  1
  O  O35  1  0.60784500  0.34913900  0.35662100  1
  O  O36  1  0.60784500  0.15086100  0.14337900  1
  O  O37  1  0.60328950  0.14485350  0.64389100  1
  O  O38  1  0.39215500  0.84913900  0.85662100  1
  O  O39  1  0.39671050  0.85514650  0.35610900  1
  O  O40  1  0.39671050  0.64485350  0.14389100  1
  O  O41  1  0.60784500  0.84913900  0.14337900  1
  O  O42  1  0.76925700  0.00000000  0.88370900  1
  O  O43  1  0.73074300  0.00000000  0.38370900  1
  O  O44  1  0.39215500  0.65086100  0.64337900  1
  O  O45  1  0.60328950  0.85514650  0.64389100  1
  O  O46  1  0.60328950  0.64485350  0.85610900  1
  O  O47  1  0.60784500  0.65086100  0.35662100  1
  O  O48  1  0.89671050  0.85514650  0.14389100  1
  O  O49  1  0.89215500  0.84913900  0.64337900  1
  O  O50  1  0.89671050  0.64485350  0.35610900  1
  O  O51  1  0.73074300  0.50000000  0.11629100  1
  O  O52  1  0.76925700  0.50000000  0.61629100  1
  O  O53  1  0.89215500  0.65086100  0.85662100  1
  O  O54  1  0.10328950  0.85514650  0.85610900  1
  O  O55  1  0.10784500  0.84913900  0.35662100  1
  O  O56  1  0.10784500  0.65086100  0.14337900  1
  O  O57  1  0.10328950  0.64485350  0.64389100  1
  O  O58  1  0.89215500  0.34913900  0.85662100  1
  O  O59  1  0.89671050  0.35514650  0.35610900  1
  O  O60  1  0.89671050  0.14485350  0.14389100  1
  O  O61  1  0.10784500  0.34913900  0.14337900  1
  O  O62  1  0.26925700  0.50000000  0.88370900  1
  O  O63  1  0.23074300  0.50000000  0.38370900  1
  O  O64  1  0.89215500  0.15086100  0.64337900  1
  O  O65  1  0.10328950  0.35514650  0.64389100  1
  O  O66  1  0.10328950  0.14485350  0.85610900  1
  O  O67  1  0.10784500  0.15086100  0.35662100  1
