# generated using pymatgen
data_LiIn(MoO4)2
_symmetry_space_group_name_H-M   'P 1'
_cell_length_a   9.66887000
_cell_length_b   11.70510400
_cell_length_c   5.09344940
_cell_angle_alpha   90.00000000
_cell_angle_beta   91.76056351
_cell_angle_gamma   90.00000000
_symmetry_Int_Tables_number   1
_chemical_formula_structural   LiIn(MoO4)2
_chemical_formula_sum   'Li4 In4 Mo8 O32'
_cell_volume   576.17967417
_cell_formula_units_Z   4
loop_
 _symmetry_equiv_pos_site_id
 _symmetry_equiv_pos_as_xyz
  1  'x, y, z'
loop_
 _atom_site_type_symbol
 _atom_site_label
 _atom_site_symmetry_multiplicity
 _atom_site_fract_x
 _atom_site_fract_y
 _atom_site_fract_z
 _atom_site_occupancy
  Li  Li0  1  0.50000000  0.91540100  0.25000000  1
  Li  Li1  1  0.50000000  0.08459900  0.75000000  1
  Li  Li2  1  0.00000000  0.41540100  0.25000000  1
  Li  Li3  1  0.00000000  0.58459900  0.75000000  1
  In  In4  1  0.50000000  0.59180700  0.75000000  1
  In  In5  1  0.50000000  0.40819300  0.25000000  1
  In  In6  1  0.00000000  0.09180700  0.75000000  1
  In  In7  1  0.00000000  0.90819300  0.25000000  1
  Mo  Mo8  1  0.26803300  0.15896900  0.24999400  1
  Mo  Mo9  1  0.73196700  0.15896900  0.25000600  1
  Mo  Mo10  1  0.73196700  0.84103100  0.75000600  1
  Mo  Mo11  1  0.26803300  0.84103100  0.74999400  1
  Mo  Mo12  1  0.76803300  0.65896900  0.24999400  1
  Mo  Mo13  1  0.23196700  0.65896900  0.25000600  1
  Mo  Mo14  1  0.23196700  0.34103100  0.75000600  1
  Mo  Mo15  1  0.76803300  0.34103100  0.74999400  1
  O  O16  1  0.62407200  0.94076600  0.59340400  1
  O  O17  1  0.37592800  0.94076600  0.90659600  1
  O  O18  1  0.36159900  0.19365000  0.95678200  1
  O  O19  1  0.63840100  0.19365000  0.54321800  1
  O  O20  1  0.37592800  0.05923400  0.40659600  1
  O  O21  1  0.62407200  0.05923400  0.09340400  1
  O  O22  1  0.12255300  0.93528900  0.61022500  1
  O  O23  1  0.87744700  0.93528900  0.88977500  1
  O  O24  1  0.87744700  0.06471100  0.38977500  1
  O  O25  1  0.12255300  0.06471100  0.11022500  1
  O  O26  1  0.35237950  0.69986950  0.93223100  1
  O  O27  1  0.64762050  0.69986950  0.56776900  1
  O  O28  1  0.64762050  0.30013050  0.06776900  1
  O  O29  1  0.35237950  0.30013050  0.43223100  1
  O  O30  1  0.36159900  0.80635000  0.45678200  1
  O  O31  1  0.63840100  0.80635000  0.04321800  1
  O  O32  1  0.12407200  0.44076600  0.59340400  1
  O  O33  1  0.87592800  0.44076600  0.90659600  1
  O  O34  1  0.86159900  0.69365000  0.95678200  1
  O  O35  1  0.13840100  0.69365000  0.54321800  1
  O  O36  1  0.87592800  0.55923400  0.40659600  1
  O  O37  1  0.12407200  0.55923400  0.09340400  1
  O  O38  1  0.62255300  0.43528900  0.61022500  1
  O  O39  1  0.37744700  0.43528900  0.88977500  1
  O  O40  1  0.37744700  0.56471100  0.38977500  1
  O  O41  1  0.62255300  0.56471100  0.11022500  1
  O  O42  1  0.85237950  0.19986950  0.93223100  1
  O  O43  1  0.14762050  0.19986950  0.56776900  1
  O  O44  1  0.14762050  0.80013050  0.06776900  1
  O  O45  1  0.85237950  0.80013050  0.43223100  1
  O  O46  1  0.86159900  0.30635000  0.45678200  1
  O  O47  1  0.13840100  0.30635000  0.04321800  1
