# generated using pymatgen
data_CrBiO3
_symmetry_space_group_name_H-M   'P 1'
_cell_length_a   9.63430267
_cell_length_b   5.58316985
_cell_length_c   9.76359338
_cell_angle_alpha   90.00000000
_cell_angle_beta   108.89485591
_cell_angle_gamma   90.00000000
_symmetry_Int_Tables_number   1
_chemical_formula_structural   CrBiO3
_chemical_formula_sum   'Cr8 Bi8 O24'
_cell_volume   496.88339006
_cell_formula_units_Z   8
loop_
 _symmetry_equiv_pos_site_id
 _symmetry_equiv_pos_as_xyz
  1  'x, y, z'
loop_
 _atom_site_type_symbol
 _atom_site_label
 _atom_site_symmetry_multiplicity
 _atom_site_fract_x
 _atom_site_fract_y
 _atom_site_fract_z
 _atom_site_occupancy
  Cr  Cr0  1  0.75000000  0.25000000  0.50000000  1
  Cr  Cr1  1  0.75000000  0.75000000  0.00000000  1
  Cr  Cr2  1  0.50000000  0.73815250  0.25000000  1
  Cr  Cr3  1  0.50000000  0.26184750  0.75000000  1
  Cr  Cr4  1  0.25000000  0.75000000  0.50000000  1
  Cr  Cr5  1  0.25000000  0.25000000  0.00000000  1
  Cr  Cr6  1  0.00000000  0.23815250  0.25000000  1
  Cr  Cr7  1  0.00000000  0.76184750  0.75000000  1
  Bi  Bi8  1  0.36576350  0.71059350  0.86920500  1
  Bi  Bi9  1  0.63423650  0.71059350  0.63079500  1
  Bi  Bi10  1  0.63423650  0.28940650  0.13079500  1
  Bi  Bi11  1  0.36576350  0.28940650  0.36920500  1
  Bi  Bi12  1  0.86576350  0.21059350  0.86920500  1
  Bi  Bi13  1  0.13423650  0.21059350  0.63079500  1
  Bi  Bi14  1  0.13423650  0.78940650  0.13079500  1
  Bi  Bi15  1  0.86576350  0.78940650  0.36920500  1
  O  O16  1  0.14769750  0.02178250  0.84126100  1
  O  O17  1  0.85230250  0.02178250  0.65873900  1
  O  O18  1  0.85230250  0.97821750  0.15873900  1
  O  O19  1  0.14769750  0.97821750  0.34126100  1
  O  O20  1  0.34566650  0.02671850  0.63489800  1
  O  O21  1  0.65433350  0.02671850  0.86510200  1
  O  O22  1  0.65433350  0.97328150  0.36510200  1
  O  O23  1  0.34566650  0.97328150  0.13489800  1
  O  O24  1  0.41603000  0.30151000  0.91600000  1
  O  O25  1  0.58397000  0.30151000  0.58400000  1
  O  O26  1  0.41603000  0.69849000  0.41600000  1
  O  O27  1  0.58397000  0.69849000  0.08400000  1
  O  O28  1  0.64769750  0.52178250  0.84126100  1
  O  O29  1  0.35230250  0.52178250  0.65873900  1
  O  O30  1  0.35230250  0.47821750  0.15873900  1
  O  O31  1  0.64769750  0.47821750  0.34126100  1
  O  O32  1  0.84566650  0.52671850  0.63489800  1
  O  O33  1  0.15433350  0.52671850  0.86510200  1
  O  O34  1  0.15433350  0.47328150  0.36510200  1
  O  O35  1  0.84566650  0.47328150  0.13489800  1
  O  O36  1  0.91603000  0.80151000  0.91600000  1
  O  O37  1  0.08397000  0.80151000  0.58400000  1
  O  O38  1  0.91603000  0.19849000  0.41600000  1
  O  O39  1  0.08397000  0.19849000  0.08400000  1
