# generated using pymatgen
data_Co9Se8
_symmetry_space_group_name_H-M   'P 1'
_cell_length_a   10.34143400
_cell_length_b   10.34143400
_cell_length_c   10.34143400
_cell_angle_alpha   90.00000000
_cell_angle_beta   90.00000000
_cell_angle_gamma   90.00000000
_symmetry_Int_Tables_number   1
_chemical_formula_structural   Co9Se8
_chemical_formula_sum   'Co36 Se32'
_cell_volume   1105.96731870
_cell_formula_units_Z   4
loop_
 _symmetry_equiv_pos_site_id
 _symmetry_equiv_pos_as_xyz
  1  'x, y, z'
loop_
 _atom_site_type_symbol
 _atom_site_label
 _atom_site_symmetry_multiplicity
 _atom_site_fract_x
 _atom_site_fract_y
 _atom_site_fract_z
 _atom_site_occupancy
  Co  Co0  1  0.50000000  0.00000000  0.00000000  1
  Co  Co1  1  0.12339467  0.37660533  0.62339467  1
  Co  Co2  1  0.37660533  0.87660533  0.62339467  1
  Co  Co3  1  0.12339467  0.87660533  0.87660533  1
  Co  Co4  1  0.12339467  0.62339467  0.62339467  1
  Co  Co5  1  0.37660533  0.12339467  0.62339467  1
  Co  Co6  1  0.37660533  0.37660533  0.87660533  1
  Co  Co7  1  0.12339467  0.12339467  0.87660533  1
  Co  Co8  1  0.37660533  0.62339467  0.87660533  1
  Co  Co9  1  0.50000000  0.50000000  0.50000000  1
  Co  Co10  1  0.12339467  0.87660533  0.12339467  1
  Co  Co11  1  0.37660533  0.37660533  0.12339467  1
  Co  Co12  1  0.12339467  0.37660533  0.37660533  1
  Co  Co13  1  0.12339467  0.12339467  0.12339467  1
  Co  Co14  1  0.37660533  0.62339467  0.12339467  1
  Co  Co15  1  0.37660533  0.87660533  0.37660533  1
  Co  Co16  1  0.12339467  0.62339467  0.37660533  1
  Co  Co17  1  0.37660533  0.12339467  0.37660533  1
  Co  Co18  1  0.00000000  0.00000000  0.50000000  1
  Co  Co19  1  0.62339467  0.37660533  0.12339467  1
  Co  Co20  1  0.87660533  0.87660533  0.12339467  1
  Co  Co21  1  0.62339467  0.87660533  0.37660533  1
  Co  Co22  1  0.62339467  0.62339467  0.12339467  1
  Co  Co23  1  0.87660533  0.12339467  0.12339467  1
  Co  Co24  1  0.87660533  0.37660533  0.37660533  1
  Co  Co25  1  0.62339467  0.12339467  0.37660533  1
  Co  Co26  1  0.87660533  0.62339467  0.37660533  1
  Co  Co27  1  0.00000000  0.50000000  0.00000000  1
  Co  Co28  1  0.62339467  0.87660533  0.62339467  1
  Co  Co29  1  0.87660533  0.37660533  0.62339467  1
  Co  Co30  1  0.62339467  0.37660533  0.87660533  1
  Co  Co31  1  0.62339467  0.12339467  0.62339467  1
  Co  Co32  1  0.87660533  0.62339467  0.62339467  1
  Co  Co33  1  0.87660533  0.87660533  0.87660533  1
  Co  Co34  1  0.62339467  0.62339467  0.87660533  1
  Co  Co35  1  0.87660533  0.12339467  0.87660533  1
  Se  Se36  1  0.25000000  0.25000000  0.75000000  1
  Se  Se37  1  0.25000000  0.75000000  0.75000000  1
  Se  Se38  1  0.50000000  0.00000000  0.76370700  1
  Se  Se39  1  0.73629300  0.00000000  0.00000000  1
  Se  Se40  1  0.26370700  0.00000000  0.00000000  1
  Se  Se41  1  0.50000000  0.76370700  0.00000000  1
  Se  Se42  1  0.50000000  0.23629300  0.00000000  1
  Se  Se43  1  0.00000000  0.00000000  0.73629300  1
  Se  Se44  1  0.25000000  0.75000000  0.25000000  1
  Se  Se45  1  0.25000000  0.25000000  0.25000000  1
  Se  Se46  1  0.50000000  0.50000000  0.26370700  1
  Se  Se47  1  0.73629300  0.50000000  0.50000000  1
  Se  Se48  1  0.26370700  0.50000000  0.50000000  1
  Se  Se49  1  0.50000000  0.26370700  0.50000000  1
  Se  Se50  1  0.50000000  0.73629300  0.50000000  1
  Se  Se51  1  0.00000000  0.50000000  0.23629300  1
  Se  Se52  1  0.75000000  0.25000000  0.25000000  1
  Se  Se53  1  0.75000000  0.75000000  0.25000000  1
  Se  Se54  1  0.00000000  0.00000000  0.26370700  1
  Se  Se55  1  0.23629300  0.00000000  0.50000000  1
  Se  Se56  1  0.76370700  0.00000000  0.50000000  1
  Se  Se57  1  0.00000000  0.76370700  0.50000000  1
  Se  Se58  1  0.00000000  0.23629300  0.50000000  1
  Se  Se59  1  0.50000000  0.00000000  0.23629300  1
  Se  Se60  1  0.75000000  0.75000000  0.75000000  1
  Se  Se61  1  0.75000000  0.25000000  0.75000000  1
  Se  Se62  1  0.00000000  0.50000000  0.76370700  1
  Se  Se63  1  0.23629300  0.50000000  0.00000000  1
  Se  Se64  1  0.76370700  0.50000000  0.00000000  1
  Se  Se65  1  0.00000000  0.26370700  0.00000000  1
  Se  Se66  1  0.00000000  0.73629300  0.00000000  1
  Se  Se67  1  0.50000000  0.50000000  0.73629300  1
