# generated using pymatgen
data_Ni20(SnB2)3
_symmetry_space_group_name_H-M   'P 1'
_cell_length_a   10.67385800
_cell_length_b   10.67385800
_cell_length_c   10.67385800
_cell_angle_alpha   90.00000000
_cell_angle_beta   90.00000000
_cell_angle_gamma   90.00000000
_symmetry_Int_Tables_number   1
_chemical_formula_structural   Ni20(SnB2)3
_chemical_formula_sum   'Ni80 Sn12 B24'
_cell_volume   1216.08592667
_cell_formula_units_Z   4
loop_
 _symmetry_equiv_pos_site_id
 _symmetry_equiv_pos_as_xyz
  1  'x, y, z'
loop_
 _atom_site_type_symbol
 _atom_site_label
 _atom_site_symmetry_multiplicity
 _atom_site_fract_x
 _atom_site_fract_y
 _atom_site_fract_z
 _atom_site_occupancy
  Ni  Ni0  1  0.32934450  0.32934450  0.00000000  1
  Ni  Ni1  1  0.11445833  0.88554167  0.61445833  1
  Ni  Ni2  1  0.17065550  0.82934450  0.00000000  1
  Ni  Ni3  1  0.00000000  0.32934450  0.67065550  1
  Ni  Ni4  1  0.00000000  0.82934450  0.82934450  1
  Ni  Ni5  1  0.17065550  0.17065550  0.00000000  1
  Ni  Ni6  1  0.17065550  0.00000000  0.82934450  1
  Ni  Ni7  1  0.67065550  0.00000000  0.67065550  1
  Ni  Ni8  1  0.00000000  0.17065550  0.82934450  1
  Ni  Ni9  1  0.00000000  0.67065550  0.67065550  1
  Ni  Ni10  1  0.82934450  0.00000000  0.82934450  1
  Ni  Ni11  1  0.32934450  0.00000000  0.67065550  1
  Ni  Ni12  1  0.38554167  0.88554167  0.88554167  1
  Ni  Ni13  1  0.32934450  0.67065550  0.00000000  1
  Ni  Ni14  1  0.38554167  0.11445833  0.88554167  1
  Ni  Ni15  1  0.61445833  0.11445833  0.88554167  1
  Ni  Ni16  1  0.88554167  0.11445833  0.61445833  1
  Ni  Ni17  1  0.11445833  0.11445833  0.61445833  1
  Ni  Ni18  1  0.61445833  0.88554167  0.88554167  1
  Ni  Ni19  1  0.88554167  0.88554167  0.61445833  1
  Ni  Ni20  1  0.32934450  0.82934450  0.50000000  1
  Ni  Ni21  1  0.11445833  0.38554167  0.11445833  1
  Ni  Ni22  1  0.17065550  0.32934450  0.50000000  1
  Ni  Ni23  1  0.00000000  0.82934450  0.17065550  1
  Ni  Ni24  1  0.00000000  0.32934450  0.32934450  1
  Ni  Ni25  1  0.17065550  0.67065550  0.50000000  1
  Ni  Ni26  1  0.17065550  0.50000000  0.32934450  1
  Ni  Ni27  1  0.67065550  0.50000000  0.17065550  1
  Ni  Ni28  1  0.00000000  0.67065550  0.32934450  1
  Ni  Ni29  1  0.00000000  0.17065550  0.17065550  1
  Ni  Ni30  1  0.82934450  0.50000000  0.32934450  1
  Ni  Ni31  1  0.32934450  0.50000000  0.17065550  1
  Ni  Ni32  1  0.38554167  0.38554167  0.38554167  1
  Ni  Ni33  1  0.32934450  0.17065550  0.50000000  1
  Ni  Ni34  1  0.38554167  0.61445833  0.38554167  1
  Ni  Ni35  1  0.61445833  0.61445833  0.38554167  1
  Ni  Ni36  1  0.88554167  0.61445833  0.11445833  1
  Ni  Ni37  1  0.11445833  0.61445833  0.11445833  1
  Ni  Ni38  1  0.61445833  0.38554167  0.38554167  1
  Ni  Ni39  1  0.88554167  0.38554167  0.11445833  1
  Ni  Ni40  1  0.82934450  0.32934450  0.50000000  1
  Ni  Ni41  1  0.61445833  0.88554167  0.11445833  1
  Ni  Ni42  1  0.67065550  0.82934450  0.50000000  1
  Ni  Ni43  1  0.50000000  0.32934450  0.17065550  1
  Ni  Ni44  1  0.50000000  0.82934450  0.32934450  1
  Ni  Ni45  1  0.67065550  0.17065550  0.50000000  1
  Ni  Ni46  1  0.67065550  0.00000000  0.32934450  1
  Ni  Ni47  1  0.17065550  0.00000000  0.17065550  1
  Ni  Ni48  1  0.50000000  0.17065550  0.32934450  1
  Ni  Ni49  1  0.50000000  0.67065550  0.17065550  1
  Ni  Ni50  1  0.32934450  0.00000000  0.32934450  1
  Ni  Ni51  1  0.82934450  0.00000000  0.17065550  1
  Ni  Ni52  1  0.88554167  0.88554167  0.38554167  1
  Ni  Ni53  1  0.82934450  0.67065550  0.50000000  1
  Ni  Ni54  1  0.88554167  0.11445833  0.38554167  1
  Ni  Ni55  1  0.11445833  0.11445833  0.38554167  1
  Ni  Ni56  1  0.38554167  0.11445833  0.11445833  1
  Ni  Ni57  1  0.61445833  0.11445833  0.11445833  1
  Ni  Ni58  1  0.11445833  0.88554167  0.38554167  1
  Ni  Ni59  1  0.38554167  0.88554167  0.11445833  1
  Ni  Ni60  1  0.82934450  0.82934450  0.00000000  1
  Ni  Ni61  1  0.61445833  0.38554167  0.61445833  1
  Ni  Ni62  1  0.67065550  0.32934450  0.00000000  1
  Ni  Ni63  1  0.50000000  0.82934450  0.67065550  1
  Ni  Ni64  1  0.50000000  0.32934450  0.82934450  1
  Ni  Ni65  1  0.67065550  0.67065550  0.00000000  1
  Ni  Ni66  1  0.67065550  0.50000000  0.82934450  1
  Ni  Ni67  1  0.17065550  0.50000000  0.67065550  1
  Ni  Ni68  1  0.50000000  0.67065550  0.82934450  1
  Ni  Ni69  1  0.50000000  0.17065550  0.67065550  1
  Ni  Ni70  1  0.32934450  0.50000000  0.82934450  1
  Ni  Ni71  1  0.82934450  0.50000000  0.67065550  1
  Ni  Ni72  1  0.88554167  0.38554167  0.88554167  1
  Ni  Ni73  1  0.82934450  0.17065550  0.00000000  1
  Ni  Ni74  1  0.88554167  0.61445833  0.88554167  1
  Ni  Ni75  1  0.11445833  0.61445833  0.88554167  1
  Ni  Ni76  1  0.38554167  0.61445833  0.61445833  1
  Ni  Ni77  1  0.61445833  0.61445833  0.61445833  1
  Ni  Ni78  1  0.11445833  0.38554167  0.88554167  1
  Ni  Ni79  1  0.38554167  0.38554167  0.61445833  1
  Sn  Sn80  1  0.25000000  0.75000000  0.75000000  1
  Sn  Sn81  1  0.25000000  0.25000000  0.75000000  1
  Sn  Sn82  1  0.00000000  0.00000000  0.00000000  1
  Sn  Sn83  1  0.25000000  0.25000000  0.25000000  1
  Sn  Sn84  1  0.25000000  0.75000000  0.25000000  1
  Sn  Sn85  1  0.00000000  0.50000000  0.50000000  1
  Sn  Sn86  1  0.75000000  0.75000000  0.25000000  1
  Sn  Sn87  1  0.75000000  0.25000000  0.25000000  1
  Sn  Sn88  1  0.50000000  0.00000000  0.50000000  1
  Sn  Sn89  1  0.75000000  0.25000000  0.75000000  1
  Sn  Sn90  1  0.75000000  0.75000000  0.75000000  1
  Sn  Sn91  1  0.50000000  0.50000000  0.00000000  1
  B  B92  1  0.00000000  0.00000000  0.72476000  1
  B  B93  1  0.50000000  0.22476000  0.00000000  1
  B  B94  1  0.50000000  0.77524000  0.00000000  1
  B  B95  1  0.27524000  0.00000000  0.00000000  1
  B  B96  1  0.72476000  0.00000000  0.00000000  1
  B  B97  1  0.50000000  0.00000000  0.77524000  1
  B  B98  1  0.00000000  0.50000000  0.22476000  1
  B  B99  1  0.50000000  0.72476000  0.50000000  1
  B  B100  1  0.50000000  0.27524000  0.50000000  1
  B  B101  1  0.27524000  0.50000000  0.50000000  1
  B  B102  1  0.72476000  0.50000000  0.50000000  1
  B  B103  1  0.50000000  0.50000000  0.27524000  1
  B  B104  1  0.50000000  0.00000000  0.22476000  1
  B  B105  1  0.00000000  0.22476000  0.50000000  1
  B  B106  1  0.00000000  0.77524000  0.50000000  1
  B  B107  1  0.77524000  0.00000000  0.50000000  1
  B  B108  1  0.22476000  0.00000000  0.50000000  1
  B  B109  1  0.00000000  0.00000000  0.27524000  1
  B  B110  1  0.50000000  0.50000000  0.72476000  1
  B  B111  1  0.00000000  0.72476000  0.00000000  1
  B  B112  1  0.00000000  0.27524000  0.00000000  1
  B  B113  1  0.77524000  0.50000000  0.00000000  1
  B  B114  1  0.22476000  0.50000000  0.00000000  1
  B  B115  1  0.00000000  0.50000000  0.77524000  1
