# generated using pymatgen
data_BaIn2Ir
_symmetry_space_group_name_H-M   'P 1'
_cell_length_a   4.46527600
_cell_length_b   11.82388800
_cell_length_c   8.18888700
_cell_angle_alpha   90.00000000
_cell_angle_beta   90.00000000
_cell_angle_gamma   90.00000000
_symmetry_Int_Tables_number   1
_chemical_formula_structural   BaIn2Ir
_chemical_formula_sum   'Ba4 In8 Ir4'
_cell_volume   432.34803896
_cell_formula_units_Z   4
loop_
 _symmetry_equiv_pos_site_id
 _symmetry_equiv_pos_as_xyz
  1  'x, y, z'
loop_
 _atom_site_type_symbol
 _atom_site_label
 _atom_site_symmetry_multiplicity
 _atom_site_fract_x
 _atom_site_fract_y
 _atom_site_fract_z
 _atom_site_occupancy
  Ba  Ba0  1  0.50000000  0.44614100  0.75000000  1
  Ba  Ba1  1  0.00000000  0.05385900  0.25000000  1
  Ba  Ba2  1  0.00000000  0.94614100  0.75000000  1
  Ba  Ba3  1  0.50000000  0.55385900  0.25000000  1
  In  In4  1  0.00000000  0.33507200  0.05552300  1
  In  In5  1  0.50000000  0.16492800  0.94447700  1
  In  In6  1  0.00000000  0.33507200  0.44447700  1
  In  In7  1  0.50000000  0.16492800  0.55552300  1
  In  In8  1  0.50000000  0.83507200  0.05552300  1
  In  In9  1  0.00000000  0.66492800  0.94447700  1
  In  In10  1  0.50000000  0.83507200  0.44447700  1
  In  In11  1  0.00000000  0.66492800  0.55552300  1
  Ir  Ir12  1  0.50000000  0.27965200  0.25000000  1
  Ir  Ir13  1  0.00000000  0.22034800  0.75000000  1
  Ir  Ir14  1  0.00000000  0.77965200  0.25000000  1
  Ir  Ir15  1  0.50000000  0.72034800  0.75000000  1
