# generated using pymatgen
data_K2VH2OF5
_symmetry_space_group_name_H-M   'P 1'
_cell_length_a   9.87039707
_cell_length_b   8.11747890
_cell_length_c   8.01443608
_cell_angle_alpha   90.00000000
_cell_angle_beta   96.28079138
_cell_angle_gamma   90.00000000
_symmetry_Int_Tables_number   1
_chemical_formula_structural   K2VH2OF5
_chemical_formula_sum   'K8 V4 H8 O4 F20'
_cell_volume   638.28426222
_cell_formula_units_Z   4
loop_
 _symmetry_equiv_pos_site_id
 _symmetry_equiv_pos_as_xyz
  1  'x, y, z'
loop_
 _atom_site_type_symbol
 _atom_site_label
 _atom_site_symmetry_multiplicity
 _atom_site_fract_x
 _atom_site_fract_y
 _atom_site_fract_z
 _atom_site_occupancy
  K  K0  1  0.30082300  0.99826300  0.46544000  1
  K  K1  1  0.69917700  0.99826300  0.03456000  1
  K  K2  1  0.69917700  0.00173700  0.53456000  1
  K  K3  1  0.30082300  0.00173700  0.96544000  1
  K  K4  1  0.80082300  0.49826300  0.46544000  1
  K  K5  1  0.19917700  0.49826300  0.03456000  1
  K  K6  1  0.19917700  0.50173700  0.53456000  1
  K  K7  1  0.80082300  0.50173700  0.96544000  1
  V  V8  1  0.50000000  0.70273300  0.25000000  1
  V  V9  1  0.50000000  0.29726700  0.75000000  1
  V  V10  1  0.00000000  0.20273300  0.25000000  1
  V  V11  1  0.00000000  0.79726700  0.75000000  1
  H  H12  1  0.47378750  0.37521950  0.34487300  1
  H  H13  1  0.52621250  0.37521950  0.15512700  1
  H  H14  1  0.52621250  0.62478050  0.65512700  1
  H  H15  1  0.47378750  0.62478050  0.84487300  1
  H  H16  1  0.97378750  0.87521950  0.34487300  1
  H  H17  1  0.02621250  0.87521950  0.15512700  1
  H  H18  1  0.02621250  0.12478050  0.65512700  1
  H  H19  1  0.97378750  0.12478050  0.84487300  1
  O  O20  1  0.50000000  0.44319350  0.25000000  1
  O  O21  1  0.50000000  0.55680650  0.75000000  1
  O  O22  1  0.00000000  0.94319350  0.25000000  1
  O  O23  1  0.00000000  0.05680650  0.75000000  1
  F  F24  1  0.50000000  0.04971800  0.75000000  1
  F  F25  1  0.50000000  0.95028200  0.25000000  1
  F  F26  1  0.68566300  0.30101500  0.68958200  1
  F  F27  1  0.31433700  0.30101500  0.81041800  1
  F  F28  1  0.31433700  0.69898500  0.31041800  1
  F  F29  1  0.68566300  0.69898500  0.18958200  1
  F  F30  1  0.57274900  0.29487700  0.98876500  1
  F  F31  1  0.42725100  0.29487700  0.51123500  1
  F  F32  1  0.42725100  0.70512300  0.01123500  1
  F  F33  1  0.57274900  0.70512300  0.48876500  1
  F  F34  1  0.00000000  0.54971800  0.75000000  1
  F  F35  1  0.00000000  0.45028200  0.25000000  1
  F  F36  1  0.18566300  0.80101500  0.68958200  1
  F  F37  1  0.81433700  0.80101500  0.81041800  1
  F  F38  1  0.81433700  0.19898500  0.31041800  1
  F  F39  1  0.18566300  0.19898500  0.18958200  1
  F  F40  1  0.07274900  0.79487700  0.98876500  1
  F  F41  1  0.92725100  0.79487700  0.51123500  1
  F  F42  1  0.92725100  0.20512300  0.01123500  1
  F  F43  1  0.07274900  0.20512300  0.48876500  1
