# generated using pymatgen
data_Mg5In2
_symmetry_space_group_name_H-M   'P 1'
_cell_length_a   6.21399000
_cell_length_b   7.41797800
_cell_length_c   14.29357800
_cell_angle_alpha   90.00000000
_cell_angle_beta   90.00000000
_cell_angle_gamma   90.00000000
_symmetry_Int_Tables_number   1
_chemical_formula_structural   Mg5In2
_chemical_formula_sum   'Mg20 In8'
_cell_volume   658.86592427
_cell_formula_units_Z   4
loop_
 _symmetry_equiv_pos_site_id
 _symmetry_equiv_pos_as_xyz
  1  'x, y, z'
loop_
 _atom_site_type_symbol
 _atom_site_label
 _atom_site_symmetry_multiplicity
 _atom_site_fract_x
 _atom_site_fract_y
 _atom_site_fract_z
 _atom_site_occupancy
  Mg  Mg0  1  0.50000000  0.16107950  0.08605150  1
  Mg  Mg1  1  0.00000000  0.33892050  0.41394850  1
  Mg  Mg2  1  0.50000000  0.66107950  0.41394850  1
  Mg  Mg3  1  0.00000000  0.83892050  0.08605150  1
  Mg  Mg4  1  0.75000000  0.50000000  0.00000000  1
  Mg  Mg5  1  0.25000000  0.50000000  0.00000000  1
  Mg  Mg6  1  0.25000000  0.00000000  0.26655150  1
  Mg  Mg7  1  0.75000000  0.50000000  0.23344850  1
  Mg  Mg8  1  0.25000000  0.50000000  0.23344850  1
  Mg  Mg9  1  0.75000000  0.00000000  0.26655150  1
  Mg  Mg10  1  0.00000000  0.66107950  0.58605150  1
  Mg  Mg11  1  0.50000000  0.83892050  0.91394850  1
  Mg  Mg12  1  0.00000000  0.16107950  0.91394850  1
  Mg  Mg13  1  0.50000000  0.33892050  0.58605150  1
  Mg  Mg14  1  0.25000000  0.00000000  0.50000000  1
  Mg  Mg15  1  0.75000000  0.00000000  0.50000000  1
  Mg  Mg16  1  0.75000000  0.50000000  0.76655150  1
  Mg  Mg17  1  0.25000000  0.00000000  0.73344850  1
  Mg  Mg18  1  0.75000000  0.00000000  0.73344850  1
  Mg  Mg19  1  0.25000000  0.50000000  0.76655150  1
  In  In20  1  0.50000000  0.76651300  0.12268800  1
  In  In21  1  0.00000000  0.73348700  0.37731200  1
  In  In22  1  0.50000000  0.26651300  0.37731200  1
  In  In23  1  0.00000000  0.23348700  0.12268800  1
  In  In24  1  0.00000000  0.26651300  0.62268800  1
  In  In25  1  0.50000000  0.23348700  0.87731200  1
  In  In26  1  0.00000000  0.76651300  0.87731200  1
  In  In27  1  0.50000000  0.73348700  0.62268800  1
