# generated using pymatgen
data_CrPb2O5
_symmetry_space_group_name_H-M   'P 1'
_cell_length_a   14.05906600
_cell_length_b   5.82848600
_cell_length_c   7.26171135
_cell_angle_alpha   90.00000000
_cell_angle_beta   112.83886003
_cell_angle_gamma   90.00000000
_symmetry_Int_Tables_number   1
_chemical_formula_structural   CrPb2O5
_chemical_formula_sum   'Cr4 Pb8 O20'
_cell_volume   548.39530569
_cell_formula_units_Z   4
loop_
 _symmetry_equiv_pos_site_id
 _symmetry_equiv_pos_as_xyz
  1  'x, y, z'
loop_
 _atom_site_type_symbol
 _atom_site_label
 _atom_site_symmetry_multiplicity
 _atom_site_fract_x
 _atom_site_fract_y
 _atom_site_fract_z
 _atom_site_occupancy
  Cr  Cr0  1  0.17374600  0.00000000  0.15635900  1
  Cr  Cr1  1  0.32625400  0.50000000  0.84364100  1
  Cr  Cr2  1  0.67374600  0.50000000  0.15635900  1
  Cr  Cr3  1  0.82625400  0.00000000  0.84364100  1
  Pb  Pb4  1  0.48515100  0.00000000  0.24027700  1
  Pb  Pb5  1  0.01484900  0.50000000  0.75972300  1
  Pb  Pb6  1  0.14195600  0.00000000  0.60668500  1
  Pb  Pb7  1  0.35804400  0.50000000  0.39331500  1
  Pb  Pb8  1  0.98515100  0.50000000  0.24027700  1
  Pb  Pb9  1  0.51484900  0.00000000  0.75972300  1
  Pb  Pb10  1  0.64195600  0.50000000  0.60668500  1
  Pb  Pb11  1  0.85804400  0.00000000  0.39331500  1
  O  O12  1  0.00000000  0.74705100  0.50000000  1
  O  O13  1  0.00000000  0.25294900  0.50000000  1
  O  O14  1  0.34967950  0.26960050  0.73127100  1
  O  O15  1  0.15032050  0.76960050  0.26872900  1
  O  O16  1  0.15032050  0.23039950  0.26872900  1
  O  O17  1  0.34967950  0.73039950  0.73127100  1
  O  O18  1  0.40069900  0.50000000  0.08850900  1
  O  O19  1  0.09930100  0.00000000  0.91149100  1
  O  O20  1  0.29842900  0.00000000  0.19094900  1
  O  O21  1  0.20157100  0.50000000  0.80905100  1
  O  O22  1  0.50000000  0.24705100  0.50000000  1
  O  O23  1  0.50000000  0.75294900  0.50000000  1
  O  O24  1  0.84967950  0.76960050  0.73127100  1
  O  O25  1  0.65032050  0.26960050  0.26872900  1
  O  O26  1  0.65032050  0.73039950  0.26872900  1
  O  O27  1  0.84967950  0.23039950  0.73127100  1
  O  O28  1  0.90069900  0.00000000  0.08850900  1
  O  O29  1  0.59930100  0.50000000  0.91149100  1
  O  O30  1  0.79842900  0.50000000  0.19094900  1
  O  O31  1  0.70157100  0.00000000  0.80905100  1
