# generated using pymatgen
data_Nd4Bi3
_symmetry_space_group_name_H-M   'P 1'
_cell_length_a   9.69568800
_cell_length_b   9.69568800
_cell_length_c   9.69568800
_cell_angle_alpha   90.00000000
_cell_angle_beta   90.00000000
_cell_angle_gamma   90.00000000
_symmetry_Int_Tables_number   1
_chemical_formula_structural   Nd4Bi3
_chemical_formula_sum   'Nd16 Bi12'
_cell_volume   911.45639275
_cell_formula_units_Z   4
loop_
 _symmetry_equiv_pos_site_id
 _symmetry_equiv_pos_as_xyz
  1  'x, y, z'
loop_
 _atom_site_type_symbol
 _atom_site_label
 _atom_site_symmetry_multiplicity
 _atom_site_fract_x
 _atom_site_fract_y
 _atom_site_fract_z
 _atom_site_occupancy
  Nd  Nd0  1  0.17826650  0.82173350  0.32173350  1
  Nd  Nd1  1  0.92826650  0.07173350  0.57173350  1
  Nd  Nd2  1  0.07173350  0.57173350  0.92826650  1
  Nd  Nd3  1  0.17826650  0.17826650  0.17826650  1
  Nd  Nd4  1  0.82173350  0.32173350  0.17826650  1
  Nd  Nd5  1  0.57173350  0.92826650  0.07173350  1
  Nd  Nd6  1  0.42826650  0.42826650  0.42826650  1
  Nd  Nd7  1  0.32173350  0.17826650  0.82173350  1
  Nd  Nd8  1  0.67826650  0.32173350  0.82173350  1
  Nd  Nd9  1  0.42826650  0.57173350  0.07173350  1
  Nd  Nd10  1  0.57173350  0.07173350  0.42826650  1
  Nd  Nd11  1  0.67826650  0.67826650  0.67826650  1
  Nd  Nd12  1  0.32173350  0.82173350  0.67826650  1
  Nd  Nd13  1  0.07173350  0.42826650  0.57173350  1
  Nd  Nd14  1  0.92826650  0.92826650  0.92826650  1
  Nd  Nd15  1  0.82173350  0.67826650  0.32173350  1
  Bi  Bi16  1  0.50000000  0.25000000  0.12500000  1
  Bi  Bi17  1  0.75000000  0.37500000  0.50000000  1
  Bi  Bi18  1  0.25000000  0.12500000  0.50000000  1
  Bi  Bi19  1  0.50000000  0.75000000  0.37500000  1
  Bi  Bi20  1  0.37500000  0.50000000  0.75000000  1
  Bi  Bi21  1  0.12500000  0.50000000  0.25000000  1
  Bi  Bi22  1  0.00000000  0.75000000  0.62500000  1
  Bi  Bi23  1  0.25000000  0.87500000  0.00000000  1
  Bi  Bi24  1  0.75000000  0.62500000  0.00000000  1
  Bi  Bi25  1  0.00000000  0.25000000  0.87500000  1
  Bi  Bi26  1  0.87500000  0.00000000  0.25000000  1
  Bi  Bi27  1  0.62500000  0.00000000  0.75000000  1
