# generated using pymatgen
data_Mn2GeO4
_symmetry_space_group_name_H-M   'P 1'
_cell_length_a   3.01215365
_cell_length_b   5.34673618
_cell_length_c   9.41382990
_cell_angle_alpha   90.00000000
_cell_angle_beta   90.00000000
_cell_angle_gamma   90.00000000
_symmetry_Int_Tables_number   1
_chemical_formula_structural   Mn2GeO4
_chemical_formula_sum   'Mn4 Ge2 O8'
_cell_volume   151.61152764
_cell_formula_units_Z   2
loop_
 _symmetry_equiv_pos_site_id
 _symmetry_equiv_pos_as_xyz
  1  'x, y, z'
loop_
 _atom_site_type_symbol
 _atom_site_label
 _atom_site_symmetry_multiplicity
 _atom_site_fract_x
 _atom_site_fract_y
 _atom_site_fract_z
 _atom_site_occupancy
  Mn  Mn0  1  0.50000000  0.93646280  0.82329368  1
  Mn  Mn1  1  0.50000000  0.06353720  0.17670632  1
  Mn  Mn2  1  0.50000000  0.43646280  0.67670632  1
  Mn  Mn3  1  0.50000000  0.56353720  0.32329368  1
  Ge  Ge4  1  0.00000000  0.00000000  0.50000000  1
  Ge  Ge5  1  0.00000000  0.50000000  0.00000000  1
  O  O6  1  0.00000000  0.63007335  0.81275636  1
  O  O7  1  0.00000000  0.36992665  0.18724364  1
  O  O8  1  0.00000000  0.13007335  0.68724364  1
  O  O9  1  0.00000000  0.86992665  0.31275636  1
  O  O10  1  0.50000000  0.76942272  0.54307244  1
  O  O11  1  0.50000000  0.23057728  0.45692756  1
  O  O12  1  0.50000000  0.73057728  0.04307244  1
  O  O13  1  0.50000000  0.26942272  0.95692756  1
