# generated using pymatgen
data_LaIn2Pd
_symmetry_space_group_name_H-M   'P 1'
_cell_length_a   4.70555000
_cell_length_b   10.87233600
_cell_length_c   7.61864200
_cell_angle_alpha   90.00000000
_cell_angle_beta   90.00000000
_cell_angle_gamma   90.00000000
_symmetry_Int_Tables_number   1
_chemical_formula_structural   LaIn2Pd
_chemical_formula_sum   'La4 In8 Pd4'
_cell_volume   389.77216775
_cell_formula_units_Z   4
loop_
 _symmetry_equiv_pos_site_id
 _symmetry_equiv_pos_as_xyz
  1  'x, y, z'
loop_
 _atom_site_type_symbol
 _atom_site_label
 _atom_site_symmetry_multiplicity
 _atom_site_fract_x
 _atom_site_fract_y
 _atom_site_fract_z
 _atom_site_occupancy
  La  La0  1  0.50000000  0.07552100  0.75000000  1
  La  La1  1  0.00000000  0.42447900  0.25000000  1
  La  La2  1  0.00000000  0.57552100  0.75000000  1
  La  La3  1  0.50000000  0.92447900  0.25000000  1
  In  In4  1  0.00000000  0.13910100  0.05086600  1
  In  In5  1  0.50000000  0.36089900  0.94913400  1
  In  In6  1  0.00000000  0.13910100  0.44913400  1
  In  In7  1  0.50000000  0.36089900  0.55086600  1
  In  In8  1  0.50000000  0.63910100  0.05086600  1
  In  In9  1  0.00000000  0.86089900  0.94913400  1
  In  In10  1  0.50000000  0.63910100  0.44913400  1
  In  In11  1  0.00000000  0.86089900  0.55086600  1
  Pd  Pd12  1  0.50000000  0.20733200  0.25000000  1
  Pd  Pd13  1  0.00000000  0.29266800  0.75000000  1
  Pd  Pd14  1  0.00000000  0.70733200  0.25000000  1
  Pd  Pd15  1  0.50000000  0.79266800  0.75000000  1
