# generated using pymatgen
data_Mn2NiO6
_symmetry_space_group_name_H-M   'P 1'
_cell_length_a   5.00766400
_cell_length_b   8.68188000
_cell_length_c   10.01321300
_cell_angle_alpha   90.00000000
_cell_angle_beta   90.00000000
_cell_angle_gamma   90.00000000
_symmetry_Int_Tables_number   1
_chemical_formula_structural   Mn2NiO6
_chemical_formula_sum   'Mn8 Ni4 O24'
_cell_volume   435.33382685
_cell_formula_units_Z   4
loop_
 _symmetry_equiv_pos_site_id
 _symmetry_equiv_pos_as_xyz
  1  'x, y, z'
loop_
 _atom_site_type_symbol
 _atom_site_label
 _atom_site_symmetry_multiplicity
 _atom_site_fract_x
 _atom_site_fract_y
 _atom_site_fract_z
 _atom_site_occupancy
  Mn  Mn0  1  0.50000000  0.16661400  0.00000000  1
  Mn  Mn1  1  0.50000000  0.33338600  0.50000000  1
  Mn  Mn2  1  0.00000000  0.33338600  0.00000000  1
  Mn  Mn3  1  0.00000000  0.16661400  0.50000000  1
  Mn  Mn4  1  0.00000000  0.66661400  0.00000000  1
  Mn  Mn5  1  0.00000000  0.83338600  0.50000000  1
  Mn  Mn6  1  0.50000000  0.83338600  0.00000000  1
  Mn  Mn7  1  0.50000000  0.66661400  0.50000000  1
  Ni  Ni8  1  0.00000000  0.00000000  0.00000000  1
  Ni  Ni9  1  0.50000000  0.00000000  0.50000000  1
  Ni  Ni10  1  0.50000000  0.50000000  0.00000000  1
  Ni  Ni11  1  0.00000000  0.50000000  0.50000000  1
  O  O12  1  0.16363000  0.33618800  0.59554600  1
  O  O13  1  0.33637000  0.16381200  0.40445400  1
  O  O14  1  0.83637000  0.16381200  0.09554600  1
  O  O15  1  0.16363000  0.16381200  0.90445400  1
  O  O16  1  0.67243900  0.00000000  0.90454200  1
  O  O17  1  0.82756100  0.00000000  0.40454200  1
  O  O18  1  0.66363000  0.16381200  0.59554600  1
  O  O19  1  0.83637000  0.33618800  0.40445400  1
  O  O20  1  0.33637000  0.33618800  0.09554600  1
  O  O21  1  0.32756100  0.00000000  0.09545800  1
  O  O22  1  0.17243900  0.00000000  0.59545800  1
  O  O23  1  0.66363000  0.33618800  0.90445400  1
  O  O24  1  0.66363000  0.83618800  0.59554600  1
  O  O25  1  0.83637000  0.66381200  0.40445400  1
  O  O26  1  0.33637000  0.66381200  0.09554600  1
  O  O27  1  0.66363000  0.66381200  0.90445400  1
  O  O28  1  0.17243900  0.50000000  0.90454200  1
  O  O29  1  0.32756100  0.50000000  0.40454200  1
  O  O30  1  0.16363000  0.66381200  0.59554600  1
  O  O31  1  0.33637000  0.83618800  0.40445400  1
  O  O32  1  0.83637000  0.83618800  0.09554600  1
  O  O33  1  0.82756100  0.50000000  0.09545800  1
  O  O34  1  0.67243900  0.50000000  0.59545800  1
  O  O35  1  0.16363000  0.83618800  0.90445400  1
