# generated using pymatgen
data_HfFeSi2
_symmetry_space_group_name_H-M   'P 1'
_cell_length_a   5.14658400
_cell_length_b   7.70827000
_cell_length_c   16.97206600
_cell_angle_alpha   90.00000000
_cell_angle_beta   90.00000000
_cell_angle_gamma   90.00000000
_symmetry_Int_Tables_number   1
_chemical_formula_structural   HfFeSi2
_chemical_formula_sum   'Hf12 Fe12 Si24'
_cell_volume   673.30322689
_cell_formula_units_Z   12
loop_
 _symmetry_equiv_pos_site_id
 _symmetry_equiv_pos_as_xyz
  1  'x, y, z'
loop_
 _atom_site_type_symbol
 _atom_site_label
 _atom_site_symmetry_multiplicity
 _atom_site_fract_x
 _atom_site_fract_y
 _atom_site_fract_z
 _atom_site_occupancy
  Hf  Hf0  1  0.00000000  0.26153900  0.59578300  1
  Hf  Hf1  1  0.50000000  0.23846100  0.90421700  1
  Hf  Hf2  1  0.50000000  0.76153900  0.90421700  1
  Hf  Hf3  1  0.00000000  0.73846100  0.59578300  1
  Hf  Hf4  1  0.50000000  0.50000000  0.64169550  1
  Hf  Hf5  1  0.00000000  0.00000000  0.85830450  1
  Hf  Hf6  1  0.50000000  0.76153900  0.09578300  1
  Hf  Hf7  1  0.00000000  0.73846100  0.40421700  1
  Hf  Hf8  1  0.00000000  0.26153900  0.40421700  1
  Hf  Hf9  1  0.50000000  0.23846100  0.09578300  1
  Hf  Hf10  1  0.00000000  0.00000000  0.14169550  1
  Hf  Hf11  1  0.50000000  0.50000000  0.35830450  1
  Fe  Fe12  1  0.00000000  0.74519850  0.00000000  1
  Fe  Fe13  1  0.25000000  0.25000000  0.75000000  1
  Fe  Fe14  1  0.75000000  0.75000000  0.75000000  1
  Fe  Fe15  1  0.25000000  0.75000000  0.75000000  1
  Fe  Fe16  1  0.00000000  0.25480150  0.00000000  1
  Fe  Fe17  1  0.75000000  0.25000000  0.75000000  1
  Fe  Fe18  1  0.50000000  0.24519850  0.50000000  1
  Fe  Fe19  1  0.75000000  0.75000000  0.25000000  1
  Fe  Fe20  1  0.25000000  0.25000000  0.25000000  1
  Fe  Fe21  1  0.75000000  0.25000000  0.25000000  1
  Fe  Fe22  1  0.50000000  0.75480150  0.50000000  1
  Fe  Fe23  1  0.25000000  0.75000000  0.25000000  1
  Si  Si24  1  0.50000000  0.84873250  0.63930850  1
  Si  Si25  1  0.00000000  0.65126750  0.86069150  1
  Si  Si26  1  0.00000000  0.34873250  0.86069150  1
  Si  Si27  1  0.50000000  0.15126750  0.63930850  1
  Si  Si28  1  0.00000000  0.00000000  0.70222350  1
  Si  Si29  1  0.50000000  0.50000000  0.79777650  1
  Si  Si30  1  0.74140350  0.50000000  0.00000000  1
  Si  Si31  1  0.25859650  0.50000000  0.00000000  1
  Si  Si32  1  0.25435850  0.00000000  0.00000000  1
  Si  Si33  1  0.00000000  0.50000000  0.71433850  1
  Si  Si34  1  0.74564150  0.00000000  0.00000000  1
  Si  Si35  1  0.50000000  0.00000000  0.78566150  1
  Si  Si36  1  0.00000000  0.34873250  0.13930850  1
  Si  Si37  1  0.50000000  0.15126750  0.36069150  1
  Si  Si38  1  0.50000000  0.84873250  0.36069150  1
  Si  Si39  1  0.00000000  0.65126750  0.13930850  1
  Si  Si40  1  0.50000000  0.50000000  0.20222350  1
  Si  Si41  1  0.00000000  0.00000000  0.29777650  1
  Si  Si42  1  0.24140350  0.00000000  0.50000000  1
  Si  Si43  1  0.75859650  0.00000000  0.50000000  1
  Si  Si44  1  0.75435850  0.50000000  0.50000000  1
  Si  Si45  1  0.50000000  0.00000000  0.21433850  1
  Si  Si46  1  0.24564150  0.50000000  0.50000000  1
  Si  Si47  1  0.00000000  0.50000000  0.28566150  1
