# generated using pymatgen
data_Ga(MoS2)4
_symmetry_space_group_name_H-M   'P 1'
_cell_length_a   9.83191200
_cell_length_b   9.83191200
_cell_length_c   9.83191200
_cell_angle_alpha   90.00000000
_cell_angle_beta   90.00000000
_cell_angle_gamma   90.00000000
_symmetry_Int_Tables_number   1
_chemical_formula_structural   Ga(MoS2)4
_chemical_formula_sum   'Ga4 Mo16 S32'
_cell_volume   950.41645819
_cell_formula_units_Z   4
loop_
 _symmetry_equiv_pos_site_id
 _symmetry_equiv_pos_as_xyz
  1  'x, y, z'
loop_
 _atom_site_type_symbol
 _atom_site_label
 _atom_site_symmetry_multiplicity
 _atom_site_fract_x
 _atom_site_fract_y
 _atom_site_fract_z
 _atom_site_occupancy
  Ga  Ga0  1  0.50000000  0.00000000  0.00000000  1
  Ga  Ga1  1  0.50000000  0.50000000  0.50000000  1
  Ga  Ga2  1  0.00000000  0.00000000  0.50000000  1
  Ga  Ga3  1  0.00000000  0.50000000  0.00000000  1
  Mo  Mo4  1  0.39647367  0.39647367  0.89647367  1
  Mo  Mo5  1  0.10352633  0.39647367  0.60352633  1
  Mo  Mo6  1  0.39647367  0.10352633  0.60352633  1
  Mo  Mo7  1  0.10352633  0.10352633  0.89647367  1
  Mo  Mo8  1  0.39647367  0.89647367  0.39647367  1
  Mo  Mo9  1  0.10352633  0.89647367  0.10352633  1
  Mo  Mo10  1  0.39647367  0.60352633  0.10352633  1
  Mo  Mo11  1  0.10352633  0.60352633  0.39647367  1
  Mo  Mo12  1  0.89647367  0.39647367  0.39647367  1
  Mo  Mo13  1  0.60352633  0.39647367  0.10352633  1
  Mo  Mo14  1  0.89647367  0.10352633  0.10352633  1
  Mo  Mo15  1  0.60352633  0.10352633  0.39647367  1
  Mo  Mo16  1  0.89647367  0.89647367  0.89647367  1
  Mo  Mo17  1  0.60352633  0.89647367  0.60352633  1
  Mo  Mo18  1  0.89647367  0.60352633  0.60352633  1
  Mo  Mo19  1  0.60352633  0.60352633  0.89647367  1
  S  S20  1  0.86452533  0.36452533  0.13547467  1
  S  S21  1  0.63547467  0.13547467  0.13547467  1
  S  S22  1  0.36452533  0.13547467  0.86452533  1
  S  S23  1  0.13547467  0.36452533  0.86452533  1
  S  S24  1  0.36645100  0.36645100  0.13354900  1
  S  S25  1  0.13354900  0.36645100  0.36645100  1
  S  S26  1  0.36645100  0.13354900  0.36645100  1
  S  S27  1  0.13354900  0.13354900  0.13354900  1
  S  S28  1  0.86452533  0.86452533  0.63547467  1
  S  S29  1  0.63547467  0.63547467  0.63547467  1
  S  S30  1  0.36452533  0.63547467  0.36452533  1
  S  S31  1  0.13547467  0.86452533  0.36452533  1
  S  S32  1  0.36645100  0.86645100  0.63354900  1
  S  S33  1  0.13354900  0.86645100  0.86645100  1
  S  S34  1  0.36645100  0.63354900  0.86645100  1
  S  S35  1  0.13354900  0.63354900  0.63354900  1
  S  S36  1  0.36452533  0.36452533  0.63547467  1
  S  S37  1  0.13547467  0.13547467  0.63547467  1
  S  S38  1  0.86452533  0.13547467  0.36452533  1
  S  S39  1  0.63547467  0.36452533  0.36452533  1
  S  S40  1  0.86645100  0.36645100  0.63354900  1
  S  S41  1  0.63354900  0.36645100  0.86645100  1
  S  S42  1  0.86645100  0.13354900  0.86645100  1
  S  S43  1  0.63354900  0.13354900  0.63354900  1
  S  S44  1  0.36452533  0.86452533  0.13547467  1
  S  S45  1  0.13547467  0.63547467  0.13547467  1
  S  S46  1  0.86452533  0.63547467  0.86452533  1
  S  S47  1  0.63547467  0.86452533  0.86452533  1
  S  S48  1  0.86645100  0.86645100  0.13354900  1
  S  S49  1  0.63354900  0.86645100  0.36645100  1
  S  S50  1  0.86645100  0.63354900  0.36645100  1
  S  S51  1  0.63354900  0.63354900  0.13354900  1
