# generated using pymatgen
data_Tb3(CoGe2)2
_symmetry_space_group_name_H-M   'P 1'
_cell_length_a   10.75230200
_cell_length_b   4.16406800
_cell_length_c   8.06449586
_cell_angle_alpha   90.00000000
_cell_angle_beta   107.59948769
_cell_angle_gamma   90.00000000
_symmetry_Int_Tables_number   1
_chemical_formula_structural   Tb3(CoGe2)2
_chemical_formula_sum   'Tb6 Co4 Ge8'
_cell_volume   344.17355991
_cell_formula_units_Z   2
loop_
 _symmetry_equiv_pos_site_id
 _symmetry_equiv_pos_as_xyz
  1  'x, y, z'
loop_
 _atom_site_type_symbol
 _atom_site_label
 _atom_site_symmetry_multiplicity
 _atom_site_fract_x
 _atom_site_fract_y
 _atom_site_fract_z
 _atom_site_occupancy
  Tb  Tb0  1  0.00000000  0.00000000  0.00000000  1
  Tb  Tb1  1  0.87712100  0.50000000  0.30755800  1
  Tb  Tb2  1  0.62287900  0.00000000  0.69244200  1
  Tb  Tb3  1  0.50000000  0.50000000  0.00000000  1
  Tb  Tb4  1  0.37712100  0.00000000  0.30755800  1
  Tb  Tb5  1  0.12287900  0.50000000  0.69244200  1
  Co  Co6  1  0.69261200  0.00000000  0.37246200  1
  Co  Co7  1  0.80738800  0.50000000  0.62753800  1
  Co  Co8  1  0.19261200  0.50000000  0.37246200  1
  Co  Co9  1  0.30738800  0.00000000  0.62753800  1
  Ge  Ge10  1  0.59925100  0.50000000  0.39928800  1
  Ge  Ge11  1  0.79085100  0.50000000  0.91882000  1
  Ge  Ge12  1  0.70914900  0.00000000  0.08118000  1
  Ge  Ge13  1  0.90074900  0.00000000  0.60071200  1
  Ge  Ge14  1  0.09925100  0.00000000  0.39928800  1
  Ge  Ge15  1  0.29085100  0.00000000  0.91882000  1
  Ge  Ge16  1  0.20914900  0.50000000  0.08118000  1
  Ge  Ge17  1  0.40074900  0.50000000  0.60071200  1
