# generated using pymatgen
data_Li3CoPCO7
_symmetry_space_group_name_H-M   'P 1'
_cell_length_a   5.00068793
_cell_length_b   6.43114800
_cell_length_c   8.48508269
_cell_angle_alpha   90.00000000
_cell_angle_beta   96.24461250
_cell_angle_gamma   90.00000000
_symmetry_Int_Tables_number   1
_chemical_formula_structural   Li3CoPCO7
_chemical_formula_sum   'Li6 Co2 P2 C2 O14'
_cell_volume   271.26252849
_cell_formula_units_Z   2
loop_
 _symmetry_equiv_pos_site_id
 _symmetry_equiv_pos_as_xyz
  1  'x, y, z'
loop_
 _atom_site_type_symbol
 _atom_site_label
 _atom_site_symmetry_multiplicity
 _atom_site_fract_x
 _atom_site_fract_y
 _atom_site_fract_z
 _atom_site_occupancy
  Li  Li0  1  0.79409850  0.25000000  0.89555300  1
  Li  Li1  1  0.20590150  0.75000000  0.10444700  1
  Li  Li2  1  0.73190800  0.98442000  0.27411400  1
  Li  Li3  1  0.26809200  0.01558000  0.72588600  1
  Li  Li4  1  0.26809200  0.48442000  0.72588600  1
  Li  Li5  1  0.73190800  0.51558000  0.27411400  1
  Co  Co6  1  0.78756050  0.75000000  0.66776300  1
  Co  Co7  1  0.21243950  0.25000000  0.33223700  1
  P  P8  1  0.73300900  0.25000000  0.58874400  1
  P  P9  1  0.26699100  0.75000000  0.41125600  1
  C  C10  1  0.67778650  0.75000000  0.95908700  1
  C  C11  1  0.32221350  0.25000000  0.04091300  1
  O  O12  1  0.50380000  0.25000000  0.16466500  1
  O  O13  1  0.49620000  0.75000000  0.83533500  1
  O  O14  1  0.92710200  0.75000000  0.93197500  1
  O  O15  1  0.07289800  0.25000000  0.06802500  1
  O  O16  1  0.16389000  0.75000000  0.57556700  1
  O  O17  1  0.83611000  0.25000000  0.42443300  1
  O  O18  1  0.41844350  0.25000000  0.56700700  1
  O  O19  1  0.58155650  0.75000000  0.43299300  1
  O  O20  1  0.60630650  0.75000000  0.10144800  1
  O  O21  1  0.39369350  0.25000000  0.89855200  1
  O  O22  1  0.16148000  0.56234500  0.30559400  1
  O  O23  1  0.16148000  0.93765500  0.30559400  1
  O  O24  1  0.83852000  0.43765500  0.69440600  1
  O  O25  1  0.83852000  0.06234500  0.69440600  1
