# generated using pymatgen
data_La3PI3
_symmetry_space_group_name_H-M   'P 1'
_cell_length_a   12.55993400
_cell_length_b   12.55993400
_cell_length_c   12.55993400
_cell_angle_alpha   90.00000000
_cell_angle_beta   90.00000000
_cell_angle_gamma   90.00000000
_symmetry_Int_Tables_number   1
_chemical_formula_structural   La3PI3
_chemical_formula_sum   'La24 P8 I24'
_cell_volume   1981.35398095
_cell_formula_units_Z   8
loop_
 _symmetry_equiv_pos_site_id
 _symmetry_equiv_pos_as_xyz
  1  'x, y, z'
loop_
 _atom_site_type_symbol
 _atom_site_label
 _atom_site_symmetry_multiplicity
 _atom_site_fract_x
 _atom_site_fract_y
 _atom_site_fract_z
 _atom_site_occupancy
  La  La0  1  0.89336750  0.14336750  0.12500000  1
  La  La1  1  0.12500000  0.89336750  0.14336750  1
  La  La2  1  0.14336750  0.87500000  0.60663250  1
  La  La3  1  0.87500000  0.39336750  0.35663250  1
  La  La4  1  0.14336750  0.12500000  0.89336750  1
  La  La5  1  0.60663250  0.14336750  0.87500000  1
  La  La6  1  0.39336750  0.35663250  0.87500000  1
  La  La7  1  0.35663250  0.87500000  0.39336750  1
  La  La8  1  0.35663250  0.12500000  0.10663250  1
  La  La9  1  0.12500000  0.10663250  0.35663250  1
  La  La10  1  0.87500000  0.60663250  0.14336750  1
  La  La11  1  0.10663250  0.35663250  0.12500000  1
  La  La12  1  0.39336750  0.64336750  0.62500000  1
  La  La13  1  0.62500000  0.39336750  0.64336750  1
  La  La14  1  0.64336750  0.37500000  0.10663250  1
  La  La15  1  0.37500000  0.89336750  0.85663250  1
  La  La16  1  0.64336750  0.62500000  0.39336750  1
  La  La17  1  0.10663250  0.64336750  0.37500000  1
  La  La18  1  0.89336750  0.85663250  0.37500000  1
  La  La19  1  0.85663250  0.37500000  0.89336750  1
  La  La20  1  0.85663250  0.62500000  0.60663250  1
  La  La21  1  0.62500000  0.60663250  0.85663250  1
  La  La22  1  0.37500000  0.10663250  0.64336750  1
  La  La23  1  0.60663250  0.85663250  0.62500000  1
  P  P24  1  0.37500000  0.12500000  0.87500000  1
  P  P25  1  0.12500000  0.87500000  0.37500000  1
  P  P26  1  0.87500000  0.37500000  0.12500000  1
  P  P27  1  0.12500000  0.12500000  0.12500000  1
  P  P28  1  0.87500000  0.62500000  0.37500000  1
  P  P29  1  0.62500000  0.37500000  0.87500000  1
  P  P30  1  0.37500000  0.87500000  0.62500000  1
  P  P31  1  0.62500000  0.62500000  0.62500000  1
  I  I32  1  0.11615500  0.13384500  0.62500000  1
  I  I33  1  0.36615500  0.62500000  0.88384500  1
  I  I34  1  0.62500000  0.88384500  0.36615500  1
  I  I35  1  0.37500000  0.38384500  0.13384500  1
  I  I36  1  0.36615500  0.37500000  0.61615500  1
  I  I37  1  0.61615500  0.36615500  0.37500000  1
  I  I38  1  0.38384500  0.13384500  0.37500000  1
  I  I39  1  0.13384500  0.37500000  0.38384500  1
  I  I40  1  0.88384500  0.36615500  0.62500000  1
  I  I41  1  0.37500000  0.61615500  0.36615500  1
  I  I42  1  0.62500000  0.11615500  0.13384500  1
  I  I43  1  0.13384500  0.62500000  0.11615500  1
  I  I44  1  0.61615500  0.63384500  0.12500000  1
  I  I45  1  0.86615500  0.12500000  0.38384500  1
  I  I46  1  0.12500000  0.38384500  0.86615500  1
  I  I47  1  0.87500000  0.88384500  0.63384500  1
  I  I48  1  0.86615500  0.87500000  0.11615500  1
  I  I49  1  0.11615500  0.86615500  0.87500000  1
  I  I50  1  0.88384500  0.63384500  0.87500000  1
  I  I51  1  0.63384500  0.87500000  0.88384500  1
  I  I52  1  0.38384500  0.86615500  0.12500000  1
  I  I53  1  0.87500000  0.11615500  0.86615500  1
  I  I54  1  0.12500000  0.61615500  0.63384500  1
  I  I55  1  0.63384500  0.12500000  0.61615500  1
