# generated using pymatgen
data_Zr2P
_symmetry_space_group_name_H-M   'P 1'
_cell_length_a   19.15432800
_cell_length_b   29.61976000
_cell_length_c   3.63772200
_cell_angle_alpha   90.00000000
_cell_angle_beta   90.00000000
_cell_angle_gamma   90.00000000
_symmetry_Int_Tables_number   1
_chemical_formula_structural   Zr2P
_chemical_formula_sum   'Zr72 P36'
_cell_volume   2063.84920234
_cell_formula_units_Z   36
loop_
 _symmetry_equiv_pos_site_id
 _symmetry_equiv_pos_as_xyz
  1  'x, y, z'
loop_
 _atom_site_type_symbol
 _atom_site_label
 _atom_site_symmetry_multiplicity
 _atom_site_fract_x
 _atom_site_fract_y
 _atom_site_fract_z
 _atom_site_occupancy
  Zr  Zr0  1  0.58055100  0.11876500  0.00000000  1
  Zr  Zr1  1  0.41944900  0.88123500  0.00000000  1
  Zr  Zr2  1  0.25060900  0.00000000  0.50000000  1
  Zr  Zr3  1  0.74939100  0.00000000  0.50000000  1
  Zr  Zr4  1  0.10662200  0.00000000  0.00000000  1
  Zr  Zr5  1  0.89337800  0.00000000  0.00000000  1
  Zr  Zr6  1  0.38422500  0.00000000  0.00000000  1
  Zr  Zr7  1  0.61577500  0.00000000  0.00000000  1
  Zr  Zr8  1  0.50000000  0.55782100  0.50000000  1
  Zr  Zr9  1  0.50000000  0.44217900  0.50000000  1
  Zr  Zr10  1  0.50000000  0.80758600  0.50000000  1
  Zr  Zr11  1  0.50000000  0.19241400  0.50000000  1
  Zr  Zr12  1  0.50000000  0.94779400  0.50000000  1
  Zr  Zr13  1  0.50000000  0.05220600  0.50000000  1
  Zr  Zr14  1  0.50000000  0.72114500  0.00000000  1
  Zr  Zr15  1  0.50000000  0.27885500  0.00000000  1
  Zr  Zr16  1  0.25000000  0.25000000  0.00000000  1
  Zr  Zr17  1  0.25000000  0.75000000  0.00000000  1
  Zr  Zr18  1  0.41944900  0.11876500  0.00000000  1
  Zr  Zr19  1  0.58055100  0.88123500  0.00000000  1
  Zr  Zr20  1  0.41035250  0.62122450  0.00000000  1
  Zr  Zr21  1  0.58964750  0.37877550  0.00000000  1
  Zr  Zr22  1  0.41035250  0.37877550  0.00000000  1
  Zr  Zr23  1  0.58964750  0.62122450  0.00000000  1
  Zr  Zr24  1  0.75206000  0.08265000  0.00000000  1
  Zr  Zr25  1  0.24794000  0.91735000  0.00000000  1
  Zr  Zr26  1  0.75206000  0.91735000  0.00000000  1
  Zr  Zr27  1  0.24794000  0.08265000  0.00000000  1
  Zr  Zr28  1  0.31130800  0.82994600  0.50000000  1
  Zr  Zr29  1  0.68869200  0.17005400  0.50000000  1
  Zr  Zr30  1  0.31130800  0.17005400  0.50000000  1
  Zr  Zr31  1  0.68869200  0.82994600  0.50000000  1
  Zr  Zr32  1  0.37014150  0.71584950  0.50000000  1
  Zr  Zr33  1  0.62985850  0.28415050  0.50000000  1
  Zr  Zr34  1  0.37014150  0.28415050  0.50000000  1
  Zr  Zr35  1  0.62985850  0.71584950  0.50000000  1
  Zr  Zr36  1  0.08055100  0.61876500  0.00000000  1
  Zr  Zr37  1  0.91944900  0.38123500  0.00000000  1
  Zr  Zr38  1  0.75060900  0.50000000  0.50000000  1
  Zr  Zr39  1  0.24939100  0.50000000  0.50000000  1
  Zr  Zr40  1  0.60662200  0.50000000  0.00000000  1
  Zr  Zr41  1  0.39337800  0.50000000  0.00000000  1
  Zr  Zr42  1  0.88422500  0.50000000  0.00000000  1
  Zr  Zr43  1  0.11577500  0.50000000  0.00000000  1
  Zr  Zr44  1  0.00000000  0.05782100  0.50000000  1
  Zr  Zr45  1  0.00000000  0.94217900  0.50000000  1
  Zr  Zr46  1  0.00000000  0.30758600  0.50000000  1
  Zr  Zr47  1  0.00000000  0.69241400  0.50000000  1
  Zr  Zr48  1  0.00000000  0.44779400  0.50000000  1
  Zr  Zr49  1  0.00000000  0.55220600  0.50000000  1
  Zr  Zr50  1  0.00000000  0.22114500  0.00000000  1
  Zr  Zr51  1  0.00000000  0.77885500  0.00000000  1
  Zr  Zr52  1  0.75000000  0.75000000  0.00000000  1
  Zr  Zr53  1  0.75000000  0.25000000  0.00000000  1
  Zr  Zr54  1  0.91944900  0.61876500  0.00000000  1
  Zr  Zr55  1  0.08055100  0.38123500  0.00000000  1
  Zr  Zr56  1  0.91035250  0.12122450  0.00000000  1
  Zr  Zr57  1  0.08964750  0.87877550  0.00000000  1
  Zr  Zr58  1  0.91035250  0.87877550  0.00000000  1
  Zr  Zr59  1  0.08964750  0.12122450  0.00000000  1
  Zr  Zr60  1  0.25206000  0.58265000  0.00000000  1
  Zr  Zr61  1  0.74794000  0.41735000  0.00000000  1
  Zr  Zr62  1  0.25206000  0.41735000  0.00000000  1
  Zr  Zr63  1  0.74794000  0.58265000  0.00000000  1
  Zr  Zr64  1  0.81130800  0.32994600  0.50000000  1
  Zr  Zr65  1  0.18869200  0.67005400  0.50000000  1
  Zr  Zr66  1  0.81130800  0.67005400  0.50000000  1
  Zr  Zr67  1  0.18869200  0.32994600  0.50000000  1
  Zr  Zr68  1  0.87014150  0.21584950  0.50000000  1
  Zr  Zr69  1  0.12985850  0.78415050  0.50000000  1
  Zr  Zr70  1  0.87014150  0.78415050  0.50000000  1
  Zr  Zr71  1  0.12985850  0.21584950  0.50000000  1
  P  P72  1  0.50000000  0.34470000  0.50000000  1
  P  P73  1  0.50000000  0.65530000  0.50000000  1
  P  P74  1  0.39311700  0.78488800  0.00000000  1
  P  P75  1  0.60688300  0.21511200  0.00000000  1
  P  P76  1  0.39311700  0.21511200  0.00000000  1
  P  P77  1  0.60688300  0.78488800  0.00000000  1
  P  P78  1  0.79413650  0.16688550  0.00000000  1
  P  P79  1  0.20586350  0.83311450  0.00000000  1
  P  P80  1  0.79413650  0.83311450  0.00000000  1
  P  P81  1  0.20586350  0.16688550  0.00000000  1
  P  P82  1  0.64950750  0.06891750  0.50000000  1
  P  P83  1  0.35049250  0.93108250  0.50000000  1
  P  P84  1  0.64950750  0.93108250  0.50000000  1
  P  P85  1  0.35049250  0.06891750  0.50000000  1
  P  P86  1  0.85511250  0.06310350  0.50000000  1
  P  P87  1  0.14488750  0.93689650  0.50000000  1
  P  P88  1  0.85511250  0.93689650  0.50000000  1
  P  P89  1  0.14488750  0.06310350  0.50000000  1
  P  P90  1  0.00000000  0.84470000  0.50000000  1
  P  P91  1  0.00000000  0.15530000  0.50000000  1
  P  P92  1  0.89311700  0.28488800  0.00000000  1
  P  P93  1  0.10688300  0.71511200  0.00000000  1
  P  P94  1  0.89311700  0.71511200  0.00000000  1
  P  P95  1  0.10688300  0.28488800  0.00000000  1
  P  P96  1  0.29413650  0.66688550  0.00000000  1
  P  P97  1  0.70586350  0.33311450  0.00000000  1
  P  P98  1  0.29413650  0.33311450  0.00000000  1
  P  P99  1  0.70586350  0.66688550  0.00000000  1
  P  P100  1  0.14950750  0.56891750  0.50000000  1
  P  P101  1  0.85049250  0.43108250  0.50000000  1
  P  P102  1  0.14950750  0.43108250  0.50000000  1
  P  P103  1  0.85049250  0.56891750  0.50000000  1
  P  P104  1  0.35511250  0.56310350  0.50000000  1
  P  P105  1  0.64488750  0.43689650  0.50000000  1
  P  P106  1  0.35511250  0.43689650  0.50000000  1
  P  P107  1  0.64488750  0.56310350  0.50000000  1
