# generated using pymatgen
data_Pr12C6I17
_symmetry_space_group_name_H-M   'P 1'
_cell_length_a   20.37874800
_cell_length_b   12.73232200
_cell_length_c   19.50383393
_cell_angle_alpha   90.00000000
_cell_angle_beta   90.88239564
_cell_angle_gamma   90.00000000
_symmetry_Int_Tables_number   1
_chemical_formula_structural   Pr12C6I17
_chemical_formula_sum   'Pr48 C24 I68'
_cell_volume   5060.03589113
_cell_formula_units_Z   4
loop_
 _symmetry_equiv_pos_site_id
 _symmetry_equiv_pos_as_xyz
  1  'x, y, z'
loop_
 _atom_site_type_symbol
 _atom_site_label
 _atom_site_symmetry_multiplicity
 _atom_site_fract_x
 _atom_site_fract_y
 _atom_site_fract_z
 _atom_site_occupancy
  Pr  Pr0  1  0.49638800  0.79272100  0.02060000  1
  Pr  Pr1  1  0.50361200  0.79272100  0.47940000  1
  Pr  Pr2  1  0.50361200  0.20727900  0.97940000  1
  Pr  Pr3  1  0.49638800  0.20727900  0.52060000  1
  Pr  Pr4  1  0.45871150  0.00713450  0.12803100  1
  Pr  Pr5  1  0.54128850  0.00713450  0.37196900  1
  Pr  Pr6  1  0.54128850  0.99286550  0.87196900  1
  Pr  Pr7  1  0.45871150  0.99286550  0.62803100  1
  Pr  Pr8  1  0.33845500  0.76250700  0.11692500  1
  Pr  Pr9  1  0.66154500  0.76250700  0.38307500  1
  Pr  Pr10  1  0.66154500  0.23749300  0.88307500  1
  Pr  Pr11  1  0.33845500  0.23749300  0.61692500  1
  Pr  Pr12  1  0.35872550  0.99983650  0.94979000  1
  Pr  Pr13  1  0.64127450  0.99983650  0.55021000  1
  Pr  Pr14  1  0.64127450  0.00016350  0.05021000  1
  Pr  Pr15  1  0.35872550  0.00016350  0.44979000  1
  Pr  Pr16  1  0.95164150  0.02818050  0.15223200  1
  Pr  Pr17  1  0.04835850  0.02818050  0.34776800  1
  Pr  Pr18  1  0.04835850  0.97181950  0.84776800  1
  Pr  Pr19  1  0.95164150  0.97181950  0.65223200  1
  Pr  Pr20  1  0.42675250  0.76492050  0.28887600  1
  Pr  Pr21  1  0.57324750  0.76492050  0.21112400  1
  Pr  Pr22  1  0.57324750  0.23507950  0.71112400  1
  Pr  Pr23  1  0.42675250  0.23507950  0.78887600  1
  Pr  Pr24  1  0.99638800  0.29272100  0.02060000  1
  Pr  Pr25  1  0.00361200  0.29272100  0.47940000  1
  Pr  Pr26  1  0.00361200  0.70727900  0.97940000  1
  Pr  Pr27  1  0.99638800  0.70727900  0.52060000  1
  Pr  Pr28  1  0.95871150  0.50713450  0.12803100  1
  Pr  Pr29  1  0.04128850  0.50713450  0.37196900  1
  Pr  Pr30  1  0.04128850  0.49286550  0.87196900  1
  Pr  Pr31  1  0.95871150  0.49286550  0.62803100  1
  Pr  Pr32  1  0.83845500  0.26250700  0.11692500  1
  Pr  Pr33  1  0.16154500  0.26250700  0.38307500  1
  Pr  Pr34  1  0.16154500  0.73749300  0.88307500  1
  Pr  Pr35  1  0.83845500  0.73749300  0.61692500  1
  Pr  Pr36  1  0.85872550  0.49983650  0.94979000  1
  Pr  Pr37  1  0.14127450  0.49983650  0.55021000  1
  Pr  Pr38  1  0.14127450  0.50016350  0.05021000  1
  Pr  Pr39  1  0.85872550  0.50016350  0.44979000  1
  Pr  Pr40  1  0.45164150  0.52818050  0.15223200  1
  Pr  Pr41  1  0.54835850  0.52818050  0.34776800  1
  Pr  Pr42  1  0.54835850  0.47181950  0.84776800  1
  Pr  Pr43  1  0.45164150  0.47181950  0.65223200  1
  Pr  Pr44  1  0.92675250  0.26492050  0.28887600  1
  Pr  Pr45  1  0.07324750  0.26492050  0.21112400  1
  Pr  Pr46  1  0.07324750  0.73507950  0.71112400  1
  Pr  Pr47  1  0.92675250  0.73507950  0.78887600  1
  C  C48  1  0.45661600  0.82241700  0.14976700  1
  C  C49  1  0.54338400  0.82241700  0.35023300  1
  C  C50  1  0.54338400  0.17758300  0.85023300  1
  C  C51  1  0.45661600  0.17758300  0.64976700  1
  C  C52  1  0.45591800  0.71275800  0.15286000  1
  C  C53  1  0.54408200  0.71275800  0.34714000  1
  C  C54  1  0.54408200  0.28724200  0.84714000  1
  C  C55  1  0.45591800  0.28724200  0.65286000  1
  C  C56  1  0.46764500  0.99952900  0.98845200  1
  C  C57  1  0.53235500  0.99952900  0.51154800  1
  C  C58  1  0.53235500  0.00047100  0.01154800  1
  C  C59  1  0.46764500  0.00047100  0.48845200  1
  C  C60  1  0.95661600  0.32241700  0.14976700  1
  C  C61  1  0.04338400  0.32241700  0.35023300  1
  C  C62  1  0.04338400  0.67758300  0.85023300  1
  C  C63  1  0.95661600  0.67758300  0.64976700  1
  C  C64  1  0.95591800  0.21275800  0.15286000  1
  C  C65  1  0.04408200  0.21275800  0.34714000  1
  C  C66  1  0.04408200  0.78724200  0.84714000  1
  C  C67  1  0.95591800  0.78724200  0.65286000  1
  C  C68  1  0.96764500  0.49952900  0.98845200  1
  C  C69  1  0.03235500  0.49952900  0.51154800  1
  C  C70  1  0.03235500  0.50047100  0.01154800  1
  C  C71  1  0.96764500  0.50047100  0.48845200  1
  I  I72  1  0.80372650  0.01595050  0.10103400  1
  I  I73  1  0.19627350  0.01595050  0.39896600  1
  I  I74  1  0.19627350  0.98404950  0.89896600  1
  I  I75  1  0.80372650  0.98404950  0.60103400  1
  I  I76  1  0.45550400  0.26176600  0.13768800  1
  I  I77  1  0.54449600  0.26176600  0.36231200  1
  I  I78  1  0.54449600  0.73823400  0.86231200  1
  I  I79  1  0.45550400  0.73823400  0.63768800  1
  I  I80  1  0.00000000  0.00000000  0.00000000  1
  I  I81  1  0.00000000  0.00000000  0.50000000  1
  I  I82  1  0.35394950  0.75082450  0.44007400  1
  I  I83  1  0.64605050  0.75082450  0.05992600  1
  I  I84  1  0.64605050  0.24917550  0.55992600  1
  I  I85  1  0.35394950  0.24917550  0.94007400  1
  I  I86  1  0.34844450  0.25334150  0.45108100  1
  I  I87  1  0.65155550  0.25334150  0.04891900  1
  I  I88  1  0.65155550  0.74665850  0.54891900  1
  I  I89  1  0.34844450  0.74665850  0.95108100  1
  I  I90  1  0.26777150  0.76597450  0.25417000  1
  I  I91  1  0.73222850  0.76597450  0.24583000  1
  I  I92  1  0.73222850  0.23402550  0.74583000  1
  I  I93  1  0.26777150  0.23402550  0.75417000  1
  I  I94  1  0.89721800  0.00960400  0.30314300  1
  I  I95  1  0.10278200  0.00960400  0.19685700  1
  I  I96  1  0.10278200  0.99039600  0.69685700  1
  I  I97  1  0.89721800  0.99039600  0.80314300  1
  I  I98  1  0.30081400  0.00940700  0.10023700  1
  I  I99  1  0.69918600  0.00940700  0.39976300  1
  I  I100  1  0.69918600  0.99059300  0.89976300  1
  I  I101  1  0.30081400  0.99059300  0.60023700  1
  I  I102  1  0.39894750  0.02451050  0.29198600  1
  I  I103  1  0.60105250  0.02451050  0.20801400  1
  I  I104  1  0.60105250  0.97548950  0.70801400  1
  I  I105  1  0.39894750  0.97548950  0.79198600  1
  I  I106  1  0.30372650  0.51595050  0.10103400  1
  I  I107  1  0.69627350  0.51595050  0.39896600  1
  I  I108  1  0.69627350  0.48404950  0.89896600  1
  I  I109  1  0.30372650  0.48404950  0.60103400  1
  I  I110  1  0.95550400  0.76176600  0.13768800  1
  I  I111  1  0.04449600  0.76176600  0.36231200  1
  I  I112  1  0.04449600  0.23823400  0.86231200  1
  I  I113  1  0.95550400  0.23823400  0.63768800  1
  I  I114  1  0.50000000  0.50000000  0.00000000  1
  I  I115  1  0.50000000  0.50000000  0.50000000  1
  I  I116  1  0.85394950  0.25082450  0.44007400  1
  I  I117  1  0.14605050  0.25082450  0.05992600  1
  I  I118  1  0.14605050  0.74917550  0.55992600  1
  I  I119  1  0.85394950  0.74917550  0.94007400  1
  I  I120  1  0.84844450  0.75334150  0.45108100  1
  I  I121  1  0.15155550  0.75334150  0.04891900  1
  I  I122  1  0.15155550  0.24665850  0.54891900  1
  I  I123  1  0.84844450  0.24665850  0.95108100  1
  I  I124  1  0.76777150  0.26597450  0.25417000  1
  I  I125  1  0.23222850  0.26597450  0.24583000  1
  I  I126  1  0.23222850  0.73402550  0.74583000  1
  I  I127  1  0.76777150  0.73402550  0.75417000  1
  I  I128  1  0.39721800  0.50960400  0.30314300  1
  I  I129  1  0.60278200  0.50960400  0.19685700  1
  I  I130  1  0.60278200  0.49039600  0.69685700  1
  I  I131  1  0.39721800  0.49039600  0.80314300  1
  I  I132  1  0.80081400  0.50940700  0.10023700  1
  I  I133  1  0.19918600  0.50940700  0.39976300  1
  I  I134  1  0.19918600  0.49059300  0.89976300  1
  I  I135  1  0.80081400  0.49059300  0.60023700  1
  I  I136  1  0.89894750  0.52451050  0.29198600  1
  I  I137  1  0.10105250  0.52451050  0.20801400  1
  I  I138  1  0.10105250  0.47548950  0.70801400  1
  I  I139  1  0.89894750  0.47548950  0.79198600  1
