# generated using pymatgen
data_Ni3AgP3(HO6)2
_symmetry_space_group_name_H-M   'P 1'
_cell_length_a   11.95272400
_cell_length_b   12.19533000
_cell_length_c   6.51379443
_cell_angle_alpha   90.00000000
_cell_angle_beta   113.85256728
_cell_angle_gamma   90.00000000
_symmetry_Int_Tables_number   1
_chemical_formula_structural   Ni3AgP3(HO6)2
_chemical_formula_sum   'Ni12 Ag4 P12 H8 O48'
_cell_volume   868.40134919
_cell_formula_units_Z   4
loop_
 _symmetry_equiv_pos_site_id
 _symmetry_equiv_pos_as_xyz
  1  'x, y, z'
loop_
 _atom_site_type_symbol
 _atom_site_label
 _atom_site_symmetry_multiplicity
 _atom_site_fract_x
 _atom_site_fract_y
 _atom_site_fract_z
 _atom_site_occupancy
  Ni  Ni0  1  0.71237300  0.83750700  0.12264700  1
  Ni  Ni1  1  0.50000000  0.27525400  0.75000000  1
  Ni  Ni2  1  0.28762700  0.16249300  0.87735300  1
  Ni  Ni3  1  0.71237300  0.16249300  0.62264700  1
  Ni  Ni4  1  0.50000000  0.72474600  0.25000000  1
  Ni  Ni5  1  0.28762700  0.83750700  0.37735300  1
  Ni  Ni6  1  0.21237300  0.33750700  0.12264700  1
  Ni  Ni7  1  0.00000000  0.77525400  0.75000000  1
  Ni  Ni8  1  0.78762700  0.66249300  0.87735300  1
  Ni  Ni9  1  0.21237300  0.66249300  0.62264700  1
  Ni  Ni10  1  0.00000000  0.22474600  0.25000000  1
  Ni  Ni11  1  0.78762700  0.33750700  0.37735300  1
  Ag  Ag12  1  0.50000000  0.03952600  0.25000000  1
  Ag  Ag13  1  0.50000000  0.96047400  0.75000000  1
  Ag  Ag14  1  0.00000000  0.53952600  0.25000000  1
  Ag  Ag15  1  0.00000000  0.46047400  0.75000000  1
  P  P16  1  0.27809500  0.11302600  0.38694600  1
  P  P17  1  0.72190500  0.11302600  0.11305400  1
  P  P18  1  0.72190500  0.88697400  0.61305400  1
  P  P19  1  0.27809500  0.88697400  0.88694600  1
  P  P20  1  0.50000000  0.31872000  0.25000000  1
  P  P21  1  0.50000000  0.68128000  0.75000000  1
  P  P22  1  0.77809500  0.61302600  0.38694600  1
  P  P23  1  0.22190500  0.61302600  0.11305400  1
  P  P24  1  0.22190500  0.38697400  0.61305400  1
  P  P25  1  0.77809500  0.38697400  0.88694600  1
  P  P26  1  0.00000000  0.81872000  0.25000000  1
  P  P27  1  0.00000000  0.18128000  0.75000000  1
  H  H28  1  0.11489100  0.00732500  0.30814300  1
  H  H29  1  0.88510900  0.00732500  0.19185700  1
  H  H30  1  0.88510900  0.99267500  0.69185700  1
  H  H31  1  0.11489100  0.99267500  0.80814300  1
  H  H32  1  0.61489100  0.50732500  0.30814300  1
  H  H33  1  0.38510900  0.50732500  0.19185700  1
  H  H34  1  0.38510900  0.49267500  0.69185700  1
  H  H35  1  0.61489100  0.49267500  0.80814300  1
  O  O36  1  0.71818850  0.18156750  0.30856300  1
  O  O37  1  0.86234600  0.09329800  0.15704000  1
  O  O38  1  0.86234600  0.90670200  0.65704000  1
  O  O39  1  0.13765400  0.90670200  0.84296000  1
  O  O40  1  0.66253300  0.99995900  0.10466000  1
  O  O41  1  0.33746700  0.99995900  0.39534000  1
  O  O42  1  0.33746700  0.00004100  0.89534000  1
  O  O43  1  0.66253300  0.00004100  0.60466000  1
  O  O44  1  0.28181150  0.18156750  0.19143700  1
  O  O45  1  0.13765400  0.09329800  0.34296000  1
  O  O46  1  0.89197400  0.10561500  0.73319900  1
  O  O47  1  0.10802600  0.10561500  0.76680100  1
  O  O48  1  0.10802600  0.89438500  0.26680100  1
  O  O49  1  0.89197400  0.89438500  0.23319900  1
  O  O50  1  0.46498350  0.75572550  0.53659000  1
  O  O51  1  0.53501650  0.75572550  0.96341000  1
  O  O52  1  0.53501650  0.24427450  0.46341000  1
  O  O53  1  0.71818850  0.81843250  0.80856300  1
  O  O54  1  0.65776250  0.17316650  0.88641800  1
  O  O55  1  0.34223750  0.17316650  0.61358200  1
  O  O56  1  0.34223750  0.82683350  0.11358200  1
  O  O57  1  0.65776250  0.82683350  0.38641800  1
  O  O58  1  0.28181150  0.81843250  0.69143700  1
  O  O59  1  0.46498350  0.24427450  0.03659000  1
  O  O60  1  0.21818850  0.68156750  0.30856300  1
  O  O61  1  0.36234600  0.59329800  0.15704000  1
  O  O62  1  0.36234600  0.40670200  0.65704000  1
  O  O63  1  0.63765400  0.40670200  0.84296000  1
  O  O64  1  0.16253300  0.49995900  0.10466000  1
  O  O65  1  0.83746700  0.49995900  0.39534000  1
  O  O66  1  0.83746700  0.50004100  0.89534000  1
  O  O67  1  0.16253300  0.50004100  0.60466000  1
  O  O68  1  0.78181150  0.68156750  0.19143700  1
  O  O69  1  0.63765400  0.59329800  0.34296000  1
  O  O70  1  0.39197400  0.60561500  0.73319900  1
  O  O71  1  0.60802600  0.60561500  0.76680100  1
  O  O72  1  0.60802600  0.39438500  0.26680100  1
  O  O73  1  0.39197400  0.39438500  0.23319900  1
  O  O74  1  0.96498350  0.25572550  0.53659000  1
  O  O75  1  0.03501650  0.25572550  0.96341000  1
  O  O76  1  0.03501650  0.74427450  0.46341000  1
  O  O77  1  0.21818850  0.31843250  0.80856300  1
  O  O78  1  0.15776250  0.67316650  0.88641800  1
  O  O79  1  0.84223750  0.67316650  0.61358200  1
  O  O80  1  0.84223750  0.32683350  0.11358200  1
  O  O81  1  0.15776250  0.32683350  0.38641800  1
  O  O82  1  0.78181150  0.31843250  0.69143700  1
  O  O83  1  0.96498350  0.74427450  0.03659000  1
