# generated using pymatgen
data_Li3V2(GeO5)2
_symmetry_space_group_name_H-M   'P 1'
_cell_length_a   9.25540600
_cell_length_b   9.30094200
_cell_length_c   9.28027800
_cell_angle_alpha   90.00000000
_cell_angle_beta   90.00000000
_cell_angle_gamma   90.00000000
_symmetry_Int_Tables_number   1
_chemical_formula_structural   Li3V2(GeO5)2
_chemical_formula_sum   'Li12 V8 Ge8 O40'
_cell_volume   798.88339931
_cell_formula_units_Z   4
loop_
 _symmetry_equiv_pos_site_id
 _symmetry_equiv_pos_as_xyz
  1  'x, y, z'
loop_
 _atom_site_type_symbol
 _atom_site_label
 _atom_site_symmetry_multiplicity
 _atom_site_fract_x
 _atom_site_fract_y
 _atom_site_fract_z
 _atom_site_occupancy
  Li  Li0  1  0.00000000  0.00000000  0.00000000  1
  Li  Li1  1  0.25000000  0.25000000  0.50000000  1
  Li  Li2  1  0.25000000  0.25000000  0.00000000  1
  Li  Li3  1  0.50000000  0.00000000  0.50000000  1
  Li  Li4  1  0.25000000  0.75000000  0.50000000  1
  Li  Li5  1  0.25000000  0.75000000  0.00000000  1
  Li  Li6  1  0.50000000  0.50000000  0.00000000  1
  Li  Li7  1  0.75000000  0.75000000  0.50000000  1
  Li  Li8  1  0.75000000  0.75000000  0.00000000  1
  Li  Li9  1  0.00000000  0.50000000  0.50000000  1
  Li  Li10  1  0.75000000  0.25000000  0.50000000  1
  Li  Li11  1  0.75000000  0.25000000  0.00000000  1
  V  V12  1  0.50000000  0.74172800  0.30280100  1
  V  V13  1  0.50000000  0.75827200  0.80280100  1
  V  V14  1  0.50000000  0.25827200  0.69719900  1
  V  V15  1  0.50000000  0.24172800  0.19719900  1
  V  V16  1  0.00000000  0.24172800  0.30280100  1
  V  V17  1  0.00000000  0.25827200  0.80280100  1
  V  V18  1  0.00000000  0.75827200  0.69719900  1
  V  V19  1  0.00000000  0.74172800  0.19719900  1
  Ge  Ge20  1  0.75000000  0.99909000  0.25000000  1
  Ge  Ge21  1  0.75000000  0.00091000  0.75000000  1
  Ge  Ge22  1  0.25000000  0.00091000  0.75000000  1
  Ge  Ge23  1  0.25000000  0.99909000  0.25000000  1
  Ge  Ge24  1  0.25000000  0.49909000  0.25000000  1
  Ge  Ge25  1  0.25000000  0.50091000  0.75000000  1
  Ge  Ge26  1  0.75000000  0.50091000  0.75000000  1
  Ge  Ge27  1  0.75000000  0.49909000  0.25000000  1
  O  O28  1  0.14059150  0.10712850  0.86445400  1
  O  O29  1  0.50000000  0.23151500  0.37557900  1
  O  O30  1  0.50000000  0.26848500  0.87557900  1
  O  O31  1  0.85223700  0.11340800  0.36385600  1
  O  O32  1  0.14059150  0.89287150  0.13554600  1
  O  O33  1  0.14776300  0.88659200  0.63614400  1
  O  O34  1  0.50000000  0.73151500  0.12442100  1
  O  O35  1  0.50000000  0.76848500  0.62442100  1
  O  O36  1  0.64059150  0.10712850  0.63554600  1
  O  O37  1  0.35940850  0.89287150  0.36445400  1
  O  O38  1  0.14776300  0.11340800  0.36385600  1
  O  O39  1  0.35223700  0.88659200  0.86385600  1
  O  O40  1  0.35223700  0.11340800  0.13614400  1
  O  O41  1  0.35940850  0.10712850  0.63554600  1
  O  O42  1  0.64776300  0.88659200  0.86385600  1
  O  O43  1  0.64059150  0.89287150  0.36445400  1
  O  O44  1  0.85940850  0.89287150  0.13554600  1
  O  O45  1  0.85223700  0.88659200  0.63614400  1
  O  O46  1  0.64776300  0.11340800  0.13614400  1
  O  O47  1  0.85940850  0.10712850  0.86445400  1
  O  O48  1  0.64059150  0.60712850  0.86445400  1
  O  O49  1  0.00000000  0.73151500  0.37557900  1
  O  O50  1  0.00000000  0.76848500  0.87557900  1
  O  O51  1  0.35223700  0.61340800  0.36385600  1
  O  O52  1  0.64059150  0.39287150  0.13554600  1
  O  O53  1  0.64776300  0.38659200  0.63614400  1
  O  O54  1  0.00000000  0.23151500  0.12442100  1
  O  O55  1  0.00000000  0.26848500  0.62442100  1
  O  O56  1  0.14059150  0.60712850  0.63554600  1
  O  O57  1  0.85940850  0.39287150  0.36445400  1
  O  O58  1  0.64776300  0.61340800  0.36385600  1
  O  O59  1  0.85223700  0.38659200  0.86385600  1
  O  O60  1  0.85223700  0.61340800  0.13614400  1
  O  O61  1  0.85940850  0.60712850  0.63554600  1
  O  O62  1  0.14776300  0.38659200  0.86385600  1
  O  O63  1  0.14059150  0.39287150  0.36445400  1
  O  O64  1  0.35940850  0.39287150  0.13554600  1
  O  O65  1  0.35223700  0.38659200  0.63614400  1
  O  O66  1  0.14776300  0.61340800  0.13614400  1
  O  O67  1  0.35940850  0.60712850  0.86445400  1
