# generated using pymatgen
data_NaFeO2
_symmetry_space_group_name_H-M   'P 1'
_cell_length_a   5.65523750
_cell_length_b   5.65523750
_cell_length_c   7.27873000
_cell_angle_alpha   90.00000000
_cell_angle_beta   90.00000000
_cell_angle_gamma   90.00000000
_symmetry_Int_Tables_number   1
_chemical_formula_structural   NaFeO2
_chemical_formula_sum   'Na4 Fe4 O8'
_cell_volume   232.78624071
_cell_formula_units_Z   4
loop_
 _symmetry_equiv_pos_site_id
 _symmetry_equiv_pos_as_xyz
  1  'x, y, z'
loop_
 _atom_site_type_symbol
 _atom_site_label
 _atom_site_symmetry_multiplicity
 _atom_site_fract_x
 _atom_site_fract_y
 _atom_site_fract_z
 _atom_site_occupancy
  Na  Na0  1  0.80248200  0.80248200  0.00000000  1
  Na  Na1  1  0.30248200  0.69751800  0.75000000  1
  Na  Na2  1  0.69751800  0.30248200  0.25000000  1
  Na  Na3  1  0.19751800  0.19751800  0.50000000  1
  Fe  Fe4  1  0.31323300  0.68676700  0.25000000  1
  Fe  Fe5  1  0.18676700  0.18676700  0.00000000  1
  Fe  Fe6  1  0.81323300  0.81323300  0.50000000  1
  Fe  Fe7  1  0.68676700  0.31323300  0.75000000  1
  O  O8  1  0.14562050  0.77821450  0.46273400  1
  O  O9  1  0.85437950  0.22178550  0.96273400  1
  O  O10  1  0.77821450  0.14562050  0.53726600  1
  O  O11  1  0.27821450  0.35437950  0.21273400  1
  O  O12  1  0.72178550  0.64562050  0.71273400  1
  O  O13  1  0.22178550  0.85437950  0.03726600  1
  O  O14  1  0.64562050  0.72178550  0.28726600  1
  O  O15  1  0.35437950  0.27821450  0.78726600  1
