# generated using pymatgen
data_MnAsH2O5
_symmetry_space_group_name_H-M   'P 1'
_cell_length_a   7.05435283
_cell_length_b   8.06978880
_cell_length_c   7.62050934
_cell_angle_alpha   90.00000000
_cell_angle_beta   111.43384910
_cell_angle_gamma   90.00000000
_symmetry_Int_Tables_number   1
_chemical_formula_structural   MnAsH2O5
_chemical_formula_sum   'Mn4 As4 H8 O20'
_cell_volume   403.81126118
_cell_formula_units_Z   4
loop_
 _symmetry_equiv_pos_site_id
 _symmetry_equiv_pos_as_xyz
  1  'x, y, z'
loop_
 _atom_site_type_symbol
 _atom_site_label
 _atom_site_symmetry_multiplicity
 _atom_site_fract_x
 _atom_site_fract_y
 _atom_site_fract_z
 _atom_site_occupancy
  Mn  Mn0  1  0.75000000  0.25000000  0.50000000  1
  Mn  Mn1  1  0.25000000  0.25000000  0.00000000  1
  Mn  Mn2  1  0.25000000  0.75000000  0.50000000  1
  Mn  Mn3  1  0.75000000  0.75000000  0.00000000  1
  As  As4  1  0.50000000  0.06767300  0.75000000  1
  As  As5  1  0.50000000  0.93232700  0.25000000  1
  As  As6  1  0.00000000  0.56767300  0.75000000  1
  As  As7  1  0.00000000  0.43232700  0.25000000  1
  H  H8  1  0.08432800  0.96526750  0.20163175  1
  H  H9  1  0.91567200  0.96526750  0.29836825  1
  H  H10  1  0.91567200  0.03473250  0.79836825  1
  H  H11  1  0.08432800  0.03473250  0.70163175  1
  H  H12  1  0.58432800  0.46526750  0.20163175  1
  H  H13  1  0.41567200  0.46526750  0.29836825  1
  H  H14  1  0.41567200  0.53473250  0.79836825  1
  H  H15  1  0.58432800  0.53473250  0.70163175  1
  O  O16  1  0.50000000  0.60874250  0.75000000  1
  O  O17  1  0.50000000  0.39125750  0.25000000  1
  O  O18  1  0.47234050  0.80903750  0.42195925  1
  O  O19  1  0.52765950  0.80903750  0.07804075  1
  O  O20  1  0.52765950  0.19096250  0.57804075  1
  O  O21  1  0.47234050  0.19096250  0.92195925  1
  O  O22  1  0.28170525  0.05127025  0.15562375  1
  O  O23  1  0.71829475  0.05127025  0.34437625  1
  O  O24  1  0.71829475  0.94872975  0.84437625  1
  O  O25  1  0.28170525  0.94872975  0.65562375  1
  O  O26  1  0.00000000  0.10874250  0.75000000  1
  O  O27  1  0.00000000  0.89125750  0.25000000  1
  O  O28  1  0.97234050  0.30903750  0.42195925  1
  O  O29  1  0.02765950  0.30903750  0.07804075  1
  O  O30  1  0.02765950  0.69096250  0.57804075  1
  O  O31  1  0.97234050  0.69096250  0.92195925  1
  O  O32  1  0.78170525  0.55127025  0.15562375  1
  O  O33  1  0.21829475  0.55127025  0.34437625  1
  O  O34  1  0.21829475  0.44872975  0.84437625  1
  O  O35  1  0.78170525  0.44872975  0.65562375  1
