# generated using pymatgen
data_Pb2WO5
_symmetry_space_group_name_H-M   'P 1'
_cell_length_a   14.42078000
_cell_length_b   5.96195400
_cell_length_c   7.54236815
_cell_angle_alpha   90.00000000
_cell_angle_beta   111.76427582
_cell_angle_gamma   90.00000000
_symmetry_Int_Tables_number   1
_chemical_formula_structural   Pb2WO5
_chemical_formula_sum   'Pb8 W4 O20'
_cell_volume   602.23859771
_cell_formula_units_Z   4
loop_
 _symmetry_equiv_pos_site_id
 _symmetry_equiv_pos_as_xyz
  1  'x, y, z'
loop_
 _atom_site_type_symbol
 _atom_site_label
 _atom_site_symmetry_multiplicity
 _atom_site_fract_x
 _atom_site_fract_y
 _atom_site_fract_z
 _atom_site_occupancy
  Pb  Pb0  1  0.00617000  0.50000000  0.24513400  1
  Pb  Pb1  1  0.49383000  0.00000000  0.75486600  1
  Pb  Pb2  1  0.13417700  0.00000000  0.11196400  1
  Pb  Pb3  1  0.36582300  0.50000000  0.88803600  1
  Pb  Pb4  1  0.50617000  0.00000000  0.24513400  1
  Pb  Pb5  1  0.99383000  0.50000000  0.75486600  1
  Pb  Pb6  1  0.63417700  0.50000000  0.11196400  1
  Pb  Pb7  1  0.86582300  0.00000000  0.88803600  1
  W  W8  1  0.32688600  0.50000000  0.33880000  1
  W  W9  1  0.17311400  0.00000000  0.66120000  1
  W  W10  1  0.82688600  0.00000000  0.33880000  1
  W  W11  1  0.67311400  0.50000000  0.66120000  1
  O  O12  1  0.00000000  0.74732800  0.00000000  1
  O  O13  1  0.00000000  0.25267200  0.00000000  1
  O  O14  1  0.19517000  0.50000000  0.30361700  1
  O  O15  1  0.30483000  0.00000000  0.69638300  1
  O  O16  1  0.14762100  0.75711200  0.78065500  1
  O  O17  1  0.35237900  0.25711200  0.21934500  1
  O  O18  1  0.40437100  0.50000000  0.59441600  1
  O  O19  1  0.09562900  0.00000000  0.40558400  1
  O  O20  1  0.14762100  0.24288800  0.78065500  1
  O  O21  1  0.35237900  0.74288800  0.21934500  1
  O  O22  1  0.50000000  0.24732800  0.00000000  1
  O  O23  1  0.50000000  0.75267200  0.00000000  1
  O  O24  1  0.69517000  0.00000000  0.30361700  1
  O  O25  1  0.80483000  0.50000000  0.69638300  1
  O  O26  1  0.64762100  0.25711200  0.78065500  1
  O  O27  1  0.85237900  0.75711200  0.21934500  1
  O  O28  1  0.90437100  0.00000000  0.59441600  1
  O  O29  1  0.59562900  0.50000000  0.40558400  1
  O  O30  1  0.64762100  0.74288800  0.78065500  1
  O  O31  1  0.85237900  0.24288800  0.21934500  1
