# generated using pymatgen
data_MnNi(BiO3)2
_symmetry_space_group_name_H-M   'P 1'
_cell_length_a   9.56223200
_cell_length_b   5.48426200
_cell_length_c   9.72650102
_cell_angle_alpha   90.00000000
_cell_angle_beta   107.77345607
_cell_angle_gamma   90.00000000
_symmetry_Int_Tables_number   1
_chemical_formula_structural   MnNi(BiO3)2
_chemical_formula_sum   'Mn4 Ni4 Bi8 O24'
_cell_volume   485.72966279
_cell_formula_units_Z   4
loop_
 _symmetry_equiv_pos_site_id
 _symmetry_equiv_pos_as_xyz
  1  'x, y, z'
loop_
 _atom_site_type_symbol
 _atom_site_label
 _atom_site_symmetry_multiplicity
 _atom_site_fract_x
 _atom_site_fract_y
 _atom_site_fract_z
 _atom_site_occupancy
  Mn  Mn0  1  0.75000000  0.75000000  0.00000000  1
  Mn  Mn1  1  0.75000000  0.25000000  0.50000000  1
  Mn  Mn2  1  0.25000000  0.25000000  0.00000000  1
  Mn  Mn3  1  0.25000000  0.75000000  0.50000000  1
  Ni  Ni4  1  0.00000000  0.23651200  0.25000000  1
  Ni  Ni5  1  0.00000000  0.76348800  0.75000000  1
  Ni  Ni6  1  0.50000000  0.73651200  0.25000000  1
  Ni  Ni7  1  0.50000000  0.26348800  0.75000000  1
  Bi  Bi8  1  0.63523100  0.72938000  0.62247900  1
  Bi  Bi9  1  0.86476900  0.22938000  0.87752100  1
  Bi  Bi10  1  0.86476900  0.77062000  0.37752100  1
  Bi  Bi11  1  0.63523100  0.27062000  0.12247900  1
  Bi  Bi12  1  0.13523100  0.22938000  0.62247900  1
  Bi  Bi13  1  0.36476900  0.72938000  0.87752100  1
  Bi  Bi14  1  0.36476900  0.27062000  0.37752100  1
  Bi  Bi15  1  0.13523100  0.77062000  0.12247900  1
  O  O16  1  0.58844900  0.69185300  0.07978000  1
  O  O17  1  0.91155100  0.19185300  0.42022000  1
  O  O18  1  0.91155100  0.80814700  0.92022000  1
  O  O19  1  0.58844900  0.30814700  0.57978000  1
  O  O20  1  0.65872350  0.03784250  0.88756400  1
  O  O21  1  0.84127650  0.53784250  0.61243600  1
  O  O22  1  0.84498700  0.03666800  0.66004500  1
  O  O23  1  0.65501300  0.53666800  0.83995500  1
  O  O24  1  0.84498700  0.96333200  0.16004500  1
  O  O25  1  0.65501300  0.46333200  0.33995500  1
  O  O26  1  0.65872350  0.96215750  0.38756400  1
  O  O27  1  0.84127650  0.46215750  0.11243600  1
  O  O28  1  0.08844900  0.19185300  0.07978000  1
  O  O29  1  0.41155100  0.69185300  0.42022000  1
  O  O30  1  0.41155100  0.30814700  0.92022000  1
  O  O31  1  0.08844900  0.80814700  0.57978000  1
  O  O32  1  0.15872350  0.53784250  0.88756400  1
  O  O33  1  0.34127650  0.03784250  0.61243600  1
  O  O34  1  0.34498700  0.53666800  0.66004500  1
  O  O35  1  0.15501300  0.03666800  0.83995500  1
  O  O36  1  0.34498700  0.46333200  0.16004500  1
  O  O37  1  0.15501300  0.96333200  0.33995500  1
  O  O38  1  0.15872350  0.46215750  0.38756400  1
  O  O39  1  0.34127650  0.96215750  0.11243600  1
