# generated using pymatgen
data_TlMoPO6
_symmetry_space_group_name_H-M   'P 1'
_cell_length_a   11.08820800
_cell_length_b   12.82564600
_cell_length_c   15.99712000
_cell_angle_alpha   90.00000000
_cell_angle_beta   90.00000000
_cell_angle_gamma   90.00000000
_symmetry_Int_Tables_number   1
_chemical_formula_structural   TlMoPO6
_chemical_formula_sum   'Tl16 Mo16 P16 O96'
_cell_volume   2275.00531464
_cell_formula_units_Z   16
loop_
 _symmetry_equiv_pos_site_id
 _symmetry_equiv_pos_as_xyz
  1  'x, y, z'
loop_
 _atom_site_type_symbol
 _atom_site_label
 _atom_site_symmetry_multiplicity
 _atom_site_fract_x
 _atom_site_fract_y
 _atom_site_fract_z
 _atom_site_occupancy
  Tl  Tl0  1  0.20795400  0.00000000  0.50000000  1
  Tl  Tl1  1  0.79204600  0.00000000  0.50000000  1
  Tl  Tl2  1  0.54204600  0.25000000  0.25000000  1
  Tl  Tl3  1  0.95795400  0.25000000  0.25000000  1
  Tl  Tl4  1  0.20795400  0.50000000  0.00000000  1
  Tl  Tl5  1  0.79204600  0.50000000  0.00000000  1
  Tl  Tl6  1  0.54204600  0.75000000  0.75000000  1
  Tl  Tl7  1  0.95795400  0.75000000  0.75000000  1
  Tl  Tl8  1  0.70795400  0.00000000  0.00000000  1
  Tl  Tl9  1  0.29204600  0.00000000  0.00000000  1
  Tl  Tl10  1  0.04204600  0.25000000  0.75000000  1
  Tl  Tl11  1  0.45795400  0.25000000  0.75000000  1
  Tl  Tl12  1  0.70795400  0.50000000  0.50000000  1
  Tl  Tl13  1  0.29204600  0.50000000  0.50000000  1
  Tl  Tl14  1  0.04204600  0.75000000  0.25000000  1
  Tl  Tl15  1  0.45795400  0.75000000  0.25000000  1
  Mo  Mo16  1  0.50000000  0.78235800  0.50000000  1
  Mo  Mo17  1  0.50000000  0.21764200  0.50000000  1
  Mo  Mo18  1  0.25000000  0.46764200  0.25000000  1
  Mo  Mo19  1  0.25000000  0.03235800  0.25000000  1
  Mo  Mo20  1  0.50000000  0.28235800  0.00000000  1
  Mo  Mo21  1  0.50000000  0.71764200  0.00000000  1
  Mo  Mo22  1  0.25000000  0.96764200  0.75000000  1
  Mo  Mo23  1  0.25000000  0.53235800  0.75000000  1
  Mo  Mo24  1  0.00000000  0.78235800  0.00000000  1
  Mo  Mo25  1  0.00000000  0.21764200  0.00000000  1
  Mo  Mo26  1  0.75000000  0.46764200  0.75000000  1
  Mo  Mo27  1  0.75000000  0.03235800  0.75000000  1
  Mo  Mo28  1  0.00000000  0.28235800  0.50000000  1
  Mo  Mo29  1  0.00000000  0.71764200  0.50000000  1
  Mo  Mo30  1  0.75000000  0.96764200  0.25000000  1
  Mo  Mo31  1  0.75000000  0.53235800  0.25000000  1
  P  P32  1  0.00000000  0.00000000  0.13175000  1
  P  P33  1  0.50000000  0.00000000  0.36825000  1
  P  P34  1  0.75000000  0.25000000  0.61825000  1
  P  P35  1  0.25000000  0.25000000  0.38175000  1
  P  P36  1  0.00000000  0.50000000  0.63175000  1
  P  P37  1  0.50000000  0.50000000  0.86825000  1
  P  P38  1  0.75000000  0.75000000  0.11825000  1
  P  P39  1  0.25000000  0.75000000  0.88175000  1
  P  P40  1  0.50000000  0.00000000  0.63175000  1
  P  P41  1  0.00000000  0.00000000  0.86825000  1
  P  P42  1  0.25000000  0.25000000  0.11825000  1
  P  P43  1  0.75000000  0.25000000  0.88175000  1
  P  P44  1  0.50000000  0.50000000  0.13175000  1
  P  P45  1  0.00000000  0.50000000  0.36825000  1
  P  P46  1  0.25000000  0.75000000  0.61825000  1
  P  P47  1  0.75000000  0.75000000  0.38175000  1
  O  O48  1  0.56408050  0.91640500  0.57966750  1
  O  O49  1  0.56408050  0.08359500  0.42033250  1
  O  O50  1  0.43591950  0.91640500  0.42033250  1
  O  O51  1  0.43591950  0.08359500  0.57966750  1
  O  O52  1  0.18591950  0.33359500  0.17033250  1
  O  O53  1  0.18591950  0.16640500  0.32966750  1
  O  O54  1  0.31408050  0.33359500  0.32966750  1
  O  O55  1  0.31408050  0.16640500  0.17033250  1
  O  O56  1  0.15827250  0.30642900  0.44171450  1
  O  O57  1  0.65827250  0.19357100  0.55828550  1
  O  O58  1  0.84172750  0.30642900  0.55828550  1
  O  O59  1  0.34172750  0.19357100  0.44171450  1
  O  O60  1  0.30534350  0.94671800  0.17600950  1
  O  O61  1  0.30534350  0.55328200  0.32399050  1
  O  O62  1  0.19465650  0.94671800  0.32399050  1
  O  O63  1  0.19465650  0.55328200  0.17600950  1
  O  O64  1  0.44465650  0.30328200  0.57399050  1
  O  O65  1  0.44465650  0.69671800  0.42600950  1
  O  O66  1  0.55534350  0.30328200  0.42600950  1
  O  O67  1  0.55534350  0.69671800  0.57399050  1
  O  O68  1  0.40827250  0.05642900  0.30828550  1
  O  O69  1  0.90827250  0.94357100  0.19171450  1
  O  O70  1  0.09172750  0.05642900  0.19171450  1
  O  O71  1  0.59172750  0.94357100  0.30828550  1
  O  O72  1  0.56408050  0.41640500  0.07966750  1
  O  O73  1  0.56408050  0.58359500  0.92033250  1
  O  O74  1  0.43591950  0.41640500  0.92033250  1
  O  O75  1  0.43591950  0.58359500  0.07966750  1
  O  O76  1  0.18591950  0.83359500  0.67033250  1
  O  O77  1  0.18591950  0.66640500  0.82966750  1
  O  O78  1  0.31408050  0.83359500  0.82966750  1
  O  O79  1  0.31408050  0.66640500  0.67033250  1
  O  O80  1  0.15827250  0.80642900  0.94171450  1
  O  O81  1  0.65827250  0.69357100  0.05828550  1
  O  O82  1  0.84172750  0.80642900  0.05828550  1
  O  O83  1  0.34172750  0.69357100  0.94171450  1
  O  O84  1  0.30534350  0.44671800  0.67600950  1
  O  O85  1  0.30534350  0.05328200  0.82399050  1
  O  O86  1  0.19465650  0.44671800  0.82399050  1
  O  O87  1  0.19465650  0.05328200  0.67600950  1
  O  O88  1  0.44465650  0.80328200  0.07399050  1
  O  O89  1  0.44465650  0.19671800  0.92600950  1
  O  O90  1  0.55534350  0.80328200  0.92600950  1
  O  O91  1  0.55534350  0.19671800  0.07399050  1
  O  O92  1  0.40827250  0.55642900  0.80828550  1
  O  O93  1  0.90827250  0.44357100  0.69171450  1
  O  O94  1  0.09172750  0.55642900  0.69171450  1
  O  O95  1  0.59172750  0.44357100  0.80828550  1
  O  O96  1  0.06408050  0.91640500  0.07966750  1
  O  O97  1  0.06408050  0.08359500  0.92033250  1
  O  O98  1  0.93591950  0.91640500  0.92033250  1
  O  O99  1  0.93591950  0.08359500  0.07966750  1
  O  O100  1  0.68591950  0.33359500  0.67033250  1
  O  O101  1  0.68591950  0.16640500  0.82966750  1
  O  O102  1  0.81408050  0.33359500  0.82966750  1
  O  O103  1  0.81408050  0.16640500  0.67033250  1
  O  O104  1  0.65827250  0.30642900  0.94171450  1
  O  O105  1  0.15827250  0.19357100  0.05828550  1
  O  O106  1  0.34172750  0.30642900  0.05828550  1
  O  O107  1  0.84172750  0.19357100  0.94171450  1
  O  O108  1  0.80534350  0.94671800  0.67600950  1
  O  O109  1  0.80534350  0.55328200  0.82399050  1
  O  O110  1  0.69465650  0.94671800  0.82399050  1
  O  O111  1  0.69465650  0.55328200  0.67600950  1
  O  O112  1  0.94465650  0.30328200  0.07399050  1
  O  O113  1  0.94465650  0.69671800  0.92600950  1
  O  O114  1  0.05534350  0.30328200  0.92600950  1
  O  O115  1  0.05534350  0.69671800  0.07399050  1
  O  O116  1  0.90827250  0.05642900  0.80828550  1
  O  O117  1  0.40827250  0.94357100  0.69171450  1
  O  O118  1  0.59172750  0.05642900  0.69171450  1
  O  O119  1  0.09172750  0.94357100  0.80828550  1
  O  O120  1  0.06408050  0.41640500  0.57966750  1
  O  O121  1  0.06408050  0.58359500  0.42033250  1
  O  O122  1  0.93591950  0.41640500  0.42033250  1
  O  O123  1  0.93591950  0.58359500  0.57966750  1
  O  O124  1  0.68591950  0.83359500  0.17033250  1
  O  O125  1  0.68591950  0.66640500  0.32966750  1
  O  O126  1  0.81408050  0.83359500  0.32966750  1
  O  O127  1  0.81408050  0.66640500  0.17033250  1
  O  O128  1  0.65827250  0.80642900  0.44171450  1
  O  O129  1  0.15827250  0.69357100  0.55828550  1
  O  O130  1  0.34172750  0.80642900  0.55828550  1
  O  O131  1  0.84172750  0.69357100  0.44171450  1
  O  O132  1  0.80534350  0.44671800  0.17600950  1
  O  O133  1  0.80534350  0.05328200  0.32399050  1
  O  O134  1  0.69465650  0.44671800  0.32399050  1
  O  O135  1  0.69465650  0.05328200  0.17600950  1
  O  O136  1  0.94465650  0.80328200  0.57399050  1
  O  O137  1  0.94465650  0.19671800  0.42600950  1
  O  O138  1  0.05534350  0.80328200  0.42600950  1
  O  O139  1  0.05534350  0.19671800  0.57399050  1
  O  O140  1  0.90827250  0.55642900  0.30828550  1
  O  O141  1  0.40827250  0.44357100  0.19171450  1
  O  O142  1  0.59172750  0.55642900  0.19171450  1
  O  O143  1  0.09172750  0.44357100  0.30828550  1
