# generated using pymatgen
data_Li2CrPCO7
_symmetry_space_group_name_H-M   'P 1'
_cell_length_a   5.02217555
_cell_length_b   6.38911900
_cell_length_c   8.47731018
_cell_angle_alpha   90.00000000
_cell_angle_beta   93.62895066
_cell_angle_gamma   90.00000000
_symmetry_Int_Tables_number   1
_chemical_formula_structural   Li2CrPCO7
_chemical_formula_sum   'Li4 Cr2 P2 C2 O14'
_cell_volume   271.46837997
_cell_formula_units_Z   2
loop_
 _symmetry_equiv_pos_site_id
 _symmetry_equiv_pos_as_xyz
  1  'x, y, z'
loop_
 _atom_site_type_symbol
 _atom_site_label
 _atom_site_symmetry_multiplicity
 _atom_site_fract_x
 _atom_site_fract_y
 _atom_site_fract_z
 _atom_site_occupancy
  Li  Li0  1  0.22522050  0.00145650  0.27414650  1
  Li  Li1  1  0.77477950  0.99854350  0.72585350  1
  Li  Li2  1  0.77477950  0.50145650  0.72585350  1
  Li  Li3  1  0.22522050  0.49854350  0.27414650  1
  Cr  Cr4  1  0.20932250  0.75000000  0.84361650  1
  Cr  Cr5  1  0.79067750  0.25000000  0.15638350  1
  P  P6  1  0.27754750  0.25000000  0.91929950  1
  P  P7  1  0.72245250  0.75000000  0.08070050  1
  C  C8  1  0.27299000  0.75000000  0.55851450  1
  C  C9  1  0.72701000  0.25000000  0.44148550  1
  O  O10  1  0.03821300  0.75000000  0.61958550  1
  O  O11  1  0.96178700  0.25000000  0.38041450  1
  O  O12  1  0.52611200  0.25000000  0.33212750  1
  O  O13  1  0.47388800  0.75000000  0.66787250  1
  O  O14  1  0.83270200  0.75000000  0.91284600  1
  O  O15  1  0.16729800  0.25000000  0.08715400  1
  O  O16  1  0.58815600  0.25000000  0.94182700  1
  O  O17  1  0.41184400  0.75000000  0.05817300  1
  O  O18  1  0.30391950  0.75000000  0.41235300  1
  O  O19  1  0.69608050  0.25000000  0.58764700  1
  O  O20  1  0.82525000  0.94193350  0.17623500  1
  O  O21  1  0.82525000  0.55806650  0.17623500  1
  O  O22  1  0.17475000  0.44193350  0.82376500  1
  O  O23  1  0.17475000  0.05806650  0.82376500  1
