# generated using pymatgen
data_Th2Zn
_symmetry_space_group_name_H-M   'P 1'
_cell_length_a   7.63469200
_cell_length_b   7.63469200
_cell_length_c   5.57268200
_cell_angle_alpha   90.00000000
_cell_angle_beta   90.00000000
_cell_angle_gamma   90.00000000
_symmetry_Int_Tables_number   1
_chemical_formula_structural   Th2Zn
_chemical_formula_sum   'Th8 Zn4'
_cell_volume   324.82339699
_cell_formula_units_Z   4
loop_
 _symmetry_equiv_pos_site_id
 _symmetry_equiv_pos_as_xyz
  1  'x, y, z'
loop_
 _atom_site_type_symbol
 _atom_site_label
 _atom_site_symmetry_multiplicity
 _atom_site_fract_x
 _atom_site_fract_y
 _atom_site_fract_z
 _atom_site_occupancy
  Th  Th0  1  0.65814850  0.15814850  0.00000000  1
  Th  Th1  1  0.65814850  0.84185150  0.50000000  1
  Th  Th2  1  0.34185150  0.84185150  0.00000000  1
  Th  Th3  1  0.34185150  0.15814850  0.50000000  1
  Th  Th4  1  0.15814850  0.65814850  0.50000000  1
  Th  Th5  1  0.15814850  0.34185150  0.00000000  1
  Th  Th6  1  0.84185150  0.34185150  0.50000000  1
  Th  Th7  1  0.84185150  0.65814850  0.00000000  1
  Zn  Zn8  1  0.00000000  0.00000000  0.25000000  1
  Zn  Zn9  1  0.00000000  0.00000000  0.75000000  1
  Zn  Zn10  1  0.50000000  0.50000000  0.75000000  1
  Zn  Zn11  1  0.50000000  0.50000000  0.25000000  1
