# generated using pymatgen
data_Ca4(PPd)5
_symmetry_space_group_name_H-M   'P 1'
_cell_length_a   4.13506600
_cell_length_b   31.18791600
_cell_length_c   8.26349500
_cell_angle_alpha   90.00000000
_cell_angle_beta   90.00000000
_cell_angle_gamma   90.00000000
_symmetry_Int_Tables_number   1
_chemical_formula_structural   Ca4(PPd)5
_chemical_formula_sum   'Ca16 P20 Pd20'
_cell_volume   1065.69412167
_cell_formula_units_Z   4
loop_
 _symmetry_equiv_pos_site_id
 _symmetry_equiv_pos_as_xyz
  1  'x, y, z'
loop_
 _atom_site_type_symbol
 _atom_site_label
 _atom_site_symmetry_multiplicity
 _atom_site_fract_x
 _atom_site_fract_y
 _atom_site_fract_z
 _atom_site_occupancy
  Ca  Ca0  1  0.50000000  0.69394900  0.49470300  1
  Ca  Ca1  1  0.00000000  0.80605100  0.50529700  1
  Ca  Ca2  1  0.00000000  0.80605100  0.99470300  1
  Ca  Ca3  1  0.50000000  0.69394900  0.00529700  1
  Ca  Ca4  1  0.50000000  0.92038400  0.99864100  1
  Ca  Ca5  1  0.00000000  0.57961600  0.49864100  1
  Ca  Ca6  1  0.00000000  0.57961600  0.00135900  1
  Ca  Ca7  1  0.50000000  0.92038400  0.50135900  1
  Ca  Ca8  1  0.00000000  0.19394900  0.49470300  1
  Ca  Ca9  1  0.50000000  0.30605100  0.50529700  1
  Ca  Ca10  1  0.50000000  0.30605100  0.99470300  1
  Ca  Ca11  1  0.00000000  0.19394900  0.00529700  1
  Ca  Ca12  1  0.00000000  0.42038400  0.99864100  1
  Ca  Ca13  1  0.50000000  0.07961600  0.49864100  1
  Ca  Ca14  1  0.50000000  0.07961600  0.00135900  1
  Ca  Ca15  1  0.00000000  0.42038400  0.50135900  1
  P  P16  1  0.00000000  0.72914600  0.75000000  1
  P  P17  1  0.00000000  0.95554600  0.75000000  1
  P  P18  1  0.00000000  0.95445200  0.25000000  1
  P  P19  1  0.50000000  0.54445400  0.25000000  1
  P  P20  1  0.50000000  0.54554800  0.75000000  1
  P  P21  1  0.50000000  0.84225400  0.25000000  1
  P  P22  1  0.00000000  0.65774600  0.75000000  1
  P  P23  1  0.00000000  0.65720700  0.25000000  1
  P  P24  1  0.50000000  0.77085400  0.25000000  1
  P  P25  1  0.50000000  0.84279300  0.75000000  1
  P  P26  1  0.50000000  0.22914600  0.75000000  1
  P  P27  1  0.50000000  0.45554600  0.75000000  1
  P  P28  1  0.50000000  0.45445200  0.25000000  1
  P  P29  1  0.00000000  0.04445400  0.25000000  1
  P  P30  1  0.00000000  0.04554800  0.75000000  1
  P  P31  1  0.00000000  0.34225400  0.25000000  1
  P  P32  1  0.50000000  0.15774600  0.75000000  1
  P  P33  1  0.50000000  0.15720700  0.25000000  1
  P  P34  1  0.00000000  0.27085400  0.25000000  1
  P  P35  1  0.00000000  0.34279300  0.75000000  1
  Pd  Pd36  1  0.50000000  0.76562000  0.75000000  1
  Pd  Pd37  1  0.00000000  0.73438000  0.25000000  1
  Pd  Pd38  1  0.00000000  0.00000000  0.50000000  1
  Pd  Pd39  1  0.50000000  0.62118300  0.75000000  1
  Pd  Pd40  1  0.00000000  0.87881700  0.25000000  1
  Pd  Pd41  1  0.00000000  0.88040700  0.75000000  1
  Pd  Pd42  1  0.50000000  0.61959300  0.25000000  1
  Pd  Pd43  1  0.00000000  0.50013100  0.75000000  1
  Pd  Pd44  1  0.50000000  0.99986900  0.25000000  1
  Pd  Pd45  1  0.00000000  0.00000000  0.00000000  1
  Pd  Pd46  1  0.00000000  0.26562000  0.75000000  1
  Pd  Pd47  1  0.50000000  0.23438000  0.25000000  1
  Pd  Pd48  1  0.50000000  0.50000000  0.50000000  1
  Pd  Pd49  1  0.00000000  0.12118300  0.75000000  1
  Pd  Pd50  1  0.50000000  0.37881700  0.25000000  1
  Pd  Pd51  1  0.50000000  0.38040700  0.75000000  1
  Pd  Pd52  1  0.00000000  0.11959300  0.25000000  1
  Pd  Pd53  1  0.50000000  0.00013100  0.75000000  1
  Pd  Pd54  1  0.00000000  0.49986900  0.25000000  1
  Pd  Pd55  1  0.50000000  0.50000000  0.00000000  1
