# generated using pymatgen
data_Mo9Se11
_symmetry_space_group_name_H-M   'P 1'
_cell_length_a   12.10100000
_cell_length_b   13.39025000
_cell_length_c   11.17894900
_cell_angle_alpha   90.00000000
_cell_angle_beta   90.00000000
_cell_angle_gamma   90.00000000
_symmetry_Int_Tables_number   1
_chemical_formula_structural   Mo9Se11
_chemical_formula_sum   'Mo36 Se44'
_cell_volume   1811.38564327
_cell_formula_units_Z   4
loop_
 _symmetry_equiv_pos_site_id
 _symmetry_equiv_pos_as_xyz
  1  'x, y, z'
loop_
 _atom_site_type_symbol
 _atom_site_label
 _atom_site_symmetry_multiplicity
 _atom_site_fract_x
 _atom_site_fract_y
 _atom_site_fract_z
 _atom_site_occupancy
  Mo  Mo0  1  0.69113700  0.20955100  0.37022300  1
  Mo  Mo1  1  0.30886300  0.79044900  0.87022300  1
  Mo  Mo2  1  0.69113700  0.79044900  0.62977700  1
  Mo  Mo3  1  0.30886300  0.20955100  0.12977700  1
  Mo  Mo4  1  0.30886300  0.79044900  0.62977700  1
  Mo  Mo5  1  0.69113700  0.20955100  0.12977700  1
  Mo  Mo6  1  0.30886300  0.20955100  0.37022300  1
  Mo  Mo7  1  0.69113700  0.79044900  0.87022300  1
  Mo  Mo8  1  0.81008100  0.11708200  0.75000000  1
  Mo  Mo9  1  0.18991900  0.88291800  0.25000000  1
  Mo  Mo10  1  0.81008100  0.88291800  0.25000000  1
  Mo  Mo11  1  0.18991900  0.11708200  0.75000000  1
  Mo  Mo12  1  0.50000000  0.14693500  0.25000000  1
  Mo  Mo13  1  0.50000000  0.85306500  0.75000000  1
  Mo  Mo14  1  0.50000000  0.67799000  0.62848900  1
  Mo  Mo15  1  0.50000000  0.32201000  0.12848900  1
  Mo  Mo16  1  0.50000000  0.32201000  0.37151100  1
  Mo  Mo17  1  0.50000000  0.67799000  0.87151100  1
  Mo  Mo18  1  0.19113700  0.70955100  0.37022300  1
  Mo  Mo19  1  0.80886300  0.29044900  0.87022300  1
  Mo  Mo20  1  0.19113700  0.29044900  0.62977700  1
  Mo  Mo21  1  0.80886300  0.70955100  0.12977700  1
  Mo  Mo22  1  0.80886300  0.29044900  0.62977700  1
  Mo  Mo23  1  0.19113700  0.70955100  0.12977700  1
  Mo  Mo24  1  0.80886300  0.70955100  0.37022300  1
  Mo  Mo25  1  0.19113700  0.29044900  0.87022300  1
  Mo  Mo26  1  0.31008100  0.61708200  0.75000000  1
  Mo  Mo27  1  0.68991900  0.38291800  0.25000000  1
  Mo  Mo28  1  0.31008100  0.38291800  0.25000000  1
  Mo  Mo29  1  0.68991900  0.61708200  0.75000000  1
  Mo  Mo30  1  0.00000000  0.64693500  0.25000000  1
  Mo  Mo31  1  0.00000000  0.35306500  0.75000000  1
  Mo  Mo32  1  0.00000000  0.17799000  0.62848900  1
  Mo  Mo33  1  0.00000000  0.82201000  0.12848900  1
  Mo  Mo34  1  0.00000000  0.82201000  0.37151100  1
  Mo  Mo35  1  0.00000000  0.17799000  0.87151100  1
  Se  Se36  1  0.64272300  0.22883500  0.75000000  1
  Se  Se37  1  0.35727700  0.77116500  0.25000000  1
  Se  Se38  1  0.64272300  0.77116500  0.25000000  1
  Se  Se39  1  0.35727700  0.22883500  0.75000000  1
  Se  Se40  1  0.82608050  0.88199550  0.48175600  1
  Se  Se41  1  0.17391950  0.11800450  0.98175600  1
  Se  Se42  1  0.82608050  0.11800450  0.51824400  1
  Se  Se43  1  0.17391950  0.88199550  0.01824400  1
  Se  Se44  1  0.17391950  0.11800450  0.51824400  1
  Se  Se45  1  0.82608050  0.88199550  0.01824400  1
  Se  Se46  1  0.17391950  0.88199550  0.48175600  1
  Se  Se47  1  0.82608050  0.11800450  0.98175600  1
  Se  Se48  1  0.32278150  0.95667250  0.75000000  1
  Se  Se49  1  0.67721850  0.04332750  0.25000000  1
  Se  Se50  1  0.32278150  0.04332750  0.25000000  1
  Se  Se51  1  0.67721850  0.95667250  0.75000000  1
  Se  Se52  1  0.50000000  0.84565000  0.51764000  1
  Se  Se53  1  0.50000000  0.15435000  0.01764000  1
  Se  Se54  1  0.50000000  0.51213900  0.75000000  1
  Se  Se55  1  0.50000000  0.48786100  0.25000000  1
  Se  Se56  1  0.50000000  0.84565000  0.98236000  1
  Se  Se57  1  0.50000000  0.15435000  0.48236000  1
  Se  Se58  1  0.14272300  0.72883500  0.75000000  1
  Se  Se59  1  0.85727700  0.27116500  0.25000000  1
  Se  Se60  1  0.14272300  0.27116500  0.25000000  1
  Se  Se61  1  0.85727700  0.72883500  0.75000000  1
  Se  Se62  1  0.32608050  0.38199550  0.48175600  1
  Se  Se63  1  0.67391950  0.61800450  0.98175600  1
  Se  Se64  1  0.32608050  0.61800450  0.51824400  1
  Se  Se65  1  0.67391950  0.38199550  0.01824400  1
  Se  Se66  1  0.67391950  0.61800450  0.51824400  1
  Se  Se67  1  0.32608050  0.38199550  0.01824400  1
  Se  Se68  1  0.67391950  0.38199550  0.48175600  1
  Se  Se69  1  0.32608050  0.61800450  0.98175600  1
  Se  Se70  1  0.82278150  0.45667250  0.75000000  1
  Se  Se71  1  0.17721850  0.54332750  0.25000000  1
  Se  Se72  1  0.82278150  0.54332750  0.25000000  1
  Se  Se73  1  0.17721850  0.45667250  0.75000000  1
  Se  Se74  1  0.00000000  0.34565000  0.51764000  1
  Se  Se75  1  0.00000000  0.65435000  0.01764000  1
  Se  Se76  1  0.00000000  0.01213900  0.75000000  1
  Se  Se77  1  0.00000000  0.98786100  0.25000000  1
  Se  Se78  1  0.00000000  0.34565000  0.98236000  1
  Se  Se79  1  0.00000000  0.65435000  0.48236000  1
