# generated using pymatgen
data_SmIn2Rh
_symmetry_space_group_name_H-M   'P 1'
_cell_length_a   4.44285200
_cell_length_b   10.25414200
_cell_length_c   7.99717700
_cell_angle_alpha   90.00000000
_cell_angle_beta   90.00000000
_cell_angle_gamma   90.00000000
_symmetry_Int_Tables_number   1
_chemical_formula_structural   SmIn2Rh
_chemical_formula_sum   'Sm4 In8 Rh4'
_cell_volume   364.33247314
_cell_formula_units_Z   4
loop_
 _symmetry_equiv_pos_site_id
 _symmetry_equiv_pos_as_xyz
  1  'x, y, z'
loop_
 _atom_site_type_symbol
 _atom_site_label
 _atom_site_symmetry_multiplicity
 _atom_site_fract_x
 _atom_site_fract_y
 _atom_site_fract_z
 _atom_site_occupancy
  Sm  Sm0  1  0.50000000  0.43281900  0.75000000  1
  Sm  Sm1  1  0.00000000  0.06718100  0.25000000  1
  Sm  Sm2  1  0.00000000  0.93281900  0.75000000  1
  Sm  Sm3  1  0.50000000  0.56718100  0.25000000  1
  In  In4  1  0.00000000  0.35507800  0.05077000  1
  In  In5  1  0.50000000  0.14492200  0.94923000  1
  In  In6  1  0.00000000  0.35507800  0.44923000  1
  In  In7  1  0.50000000  0.14492200  0.55077000  1
  In  In8  1  0.50000000  0.85507800  0.05077000  1
  In  In9  1  0.00000000  0.64492200  0.94923000  1
  In  In10  1  0.50000000  0.85507800  0.44923000  1
  In  In11  1  0.00000000  0.64492200  0.55077000  1
  Rh  Rh12  1  0.50000000  0.28485800  0.25000000  1
  Rh  Rh13  1  0.00000000  0.21514200  0.75000000  1
  Rh  Rh14  1  0.00000000  0.78485800  0.25000000  1
  Rh  Rh15  1  0.50000000  0.71514200  0.75000000  1
