# generated using pymatgen
data_La8Nb7S22
_symmetry_space_group_name_H-M   'P 1'
_cell_length_a   23.02421800
_cell_length_b   23.32447600
_cell_length_c   5.83937700
_cell_angle_alpha   90.00000000
_cell_angle_beta   90.00000000
_cell_angle_gamma   90.00000000
_symmetry_Int_Tables_number   1
_chemical_formula_structural   La8Nb7S22
_chemical_formula_sum   'La32 Nb28 S88'
_cell_volume   3135.90790140
_cell_formula_units_Z   4
loop_
 _symmetry_equiv_pos_site_id
 _symmetry_equiv_pos_as_xyz
  1  'x, y, z'
loop_
 _atom_site_type_symbol
 _atom_site_label
 _atom_site_symmetry_multiplicity
 _atom_site_fract_x
 _atom_site_fract_y
 _atom_site_fract_z
 _atom_site_occupancy
  La  La0  1  0.92350700  0.93669100  0.07952400  1
  La  La1  1  0.07649300  0.06330900  0.07952400  1
  La  La2  1  0.07649300  0.93669100  0.57952400  1
  La  La3  1  0.92350700  0.06330900  0.57952400  1
  La  La4  1  0.42215050  0.31228150  0.56061800  1
  La  La5  1  0.57784950  0.68771850  0.56061800  1
  La  La6  1  0.57784950  0.31228150  0.06061800  1
  La  La7  1  0.42215050  0.68771850  0.06061800  1
  La  La8  1  0.42285650  0.18667350  0.08921000  1
  La  La9  1  0.57714350  0.81332650  0.08921000  1
  La  La10  1  0.57714350  0.18667350  0.58921000  1
  La  La11  1  0.42285650  0.81332650  0.58921000  1
  La  La12  1  0.42264000  0.06122800  0.56850000  1
  La  La13  1  0.57736000  0.93877200  0.56850000  1
  La  La14  1  0.57736000  0.06122800  0.06850000  1
  La  La15  1  0.42264000  0.93877200  0.06850000  1
  La  La16  1  0.42350700  0.43669100  0.07952400  1
  La  La17  1  0.57649300  0.56330900  0.07952400  1
  La  La18  1  0.57649300  0.43669100  0.57952400  1
  La  La19  1  0.42350700  0.56330900  0.57952400  1
  La  La20  1  0.92215050  0.81228150  0.56061800  1
  La  La21  1  0.07784950  0.18771850  0.56061800  1
  La  La22  1  0.07784950  0.81228150  0.06061800  1
  La  La23  1  0.92215050  0.18771850  0.06061800  1
  La  La24  1  0.92285650  0.68667350  0.08921000  1
  La  La25  1  0.07714350  0.31332650  0.08921000  1
  La  La26  1  0.07714350  0.68667350  0.58921000  1
  La  La27  1  0.92285650  0.31332650  0.58921000  1
  La  La28  1  0.92264000  0.56122800  0.56850000  1
  La  La29  1  0.07736000  0.43877200  0.56850000  1
  La  La30  1  0.07736000  0.56122800  0.06850000  1
  La  La31  1  0.92264000  0.43877200  0.06850000  1
  Nb  Nb32  1  0.25000000  0.25000000  0.00090600  1
  Nb  Nb33  1  0.25000000  0.75000000  0.50090600  1
  Nb  Nb34  1  0.24922050  0.17911950  0.49785200  1
  Nb  Nb35  1  0.75077950  0.82088050  0.49785200  1
  Nb  Nb36  1  0.75077950  0.17911950  0.99785200  1
  Nb  Nb37  1  0.24922050  0.82088050  0.99785200  1
  Nb  Nb38  1  0.24926950  0.10624950  0.00046100  1
  Nb  Nb39  1  0.75073050  0.89375050  0.00046100  1
  Nb  Nb40  1  0.75073050  0.10624950  0.50046100  1
  Nb  Nb41  1  0.24926950  0.89375050  0.50046100  1
  Nb  Nb42  1  0.25027850  0.03690350  0.49922800  1
  Nb  Nb43  1  0.74972150  0.96309650  0.49922800  1
  Nb  Nb44  1  0.74972150  0.03690350  0.99922800  1
  Nb  Nb45  1  0.25027850  0.96309650  0.99922800  1
  Nb  Nb46  1  0.75000000  0.75000000  0.00090600  1
  Nb  Nb47  1  0.75000000  0.25000000  0.50090600  1
  Nb  Nb48  1  0.74922050  0.67911950  0.49785200  1
  Nb  Nb49  1  0.25077950  0.32088050  0.49785200  1
  Nb  Nb50  1  0.25077950  0.67911950  0.99785200  1
  Nb  Nb51  1  0.74922050  0.32088050  0.99785200  1
  Nb  Nb52  1  0.74926950  0.60624950  0.00046100  1
  Nb  Nb53  1  0.25073050  0.39375050  0.00046100  1
  Nb  Nb54  1  0.25073050  0.60624950  0.50046100  1
  Nb  Nb55  1  0.74926950  0.39375050  0.50046100  1
  Nb  Nb56  1  0.75027850  0.53690350  0.49922800  1
  Nb  Nb57  1  0.24972150  0.46309650  0.49922800  1
  Nb  Nb58  1  0.24972150  0.53690350  0.99922800  1
  Nb  Nb59  1  0.75027850  0.46309650  0.99922800  1
  S  S60  1  0.32017050  0.24885150  0.33196600  1
  S  S61  1  0.67982950  0.75114850  0.33196600  1
  S  S62  1  0.67982950  0.24885150  0.83196600  1
  S  S63  1  0.32017050  0.75114850  0.83196600  1
  S  S64  1  0.18192100  0.17828900  0.83189100  1
  S  S65  1  0.81807900  0.82171100  0.83189100  1
  S  S66  1  0.81807900  0.17828900  0.33189100  1
  S  S67  1  0.18192100  0.82171100  0.33189100  1
  S  S68  1  0.31681800  0.17750200  0.82852300  1
  S  S69  1  0.68318200  0.82249800  0.82852300  1
  S  S70  1  0.68318200  0.17750200  0.32852300  1
  S  S71  1  0.31681800  0.82249800  0.32852300  1
  S  S72  1  0.17988100  0.10774500  0.33328600  1
  S  S73  1  0.82011900  0.89225500  0.33328600  1
  S  S74  1  0.82011900  0.10774500  0.83328600  1
  S  S75  1  0.17988100  0.89225500  0.83328600  1
  S  S76  1  0.31918050  0.10943150  0.33028600  1
  S  S77  1  0.68081950  0.89056850  0.33028600  1
  S  S78  1  0.68081950  0.10943150  0.83028600  1
  S  S79  1  0.31918050  0.89056850  0.83028600  1
  S  S80  1  0.18164750  0.03333850  0.82928400  1
  S  S81  1  0.81835250  0.96666150  0.82928400  1
  S  S82  1  0.81835250  0.03333850  0.32928400  1
  S  S83  1  0.18164750  0.96666150  0.32928400  1
  S  S84  1  0.31845550  0.03477450  0.83294200  1
  S  S85  1  0.68154450  0.96522550  0.83294200  1
  S  S86  1  0.68154450  0.03477450  0.33294200  1
  S  S87  1  0.31845550  0.96522550  0.33294200  1
  S  S88  1  0.45034300  0.43742200  0.57822400  1
  S  S89  1  0.54965700  0.56257800  0.57822400  1
  S  S90  1  0.45055550  0.93751750  0.57391800  1
  S  S91  1  0.54944450  0.06248250  0.57391800  1
  S  S92  1  0.54944450  0.93751750  0.07391800  1
  S  S93  1  0.45055550  0.06248250  0.07391800  1
  S  S94  1  0.45038800  0.81311600  0.08300000  1
  S  S95  1  0.54961200  0.18688400  0.08300000  1
  S  S96  1  0.54961200  0.81311600  0.58300000  1
  S  S97  1  0.45038800  0.18688400  0.58300000  1
  S  S98  1  0.45068250  0.68818250  0.57023200  1
  S  S99  1  0.54931750  0.31181750  0.57023200  1
  S  S100  1  0.54931750  0.68818250  0.07023200  1
  S  S101  1  0.45068250  0.31181750  0.07023200  1
  S  S102  1  0.45034300  0.56257800  0.07822400  1
  S  S103  1  0.54965700  0.43742200  0.07822400  1
  S  S104  1  0.82017050  0.74885150  0.33196600  1
  S  S105  1  0.17982950  0.25114850  0.33196600  1
  S  S106  1  0.17982950  0.74885150  0.83196600  1
  S  S107  1  0.82017050  0.25114850  0.83196600  1
  S  S108  1  0.68192100  0.67828900  0.83189100  1
  S  S109  1  0.31807900  0.32171100  0.83189100  1
  S  S110  1  0.31807900  0.67828900  0.33189100  1
  S  S111  1  0.68192100  0.32171100  0.33189100  1
  S  S112  1  0.81681800  0.67750200  0.82852300  1
  S  S113  1  0.18318200  0.32249800  0.82852300  1
  S  S114  1  0.18318200  0.67750200  0.32852300  1
  S  S115  1  0.81681800  0.32249800  0.32852300  1
  S  S116  1  0.67988100  0.60774500  0.33328600  1
  S  S117  1  0.32011900  0.39225500  0.33328600  1
  S  S118  1  0.32011900  0.60774500  0.83328600  1
  S  S119  1  0.67988100  0.39225500  0.83328600  1
  S  S120  1  0.81918050  0.60943150  0.33028600  1
  S  S121  1  0.18081950  0.39056850  0.33028600  1
  S  S122  1  0.18081950  0.60943150  0.83028600  1
  S  S123  1  0.81918050  0.39056850  0.83028600  1
  S  S124  1  0.68164750  0.53333850  0.82928400  1
  S  S125  1  0.31835250  0.46666150  0.82928400  1
  S  S126  1  0.31835250  0.53333850  0.32928400  1
  S  S127  1  0.68164750  0.46666150  0.32928400  1
  S  S128  1  0.81845550  0.53477450  0.83294200  1
  S  S129  1  0.18154450  0.46522550  0.83294200  1
  S  S130  1  0.18154450  0.53477450  0.33294200  1
  S  S131  1  0.81845550  0.46522550  0.33294200  1
  S  S132  1  0.95034300  0.93742200  0.57822400  1
  S  S133  1  0.04965700  0.06257800  0.57822400  1
  S  S134  1  0.95055550  0.43751750  0.57391800  1
  S  S135  1  0.04944450  0.56248250  0.57391800  1
  S  S136  1  0.04944450  0.43751750  0.07391800  1
  S  S137  1  0.95055550  0.56248250  0.07391800  1
  S  S138  1  0.95038800  0.31311600  0.08300000  1
  S  S139  1  0.04961200  0.68688400  0.08300000  1
  S  S140  1  0.04961200  0.31311600  0.58300000  1
  S  S141  1  0.95038800  0.68688400  0.58300000  1
  S  S142  1  0.95068250  0.18818250  0.57023200  1
  S  S143  1  0.04931750  0.81181750  0.57023200  1
  S  S144  1  0.04931750  0.18818250  0.07023200  1
  S  S145  1  0.95068250  0.81181750  0.07023200  1
  S  S146  1  0.95034300  0.06257800  0.07822400  1
  S  S147  1  0.04965700  0.93742200  0.07822400  1
