# generated using pymatgen
data_Ba7Ir6O19
_symmetry_space_group_name_H-M   'P 1'
_cell_length_a   15.03323600
_cell_length_b   5.82821800
_cell_length_c   11.19623560
_cell_angle_alpha   90.00000000
_cell_angle_beta   98.99955376
_cell_angle_gamma   90.00000000
_symmetry_Int_Tables_number   1
_chemical_formula_structural   Ba7Ir6O19
_chemical_formula_sum   'Ba14 Ir12 O38'
_cell_volume   968.90401271
_cell_formula_units_Z   2
loop_
 _symmetry_equiv_pos_site_id
 _symmetry_equiv_pos_as_xyz
  1  'x, y, z'
loop_
 _atom_site_type_symbol
 _atom_site_label
 _atom_site_symmetry_multiplicity
 _atom_site_fract_x
 _atom_site_fract_y
 _atom_site_fract_z
 _atom_site_occupancy
  Ba  Ba0  1  0.00000000  0.50000000  0.50000000  1
  Ba  Ba1  1  0.85557400  0.00000000  0.05474800  1
  Ba  Ba2  1  0.64442600  0.50000000  0.94525200  1
  Ba  Ba3  1  0.57387700  0.00000000  0.16249700  1
  Ba  Ba4  1  0.92612300  0.50000000  0.83750300  1
  Ba  Ba5  1  0.80477600  0.00000000  0.41022300  1
  Ba  Ba6  1  0.69522400  0.50000000  0.58977700  1
  Ba  Ba7  1  0.50000000  0.00000000  0.50000000  1
  Ba  Ba8  1  0.35557400  0.50000000  0.05474800  1
  Ba  Ba9  1  0.14442600  0.00000000  0.94525200  1
  Ba  Ba10  1  0.07387700  0.50000000  0.16249700  1
  Ba  Ba11  1  0.42612300  0.00000000  0.83750300  1
  Ba  Ba12  1  0.30477600  0.50000000  0.41022300  1
  Ba  Ba13  1  0.19522400  0.00000000  0.58977700  1
  Ir  Ir14  1  0.68323000  0.50000000  0.26550900  1
  Ir  Ir15  1  0.81677000  0.00000000  0.73449100  1
  Ir  Ir16  1  0.84535200  0.50000000  0.21847200  1
  Ir  Ir17  1  0.65464800  0.00000000  0.78152800  1
  Ir  Ir18  1  0.52338900  0.50000000  0.32265500  1
  Ir  Ir19  1  0.97661100  0.00000000  0.67734500  1
  Ir  Ir20  1  0.18323000  0.00000000  0.26550900  1
  Ir  Ir21  1  0.31677000  0.50000000  0.73449100  1
  Ir  Ir22  1  0.34535200  0.00000000  0.21847200  1
  Ir  Ir23  1  0.15464800  0.50000000  0.78152800  1
  Ir  Ir24  1  0.02338900  0.00000000  0.32265500  1
  Ir  Ir25  1  0.47661100  0.50000000  0.67734500  1
  O  O26  1  0.00000000  0.00000000  0.50000000  1
  O  O27  1  0.70210900  0.00000000  0.61345800  1
  O  O28  1  0.79789100  0.50000000  0.38654200  1
  O  O29  1  0.55775500  0.50000000  0.15047300  1
  O  O30  1  0.94224500  0.00000000  0.84952700  1
  O  O31  1  0.89756200  0.50000000  0.06435800  1
  O  O32  1  0.60243800  0.00000000  0.93564200  1
  O  O33  1  0.57114550  0.74898050  0.70614800  1
  O  O34  1  0.92885450  0.24898050  0.29385200  1
  O  O35  1  0.92885450  0.75101950  0.29385200  1
  O  O36  1  0.57114550  0.25101950  0.70614800  1
  O  O37  1  0.75613800  0.22913100  0.83690900  1
  O  O38  1  0.74386200  0.72913100  0.16309100  1
  O  O39  1  0.87475050  0.23267450  0.63264900  1
  O  O40  1  0.62524950  0.73267450  0.36735100  1
  O  O41  1  0.62524950  0.26732550  0.36735100  1
  O  O42  1  0.87475050  0.76732550  0.63264900  1
  O  O43  1  0.75613800  0.77086900  0.83690900  1
  O  O44  1  0.74386200  0.27086900  0.16309100  1
  O  O45  1  0.50000000  0.50000000  0.50000000  1
  O  O46  1  0.20210900  0.50000000  0.61345800  1
  O  O47  1  0.29789100  0.00000000  0.38654200  1
  O  O48  1  0.05775500  0.00000000  0.15047300  1
  O  O49  1  0.44224500  0.50000000  0.84952700  1
  O  O50  1  0.39756200  0.00000000  0.06435800  1
  O  O51  1  0.10243800  0.50000000  0.93564200  1
  O  O52  1  0.07114550  0.24898050  0.70614800  1
  O  O53  1  0.42885450  0.74898050  0.29385200  1
  O  O54  1  0.42885450  0.25101950  0.29385200  1
  O  O55  1  0.07114550  0.75101950  0.70614800  1
  O  O56  1  0.25613800  0.72913100  0.83690900  1
  O  O57  1  0.24386200  0.22913100  0.16309100  1
  O  O58  1  0.37475050  0.73267450  0.63264900  1
  O  O59  1  0.12524950  0.23267450  0.36735100  1
  O  O60  1  0.12524950  0.76732550  0.36735100  1
  O  O61  1  0.37475050  0.26732550  0.63264900  1
  O  O62  1  0.25613800  0.27086900  0.83690900  1
  O  O63  1  0.24386200  0.77086900  0.16309100  1
