# generated using pymatgen
data_K5Pb24
_symmetry_space_group_name_H-M   'P 1'
_cell_length_a   12.57278800
_cell_length_b   12.57278800
_cell_length_c   12.57278800
_cell_angle_alpha   90.00000000
_cell_angle_beta   90.00000000
_cell_angle_gamma   90.00000000
_symmetry_Int_Tables_number   1
_chemical_formula_structural   K5Pb24
_chemical_formula_sum   'K10 Pb48'
_cell_volume   1987.44343912
_cell_formula_units_Z   2
loop_
 _symmetry_equiv_pos_site_id
 _symmetry_equiv_pos_as_xyz
  1  'x, y, z'
loop_
 _atom_site_type_symbol
 _atom_site_label
 _atom_site_symmetry_multiplicity
 _atom_site_fract_x
 _atom_site_fract_y
 _atom_site_fract_z
 _atom_site_occupancy
  K  K0  1  0.18176150  0.81823850  0.18176150  1
  K  K1  1  0.81823850  0.18176150  0.18176150  1
  K  K2  1  0.18176150  0.18176150  0.81823850  1
  K  K3  1  0.31823850  0.31823850  0.31823850  1
  K  K4  1  0.00000000  0.00000000  0.00000000  1
  K  K5  1  0.68176150  0.31823850  0.68176150  1
  K  K6  1  0.31823850  0.68176150  0.68176150  1
  K  K7  1  0.68176150  0.68176150  0.31823850  1
  K  K8  1  0.81823850  0.81823850  0.81823850  1
  K  K9  1  0.50000000  0.50000000  0.50000000  1
  Pb  Pb10  1  0.79402600  0.40479400  0.40479400  1
  Pb  Pb11  1  0.70597400  0.09520600  0.90479400  1
  Pb  Pb12  1  0.70597400  0.90479400  0.09520600  1
  Pb  Pb13  1  0.09520600  0.90479400  0.70597400  1
  Pb  Pb14  1  0.09520600  0.09520600  0.29402600  1
  Pb  Pb15  1  0.29402600  0.09520600  0.09520600  1
  Pb  Pb16  1  0.40479400  0.79402600  0.40479400  1
  Pb  Pb17  1  0.04035500  0.36116300  0.36116300  1
  Pb  Pb18  1  0.13883700  0.13883700  0.54035500  1
  Pb  Pb19  1  0.86116300  0.13883700  0.45964500  1
  Pb  Pb20  1  0.45964500  0.86116300  0.13883700  1
  Pb  Pb21  1  0.45964500  0.13883700  0.86116300  1
  Pb  Pb22  1  0.86116300  0.45964500  0.13883700  1
  Pb  Pb23  1  0.13883700  0.54035500  0.13883700  1
  Pb  Pb24  1  0.13883700  0.86116300  0.45964500  1
  Pb  Pb25  1  0.13883700  0.45964500  0.86116300  1
  Pb  Pb26  1  0.36116300  0.04035500  0.36116300  1
  Pb  Pb27  1  0.36116300  0.36116300  0.04035500  1
  Pb  Pb28  1  0.54035500  0.13883700  0.13883700  1
  Pb  Pb29  1  0.40479400  0.40479400  0.79402600  1
  Pb  Pb30  1  0.90479400  0.09520600  0.70597400  1
  Pb  Pb31  1  0.09520600  0.70597400  0.90479400  1
  Pb  Pb32  1  0.90479400  0.70597400  0.09520600  1
  Pb  Pb33  1  0.09520600  0.29402600  0.09520600  1
  Pb  Pb34  1  0.29402600  0.90479400  0.90479400  1
  Pb  Pb35  1  0.20597400  0.59520600  0.40479400  1
  Pb  Pb36  1  0.20597400  0.40479400  0.59520600  1
  Pb  Pb37  1  0.59520600  0.40479400  0.20597400  1
  Pb  Pb38  1  0.59520600  0.59520600  0.79402600  1
  Pb  Pb39  1  0.79402600  0.59520600  0.59520600  1
  Pb  Pb40  1  0.90479400  0.29402600  0.90479400  1
  Pb  Pb41  1  0.54035500  0.86116300  0.86116300  1
  Pb  Pb42  1  0.63883700  0.63883700  0.04035500  1
  Pb  Pb43  1  0.36116300  0.63883700  0.95964500  1
  Pb  Pb44  1  0.95964500  0.36116300  0.63883700  1
  Pb  Pb45  1  0.95964500  0.63883700  0.36116300  1
  Pb  Pb46  1  0.36116300  0.95964500  0.63883700  1
  Pb  Pb47  1  0.63883700  0.04035500  0.63883700  1
  Pb  Pb48  1  0.63883700  0.36116300  0.95964500  1
  Pb  Pb49  1  0.63883700  0.95964500  0.36116300  1
  Pb  Pb50  1  0.86116300  0.54035500  0.86116300  1
  Pb  Pb51  1  0.86116300  0.86116300  0.54035500  1
  Pb  Pb52  1  0.04035500  0.63883700  0.63883700  1
  Pb  Pb53  1  0.90479400  0.90479400  0.29402600  1
  Pb  Pb54  1  0.40479400  0.59520600  0.20597400  1
  Pb  Pb55  1  0.59520600  0.20597400  0.40479400  1
  Pb  Pb56  1  0.40479400  0.20597400  0.59520600  1
  Pb  Pb57  1  0.59520600  0.79402600  0.59520600  1
