# generated using pymatgen
data_BaIn2
_symmetry_space_group_name_H-M   'P 1'
_cell_length_a   5.34373800
_cell_length_b   8.65861600
_cell_length_c   8.70664000
_cell_angle_alpha   90.00000000
_cell_angle_beta   90.00000000
_cell_angle_gamma   90.00000000
_symmetry_Int_Tables_number   1
_chemical_formula_structural   BaIn2
_chemical_formula_sum   'Ba4 In8'
_cell_volume   402.85079417
_cell_formula_units_Z   4
loop_
 _symmetry_equiv_pos_site_id
 _symmetry_equiv_pos_as_xyz
  1  'x, y, z'
loop_
 _atom_site_type_symbol
 _atom_site_label
 _atom_site_symmetry_multiplicity
 _atom_site_fract_x
 _atom_site_fract_y
 _atom_site_fract_z
 _atom_site_occupancy
  Ba  Ba0  1  0.00000000  0.75000000  0.45137700  1
  Ba  Ba1  1  0.00000000  0.25000000  0.54862300  1
  Ba  Ba2  1  0.50000000  0.25000000  0.95137700  1
  Ba  Ba3  1  0.50000000  0.75000000  0.04862300  1
  In  In4  1  0.00000000  0.06791300  0.16181900  1
  In  In5  1  0.00000000  0.93208700  0.83818100  1
  In  In6  1  0.50000000  0.93208700  0.66181900  1
  In  In7  1  0.50000000  0.06791300  0.33818100  1
  In  In8  1  0.50000000  0.56791300  0.66181900  1
  In  In9  1  0.50000000  0.43208700  0.33818100  1
  In  In10  1  0.00000000  0.43208700  0.16181900  1
  In  In11  1  0.00000000  0.56791300  0.83818100  1
