# generated using pymatgen
data_U2Cl5O2
_symmetry_space_group_name_H-M   'P 1'
_cell_length_a   8.49202200
_cell_length_b   13.82306800
_cell_length_c   4.13086100
_cell_angle_alpha   90.00000000
_cell_angle_beta   90.00000000
_cell_angle_gamma   90.00000000
_symmetry_Int_Tables_number   1
_chemical_formula_structural   U2Cl5O2
_chemical_formula_sum   'U4 Cl10 O4'
_cell_volume   484.90441311
_cell_formula_units_Z   2
loop_
 _symmetry_equiv_pos_site_id
 _symmetry_equiv_pos_as_xyz
  1  'x, y, z'
loop_
 _atom_site_type_symbol
 _atom_site_label
 _atom_site_symmetry_multiplicity
 _atom_site_fract_x
 _atom_site_fract_y
 _atom_site_fract_z
 _atom_site_occupancy
  U  U0  1  0.50000000  0.29973100  0.00000000  1
  U  U1  1  0.50000000  0.70026900  0.00000000  1
  U  U2  1  0.00000000  0.79973100  0.00000000  1
  U  U3  1  0.00000000  0.20026900  0.00000000  1
  Cl  Cl4  1  0.68939100  0.86042300  0.00000000  1
  Cl  Cl5  1  0.31060900  0.13957700  0.00000000  1
  Cl  Cl6  1  0.00000000  0.00000000  0.00000000  1
  Cl  Cl7  1  0.68939100  0.13957700  0.00000000  1
  Cl  Cl8  1  0.31060900  0.86042300  0.00000000  1
  Cl  Cl9  1  0.18939100  0.36042300  0.00000000  1
  Cl  Cl10  1  0.81060900  0.63957700  0.00000000  1
  Cl  Cl11  1  0.50000000  0.50000000  0.00000000  1
  Cl  Cl12  1  0.18939100  0.63957700  0.00000000  1
  Cl  Cl13  1  0.81060900  0.36042300  0.00000000  1
  O  O14  1  0.50000000  0.29936400  0.50000000  1
  O  O15  1  0.50000000  0.70063600  0.50000000  1
  O  O16  1  0.00000000  0.79936400  0.50000000  1
  O  O17  1  0.00000000  0.20063600  0.50000000  1
