# generated using pymatgen
data_Bi2Pd3S2
_symmetry_space_group_name_H-M   'P 1'
_cell_length_a   8.45551800
_cell_length_b   8.45551800
_cell_length_c   8.45551800
_cell_angle_alpha   90.00000000
_cell_angle_beta   90.00000000
_cell_angle_gamma   90.00000000
_symmetry_Int_Tables_number   1
_chemical_formula_structural   Bi2Pd3S2
_chemical_formula_sum   'Bi8 Pd12 S8'
_cell_volume   604.53389402
_cell_formula_units_Z   4
loop_
 _symmetry_equiv_pos_site_id
 _symmetry_equiv_pos_as_xyz
  1  'x, y, z'
loop_
 _atom_site_type_symbol
 _atom_site_label
 _atom_site_symmetry_multiplicity
 _atom_site_fract_x
 _atom_site_fract_y
 _atom_site_fract_z
 _atom_site_occupancy
  Bi  Bi0  1  0.24629400  0.75370600  0.25370600  1
  Bi  Bi1  1  0.24629400  0.24629400  0.24629400  1
  Bi  Bi2  1  0.25370600  0.24629400  0.75370600  1
  Bi  Bi3  1  0.75370600  0.25370600  0.24629400  1
  Bi  Bi4  1  0.74629400  0.25370600  0.75370600  1
  Bi  Bi5  1  0.74629400  0.74629400  0.74629400  1
  Bi  Bi6  1  0.75370600  0.74629400  0.25370600  1
  Bi  Bi7  1  0.25370600  0.75370600  0.74629400  1
  Pd  Pd8  1  0.25000000  0.02917500  0.50000000  1
  Pd  Pd9  1  0.50000000  0.25000000  0.02917500  1
  Pd  Pd10  1  0.47082500  0.50000000  0.75000000  1
  Pd  Pd11  1  0.50000000  0.75000000  0.47082500  1
  Pd  Pd12  1  0.02917500  0.50000000  0.25000000  1
  Pd  Pd13  1  0.75000000  0.47082500  0.50000000  1
  Pd  Pd14  1  0.75000000  0.52917500  0.00000000  1
  Pd  Pd15  1  0.00000000  0.75000000  0.52917500  1
  Pd  Pd16  1  0.97082500  0.00000000  0.25000000  1
  Pd  Pd17  1  0.00000000  0.25000000  0.97082500  1
  Pd  Pd18  1  0.52917500  0.00000000  0.75000000  1
  Pd  Pd19  1  0.25000000  0.97082500  0.00000000  1
  S  S20  1  0.97301600  0.02698400  0.52698400  1
  S  S21  1  0.02698400  0.52698400  0.97301600  1
  S  S22  1  0.47301600  0.47301600  0.47301600  1
  S  S23  1  0.52698400  0.97301600  0.02698400  1
  S  S24  1  0.47301600  0.52698400  0.02698400  1
  S  S25  1  0.52698400  0.02698400  0.47301600  1
  S  S26  1  0.97301600  0.97301600  0.97301600  1
  S  S27  1  0.02698400  0.47301600  0.52698400  1
