# generated using pymatgen
data_KTb3F12
_symmetry_space_group_name_H-M   'P 1'
_cell_length_a   8.01476200
_cell_length_b   8.01476200
_cell_length_c   7.84959400
_cell_angle_alpha   90.00000000
_cell_angle_beta   90.00000000
_cell_angle_gamma   90.00000000
_symmetry_Int_Tables_number   1
_chemical_formula_structural   KTb3F12
_chemical_formula_sum   'K2 Tb6 F24'
_cell_volume   504.22973786
_cell_formula_units_Z   2
loop_
 _symmetry_equiv_pos_site_id
 _symmetry_equiv_pos_as_xyz
  1  'x, y, z'
loop_
 _atom_site_type_symbol
 _atom_site_label
 _atom_site_symmetry_multiplicity
 _atom_site_fract_x
 _atom_site_fract_y
 _atom_site_fract_z
 _atom_site_occupancy
  K  K0  1  0.00000000  0.00000000  0.00000000  1
  K  K1  1  0.50000000  0.50000000  0.50000000  1
  Tb  Tb2  1  0.00000000  0.50000000  0.25000000  1
  Tb  Tb3  1  0.00000000  0.00000000  0.50000000  1
  Tb  Tb4  1  0.50000000  0.00000000  0.25000000  1
  Tb  Tb5  1  0.50000000  0.00000000  0.75000000  1
  Tb  Tb6  1  0.50000000  0.50000000  0.00000000  1
  Tb  Tb7  1  0.00000000  0.50000000  0.75000000  1
  F  F8  1  0.22858950  0.01856950  0.32584350  1
  F  F9  1  0.98143050  0.22858950  0.32584350  1
  F  F10  1  0.51856950  0.27141050  0.82584350  1
  F  F11  1  0.27141050  0.48143050  0.82584350  1
  F  F12  1  0.34171400  0.01335800  0.00000000  1
  F  F13  1  0.48664200  0.84171400  0.50000000  1
  F  F14  1  0.01335800  0.65828600  0.00000000  1
  F  F15  1  0.15828600  0.48664200  0.50000000  1
  F  F16  1  0.22858950  0.01856950  0.67415650  1
  F  F17  1  0.98143050  0.22858950  0.67415650  1
  F  F18  1  0.51856950  0.27141050  0.17415650  1
  F  F19  1  0.27141050  0.48143050  0.17415650  1
  F  F20  1  0.72858950  0.51856950  0.82584350  1
  F  F21  1  0.48143050  0.72858950  0.82584350  1
  F  F22  1  0.01856950  0.77141050  0.32584350  1
  F  F23  1  0.77141050  0.98143050  0.32584350  1
  F  F24  1  0.84171400  0.51335800  0.50000000  1
  F  F25  1  0.98664200  0.34171400  0.00000000  1
  F  F26  1  0.51335800  0.15828600  0.50000000  1
  F  F27  1  0.65828600  0.98664200  0.00000000  1
  F  F28  1  0.72858950  0.51856950  0.17415650  1
  F  F29  1  0.48143050  0.72858950  0.17415650  1
  F  F30  1  0.01856950  0.77141050  0.67415650  1
  F  F31  1  0.77141050  0.98143050  0.67415650  1
