# generated using pymatgen
data_NdIn2Ir
_symmetry_space_group_name_H-M   'P 1'
_cell_length_a   4.42844000
_cell_length_b   10.41405000
_cell_length_c   8.07291200
_cell_angle_alpha   90.00000000
_cell_angle_beta   90.00000000
_cell_angle_gamma   90.00000000
_symmetry_Int_Tables_number   1
_chemical_formula_structural   NdIn2Ir
_chemical_formula_sum   'Nd4 In8 Ir4'
_cell_volume   372.30651995
_cell_formula_units_Z   4
loop_
 _symmetry_equiv_pos_site_id
 _symmetry_equiv_pos_as_xyz
  1  'x, y, z'
loop_
 _atom_site_type_symbol
 _atom_site_label
 _atom_site_symmetry_multiplicity
 _atom_site_fract_x
 _atom_site_fract_y
 _atom_site_fract_z
 _atom_site_occupancy
  Nd  Nd0  1  0.00000000  0.06996400  0.25000000  1
  Nd  Nd1  1  0.50000000  0.43003600  0.75000000  1
  Nd  Nd2  1  0.50000000  0.56996400  0.25000000  1
  Nd  Nd3  1  0.00000000  0.93003600  0.75000000  1
  In  In4  1  0.00000000  0.35505100  0.05149400  1
  In  In5  1  0.50000000  0.14494900  0.94850600  1
  In  In6  1  0.00000000  0.35505100  0.44850600  1
  In  In7  1  0.50000000  0.14494900  0.55149400  1
  In  In8  1  0.50000000  0.85505100  0.05149400  1
  In  In9  1  0.00000000  0.64494900  0.94850600  1
  In  In10  1  0.50000000  0.85505100  0.44850600  1
  In  In11  1  0.00000000  0.64494900  0.55149400  1
  Ir  Ir12  1  0.00000000  0.21851500  0.75000000  1
  Ir  Ir13  1  0.50000000  0.28148500  0.25000000  1
  Ir  Ir14  1  0.50000000  0.71851500  0.75000000  1
  Ir  Ir15  1  0.00000000  0.78148500  0.25000000  1
