# generated using pymatgen
data_Th4H15
_symmetry_space_group_name_H-M   'P 1'
_cell_length_a   9.12540800
_cell_length_b   9.12540800
_cell_length_c   9.12540800
_cell_angle_alpha   90.00000000
_cell_angle_beta   90.00000000
_cell_angle_gamma   90.00000000
_symmetry_Int_Tables_number   1
_chemical_formula_structural   Th4H15
_chemical_formula_sum   'Th16 H60'
_cell_volume   759.90074981
_cell_formula_units_Z   4
loop_
 _symmetry_equiv_pos_site_id
 _symmetry_equiv_pos_as_xyz
  1  'x, y, z'
loop_
 _atom_site_type_symbol
 _atom_site_label
 _atom_site_symmetry_multiplicity
 _atom_site_fract_x
 _atom_site_fract_y
 _atom_site_fract_z
 _atom_site_occupancy
  Th  Th0  1  0.45791800  0.45791800  0.45791800  1
  Th  Th1  1  0.79208200  0.29208200  0.20791800  1
  Th  Th2  1  0.29208200  0.20791800  0.79208200  1
  Th  Th3  1  0.20791800  0.79208200  0.29208200  1
  Th  Th4  1  0.54208200  0.95791800  0.04208200  1
  Th  Th5  1  0.95791800  0.04208200  0.54208200  1
  Th  Th6  1  0.04208200  0.54208200  0.95791800  1
  Th  Th7  1  0.20791800  0.20791800  0.20791800  1
  Th  Th8  1  0.95791800  0.95791800  0.95791800  1
  Th  Th9  1  0.29208200  0.79208200  0.70791800  1
  Th  Th10  1  0.79208200  0.70791800  0.29208200  1
  Th  Th11  1  0.70791800  0.29208200  0.79208200  1
  Th  Th12  1  0.04208200  0.45791800  0.54208200  1
  Th  Th13  1  0.45791800  0.54208200  0.04208200  1
  Th  Th14  1  0.54208200  0.04208200  0.45791800  1
  Th  Th15  1  0.70791800  0.70791800  0.70791800  1
  H  H16  1  0.34514050  0.02850050  0.62453650  1
  H  H17  1  0.47149950  0.37546350  0.84514050  1
  H  H18  1  0.37546350  0.15485950  0.02850050  1
  H  H19  1  0.15485950  0.97149950  0.12453650  1
  H  H20  1  0.97149950  0.12453650  0.15485950  1
  H  H21  1  0.12453650  0.15485950  0.97149950  1
  H  H22  1  0.27850050  0.59514050  0.87453650  1
  H  H23  1  0.22149950  0.59514050  0.12546350  1
  H  H24  1  0.00000000  0.25000000  0.37500000  1
  H  H25  1  0.37500000  0.00000000  0.25000000  1
  H  H26  1  0.12500000  0.00000000  0.75000000  1
  H  H27  1  0.75000000  0.12500000  0.00000000  1
  H  H28  1  0.25000000  0.37500000  0.00000000  1
  H  H29  1  0.00000000  0.75000000  0.12500000  1
  H  H30  1  0.22149950  0.40485950  0.37453650  1
  H  H31  1  0.37546350  0.84514050  0.47149950  1
  H  H32  1  0.62453650  0.34514050  0.02850050  1
  H  H33  1  0.02850050  0.62453650  0.34514050  1
  H  H34  1  0.02850050  0.37546350  0.15485950  1
  H  H35  1  0.15485950  0.02850050  0.37546350  1
  H  H36  1  0.84514050  0.47149950  0.37546350  1
  H  H37  1  0.90485950  0.12546350  0.77850050  1
  H  H38  1  0.12546350  0.22149950  0.59514050  1
  H  H39  1  0.59514050  0.87453650  0.27850050  1
  H  H40  1  0.12546350  0.77850050  0.90485950  1
  H  H41  1  0.59514050  0.12546350  0.22149950  1
  H  H42  1  0.87453650  0.27850050  0.59514050  1
  H  H43  1  0.37453650  0.22149950  0.40485950  1
  H  H44  1  0.40485950  0.37453650  0.22149950  1
  H  H45  1  0.77850050  0.90485950  0.12546350  1
  H  H46  1  0.84514050  0.52850050  0.12453650  1
  H  H47  1  0.97149950  0.87546350  0.34514050  1
  H  H48  1  0.87546350  0.65485950  0.52850050  1
  H  H49  1  0.65485950  0.47149950  0.62453650  1
  H  H50  1  0.47149950  0.62453650  0.65485950  1
  H  H51  1  0.62453650  0.65485950  0.47149950  1
  H  H52  1  0.77850050  0.09514050  0.37453650  1
  H  H53  1  0.72149950  0.09514050  0.62546350  1
  H  H54  1  0.50000000  0.75000000  0.87500000  1
  H  H55  1  0.87500000  0.50000000  0.75000000  1
  H  H56  1  0.62500000  0.50000000  0.25000000  1
  H  H57  1  0.25000000  0.62500000  0.50000000  1
  H  H58  1  0.75000000  0.87500000  0.50000000  1
  H  H59  1  0.50000000  0.25000000  0.62500000  1
  H  H60  1  0.72149950  0.90485950  0.87453650  1
  H  H61  1  0.87546350  0.34514050  0.97149950  1
  H  H62  1  0.12453650  0.84514050  0.52850050  1
  H  H63  1  0.52850050  0.12453650  0.84514050  1
  H  H64  1  0.52850050  0.87546350  0.65485950  1
  H  H65  1  0.65485950  0.52850050  0.87546350  1
  H  H66  1  0.34514050  0.97149950  0.87546350  1
  H  H67  1  0.40485950  0.62546350  0.27850050  1
  H  H68  1  0.62546350  0.72149950  0.09514050  1
  H  H69  1  0.09514050  0.37453650  0.77850050  1
  H  H70  1  0.62546350  0.27850050  0.40485950  1
  H  H71  1  0.09514050  0.62546350  0.72149950  1
  H  H72  1  0.37453650  0.77850050  0.09514050  1
  H  H73  1  0.87453650  0.72149950  0.90485950  1
  H  H74  1  0.90485950  0.87453650  0.72149950  1
  H  H75  1  0.27850050  0.40485950  0.62546350  1
