# generated using pymatgen
data_Sn4(PO4)3
_symmetry_space_group_name_H-M   'P 1'
_cell_length_a   9.82261422
_cell_length_b   9.82261422
_cell_length_c   25.45484688
_cell_angle_alpha   90.00000000
_cell_angle_beta   90.00000000
_cell_angle_gamma   120.00000000
_symmetry_Int_Tables_number   1
_chemical_formula_structural   Sn4(PO4)3
_chemical_formula_sum   'Sn24 P18 O72'
_cell_volume   2126.94027902
_cell_formula_units_Z   6
loop_
 _symmetry_equiv_pos_site_id
 _symmetry_equiv_pos_as_xyz
  1  'x, y, z'
loop_
 _atom_site_type_symbol
 _atom_site_label
 _atom_site_symmetry_multiplicity
 _atom_site_fract_x
 _atom_site_fract_y
 _atom_site_fract_z
 _atom_site_occupancy
  Sn  Sn0  1  0.47214900  0.06120600  0.15911000  1
  Sn  Sn1  1  0.92239033  0.72787267  0.32577667  1
  Sn  Sn2  1  0.80548233  0.07760967  0.32577667  1
  Sn  Sn3  1  0.00000000  0.00000000  0.18263300  1
  Sn  Sn4  1  0.66666667  0.33333333  0.01596633  1
  Sn  Sn5  1  0.93879400  0.41094300  0.15911000  1
  Sn  Sn6  1  0.27212733  0.19451767  0.32577667  1
  Sn  Sn7  1  0.58905700  0.52785100  0.15911000  1
  Sn  Sn8  1  0.13881567  0.39453933  0.49244333  1
  Sn  Sn9  1  0.58905700  0.06120600  0.65911000  1
  Sn  Sn10  1  0.47214900  0.41094300  0.65911000  1
  Sn  Sn11  1  0.66666667  0.33333333  0.51596633  1
  Sn  Sn12  1  0.33333333  0.66666667  0.34929967  1
  Sn  Sn13  1  0.60546067  0.74427633  0.49244333  1
  Sn  Sn14  1  0.93879400  0.52785100  0.65911000  1
  Sn  Sn15  1  0.25572367  0.86118433  0.49244333  1
  Sn  Sn16  1  0.80548233  0.72787267  0.82577667  1
  Sn  Sn17  1  0.25572367  0.39453933  0.99244333  1
  Sn  Sn18  1  0.13881567  0.74427633  0.99244333  1
  Sn  Sn19  1  0.33333333  0.66666667  0.84929967  1
  Sn  Sn20  1  0.00000000  0.00000000  0.68263300  1
  Sn  Sn21  1  0.27212733  0.07760967  0.82577667  1
  Sn  Sn22  1  0.60546067  0.86118433  0.99244333  1
  Sn  Sn23  1  0.92239033  0.19451767  0.82577667  1
  P  P24  1  0.00978433  0.45758267  0.28449367  1
  P  P25  1  0.11446500  0.79091600  0.11782700  1
  P  P26  1  0.54241733  0.55220167  0.28449367  1
  P  P27  1  0.44779833  0.99021567  0.28449367  1
  P  P28  1  0.67645100  0.88553500  0.11782700  1
  P  P29  1  0.20908400  0.32354900  0.11782700  1
  P  P30  1  0.67645100  0.79091600  0.61782700  1
  P  P31  1  0.78113167  0.12424933  0.45116033  1
  P  P32  1  0.20908400  0.88553500  0.61782700  1
  P  P33  1  0.11446500  0.32354900  0.61782700  1
  P  P34  1  0.34311767  0.21886833  0.45116033  1
  P  P35  1  0.87575067  0.65688233  0.45116033  1
  P  P36  1  0.34311767  0.12424933  0.95116033  1
  P  P37  1  0.44779833  0.45758267  0.78449367  1
  P  P38  1  0.87575067  0.21886833  0.95116033  1
  P  P39  1  0.78113167  0.65688233  0.95116033  1
  P  P40  1  0.00978433  0.55220167  0.78449367  1
  P  P41  1  0.54241733  0.99021567  0.78449367  1
  O  O42  1  0.96045200  0.53720000  0.32750100  1
  O  O43  1  0.17034500  0.47637900  0.30049000  1
  O  O44  1  0.97270067  0.80971233  0.13382333  1
  O  O45  1  0.46280000  0.42325200  0.32750100  1
  O  O46  1  0.24341467  0.87053333  0.16083433  1
  O  O47  1  0.30603400  0.82965500  0.30049000  1
  O  O48  1  0.52362100  0.69396600  0.30049000  1
  O  O49  1  0.71999000  0.60582200  0.27898200  1
  O  O50  1  0.62711867  0.75658533  0.16083433  1
  O  O51  1  0.39417800  0.11416800  0.27898200  1
  O  O52  1  0.51932533  0.98507467  0.23038867  1
  O  O53  1  0.55249867  0.93915533  0.11231533  1
  O  O54  1  0.57674800  0.03954800  0.32750100  1
  O  O55  1  0.83701167  0.02729933  0.13382333  1
  O  O56  1  0.88583200  0.28001000  0.27898200  1
  O  O57  1  0.19028767  0.16298833  0.13382333  1
  O  O58  1  0.13241600  0.31840800  0.06372200  1
  O  O59  1  0.12946667  0.37288133  0.16083433  1
  O  O60  1  0.01492533  0.53425067  0.23038867  1
  O  O61  1  0.06084467  0.61334333  0.11231533  1
  O  O62  1  0.38665667  0.44750133  0.11231533  1
  O  O63  1  0.46574933  0.48067467  0.23038867  1
  O  O64  1  0.18599200  0.86758400  0.06372200  1
  O  O65  1  0.68159200  0.81400800  0.06372200  1
  O  O66  1  0.62711867  0.87053333  0.66083433  1
  O  O67  1  0.83701167  0.80971233  0.63382333  1
  O  O68  1  0.63936733  0.14304567  0.46715667  1
  O  O69  1  0.12946667  0.75658533  0.66083433  1
  O  O70  1  0.91008133  0.20386667  0.49416767  1
  O  O71  1  0.97270067  0.16298833  0.63382333  1
  O  O72  1  0.19028767  0.02729933  0.63382333  1
  O  O73  1  0.38665667  0.93915533  0.61231533  1
  O  O74  1  0.29378533  0.08991867  0.49416767  1
  O  O75  1  0.06084467  0.44750133  0.61231533  1
  O  O76  1  0.18599200  0.31840800  0.56372200  1
  O  O77  1  0.21916533  0.27248867  0.44564867  1
  O  O78  1  0.24341467  0.37288133  0.66083433  1
  O  O79  1  0.50367833  0.36063267  0.46715667  1
  O  O80  1  0.55249867  0.61334333  0.61231533  1
  O  O81  1  0.85695433  0.49632167  0.46715667  1
  O  O82  1  0.79908267  0.65174133  0.39705533  1
  O  O83  1  0.79613333  0.70621467  0.49416767  1
  O  O84  1  0.68159200  0.86758400  0.56372200  1
  O  O85  1  0.72751133  0.94667667  0.44564867  1
  O  O86  1  0.05332333  0.78083467  0.44564867  1
  O  O87  1  0.13241600  0.81400800  0.56372200  1
  O  O88  1  0.85265867  0.20091733  0.39705533  1
  O  O89  1  0.34825867  0.14734133  0.39705533  1
  O  O90  1  0.29378533  0.20386667  0.99416767  1
  O  O91  1  0.50367833  0.14304567  0.96715667  1
  O  O92  1  0.30603400  0.47637900  0.80049000  1
  O  O93  1  0.79613333  0.08991867  0.99416767  1
  O  O94  1  0.57674800  0.53720000  0.82750100  1
  O  O95  1  0.63936733  0.49632167  0.96715667  1
  O  O96  1  0.85695433  0.36063267  0.96715667  1
  O  O97  1  0.05332333  0.27248867  0.94564867  1
  O  O98  1  0.96045200  0.42325200  0.82750100  1
  O  O99  1  0.72751133  0.78083467  0.94564867  1
  O  O100  1  0.85265867  0.65174133  0.89705533  1
  O  O101  1  0.88583200  0.60582200  0.77898200  1
  O  O102  1  0.91008133  0.70621467  0.99416767  1
  O  O103  1  0.17034500  0.69396600  0.80049000  1
  O  O104  1  0.21916533  0.94667667  0.94564867  1
  O  O105  1  0.52362100  0.82965500  0.80049000  1
  O  O106  1  0.46574933  0.98507467  0.73038867  1
  O  O107  1  0.46280000  0.03954800  0.82750100  1
  O  O108  1  0.34825867  0.20091733  0.89705533  1
  O  O109  1  0.39417800  0.28001000  0.77898200  1
  O  O110  1  0.71999000  0.11416800  0.77898200  1
  O  O111  1  0.79908267  0.14734133  0.89705533  1
  O  O112  1  0.51932533  0.53425067  0.73038867  1
  O  O113  1  0.01492533  0.48067467  0.73038867  1
