# generated using pymatgen
data_Li2MoO4
_symmetry_space_group_name_H-M   'P 1'
_cell_length_a   14.60846902
_cell_length_b   14.60846902
_cell_length_c   9.73915007
_cell_angle_alpha   90.00000000
_cell_angle_beta   90.00000000
_cell_angle_gamma   120.00000000
_symmetry_Int_Tables_number   1
_chemical_formula_structural   Li2MoO4
_chemical_formula_sum   'Li36 Mo18 O72'
_cell_volume   1799.95272060
_cell_formula_units_Z   18
loop_
 _symmetry_equiv_pos_site_id
 _symmetry_equiv_pos_as_xyz
  1  'x, y, z'
loop_
 _atom_site_type_symbol
 _atom_site_label
 _atom_site_symmetry_multiplicity
 _atom_site_fract_x
 _atom_site_fract_y
 _atom_site_fract_z
 _atom_site_occupancy
  Li  Li0  1  0.80856833  0.78664967  0.41536067  1
  Li  Li1  1  0.12150233  0.64803867  0.58106267  1
  Li  Li2  1  0.87849767  0.35196133  0.41893733  1
  Li  Li3  1  0.21335033  0.02191867  0.41536067  1
  Li  Li4  1  0.35196133  0.47346367  0.58106267  1
  Li  Li5  1  0.52653633  0.87849767  0.58106267  1
  Li  Li6  1  0.78664967  0.97808133  0.58463933  1
  Li  Li7  1  0.97808133  0.19143167  0.41536067  1
  Li  Li8  1  0.47346367  0.12150233  0.41893733  1
  Li  Li9  1  0.02191867  0.80856833  0.58463933  1
  Li  Li10  1  0.64803867  0.52653633  0.41893733  1
  Li  Li11  1  0.19143167  0.21335033  0.58463933  1
  Li  Li12  1  0.47523500  0.11998300  0.74869400  1
  Li  Li13  1  0.78816900  0.98137200  0.91439600  1
  Li  Li14  1  0.54516433  0.68529467  0.75227067  1
  Li  Li15  1  0.88001700  0.35525200  0.74869400  1
  Li  Li16  1  0.01862800  0.80679700  0.91439600  1
  Li  Li17  1  0.19320300  0.21183100  0.91439600  1
  Li  Li18  1  0.45331633  0.31141467  0.91797267  1
  Li  Li19  1  0.64474800  0.52476500  0.74869400  1
  Li  Li20  1  0.14013033  0.45483567  0.75227067  1
  Li  Li21  1  0.68858533  0.14190167  0.91797267  1
  Li  Li22  1  0.31470533  0.85986967  0.75227067  1
  Li  Li23  1  0.85809833  0.54668367  0.91797267  1
  Li  Li24  1  0.14190167  0.45331633  0.08202733  1
  Li  Li25  1  0.45483567  0.31470533  0.24772933  1
  Li  Li26  1  0.21183100  0.01862800  0.08560400  1
  Li  Li27  1  0.54668367  0.68858533  0.08202733  1
  Li  Li28  1  0.68529467  0.14013033  0.24772933  1
  Li  Li29  1  0.85986967  0.54516433  0.24772933  1
  Li  Li30  1  0.11998300  0.64474800  0.25130600  1
  Li  Li31  1  0.31141467  0.85809833  0.08202733  1
  Li  Li32  1  0.80679700  0.78816900  0.08560400  1
  Li  Li33  1  0.35525200  0.47523500  0.25130600  1
  Li  Li34  1  0.98137200  0.19320300  0.08560400  1
  Li  Li35  1  0.52476500  0.88001700  0.25130600  1
  Mo  Mo36  1  0.80473200  0.78648300  0.75056800  1
  Mo  Mo37  1  0.19526800  0.21351700  0.24943200  1
  Mo  Mo38  1  0.98175100  0.19526800  0.75056800  1
  Mo  Mo39  1  0.78648300  0.98175100  0.24943200  1
  Mo  Mo40  1  0.21351700  0.01824900  0.75056800  1
  Mo  Mo41  1  0.01824900  0.80473200  0.24943200  1
  Mo  Mo42  1  0.47139867  0.11981633  0.08390133  1
  Mo  Mo43  1  0.86193467  0.54685033  0.58276533  1
  Mo  Mo44  1  0.64841767  0.52860133  0.08390133  1
  Mo  Mo45  1  0.45314967  0.31508433  0.58276533  1
  Mo  Mo46  1  0.88018367  0.35158233  0.08390133  1
  Mo  Mo47  1  0.68491567  0.13806533  0.58276533  1
  Mo  Mo48  1  0.13806533  0.45314967  0.41723467  1
  Mo  Mo49  1  0.52860133  0.88018367  0.91609867  1
  Mo  Mo50  1  0.31508433  0.86193467  0.41723467  1
  Mo  Mo51  1  0.11981633  0.64841767  0.91609867  1
  Mo  Mo52  1  0.54685033  0.68491567  0.41723467  1
  Mo  Mo53  1  0.35158233  0.47139867  0.91609867  1
  O  O54  1  0.87435867  0.78701233  0.59745533  1
  O  O55  1  0.54609333  0.75340867  0.57038567  1
  O  O56  1  0.21298767  0.08734633  0.59745533  1
  O  O57  1  0.88850733  0.79008867  0.25006667  1
  O  O58  1  0.79008867  0.90158133  0.74993333  1
  O  O59  1  0.09841867  0.88850733  0.74993333  1
  O  O60  1  0.75340867  0.20731533  0.42961433  1
  O  O61  1  0.78701233  0.91265367  0.40254467  1
  O  O62  1  0.24659133  0.79268467  0.57038567  1
  O  O63  1  0.33922433  0.33127567  0.58196567  1
  O  O64  1  0.79268467  0.54609333  0.42961433  1
  O  O65  1  0.20731533  0.45390667  0.57038567  1
  O  O66  1  0.91265367  0.12564133  0.59745533  1
  O  O67  1  0.12564133  0.21298767  0.40254467  1
  O  O68  1  0.90158133  0.11149267  0.25006667  1
  O  O69  1  0.45390667  0.24659133  0.42961433  1
  O  O70  1  0.99205133  0.66077567  0.58196567  1
  O  O71  1  0.08734633  0.87435867  0.40254467  1
  O  O72  1  0.11149267  0.20991133  0.74993333  1
  O  O73  1  0.66077567  0.66872433  0.41803433  1
  O  O74  1  0.20991133  0.09841867  0.25006667  1
  O  O75  1  0.33127567  0.99205133  0.41803433  1
  O  O76  1  0.66872433  0.00794867  0.58196567  1
  O  O77  1  0.00794867  0.33922433  0.41803433  1
  O  O78  1  0.54102533  0.12034567  0.93078867  1
  O  O79  1  0.21276000  0.08674200  0.90371900  1
  O  O80  1  0.87965433  0.42067967  0.93078867  1
  O  O81  1  0.55517400  0.12342200  0.58340000  1
  O  O82  1  0.45675533  0.23491467  0.08326667  1
  O  O83  1  0.76508533  0.22184067  0.08326667  1
  O  O84  1  0.42007533  0.54064867  0.76294767  1
  O  O85  1  0.45367900  0.24598700  0.73587800  1
  O  O86  1  0.91325800  0.12601800  0.90371900  1
  O  O87  1  0.00589100  0.66460900  0.91529900  1
  O  O88  1  0.45935133  0.87942667  0.76294767  1
  O  O89  1  0.87398200  0.78724000  0.90371900  1
  O  O90  1  0.57932033  0.45897467  0.93078867  1
  O  O91  1  0.79230800  0.54632100  0.73587800  1
  O  O92  1  0.56824800  0.44482600  0.58340000  1
  O  O93  1  0.12057333  0.57992467  0.76294767  1
  O  O94  1  0.65871800  0.99410900  0.91529900  1
  O  O95  1  0.75401300  0.20769200  0.73587800  1
  O  O96  1  0.77815933  0.54324467  0.08326667  1
  O  O97  1  0.32744233  0.00205767  0.75136767  1
  O  O98  1  0.87657800  0.43175200  0.58340000  1
  O  O99  1  0.99794233  0.32538467  0.75136767  1
  O  O100  1  0.33539100  0.34128200  0.91529900  1
  O  O101  1  0.67461533  0.67255767  0.75136767  1
  O  O102  1  0.20769200  0.45367900  0.26412200  1
  O  O103  1  0.87942667  0.42007533  0.23705233  1
  O  O104  1  0.54632100  0.75401300  0.26412200  1
  O  O105  1  0.22184067  0.45675533  0.91673333  1
  O  O106  1  0.12342200  0.56824800  0.41660000  1
  O  O107  1  0.43175200  0.55517400  0.41660000  1
  O  O108  1  0.08674200  0.87398200  0.09628100  1
  O  O109  1  0.12034567  0.57932033  0.06921133  1
  O  O110  1  0.57992467  0.45935133  0.23705233  1
  O  O111  1  0.67255767  0.99794233  0.24863233  1
  O  O112  1  0.12601800  0.21276000  0.09628100  1
  O  O113  1  0.54064867  0.12057333  0.23705233  1
  O  O114  1  0.24598700  0.79230800  0.26412200  1
  O  O115  1  0.45897467  0.87965433  0.06921133  1
  O  O116  1  0.23491467  0.77815933  0.91673333  1
  O  O117  1  0.78724000  0.91325800  0.09628100  1
  O  O118  1  0.32538467  0.32744233  0.24863233  1
  O  O119  1  0.42067967  0.54102533  0.06921133  1
  O  O120  1  0.44482600  0.87657800  0.41660000  1
  O  O121  1  0.99410900  0.33539100  0.08470100  1
  O  O122  1  0.54324467  0.76508533  0.91673333  1
  O  O123  1  0.66460900  0.65871800  0.08470100  1
  O  O124  1  0.00205767  0.67461533  0.24863233  1
  O  O125  1  0.34128200  0.00589100  0.08470100  1
