# generated using pymatgen
data_La(CuGe)2
_symmetry_space_group_name_H-M   'P 1'
_cell_length_a   4.23492200
_cell_length_b   4.23492200
_cell_length_c   10.21647600
_cell_angle_alpha   90.00000000
_cell_angle_beta   90.00000000
_cell_angle_gamma   90.00000000
_symmetry_Int_Tables_number   1
_chemical_formula_structural   La(CuGe)2
_chemical_formula_sum   'La2 Cu4 Ge4'
_cell_volume   183.22804621
_cell_formula_units_Z   2
loop_
 _symmetry_equiv_pos_site_id
 _symmetry_equiv_pos_as_xyz
  1  'x, y, z'
loop_
 _atom_site_type_symbol
 _atom_site_label
 _atom_site_symmetry_multiplicity
 _atom_site_fract_x
 _atom_site_fract_y
 _atom_site_fract_z
 _atom_site_occupancy
  La  La0  1  0.00000000  0.00000000  0.00000000  1
  La  La1  1  0.50000000  0.50000000  0.50000000  1
  Cu  Cu2  1  0.50000000  0.00000000  0.25000000  1
  Cu  Cu3  1  0.00000000  0.50000000  0.25000000  1
  Cu  Cu4  1  0.00000000  0.50000000  0.75000000  1
  Cu  Cu5  1  0.50000000  0.00000000  0.75000000  1
  Ge  Ge6  1  0.00000000  0.00000000  0.37522500  1
  Ge  Ge7  1  0.50000000  0.50000000  0.12477500  1
  Ge  Ge8  1  0.50000000  0.50000000  0.87522500  1
  Ge  Ge9  1  0.00000000  0.00000000  0.62477500  1
