# generated using pymatgen
data_Cr4InCuSe8
_symmetry_space_group_name_H-M   'P 1'
_cell_length_a   10.70336200
_cell_length_b   10.70336200
_cell_length_c   10.70336200
_cell_angle_alpha   90.00000000
_cell_angle_beta   90.00000000
_cell_angle_gamma   90.00000000
_symmetry_Int_Tables_number   1
_chemical_formula_structural   Cr4InCuSe8
_chemical_formula_sum   'Cr16 In4 Cu4 Se32'
_cell_volume   1226.19810901
_cell_formula_units_Z   4
loop_
 _symmetry_equiv_pos_site_id
 _symmetry_equiv_pos_as_xyz
  1  'x, y, z'
loop_
 _atom_site_type_symbol
 _atom_site_label
 _atom_site_symmetry_multiplicity
 _atom_site_fract_x
 _atom_site_fract_y
 _atom_site_fract_z
 _atom_site_occupancy
  Cr  Cr0  1  0.37946867  0.12053133  0.12053133  1
  Cr  Cr1  1  0.62053133  0.12053133  0.87946867  1
  Cr  Cr2  1  0.87946867  0.37946867  0.87946867  1
  Cr  Cr3  1  0.12053133  0.37946867  0.12053133  1
  Cr  Cr4  1  0.37946867  0.62053133  0.62053133  1
  Cr  Cr5  1  0.62053133  0.62053133  0.37946867  1
  Cr  Cr6  1  0.87946867  0.87946867  0.37946867  1
  Cr  Cr7  1  0.12053133  0.87946867  0.62053133  1
  Cr  Cr8  1  0.87946867  0.12053133  0.62053133  1
  Cr  Cr9  1  0.12053133  0.12053133  0.37946867  1
  Cr  Cr10  1  0.37946867  0.37946867  0.37946867  1
  Cr  Cr11  1  0.62053133  0.37946867  0.62053133  1
  Cr  Cr12  1  0.87946867  0.62053133  0.12053133  1
  Cr  Cr13  1  0.12053133  0.62053133  0.87946867  1
  Cr  Cr14  1  0.37946867  0.87946867  0.87946867  1
  Cr  Cr15  1  0.62053133  0.87946867  0.12053133  1
  In  In16  1  0.00000000  0.00000000  0.00000000  1
  In  In17  1  0.00000000  0.50000000  0.50000000  1
  In  In18  1  0.50000000  0.00000000  0.50000000  1
  In  In19  1  0.50000000  0.50000000  0.00000000  1
  Cu  Cu20  1  0.25000000  0.25000000  0.75000000  1
  Cu  Cu21  1  0.25000000  0.75000000  0.25000000  1
  Cu  Cu22  1  0.75000000  0.25000000  0.25000000  1
  Cu  Cu23  1  0.75000000  0.75000000  0.75000000  1
  Se  Se24  1  0.38401500  0.11598500  0.88401500  1
  Se  Se25  1  0.14049133  0.14049133  0.14049133  1
  Se  Se26  1  0.35950867  0.35950867  0.14049133  1
  Se  Se27  1  0.35950867  0.14049133  0.35950867  1
  Se  Se28  1  0.11598500  0.38401500  0.88401500  1
  Se  Se29  1  0.61598500  0.11598500  0.11598500  1
  Se  Se30  1  0.14049133  0.35950867  0.35950867  1
  Se  Se31  1  0.88401500  0.38401500  0.11598500  1
  Se  Se32  1  0.38401500  0.61598500  0.38401500  1
  Se  Se33  1  0.14049133  0.64049133  0.64049133  1
  Se  Se34  1  0.35950867  0.85950867  0.64049133  1
  Se  Se35  1  0.35950867  0.64049133  0.85950867  1
  Se  Se36  1  0.11598500  0.88401500  0.38401500  1
  Se  Se37  1  0.61598500  0.61598500  0.61598500  1
  Se  Se38  1  0.14049133  0.85950867  0.85950867  1
  Se  Se39  1  0.88401500  0.88401500  0.61598500  1
  Se  Se40  1  0.88401500  0.11598500  0.38401500  1
  Se  Se41  1  0.64049133  0.14049133  0.64049133  1
  Se  Se42  1  0.85950867  0.35950867  0.64049133  1
  Se  Se43  1  0.85950867  0.14049133  0.85950867  1
  Se  Se44  1  0.61598500  0.38401500  0.38401500  1
  Se  Se45  1  0.11598500  0.11598500  0.61598500  1
  Se  Se46  1  0.64049133  0.35950867  0.85950867  1
  Se  Se47  1  0.38401500  0.38401500  0.61598500  1
  Se  Se48  1  0.88401500  0.61598500  0.88401500  1
  Se  Se49  1  0.64049133  0.64049133  0.14049133  1
  Se  Se50  1  0.85950867  0.85950867  0.14049133  1
  Se  Se51  1  0.85950867  0.64049133  0.35950867  1
  Se  Se52  1  0.61598500  0.88401500  0.88401500  1
  Se  Se53  1  0.11598500  0.61598500  0.11598500  1
  Se  Se54  1  0.64049133  0.85950867  0.35950867  1
  Se  Se55  1  0.38401500  0.88401500  0.11598500  1
