# generated using pymatgen
data_Hf2Fe
_symmetry_space_group_name_H-M   'P 1'
_cell_length_a   11.99261000
_cell_length_b   11.99261000
_cell_length_c   11.99261000
_cell_angle_alpha   90.00000000
_cell_angle_beta   90.00000000
_cell_angle_gamma   90.00000000
_symmetry_Int_Tables_number   1
_chemical_formula_structural   Hf2Fe
_chemical_formula_sum   'Hf64 Fe32'
_cell_volume   1724.80948563
_cell_formula_units_Z   32
loop_
 _symmetry_equiv_pos_site_id
 _symmetry_equiv_pos_as_xyz
  1  'x, y, z'
loop_
 _atom_site_type_symbol
 _atom_site_label
 _atom_site_symmetry_multiplicity
 _atom_site_fract_x
 _atom_site_fract_y
 _atom_site_fract_z
 _atom_site_occupancy
  Hf  Hf0  1  0.12500000  0.62500000  0.12500000  1
  Hf  Hf1  1  0.12500000  0.87500000  0.37500000  1
  Hf  Hf2  1  0.37500000  0.62500000  0.37500000  1
  Hf  Hf3  1  0.37500000  0.87500000  0.12500000  1
  Hf  Hf4  1  0.50000000  0.18870850  0.50000000  1
  Hf  Hf5  1  0.06129150  0.25000000  0.25000000  1
  Hf  Hf6  1  0.43870850  0.25000000  0.25000000  1
  Hf  Hf7  1  0.25000000  0.43870850  0.25000000  1
  Hf  Hf8  1  0.25000000  0.25000000  0.06129150  1
  Hf  Hf9  1  0.25000000  0.25000000  0.43870850  1
  Hf  Hf10  1  0.00000000  0.00000000  0.18870850  1
  Hf  Hf11  1  0.68870850  0.00000000  0.50000000  1
  Hf  Hf12  1  0.31129150  0.00000000  0.50000000  1
  Hf  Hf13  1  0.50000000  0.00000000  0.31129150  1
  Hf  Hf14  1  0.25000000  0.06129150  0.25000000  1
  Hf  Hf15  1  0.50000000  0.81129150  0.50000000  1
  Hf  Hf16  1  0.12500000  0.12500000  0.62500000  1
  Hf  Hf17  1  0.12500000  0.37500000  0.87500000  1
  Hf  Hf18  1  0.37500000  0.12500000  0.87500000  1
  Hf  Hf19  1  0.37500000  0.37500000  0.62500000  1
  Hf  Hf20  1  0.50000000  0.68870850  0.00000000  1
  Hf  Hf21  1  0.06129150  0.75000000  0.75000000  1
  Hf  Hf22  1  0.43870850  0.75000000  0.75000000  1
  Hf  Hf23  1  0.25000000  0.93870850  0.75000000  1
  Hf  Hf24  1  0.25000000  0.75000000  0.56129150  1
  Hf  Hf25  1  0.25000000  0.75000000  0.93870850  1
  Hf  Hf26  1  0.00000000  0.50000000  0.68870850  1
  Hf  Hf27  1  0.68870850  0.50000000  0.00000000  1
  Hf  Hf28  1  0.31129150  0.50000000  0.00000000  1
  Hf  Hf29  1  0.50000000  0.50000000  0.81129150  1
  Hf  Hf30  1  0.25000000  0.56129150  0.75000000  1
  Hf  Hf31  1  0.50000000  0.31129150  0.00000000  1
  Hf  Hf32  1  0.62500000  0.62500000  0.62500000  1
  Hf  Hf33  1  0.62500000  0.87500000  0.87500000  1
  Hf  Hf34  1  0.87500000  0.62500000  0.87500000  1
  Hf  Hf35  1  0.87500000  0.87500000  0.62500000  1
  Hf  Hf36  1  0.00000000  0.18870850  0.00000000  1
  Hf  Hf37  1  0.56129150  0.25000000  0.75000000  1
  Hf  Hf38  1  0.93870850  0.25000000  0.75000000  1
  Hf  Hf39  1  0.75000000  0.43870850  0.75000000  1
  Hf  Hf40  1  0.75000000  0.25000000  0.56129150  1
  Hf  Hf41  1  0.75000000  0.25000000  0.93870850  1
  Hf  Hf42  1  0.50000000  0.00000000  0.68870850  1
  Hf  Hf43  1  0.18870850  0.00000000  0.00000000  1
  Hf  Hf44  1  0.81129150  0.00000000  0.00000000  1
  Hf  Hf45  1  0.00000000  0.00000000  0.81129150  1
  Hf  Hf46  1  0.75000000  0.06129150  0.75000000  1
  Hf  Hf47  1  0.00000000  0.81129150  0.00000000  1
  Hf  Hf48  1  0.62500000  0.12500000  0.12500000  1
  Hf  Hf49  1  0.62500000  0.37500000  0.37500000  1
  Hf  Hf50  1  0.87500000  0.12500000  0.37500000  1
  Hf  Hf51  1  0.87500000  0.37500000  0.12500000  1
  Hf  Hf52  1  0.00000000  0.68870850  0.50000000  1
  Hf  Hf53  1  0.56129150  0.75000000  0.25000000  1
  Hf  Hf54  1  0.93870850  0.75000000  0.25000000  1
  Hf  Hf55  1  0.75000000  0.93870850  0.25000000  1
  Hf  Hf56  1  0.75000000  0.75000000  0.06129150  1
  Hf  Hf57  1  0.75000000  0.75000000  0.43870850  1
  Hf  Hf58  1  0.50000000  0.50000000  0.18870850  1
  Hf  Hf59  1  0.18870850  0.50000000  0.50000000  1
  Hf  Hf60  1  0.81129150  0.50000000  0.50000000  1
  Hf  Hf61  1  0.00000000  0.50000000  0.31129150  1
  Hf  Hf62  1  0.75000000  0.56129150  0.25000000  1
  Hf  Hf63  1  0.00000000  0.31129150  0.50000000  1
  Fe  Fe64  1  0.34036067  0.84036067  0.34036067  1
  Fe  Fe65  1  0.40963933  0.09036067  0.09036067  1
  Fe  Fe66  1  0.09036067  0.40963933  0.09036067  1
  Fe  Fe67  1  0.09036067  0.09036067  0.40963933  1
  Fe  Fe68  1  0.15963933  0.84036067  0.15963933  1
  Fe  Fe69  1  0.65963933  0.15963933  0.34036067  1
  Fe  Fe70  1  0.84036067  0.15963933  0.15963933  1
  Fe  Fe71  1  0.40963933  0.40963933  0.40963933  1
  Fe  Fe72  1  0.34036067  0.34036067  0.84036067  1
  Fe  Fe73  1  0.40963933  0.59036067  0.59036067  1
  Fe  Fe74  1  0.09036067  0.90963933  0.59036067  1
  Fe  Fe75  1  0.09036067  0.59036067  0.90963933  1
  Fe  Fe76  1  0.15963933  0.34036067  0.65963933  1
  Fe  Fe77  1  0.65963933  0.65963933  0.84036067  1
  Fe  Fe78  1  0.84036067  0.65963933  0.65963933  1
  Fe  Fe79  1  0.40963933  0.90963933  0.90963933  1
  Fe  Fe80  1  0.84036067  0.84036067  0.84036067  1
  Fe  Fe81  1  0.90963933  0.09036067  0.59036067  1
  Fe  Fe82  1  0.59036067  0.40963933  0.59036067  1
  Fe  Fe83  1  0.59036067  0.09036067  0.90963933  1
  Fe  Fe84  1  0.65963933  0.84036067  0.65963933  1
  Fe  Fe85  1  0.15963933  0.15963933  0.84036067  1
  Fe  Fe86  1  0.34036067  0.15963933  0.65963933  1
  Fe  Fe87  1  0.90963933  0.40963933  0.90963933  1
  Fe  Fe88  1  0.84036067  0.34036067  0.34036067  1
  Fe  Fe89  1  0.90963933  0.59036067  0.09036067  1
  Fe  Fe90  1  0.59036067  0.90963933  0.09036067  1
  Fe  Fe91  1  0.59036067  0.59036067  0.40963933  1
  Fe  Fe92  1  0.65963933  0.34036067  0.15963933  1
  Fe  Fe93  1  0.15963933  0.65963933  0.34036067  1
  Fe  Fe94  1  0.34036067  0.65963933  0.15963933  1
  Fe  Fe95  1  0.90963933  0.90963933  0.40963933  1
