# generated using pymatgen
data_LaAs2
_symmetry_space_group_name_H-M   'P 1'
_cell_length_a   12.95598800
_cell_length_b   14.58469000
_cell_length_c   9.14267309
_cell_angle_alpha   90.00000000
_cell_angle_beta   134.83862391
_cell_angle_gamma   90.00000000
_symmetry_Int_Tables_number   1
_chemical_formula_structural   LaAs2
_chemical_formula_sum   'La16 As32'
_cell_volume   1225.02712170
_cell_formula_units_Z   16
loop_
 _symmetry_equiv_pos_site_id
 _symmetry_equiv_pos_as_xyz
  1  'x, y, z'
loop_
 _atom_site_type_symbol
 _atom_site_label
 _atom_site_symmetry_multiplicity
 _atom_site_fract_x
 _atom_site_fract_y
 _atom_site_fract_z
 _atom_site_occupancy
  La  La0  1  0.10004250  0.19839850  0.78320500  1
  La  La1  1  0.60004250  0.30160150  0.28320500  1
  La  La2  1  0.89354000  0.22017300  0.17992200  1
  La  La3  1  0.39354000  0.27982700  0.67992200  1
  La  La4  1  0.81334900  0.45824400  0.88195600  1
  La  La5  1  0.31334900  0.04175600  0.38195600  1
  La  La6  1  0.70811800  0.04104500  0.57558300  1
  La  La7  1  0.20811800  0.45895500  0.07558300  1
  La  La8  1  0.60004250  0.69839850  0.78320500  1
  La  La9  1  0.10004250  0.80160150  0.28320500  1
  La  La10  1  0.39354000  0.72017300  0.17992200  1
  La  La11  1  0.89354000  0.77982700  0.67992200  1
  La  La12  1  0.31334900  0.95824400  0.88195600  1
  La  La13  1  0.81334900  0.54175600  0.38195600  1
  La  La14  1  0.20811800  0.54104500  0.57558300  1
  La  La15  1  0.70811800  0.95895500  0.07558300  1
  As  As16  1  0.02736000  0.37394600  0.53898700  1
  As  As17  1  0.52736000  0.12605400  0.03898700  1
  As  As18  1  0.91092650  0.37598850  0.67476300  1
  As  As19  1  0.41092650  0.12401150  0.17476300  1
  As  As20  1  0.29228100  0.37228600  0.86579300  1
  As  As21  1  0.79228100  0.12771400  0.36579300  1
  As  As22  1  0.70196350  0.25105650  0.70949200  1
  As  As23  1  0.20196350  0.24894350  0.20949200  1
  As  As24  1  0.00010700  0.12737600  0.99917800  1
  As  As25  1  0.50010700  0.37262400  0.49917800  1
  As  As26  1  0.02047300  0.02284000  0.24953800  1
  As  As27  1  0.52047300  0.47716000  0.74953800  1
  As  As28  1  0.10376550  0.37291550  0.27335600  1
  As  As29  1  0.60376550  0.12708450  0.77335600  1
  As  As30  1  0.19063350  0.11909150  0.56736700  1
  As  As31  1  0.69063350  0.38090850  0.06736700  1
  As  As32  1  0.52736000  0.87394600  0.53898700  1
  As  As33  1  0.02736000  0.62605400  0.03898700  1
  As  As34  1  0.41092650  0.87598850  0.67476300  1
  As  As35  1  0.91092650  0.62401150  0.17476300  1
  As  As36  1  0.79228100  0.87228600  0.86579300  1
  As  As37  1  0.29228100  0.62771400  0.36579300  1
  As  As38  1  0.20196350  0.75105650  0.70949200  1
  As  As39  1  0.70196350  0.74894350  0.20949200  1
  As  As40  1  0.50010700  0.62737600  0.99917800  1
  As  As41  1  0.00010700  0.87262400  0.49917800  1
  As  As42  1  0.52047300  0.52284000  0.24953800  1
  As  As43  1  0.02047300  0.97716000  0.74953800  1
  As  As44  1  0.60376550  0.87291550  0.27335600  1
  As  As45  1  0.10376550  0.62708450  0.77335600  1
  As  As46  1  0.69063350  0.61909150  0.56736700  1
  As  As47  1  0.19063350  0.88090850  0.06736700  1
