# generated using pymatgen
data_TlTe
_symmetry_space_group_name_H-M   'P 1'
_cell_length_a   13.14502600
_cell_length_b   13.14502600
_cell_length_c   6.31754600
_cell_angle_alpha   90.00000000
_cell_angle_beta   90.00000000
_cell_angle_gamma   90.00000000
_symmetry_Int_Tables_number   1
_chemical_formula_structural   TlTe
_chemical_formula_sum   'Tl16 Te16'
_cell_volume   1091.61956712
_cell_formula_units_Z   16
loop_
 _symmetry_equiv_pos_site_id
 _symmetry_equiv_pos_as_xyz
  1  'x, y, z'
loop_
 _atom_site_type_symbol
 _atom_site_label
 _atom_site_symmetry_multiplicity
 _atom_site_fract_x
 _atom_site_fract_y
 _atom_site_fract_z
 _atom_site_occupancy
  Tl  Tl0  1  0.42063900  0.72809200  0.50000000  1
  Tl  Tl1  1  0.57936100  0.27190800  0.50000000  1
  Tl  Tl2  1  0.77190800  0.92063900  0.00000000  1
  Tl  Tl3  1  0.22809200  0.07936100  0.00000000  1
  Tl  Tl4  1  0.57936100  0.72809200  0.00000000  1
  Tl  Tl5  1  0.77190800  0.07936100  0.50000000  1
  Tl  Tl6  1  0.22809200  0.92063900  0.50000000  1
  Tl  Tl7  1  0.42063900  0.27190800  0.00000000  1
  Tl  Tl8  1  0.92063900  0.22809200  0.00000000  1
  Tl  Tl9  1  0.07936100  0.77190800  0.00000000  1
  Tl  Tl10  1  0.27190800  0.42063900  0.50000000  1
  Tl  Tl11  1  0.72809200  0.57936100  0.50000000  1
  Tl  Tl12  1  0.07936100  0.22809200  0.50000000  1
  Tl  Tl13  1  0.27190800  0.57936100  0.00000000  1
  Tl  Tl14  1  0.72809200  0.42063900  0.00000000  1
  Tl  Tl15  1  0.92063900  0.77190800  0.50000000  1
  Te  Te16  1  0.00000000  0.00000000  0.25000000  1
  Te  Te17  1  0.00000000  0.00000000  0.75000000  1
  Te  Te18  1  0.50000000  0.00000000  0.50000000  1
  Te  Te19  1  0.50000000  0.00000000  0.00000000  1
  Te  Te20  1  0.66267700  0.16267700  0.00000000  1
  Te  Te21  1  0.33732300  0.16267700  0.50000000  1
  Te  Te22  1  0.66267700  0.83732300  0.50000000  1
  Te  Te23  1  0.33732300  0.83732300  0.00000000  1
  Te  Te24  1  0.50000000  0.50000000  0.75000000  1
  Te  Te25  1  0.50000000  0.50000000  0.25000000  1
  Te  Te26  1  0.00000000  0.50000000  0.00000000  1
  Te  Te27  1  0.00000000  0.50000000  0.50000000  1
  Te  Te28  1  0.16267700  0.66267700  0.50000000  1
  Te  Te29  1  0.83732300  0.66267700  0.00000000  1
  Te  Te30  1  0.16267700  0.33732300  0.00000000  1
  Te  Te31  1  0.83732300  0.33732300  0.50000000  1
