# generated using pymatgen
data_Np(OF)2
_symmetry_space_group_name_H-M   'P 1'
_cell_length_a   4.22513839
_cell_length_b   4.22513839
_cell_length_c   16.65722940
_cell_angle_alpha   90.00000000
_cell_angle_beta   90.00000000
_cell_angle_gamma   120.00000000
_symmetry_Int_Tables_number   1
_chemical_formula_structural   Np(OF)2
_chemical_formula_sum   'Np3 O6 F6'
_cell_volume   257.52255683
_cell_formula_units_Z   3
loop_
 _symmetry_equiv_pos_site_id
 _symmetry_equiv_pos_as_xyz
  1  'x, y, z'
loop_
 _atom_site_type_symbol
 _atom_site_label
 _atom_site_symmetry_multiplicity
 _atom_site_fract_x
 _atom_site_fract_y
 _atom_site_fract_z
 _atom_site_occupancy
  Np  Np0  1  0.00000000  0.00000000  0.00000000  1
  Np  Np1  1  0.66666667  0.33333333  0.33333333  1
  Np  Np2  1  0.33333333  0.66666667  0.66666667  1
  O  O3  1  0.00000000  0.00000000  0.10639000  1
  O  O4  1  0.66666667  0.33333333  0.22694333  1
  O  O5  1  0.66666667  0.33333333  0.43972333  1
  O  O6  1  0.33333333  0.66666667  0.56027667  1
  O  O7  1  0.33333333  0.66666667  0.77305667  1
  O  O8  1  0.00000000  0.00000000  0.89361000  1
  F  F9  1  0.33333333  0.66666667  0.33304267  1
  F  F10  1  0.33333333  0.66666667  0.00029067  1
  F  F11  1  0.00000000  0.00000000  0.66637600  1
  F  F12  1  0.00000000  0.00000000  0.33362400  1
  F  F13  1  0.66666667  0.33333333  0.99970933  1
  F  F14  1  0.66666667  0.33333333  0.66695733  1
