# generated using pymatgen
data_Li4H4Rh
_symmetry_space_group_name_H-M   'P 1'
_cell_length_a   6.29220200
_cell_length_b   6.29220200
_cell_length_c   4.08399600
_cell_angle_alpha   90.00000000
_cell_angle_beta   90.00000000
_cell_angle_gamma   90.00000000
_symmetry_Int_Tables_number   1
_chemical_formula_structural   Li4H4Rh
_chemical_formula_sum   'Li8 H8 Rh2'
_cell_volume   161.69277737
_cell_formula_units_Z   2
loop_
 _symmetry_equiv_pos_site_id
 _symmetry_equiv_pos_as_xyz
  1  'x, y, z'
loop_
 _atom_site_type_symbol
 _atom_site_label
 _atom_site_symmetry_multiplicity
 _atom_site_fract_x
 _atom_site_fract_y
 _atom_site_fract_z
 _atom_site_occupancy
  Li  Li0  1  0.38699800  0.21804300  0.00000000  1
  Li  Li1  1  0.61300200  0.78195700  0.00000000  1
  Li  Li2  1  0.28195700  0.88699800  0.50000000  1
  Li  Li3  1  0.71804300  0.11300200  0.50000000  1
  Li  Li4  1  0.88699800  0.71804300  0.50000000  1
  Li  Li5  1  0.11300200  0.28195700  0.50000000  1
  Li  Li6  1  0.78195700  0.38699800  0.00000000  1
  Li  Li7  1  0.21804300  0.61300200  0.00000000  1
  H  H8  1  0.56747450  0.76526350  0.50000000  1
  H  H9  1  0.43252550  0.23473650  0.50000000  1
  H  H10  1  0.73473650  0.06747450  0.00000000  1
  H  H11  1  0.26526350  0.93252550  0.00000000  1
  H  H12  1  0.06747450  0.26526350  0.00000000  1
  H  H13  1  0.93252550  0.73473650  0.00000000  1
  H  H14  1  0.23473650  0.56747450  0.50000000  1
  H  H15  1  0.76526350  0.43252550  0.50000000  1
  Rh  Rh16  1  0.00000000  0.00000000  0.00000000  1
  Rh  Rh17  1  0.50000000  0.50000000  0.50000000  1
