# generated using pymatgen
data_Ba5Ho8Mn4O21
_symmetry_space_group_name_H-M   'P 1'
_cell_length_a   13.97091796
_cell_length_b   13.97091796
_cell_length_c   5.78201045
_cell_angle_alpha   90.00000000
_cell_angle_beta   90.00000000
_cell_angle_gamma   90.00000000
_symmetry_Int_Tables_number   1
_chemical_formula_structural   Ba5Ho8Mn4O21
_chemical_formula_sum   'Ba10 Ho16 Mn8 O42'
_cell_volume   1128.57066323
_cell_formula_units_Z   2
loop_
 _symmetry_equiv_pos_site_id
 _symmetry_equiv_pos_as_xyz
  1  'x, y, z'
loop_
 _atom_site_type_symbol
 _atom_site_label
 _atom_site_symmetry_multiplicity
 _atom_site_fract_x
 _atom_site_fract_y
 _atom_site_fract_z
 _atom_site_occupancy
  Ba  Ba0  1  0.36062140  0.96532553  0.50000000  1
  Ba  Ba1  1  0.46532553  0.13937860  0.00000000  1
  Ba  Ba2  1  0.53467447  0.86062140  0.00000000  1
  Ba  Ba3  1  0.63937860  0.03467447  0.50000000  1
  Ba  Ba4  1  0.00000000  0.00000000  0.00000000  1
  Ba  Ba5  1  0.86062140  0.46532553  0.00000000  1
  Ba  Ba6  1  0.96532553  0.63937860  0.50000000  1
  Ba  Ba7  1  0.03467447  0.36062140  0.50000000  1
  Ba  Ba8  1  0.13937860  0.53467447  0.00000000  1
  Ba  Ba9  1  0.50000000  0.50000000  0.50000000  1
  Ho  Ho10  1  0.14083471  0.08948513  0.50000000  1
  Ho  Ho11  1  0.58948513  0.35916529  0.00000000  1
  Ho  Ho12  1  0.41051487  0.64083471  0.00000000  1
  Ho  Ho13  1  0.85916529  0.91051487  0.50000000  1
  Ho  Ho14  1  0.32958655  0.25165509  0.50000000  1
  Ho  Ho15  1  0.75165509  0.17041345  0.00000000  1
  Ho  Ho16  1  0.24834491  0.82958655  0.00000000  1
  Ho  Ho17  1  0.67041345  0.74834491  0.50000000  1
  Ho  Ho18  1  0.64083471  0.58948513  0.00000000  1
  Ho  Ho19  1  0.08948513  0.85916529  0.50000000  1
  Ho  Ho20  1  0.91051487  0.14083471  0.50000000  1
  Ho  Ho21  1  0.35916529  0.41051487  0.00000000  1
  Ho  Ho22  1  0.82958655  0.75165509  0.00000000  1
  Ho  Ho23  1  0.25165509  0.67041345  0.50000000  1
  Ho  Ho24  1  0.74834491  0.32958655  0.50000000  1
  Ho  Ho25  1  0.17041345  0.24834491  0.00000000  1
  Mn  Mn26  1  0.75199368  0.95999112  0.00000000  1
  Mn  Mn27  1  0.45999112  0.74800632  0.50000000  1
  Mn  Mn28  1  0.54000888  0.25199368  0.50000000  1
  Mn  Mn29  1  0.24800632  0.04000888  0.00000000  1
  Mn  Mn30  1  0.25199368  0.45999112  0.50000000  1
  Mn  Mn31  1  0.95999112  0.24800632  0.00000000  1
  Mn  Mn32  1  0.04000888  0.75199368  0.00000000  1
  Mn  Mn33  1  0.74800632  0.54000888  0.50000000  1
  O  O34  1  0.74404235  0.85019910  0.25183472  1
  O  O35  1  0.35019910  0.75595765  0.75183472  1
  O  O36  1  0.64980090  0.24404235  0.75183472  1
  O  O37  1  0.25595765  0.14980090  0.25183472  1
  O  O38  1  0.25595765  0.14980090  0.74816528  1
  O  O39  1  0.64980090  0.24404235  0.24816528  1
  O  O40  1  0.35019910  0.75595765  0.24816528  1
  O  O41  1  0.74404235  0.85019910  0.74816528  1
  O  O42  1  0.54895765  0.67714065  0.24790007  1
  O  O43  1  0.17714065  0.95104235  0.74790007  1
  O  O44  1  0.82285935  0.04895765  0.74790007  1
  O  O45  1  0.45104235  0.32285935  0.24790007  1
  O  O46  1  0.45104235  0.32285935  0.75209993  1
  O  O47  1  0.82285935  0.04895765  0.25209993  1
  O  O48  1  0.17714065  0.95104235  0.25209993  1
  O  O49  1  0.54895765  0.67714065  0.75209993  1
  O  O50  1  0.53925614  0.87274915  0.50000000  1
  O  O51  1  0.50000000  0.50000000  0.00000000  1
  O  O52  1  0.46074386  0.12725085  0.50000000  1
  O  O53  1  0.37274915  0.96074386  0.00000000  1
  O  O54  1  0.62725085  0.03925614  0.00000000  1
  O  O55  1  0.24404235  0.35019910  0.75183472  1
  O  O56  1  0.85019910  0.25595765  0.25183472  1
  O  O57  1  0.14980090  0.74404235  0.25183472  1
  O  O58  1  0.75595765  0.64980090  0.75183472  1
  O  O59  1  0.75595765  0.64980090  0.24816528  1
  O  O60  1  0.14980090  0.74404235  0.74816528  1
  O  O61  1  0.85019910  0.25595765  0.74816528  1
  O  O62  1  0.24404235  0.35019910  0.24816528  1
  O  O63  1  0.04895765  0.17714065  0.74790007  1
  O  O64  1  0.67714065  0.45104235  0.24790007  1
  O  O65  1  0.32285935  0.54895765  0.24790007  1
  O  O66  1  0.95104235  0.82285935  0.74790007  1
  O  O67  1  0.95104235  0.82285935  0.25209993  1
  O  O68  1  0.32285935  0.54895765  0.75209993  1
  O  O69  1  0.67714065  0.45104235  0.75209993  1
  O  O70  1  0.04895765  0.17714065  0.25209993  1
  O  O71  1  0.03925614  0.37274915  0.00000000  1
  O  O72  1  0.00000000  0.00000000  0.50000000  1
  O  O73  1  0.96074386  0.62725085  0.00000000  1
  O  O74  1  0.87274915  0.46074386  0.50000000  1
  O  O75  1  0.12725085  0.53925614  0.50000000  1
