# generated using pymatgen
data_Mg2VBiO6
_symmetry_space_group_name_H-M   'P 1'
_cell_length_a   8.01466800
_cell_length_b   12.61621000
_cell_length_c   5.52008200
_cell_angle_alpha   90.00000000
_cell_angle_beta   90.00000000
_cell_angle_gamma   90.00000000
_symmetry_Int_Tables_number   1
_chemical_formula_structural   Mg2VBiO6
_chemical_formula_sum   'Mg8 V4 Bi4 O24'
_cell_volume   558.16162623
_cell_formula_units_Z   4
loop_
 _symmetry_equiv_pos_site_id
 _symmetry_equiv_pos_as_xyz
  1  'x, y, z'
loop_
 _atom_site_type_symbol
 _atom_site_label
 _atom_site_symmetry_multiplicity
 _atom_site_fract_x
 _atom_site_fract_y
 _atom_site_fract_z
 _atom_site_occupancy
  Mg  Mg0  1  0.30793350  0.90957650  0.25000000  1
  Mg  Mg1  1  0.69206650  0.09042350  0.75000000  1
  Mg  Mg2  1  0.69206650  0.90957650  0.25000000  1
  Mg  Mg3  1  0.30793350  0.09042350  0.75000000  1
  Mg  Mg4  1  0.80793350  0.40957650  0.25000000  1
  Mg  Mg5  1  0.19206650  0.59042350  0.75000000  1
  Mg  Mg6  1  0.19206650  0.40957650  0.25000000  1
  Mg  Mg7  1  0.80793350  0.59042350  0.75000000  1
  V  V8  1  0.50000000  0.19869800  0.25000000  1
  V  V9  1  0.50000000  0.80130200  0.75000000  1
  V  V10  1  0.00000000  0.69869800  0.25000000  1
  V  V11  1  0.00000000  0.30130200  0.75000000  1
  Bi  Bi12  1  0.50000000  0.41049600  0.75000000  1
  Bi  Bi13  1  0.50000000  0.58950400  0.25000000  1
  Bi  Bi14  1  0.00000000  0.91049600  0.75000000  1
  Bi  Bi15  1  0.00000000  0.08950400  0.25000000  1
  O  O16  1  0.67485100  0.27703300  0.25000000  1
  O  O17  1  0.32514900  0.72296700  0.75000000  1
  O  O18  1  0.67485100  0.72296700  0.75000000  1
  O  O19  1  0.32514900  0.27703300  0.25000000  1
  O  O20  1  0.50000000  0.88221900  0.48937500  1
  O  O21  1  0.50000000  0.11778100  0.98937500  1
  O  O22  1  0.50000000  0.11778100  0.51062500  1
  O  O23  1  0.50000000  0.88221900  0.01062500  1
  O  O24  1  0.17145000  0.00000000  0.00000000  1
  O  O25  1  0.82855000  0.00000000  0.50000000  1
  O  O26  1  0.17145000  0.00000000  0.50000000  1
  O  O27  1  0.82855000  0.00000000  0.00000000  1
  O  O28  1  0.17485100  0.77703300  0.25000000  1
  O  O29  1  0.82514900  0.22296700  0.75000000  1
  O  O30  1  0.17485100  0.22296700  0.75000000  1
  O  O31  1  0.82514900  0.77703300  0.25000000  1
  O  O32  1  0.00000000  0.38221900  0.48937500  1
  O  O33  1  0.00000000  0.61778100  0.98937500  1
  O  O34  1  0.00000000  0.61778100  0.51062500  1
  O  O35  1  0.00000000  0.38221900  0.01062500  1
  O  O36  1  0.67145000  0.50000000  0.00000000  1
  O  O37  1  0.32855000  0.50000000  0.50000000  1
  O  O38  1  0.67145000  0.50000000  0.50000000  1
  O  O39  1  0.32855000  0.50000000  0.00000000  1
