# generated using pymatgen
data_LaIn2Rh
_symmetry_space_group_name_H-M   'P 1'
_cell_length_a   4.55082400
_cell_length_b   10.24730200
_cell_length_c   8.13354700
_cell_angle_alpha   90.00000000
_cell_angle_beta   90.00000000
_cell_angle_gamma   90.00000000
_symmetry_Int_Tables_number   1
_chemical_formula_structural   LaIn2Rh
_chemical_formula_sum   'La4 In8 Rh4'
_cell_volume   379.29712946
_cell_formula_units_Z   4
loop_
 _symmetry_equiv_pos_site_id
 _symmetry_equiv_pos_as_xyz
  1  'x, y, z'
loop_
 _atom_site_type_symbol
 _atom_site_label
 _atom_site_symmetry_multiplicity
 _atom_site_fract_x
 _atom_site_fract_y
 _atom_site_fract_z
 _atom_site_occupancy
  La  La0  1  0.50000000  0.43770800  0.75000000  1
  La  La1  1  0.00000000  0.06229200  0.25000000  1
  La  La2  1  0.00000000  0.93770800  0.75000000  1
  La  La3  1  0.50000000  0.56229200  0.25000000  1
  In  In4  1  0.00000000  0.35135000  0.04992700  1
  In  In5  1  0.50000000  0.14865000  0.95007300  1
  In  In6  1  0.00000000  0.35135000  0.45007300  1
  In  In7  1  0.50000000  0.14865000  0.54992700  1
  In  In8  1  0.50000000  0.85135000  0.04992700  1
  In  In9  1  0.00000000  0.64865000  0.95007300  1
  In  In10  1  0.50000000  0.85135000  0.45007300  1
  In  In11  1  0.00000000  0.64865000  0.54992700  1
  Rh  Rh12  1  0.50000000  0.29260400  0.25000000  1
  Rh  Rh13  1  0.00000000  0.20739600  0.75000000  1
  Rh  Rh14  1  0.00000000  0.79260400  0.25000000  1
  Rh  Rh15  1  0.50000000  0.70739600  0.75000000  1
