# generated using pymatgen
data_RbFe(SeO4)2
_symmetry_space_group_name_H-M   'P 1'
_cell_length_a   5.26167496
_cell_length_b   5.26167496
_cell_length_c   8.88755400
_cell_angle_alpha   90.00000000
_cell_angle_beta   90.00000000
_cell_angle_gamma   120.00000000
_symmetry_Int_Tables_number   1
_chemical_formula_structural   RbFe(SeO4)2
_chemical_formula_sum   'Rb1 Fe1 Se2 O8'
_cell_volume   213.08894376
_cell_formula_units_Z   1
loop_
 _symmetry_equiv_pos_site_id
 _symmetry_equiv_pos_as_xyz
  1  'x, y, z'
loop_
 _atom_site_type_symbol
 _atom_site_label
 _atom_site_symmetry_multiplicity
 _atom_site_fract_x
 _atom_site_fract_y
 _atom_site_fract_z
 _atom_site_occupancy
  Rb  Rb0  1  0.00000000  0.00000000  0.00000000  1
  Fe  Fe1  1  0.00000000  0.00000000  0.50000000  1
  Se  Se2  1  0.33333333  0.66666667  0.70654975  1
  Se  Se3  1  0.66666667  0.33333333  0.29345025  1
  O  O4  1  0.66666667  0.33333333  0.10826300  1
  O  O5  1  0.33333333  0.66666667  0.89173700  1
  O  O6  1  0.67080650  0.75590500  0.64648125  1
  O  O7  1  0.24409500  0.91490150  0.64648125  1
  O  O8  1  0.08509850  0.32919350  0.64648125  1
  O  O9  1  0.75590500  0.67080650  0.35351875  1
  O  O10  1  0.32919350  0.08509850  0.35351875  1
  O  O11  1  0.91490150  0.24409500  0.35351875  1
