# generated using pymatgen
data_PuSi2
_symmetry_space_group_name_H-M   'P 1'
_cell_length_a   4.00020400
_cell_length_b   4.00020400
_cell_length_c   14.05538200
_cell_angle_alpha   90.00000000
_cell_angle_beta   90.00000000
_cell_angle_gamma   90.00000000
_symmetry_Int_Tables_number   1
_chemical_formula_structural   PuSi2
_chemical_formula_sum   'Pu4 Si8'
_cell_volume   224.90905097
_cell_formula_units_Z   4
loop_
 _symmetry_equiv_pos_site_id
 _symmetry_equiv_pos_as_xyz
  1  'x, y, z'
loop_
 _atom_site_type_symbol
 _atom_site_label
 _atom_site_symmetry_multiplicity
 _atom_site_fract_x
 _atom_site_fract_y
 _atom_site_fract_z
 _atom_site_occupancy
  Pu  Pu0  1  0.50000000  0.50000000  0.00000000  1
  Pu  Pu1  1  0.50000000  0.00000000  0.25000000  1
  Pu  Pu2  1  0.00000000  0.00000000  0.50000000  1
  Pu  Pu3  1  0.00000000  0.50000000  0.75000000  1
  Si  Si4  1  0.00000000  0.50000000  0.33273700  1
  Si  Si5  1  0.00000000  0.00000000  0.08273700  1
  Si  Si6  1  0.00000000  0.50000000  0.16726300  1
  Si  Si7  1  0.50000000  0.50000000  0.41726300  1
  Si  Si8  1  0.50000000  0.00000000  0.83273700  1
  Si  Si9  1  0.50000000  0.50000000  0.58273700  1
  Si  Si10  1  0.50000000  0.00000000  0.66726300  1
  Si  Si11  1  0.00000000  0.00000000  0.91726300  1
