# generated using pymatgen
data_Eu(CoP)2
_symmetry_space_group_name_H-M   'P 1'
_cell_length_a   3.74266200
_cell_length_b   3.74266200
_cell_length_c   11.23678800
_cell_angle_alpha   90.00000000
_cell_angle_beta   90.00000000
_cell_angle_gamma   90.00000000
_symmetry_Int_Tables_number   1
_chemical_formula_structural   Eu(CoP)2
_chemical_formula_sum   'Eu2 Co4 P4'
_cell_volume   157.39951968
_cell_formula_units_Z   2
loop_
 _symmetry_equiv_pos_site_id
 _symmetry_equiv_pos_as_xyz
  1  'x, y, z'
loop_
 _atom_site_type_symbol
 _atom_site_label
 _atom_site_symmetry_multiplicity
 _atom_site_fract_x
 _atom_site_fract_y
 _atom_site_fract_z
 _atom_site_occupancy
  Eu  Eu0  1  0.00000000  0.00000000  0.00000000  1
  Eu  Eu1  1  0.50000000  0.50000000  0.50000000  1
  Co  Co2  1  0.00000000  0.50000000  0.25000000  1
  Co  Co3  1  0.50000000  0.00000000  0.25000000  1
  Co  Co4  1  0.50000000  0.00000000  0.75000000  1
  Co  Co5  1  0.00000000  0.50000000  0.75000000  1
  P  P6  1  0.50000000  0.50000000  0.14498000  1
  P  P7  1  0.00000000  0.00000000  0.35502000  1
  P  P8  1  0.00000000  0.00000000  0.64498000  1
  P  P9  1  0.50000000  0.50000000  0.85502000  1
