# generated using pymatgen
data_BaMnP2O7
_symmetry_space_group_name_H-M   'P 1'
_cell_length_a   5.64543312
_cell_length_b   8.69709581
_cell_length_c   14.27809176
_cell_angle_alpha   90.00000000
_cell_angle_beta   112.91043666
_cell_angle_gamma   90.00000000
_symmetry_Int_Tables_number   1
_chemical_formula_structural   BaMnP2O7
_chemical_formula_sum   'Ba4 Mn4 P8 O28'
_cell_volume   645.73646737
_cell_formula_units_Z   4
loop_
 _symmetry_equiv_pos_site_id
 _symmetry_equiv_pos_as_xyz
  1  'x, y, z'
loop_
 _atom_site_type_symbol
 _atom_site_label
 _atom_site_symmetry_multiplicity
 _atom_site_fract_x
 _atom_site_fract_y
 _atom_site_fract_z
 _atom_site_occupancy
  Ba  Ba0  1  0.43766772  0.35464216  0.71937940  1
  Ba  Ba1  1  0.56233228  0.85464216  0.78062060  1
  Ba  Ba2  1  0.56233228  0.64535784  0.28062060  1
  Ba  Ba3  1  0.43766772  0.14535784  0.21937940  1
  Mn  Mn4  1  0.92385465  0.84097263  0.10734485  1
  Mn  Mn5  1  0.07614535  0.15902737  0.89265515  1
  Mn  Mn6  1  0.07614535  0.34097263  0.39265515  1
  Mn  Mn7  1  0.92385465  0.65902737  0.60734486  1
  P  P8  1  0.70865335  0.30520203  0.51916041  1
  P  P9  1  0.29134665  0.80520203  0.98083959  1
  P  P10  1  0.29134665  0.69479797  0.48083959  1
  P  P11  1  0.70865335  0.19479797  0.01916041  1
  P  P12  1  0.08408909  0.54874435  0.83584880  1
  P  P13  1  0.08408909  0.95125565  0.33584880  1
  P  P14  1  0.91591091  0.45125565  0.16415120  1
  P  P15  1  0.91591091  0.04874435  0.66415120  1
  O  O16  1  0.21193495  0.62719887  0.94757657  1
  O  O17  1  0.78806505  0.12719887  0.55242343  1
  O  O18  1  0.78806505  0.37280113  0.05242343  1
  O  O19  1  0.21193495  0.87280113  0.44757657  1
  O  O20  1  0.79463330  0.57738639  0.79507894  1
  O  O21  1  0.20536670  0.07738639  0.70492106  1
  O  O22  1  0.20536670  0.42261361  0.20492106  1
  O  O23  1  0.79463330  0.92261361  0.29507894  1
  O  O24  1  0.91390095  0.40781606  0.59737167  1
  O  O25  1  0.08609905  0.90781606  0.90262833  1
  O  O26  1  0.08609905  0.59218394  0.40262833  1
  O  O27  1  0.91390095  0.09218394  0.09737167  1
  O  O28  1  0.28323391  0.68432971  0.58714117  1
  O  O29  1  0.71676609  0.18432971  0.91285883  1
  O  O30  1  0.71676609  0.31567029  0.41285883  1
  O  O31  1  0.28323391  0.81567029  0.08714117  1
  O  O32  1  0.20501838  0.87543384  0.26679648  1
  O  O33  1  0.79498162  0.37543384  0.23320352  1
  O  O34  1  0.79498162  0.12456616  0.73320352  1
  O  O35  1  0.20501838  0.62456616  0.76679648  1
  O  O36  1  0.84062304  0.62084149  0.14869904  1
  O  O37  1  0.15937696  0.12084149  0.35130096  1
  O  O38  1  0.55920361  0.66936058  0.47967575  1
  O  O39  1  0.84062304  0.87915851  0.64869903  1
  O  O40  1  0.55920361  0.83063942  0.97967575  1
  O  O41  1  0.44079639  0.33063942  0.52032425  1
  O  O42  1  0.44079639  0.16936058  0.02032425  1
  O  O43  1  0.15937696  0.37915851  0.85130096  1
