# generated using pymatgen
data_V2Pb3O8
_symmetry_space_group_name_H-M   'P 1'
_cell_length_a   5.81319365
_cell_length_b   5.81319365
_cell_length_c   20.27588679
_cell_angle_alpha   90.00000000
_cell_angle_beta   90.00000000
_cell_angle_gamma   120.00000000
_symmetry_Int_Tables_number   1
_chemical_formula_structural   V2Pb3O8
_chemical_formula_sum   'V6 Pb9 O24'
_cell_volume   593.38979182
_cell_formula_units_Z   3
loop_
 _symmetry_equiv_pos_site_id
 _symmetry_equiv_pos_as_xyz
  1  'x, y, z'
loop_
 _atom_site_type_symbol
 _atom_site_label
 _atom_site_symmetry_multiplicity
 _atom_site_fract_x
 _atom_site_fract_y
 _atom_site_fract_z
 _atom_site_occupancy
  V  V0  1  0.33333333  0.66666667  0.26218967  1
  V  V1  1  0.33333333  0.66666667  0.07114367  1
  V  V2  1  0.00000000  0.00000000  0.59552300  1
  V  V3  1  0.00000000  0.00000000  0.40447700  1
  V  V4  1  0.66666667  0.33333333  0.92885633  1
  V  V5  1  0.66666667  0.33333333  0.73781033  1
  Pb  Pb6  1  0.66666667  0.33333333  0.13244133  1
  Pb  Pb7  1  0.00000000  0.00000000  0.20089200  1
  Pb  Pb8  1  0.00000000  0.00000000  0.00000000  1
  Pb  Pb9  1  0.33333333  0.66666667  0.46577467  1
  Pb  Pb10  1  0.66666667  0.33333333  0.53422533  1
  Pb  Pb11  1  0.66666667  0.33333333  0.33333333  1
  Pb  Pb12  1  0.00000000  0.00000000  0.79910800  1
  Pb  Pb13  1  0.33333333  0.66666667  0.86755867  1
  Pb  Pb14  1  0.33333333  0.66666667  0.66666667  1
  O  O15  1  0.66666667  0.33333333  0.01374233  1
  O  O16  1  0.00000000  0.00000000  0.31959100  1
  O  O17  1  0.49802000  0.50198000  0.23386800  1
  O  O18  1  0.49802000  0.99604000  0.23386800  1
  O  O19  1  0.00396000  0.50198000  0.23386800  1
  O  O20  1  0.16864667  0.33729333  0.09946533  1
  O  O21  1  0.16864667  0.83135333  0.09946533  1
  O  O22  1  0.66270667  0.83135333  0.09946533  1
  O  O23  1  0.33333333  0.66666667  0.34707567  1
  O  O24  1  0.66666667  0.33333333  0.65292433  1
  O  O25  1  0.16468667  0.83531333  0.56720133  1
  O  O26  1  0.16468667  0.32937333  0.56720133  1
  O  O27  1  0.67062667  0.83531333  0.56720133  1
  O  O28  1  0.83531333  0.67062667  0.43279867  1
  O  O29  1  0.83531333  0.16468667  0.43279867  1
  O  O30  1  0.32937333  0.16468667  0.43279867  1
  O  O31  1  0.00000000  0.00000000  0.68040900  1
  O  O32  1  0.33333333  0.66666667  0.98625767  1
  O  O33  1  0.83135333  0.16864667  0.90053467  1
  O  O34  1  0.83135333  0.66270667  0.90053467  1
  O  O35  1  0.33729333  0.16864667  0.90053467  1
  O  O36  1  0.50198000  0.00396000  0.76613200  1
  O  O37  1  0.50198000  0.49802000  0.76613200  1
  O  O38  1  0.99604000  0.49802000  0.76613200  1
