# generated using pymatgen
data_Na4Fe2(PO4)3
_symmetry_space_group_name_H-M   'P 1'
_cell_length_a   9.06114239
_cell_length_b   9.06114239
_cell_length_c   21.44180422
_cell_angle_alpha   90.00000000
_cell_angle_beta   90.00000000
_cell_angle_gamma   120.00000000
_symmetry_Int_Tables_number   1
_chemical_formula_structural   Na4Fe2(PO4)3
_chemical_formula_sum   'Na24 Fe12 P18 O72'
_cell_volume   1524.60685488
_cell_formula_units_Z   6
loop_
 _symmetry_equiv_pos_site_id
 _symmetry_equiv_pos_as_xyz
  1  'x, y, z'
loop_
 _atom_site_type_symbol
 _atom_site_label
 _atom_site_symmetry_multiplicity
 _atom_site_fract_x
 _atom_site_fract_y
 _atom_site_fract_z
 _atom_site_occupancy
  Na  Na0  1  0.30172467  0.33333333  0.08333333  1
  Na  Na1  1  0.66666667  0.96839133  0.08333333  1
  Na  Na2  1  0.03160867  0.69827533  0.08333333  1
  Na  Na3  1  0.36494200  0.00000000  0.25000000  1
  Na  Na4  1  0.00000000  0.36494200  0.25000000  1
  Na  Na5  1  0.63505800  0.63505800  0.25000000  1
  Na  Na6  1  0.00000000  0.00000000  0.00000000  1
  Na  Na7  1  0.33333333  0.66666667  0.16666667  1
  Na  Na8  1  0.96839133  0.66666667  0.41666667  1
  Na  Na9  1  0.33333333  0.30172467  0.41666667  1
  Na  Na10  1  0.69827533  0.03160867  0.41666667  1
  Na  Na11  1  0.03160867  0.33333333  0.58333333  1
  Na  Na12  1  0.66666667  0.69827533  0.58333333  1
  Na  Na13  1  0.30172467  0.96839133  0.58333333  1
  Na  Na14  1  0.66666667  0.33333333  0.33333333  1
  Na  Na15  1  0.00000000  0.00000000  0.50000000  1
  Na  Na16  1  0.63505800  0.00000000  0.75000000  1
  Na  Na17  1  0.00000000  0.63505800  0.75000000  1
  Na  Na18  1  0.36494200  0.36494200  0.75000000  1
  Na  Na19  1  0.69827533  0.66666667  0.91666667  1
  Na  Na20  1  0.33333333  0.03160867  0.91666667  1
  Na  Na21  1  0.96839133  0.30172467  0.91666667  1
  Na  Na22  1  0.33333333  0.66666667  0.66666667  1
  Na  Na23  1  0.66666667  0.33333333  0.83333333  1
  Fe  Fe24  1  0.33333333  0.66666667  0.81557467  1
  Fe  Fe25  1  0.33333333  0.66666667  0.01775867  1
  Fe  Fe26  1  0.33333333  0.66666667  0.51775867  1
  Fe  Fe27  1  0.33333333  0.66666667  0.31557467  1
  Fe  Fe28  1  0.00000000  0.00000000  0.14890800  1
  Fe  Fe29  1  1.00000000  0.00000000  0.35109200  1
  Fe  Fe30  1  0.00000000  0.00000000  0.85109200  1
  Fe  Fe31  1  0.00000000  0.00000000  0.64890800  1
  Fe  Fe32  1  0.66666667  0.33333333  0.48224133  1
  Fe  Fe33  1  0.66666667  0.33333333  0.68442533  1
  Fe  Fe34  1  0.66666667  0.33333333  0.18442533  1
  Fe  Fe35  1  0.66666667  0.33333333  0.98224133  1
  P  P36  1  0.96427867  0.33333333  0.08333333  1
  P  P37  1  0.66666667  0.63094533  0.08333333  1
  P  P38  1  0.36905467  0.03572133  0.08333333  1
  P  P39  1  0.70238800  0.00000000  0.25000000  1
  P  P40  1  0.00000000  0.70238800  0.25000000  1
  P  P41  1  0.29761200  0.29761200  0.25000000  1
  P  P42  1  0.63094533  0.66666667  0.41666667  1
  P  P43  1  0.33333333  0.96427867  0.41666667  1
  P  P44  1  0.03572133  0.36905467  0.41666667  1
  P  P45  1  0.36905467  0.33333333  0.58333333  1
  P  P46  1  0.66666667  0.03572133  0.58333333  1
  P  P47  1  0.96427867  0.63094533  0.58333333  1
  P  P48  1  0.29761200  0.00000000  0.75000000  1
  P  P49  1  0.00000000  0.29761200  0.75000000  1
  P  P50  1  0.70238800  0.70238800  0.75000000  1
  P  P51  1  0.03572133  0.66666667  0.91666667  1
  P  P52  1  0.33333333  0.36905467  0.91666667  1
  P  P53  1  0.63094533  0.96427867  0.91666667  1
  O  O54  1  0.98297600  0.17148800  0.08353700  1
  O  O55  1  0.82851200  0.81148800  0.08353700  1
  O  O56  1  0.18851200  0.01702400  0.08353700  1
  O  O57  1  0.35035733  0.85517867  0.08312967  1
  O  O58  1  0.14482133  0.49517867  0.08312967  1
  O  O59  1  0.50482133  0.64964267  0.08312967  1
  O  O60  1  0.68369067  0.16184533  0.24979633  1
  O  O61  1  0.83815467  0.52184533  0.24979633  1
  O  O62  1  0.47815467  0.31630933  0.24979633  1
  O  O63  1  0.31630933  0.47815467  0.25020367  1
  O  O64  1  0.52184533  0.83815467  0.25020367  1
  O  O65  1  0.16184533  0.68369067  0.25020367  1
  O  O66  1  0.79374800  0.98778900  0.19091800  1
  O  O67  1  0.01221100  0.80595900  0.19091800  1
  O  O68  1  0.19404100  0.20625200  0.19091800  1
  O  O69  1  0.53958533  0.86070767  0.97574867  1
  O  O70  1  0.13929233  0.67887767  0.97574867  1
  O  O71  1  0.32112233  0.46041467  0.97574867  1
  O  O72  1  0.34554433  0.87291867  0.35758467  1
  O  O73  1  0.52737433  0.65445567  0.35758467  1
  O  O74  1  0.12708133  0.47262567  0.35758467  1
  O  O75  1  0.47262567  0.12708133  0.14241533  1
  O  O76  1  0.65445567  0.52737433  0.14241533  1
  O  O77  1  0.87291867  0.34554433  0.14241533  1
  O  O78  1  0.64964267  0.50482133  0.41687033  1
  O  O79  1  0.49517867  0.14482133  0.41687033  1
  O  O80  1  0.85517867  0.35035733  0.41687033  1
  O  O81  1  0.01702400  0.18851200  0.41646300  1
  O  O82  1  0.81148800  0.82851200  0.41646300  1
  O  O83  1  0.17148800  0.98297600  0.41646300  1
  O  O84  1  0.35035733  0.49517867  0.58312967  1
  O  O85  1  0.50482133  0.85517867  0.58312967  1
  O  O86  1  0.14482133  0.64964267  0.58312967  1
  O  O87  1  0.98297600  0.81148800  0.58353700  1
  O  O88  1  0.18851200  0.17148800  0.58353700  1
  O  O89  1  0.82851200  0.01702400  0.58353700  1
  O  O90  1  0.46041467  0.32112233  0.52425133  1
  O  O91  1  0.67887767  0.13929233  0.52425133  1
  O  O92  1  0.86070767  0.53958533  0.52425133  1
  O  O93  1  0.20625200  0.19404100  0.30908200  1
  O  O94  1  0.80595900  0.01221100  0.30908200  1
  O  O95  1  0.98778900  0.79374800  0.30908200  1
  O  O96  1  0.01221100  0.20625200  0.69091800  1
  O  O97  1  0.19404100  0.98778900  0.69091800  1
  O  O98  1  0.79374800  0.80595900  0.69091800  1
  O  O99  1  0.13929233  0.46041467  0.47574867  1
  O  O100  1  0.32112233  0.86070767  0.47574867  1
  O  O101  1  0.53958533  0.67887767  0.47574867  1
  O  O102  1  0.31630933  0.83815467  0.75020367  1
  O  O103  1  0.16184533  0.47815467  0.75020367  1
  O  O104  1  0.52184533  0.68369067  0.75020367  1
  O  O105  1  0.68369067  0.52184533  0.74979633  1
  O  O106  1  0.47815467  0.16184533  0.74979633  1
  O  O107  1  0.83815467  0.31630933  0.74979633  1
  O  O108  1  0.01702400  0.82851200  0.91646300  1
  O  O109  1  0.17148800  0.18851200  0.91646300  1
  O  O110  1  0.81148800  0.98297600  0.91646300  1
  O  O111  1  0.64964267  0.14482133  0.91687033  1
  O  O112  1  0.85517867  0.50482133  0.91687033  1
  O  O113  1  0.49517867  0.35035733  0.91687033  1
  O  O114  1  0.12708133  0.65445567  0.85758467  1
  O  O115  1  0.34554433  0.47262567  0.85758467  1
  O  O116  1  0.52737433  0.87291867  0.85758467  1
  O  O117  1  0.87291867  0.52737433  0.64241533  1
  O  O118  1  0.47262567  0.34554433  0.64241533  1
  O  O119  1  0.65445567  0.12708133  0.64241533  1
  O  O120  1  0.67887767  0.53958533  0.02425133  1
  O  O121  1  0.86070767  0.32112233  0.02425133  1
  O  O122  1  0.46041467  0.13929233  0.02425133  1
  O  O123  1  0.80595900  0.79374800  0.80908200  1
  O  O124  1  0.98778900  0.19404100  0.80908200  1
  O  O125  1  0.20625200  0.01221100  0.80908200  1
