# generated using pymatgen
data_W3Br8
_symmetry_space_group_name_H-M   'P 1'
_cell_length_a   12.79872000
_cell_length_b   15.38195400
_cell_length_c   14.81694700
_cell_angle_alpha   90.00000000
_cell_angle_beta   90.00000000
_cell_angle_gamma   90.00000000
_symmetry_Int_Tables_number   1
_chemical_formula_structural   W3Br8
_chemical_formula_sum   'W24 Br64'
_cell_volume   2917.00231443
_cell_formula_units_Z   8
loop_
 _symmetry_equiv_pos_site_id
 _symmetry_equiv_pos_as_xyz
  1  'x, y, z'
loop_
 _atom_site_type_symbol
 _atom_site_label
 _atom_site_symmetry_multiplicity
 _atom_site_fract_x
 _atom_site_fract_y
 _atom_site_fract_z
 _atom_site_occupancy
  W  W0  1  0.50000000  0.93059900  0.38741100  1
  W  W1  1  0.50000000  0.56940100  0.88741100  1
  W  W2  1  0.50000000  0.06940100  0.61258900  1
  W  W3  1  0.50000000  0.43059900  0.11258900  1
  W  W4  1  0.60296550  0.07166550  0.45143900  1
  W  W5  1  0.89703450  0.92833450  0.95143900  1
  W  W6  1  0.60296550  0.92833450  0.54856100  1
  W  W7  1  0.89703450  0.07166550  0.04856100  1
  W  W8  1  0.39703450  0.92833450  0.54856100  1
  W  W9  1  0.10296550  0.07166550  0.04856100  1
  W  W10  1  0.39703450  0.07166550  0.45143900  1
  W  W11  1  0.10296550  0.92833450  0.95143900  1
  W  W12  1  0.00000000  0.43059900  0.38741100  1
  W  W13  1  0.00000000  0.06940100  0.88741100  1
  W  W14  1  0.00000000  0.56940100  0.61258900  1
  W  W15  1  0.00000000  0.93059900  0.11258900  1
  W  W16  1  0.10296550  0.57166550  0.45143900  1
  W  W17  1  0.39703450  0.42833450  0.95143900  1
  W  W18  1  0.10296550  0.42833450  0.54856100  1
  W  W19  1  0.39703450  0.57166550  0.04856100  1
  W  W20  1  0.89703450  0.42833450  0.54856100  1
  W  W21  1  0.60296550  0.57166550  0.04856100  1
  W  W22  1  0.89703450  0.57166550  0.45143900  1
  W  W23  1  0.60296550  0.42833450  0.95143900  1
  Br  Br24  1  0.50000000  0.45676000  0.43194400  1
  Br  Br25  1  0.50000000  0.04324000  0.93194400  1
  Br  Br26  1  0.50000000  0.54324000  0.56805600  1
  Br  Br27  1  0.50000000  0.95676000  0.06805600  1
  Br  Br28  1  0.50000000  0.84099500  0.23930800  1
  Br  Br29  1  0.50000000  0.65900500  0.73930800  1
  Br  Br30  1  0.50000000  0.15900500  0.76069200  1
  Br  Br31  1  0.50000000  0.34099500  0.26069200  1
  Br  Br32  1  0.74459200  0.16770000  0.38404900  1
  Br  Br33  1  0.75540800  0.83230000  0.88404900  1
  Br  Br34  1  0.74459200  0.83230000  0.61595100  1
  Br  Br35  1  0.75540800  0.16770000  0.11595100  1
  Br  Br36  1  0.20360800  0.93060700  0.10860200  1
  Br  Br37  1  0.29639200  0.06939300  0.60860200  1
  Br  Br38  1  0.20360800  0.06939300  0.89139800  1
  Br  Br39  1  0.29639200  0.93060700  0.39139800  1
  Br  Br40  1  0.79639200  0.06939300  0.89139800  1
  Br  Br41  1  0.70360800  0.93060700  0.39139800  1
  Br  Br42  1  0.79639200  0.93060700  0.10860200  1
  Br  Br43  1  0.70360800  0.06939300  0.60860200  1
  Br  Br44  1  0.50000000  0.42540100  0.79508700  1
  Br  Br45  1  0.50000000  0.07459900  0.29508700  1
  Br  Br46  1  0.50000000  0.57459900  0.20491300  1
  Br  Br47  1  0.50000000  0.92540100  0.70491300  1
  Br  Br48  1  0.50000000  0.28995600  0.01367500  1
  Br  Br49  1  0.50000000  0.21004400  0.51367500  1
  Br  Br50  1  0.50000000  0.71004400  0.98632500  1
  Br  Br51  1  0.50000000  0.78995600  0.48632500  1
  Br  Br52  1  0.24459200  0.83230000  0.88404900  1
  Br  Br53  1  0.25540800  0.16770000  0.38404900  1
  Br  Br54  1  0.24459200  0.16770000  0.11595100  1
  Br  Br55  1  0.25540800  0.83230000  0.61595100  1
  Br  Br56  1  0.00000000  0.95676000  0.43194400  1
  Br  Br57  1  0.00000000  0.54324000  0.93194400  1
  Br  Br58  1  0.00000000  0.04324000  0.56805600  1
  Br  Br59  1  0.00000000  0.45676000  0.06805600  1
  Br  Br60  1  0.00000000  0.34099500  0.23930800  1
  Br  Br61  1  0.00000000  0.15900500  0.73930800  1
  Br  Br62  1  0.00000000  0.65900500  0.76069200  1
  Br  Br63  1  0.00000000  0.84099500  0.26069200  1
  Br  Br64  1  0.24459200  0.66770000  0.38404900  1
  Br  Br65  1  0.25540800  0.33230000  0.88404900  1
  Br  Br66  1  0.24459200  0.33230000  0.61595100  1
  Br  Br67  1  0.25540800  0.66770000  0.11595100  1
  Br  Br68  1  0.70360800  0.43060700  0.10860200  1
  Br  Br69  1  0.79639200  0.56939300  0.60860200  1
  Br  Br70  1  0.70360800  0.56939300  0.89139800  1
  Br  Br71  1  0.79639200  0.43060700  0.39139800  1
  Br  Br72  1  0.29639200  0.56939300  0.89139800  1
  Br  Br73  1  0.20360800  0.43060700  0.39139800  1
  Br  Br74  1  0.29639200  0.43060700  0.10860200  1
  Br  Br75  1  0.20360800  0.56939300  0.60860200  1
  Br  Br76  1  0.00000000  0.92540100  0.79508700  1
  Br  Br77  1  0.00000000  0.57459900  0.29508700  1
  Br  Br78  1  0.00000000  0.07459900  0.20491300  1
  Br  Br79  1  0.00000000  0.42540100  0.70491300  1
  Br  Br80  1  0.00000000  0.78995600  0.01367500  1
  Br  Br81  1  0.00000000  0.71004400  0.51367500  1
  Br  Br82  1  0.00000000  0.21004400  0.98632500  1
  Br  Br83  1  0.00000000  0.28995600  0.48632500  1
  Br  Br84  1  0.74459200  0.33230000  0.88404900  1
  Br  Br85  1  0.75540800  0.66770000  0.38404900  1
  Br  Br86  1  0.74459200  0.66770000  0.11595100  1
  Br  Br87  1  0.75540800  0.33230000  0.61595100  1
