# generated using pymatgen
data_TbGe2Pt
_symmetry_space_group_name_H-M   'P 1'
_cell_length_a   4.35617800
_cell_length_b   8.78005000
_cell_length_c   16.48961800
_cell_angle_alpha   90.00000000
_cell_angle_beta   90.00000000
_cell_angle_gamma   90.00000000
_symmetry_Int_Tables_number   1
_chemical_formula_structural   TbGe2Pt
_chemical_formula_sum   'Tb8 Ge16 Pt8'
_cell_volume   630.68601557
_cell_formula_units_Z   8
loop_
 _symmetry_equiv_pos_site_id
 _symmetry_equiv_pos_as_xyz
  1  'x, y, z'
loop_
 _atom_site_type_symbol
 _atom_site_label
 _atom_site_symmetry_multiplicity
 _atom_site_fract_x
 _atom_site_fract_y
 _atom_site_fract_z
 _atom_site_occupancy
  Tb  Tb0  1  0.00000000  0.00000000  0.70177300  1
  Tb  Tb1  1  0.50000000  0.26148300  0.00000000  1
  Tb  Tb2  1  0.50000000  0.50000000  0.79822700  1
  Tb  Tb3  1  0.50000000  0.73851700  0.00000000  1
  Tb  Tb4  1  0.50000000  0.50000000  0.20177300  1
  Tb  Tb5  1  0.00000000  0.76148300  0.50000000  1
  Tb  Tb6  1  0.00000000  0.00000000  0.29822700  1
  Tb  Tb7  1  0.00000000  0.23851700  0.50000000  1
  Ge  Ge8  1  0.00000000  0.35004600  0.69972900  1
  Ge  Ge9  1  0.50000000  0.14995400  0.80027100  1
  Ge  Ge10  1  0.50000000  0.85004600  0.80027100  1
  Ge  Ge11  1  0.00000000  0.64995400  0.69972900  1
  Ge  Ge12  1  0.50000000  0.00000000  0.57407000  1
  Ge  Ge13  1  0.00000000  0.00000000  0.92636200  1
  Ge  Ge14  1  0.50000000  0.50000000  0.57363800  1
  Ge  Ge15  1  0.00000000  0.50000000  0.92593000  1
  Ge  Ge16  1  0.50000000  0.85004600  0.19972900  1
  Ge  Ge17  1  0.00000000  0.64995400  0.30027100  1
  Ge  Ge18  1  0.00000000  0.35004600  0.30027100  1
  Ge  Ge19  1  0.50000000  0.14995400  0.19972900  1
  Ge  Ge20  1  0.00000000  0.50000000  0.07407000  1
  Ge  Ge21  1  0.50000000  0.50000000  0.42636200  1
  Ge  Ge22  1  0.00000000  0.00000000  0.07363800  1
  Ge  Ge23  1  0.50000000  0.00000000  0.42593000  1
  Pt  Pt24  1  0.00000000  0.75064150  0.85179550  1
  Pt  Pt25  1  0.50000000  0.74935850  0.64820450  1
  Pt  Pt26  1  0.50000000  0.25064150  0.64820450  1
  Pt  Pt27  1  0.00000000  0.24935850  0.85179550  1
  Pt  Pt28  1  0.50000000  0.25064150  0.35179550  1
  Pt  Pt29  1  0.00000000  0.24935850  0.14820450  1
  Pt  Pt30  1  0.00000000  0.75064150  0.14820450  1
  Pt  Pt31  1  0.50000000  0.74935850  0.35179550  1
