# generated using pymatgen
data_Mg6Cu16Si7
_symmetry_space_group_name_H-M   'P 1'
_cell_length_a   11.67062200
_cell_length_b   11.67062200
_cell_length_c   11.67062200
_cell_angle_alpha   90.00000000
_cell_angle_beta   90.00000000
_cell_angle_gamma   90.00000000
_symmetry_Int_Tables_number   1
_chemical_formula_structural   Mg6Cu16Si7
_chemical_formula_sum   'Mg24 Cu64 Si28'
_cell_volume   1589.57860503
_cell_formula_units_Z   4
loop_
 _symmetry_equiv_pos_site_id
 _symmetry_equiv_pos_as_xyz
  1  'x, y, z'
loop_
 _atom_site_type_symbol
 _atom_site_label
 _atom_site_symmetry_multiplicity
 _atom_site_fract_x
 _atom_site_fract_y
 _atom_site_fract_z
 _atom_site_occupancy
  Mg  Mg0  1  0.50000000  0.79786200  0.00000000  1
  Mg  Mg1  1  0.70213800  0.00000000  0.00000000  1
  Mg  Mg2  1  0.29786200  0.00000000  0.00000000  1
  Mg  Mg3  1  0.00000000  0.00000000  0.70213800  1
  Mg  Mg4  1  0.50000000  0.00000000  0.79786200  1
  Mg  Mg5  1  0.50000000  0.20213800  0.00000000  1
  Mg  Mg6  1  0.50000000  0.29786200  0.50000000  1
  Mg  Mg7  1  0.70213800  0.50000000  0.50000000  1
  Mg  Mg8  1  0.29786200  0.50000000  0.50000000  1
  Mg  Mg9  1  0.00000000  0.50000000  0.20213800  1
  Mg  Mg10  1  0.50000000  0.50000000  0.29786200  1
  Mg  Mg11  1  0.50000000  0.70213800  0.50000000  1
  Mg  Mg12  1  0.00000000  0.79786200  0.50000000  1
  Mg  Mg13  1  0.20213800  0.00000000  0.50000000  1
  Mg  Mg14  1  0.79786200  0.00000000  0.50000000  1
  Mg  Mg15  1  0.50000000  0.00000000  0.20213800  1
  Mg  Mg16  1  0.00000000  0.00000000  0.29786200  1
  Mg  Mg17  1  0.00000000  0.20213800  0.50000000  1
  Mg  Mg18  1  0.00000000  0.29786200  0.00000000  1
  Mg  Mg19  1  0.20213800  0.50000000  0.00000000  1
  Mg  Mg20  1  0.79786200  0.50000000  0.00000000  1
  Mg  Mg21  1  0.50000000  0.50000000  0.70213800  1
  Mg  Mg22  1  0.00000000  0.50000000  0.79786200  1
  Mg  Mg23  1  0.00000000  0.70213800  0.00000000  1
  Cu  Cu24  1  0.11986500  0.61986500  0.61986500  1
  Cu  Cu25  1  0.38013500  0.11986500  0.61986500  1
  Cu  Cu26  1  0.11986500  0.38013500  0.61986500  1
  Cu  Cu27  1  0.11986500  0.11986500  0.88013500  1
  Cu  Cu28  1  0.38013500  0.61986500  0.88013500  1
  Cu  Cu29  1  0.38013500  0.88013500  0.61986500  1
  Cu  Cu30  1  0.11986500  0.88013500  0.88013500  1
  Cu  Cu31  1  0.38013500  0.38013500  0.88013500  1
  Cu  Cu32  1  0.33288100  0.83288100  0.83288100  1
  Cu  Cu33  1  0.16711900  0.33288100  0.83288100  1
  Cu  Cu34  1  0.33288100  0.16711900  0.83288100  1
  Cu  Cu35  1  0.33288100  0.33288100  0.66711900  1
  Cu  Cu36  1  0.16711900  0.83288100  0.66711900  1
  Cu  Cu37  1  0.16711900  0.66711900  0.83288100  1
  Cu  Cu38  1  0.33288100  0.66711900  0.66711900  1
  Cu  Cu39  1  0.16711900  0.16711900  0.66711900  1
  Cu  Cu40  1  0.11986500  0.11986500  0.11986500  1
  Cu  Cu41  1  0.38013500  0.61986500  0.11986500  1
  Cu  Cu42  1  0.11986500  0.88013500  0.11986500  1
  Cu  Cu43  1  0.11986500  0.61986500  0.38013500  1
  Cu  Cu44  1  0.38013500  0.11986500  0.38013500  1
  Cu  Cu45  1  0.38013500  0.38013500  0.11986500  1
  Cu  Cu46  1  0.11986500  0.38013500  0.38013500  1
  Cu  Cu47  1  0.38013500  0.88013500  0.38013500  1
  Cu  Cu48  1  0.33288100  0.33288100  0.33288100  1
  Cu  Cu49  1  0.16711900  0.83288100  0.33288100  1
  Cu  Cu50  1  0.33288100  0.66711900  0.33288100  1
  Cu  Cu51  1  0.33288100  0.83288100  0.16711900  1
  Cu  Cu52  1  0.16711900  0.33288100  0.16711900  1
  Cu  Cu53  1  0.16711900  0.16711900  0.33288100  1
  Cu  Cu54  1  0.33288100  0.16711900  0.16711900  1
  Cu  Cu55  1  0.16711900  0.66711900  0.16711900  1
  Cu  Cu56  1  0.61986500  0.61986500  0.11986500  1
  Cu  Cu57  1  0.88013500  0.11986500  0.11986500  1
  Cu  Cu58  1  0.61986500  0.38013500  0.11986500  1
  Cu  Cu59  1  0.61986500  0.11986500  0.38013500  1
  Cu  Cu60  1  0.88013500  0.61986500  0.38013500  1
  Cu  Cu61  1  0.88013500  0.88013500  0.11986500  1
  Cu  Cu62  1  0.61986500  0.88013500  0.38013500  1
  Cu  Cu63  1  0.88013500  0.38013500  0.38013500  1
  Cu  Cu64  1  0.83288100  0.83288100  0.33288100  1
  Cu  Cu65  1  0.66711900  0.33288100  0.33288100  1
  Cu  Cu66  1  0.83288100  0.16711900  0.33288100  1
  Cu  Cu67  1  0.83288100  0.33288100  0.16711900  1
  Cu  Cu68  1  0.66711900  0.83288100  0.16711900  1
  Cu  Cu69  1  0.66711900  0.66711900  0.33288100  1
  Cu  Cu70  1  0.83288100  0.66711900  0.16711900  1
  Cu  Cu71  1  0.66711900  0.16711900  0.16711900  1
  Cu  Cu72  1  0.61986500  0.11986500  0.61986500  1
  Cu  Cu73  1  0.88013500  0.61986500  0.61986500  1
  Cu  Cu74  1  0.61986500  0.88013500  0.61986500  1
  Cu  Cu75  1  0.61986500  0.61986500  0.88013500  1
  Cu  Cu76  1  0.88013500  0.11986500  0.88013500  1
  Cu  Cu77  1  0.88013500  0.38013500  0.61986500  1
  Cu  Cu78  1  0.61986500  0.38013500  0.88013500  1
  Cu  Cu79  1  0.88013500  0.88013500  0.88013500  1
  Cu  Cu80  1  0.83288100  0.33288100  0.83288100  1
  Cu  Cu81  1  0.66711900  0.83288100  0.83288100  1
  Cu  Cu82  1  0.83288100  0.66711900  0.83288100  1
  Cu  Cu83  1  0.83288100  0.83288100  0.66711900  1
  Cu  Cu84  1  0.66711900  0.33288100  0.66711900  1
  Cu  Cu85  1  0.66711900  0.16711900  0.83288100  1
  Cu  Cu86  1  0.83288100  0.16711900  0.66711900  1
  Cu  Cu87  1  0.66711900  0.66711900  0.66711900  1
  Si  Si88  1  0.00000000  0.00000000  0.00000000  1
  Si  Si89  1  0.75000000  0.00000000  0.75000000  1
  Si  Si90  1  0.00000000  0.75000000  0.75000000  1
  Si  Si91  1  0.00000000  0.25000000  0.75000000  1
  Si  Si92  1  0.25000000  0.00000000  0.75000000  1
  Si  Si93  1  0.25000000  0.25000000  0.00000000  1
  Si  Si94  1  0.25000000  0.75000000  0.00000000  1
  Si  Si95  1  0.00000000  0.50000000  0.50000000  1
  Si  Si96  1  0.75000000  0.50000000  0.25000000  1
  Si  Si97  1  0.00000000  0.25000000  0.25000000  1
  Si  Si98  1  0.00000000  0.75000000  0.25000000  1
  Si  Si99  1  0.25000000  0.50000000  0.25000000  1
  Si  Si100  1  0.25000000  0.75000000  0.50000000  1
  Si  Si101  1  0.25000000  0.25000000  0.50000000  1
  Si  Si102  1  0.50000000  0.00000000  0.50000000  1
  Si  Si103  1  0.25000000  0.00000000  0.25000000  1
  Si  Si104  1  0.50000000  0.75000000  0.25000000  1
  Si  Si105  1  0.50000000  0.25000000  0.25000000  1
  Si  Si106  1  0.75000000  0.00000000  0.25000000  1
  Si  Si107  1  0.75000000  0.25000000  0.50000000  1
  Si  Si108  1  0.75000000  0.75000000  0.50000000  1
  Si  Si109  1  0.50000000  0.50000000  0.00000000  1
  Si  Si110  1  0.25000000  0.50000000  0.75000000  1
  Si  Si111  1  0.50000000  0.25000000  0.75000000  1
  Si  Si112  1  0.50000000  0.75000000  0.75000000  1
  Si  Si113  1  0.75000000  0.50000000  0.75000000  1
  Si  Si114  1  0.75000000  0.75000000  0.00000000  1
  Si  Si115  1  0.75000000  0.25000000  0.00000000  1
