# generated using pymatgen
data_Y3GaCo3
_symmetry_space_group_name_H-M   'P 1'
_cell_length_a   4.12856400
_cell_length_b   9.96566200
_cell_length_c   12.89508600
_cell_angle_alpha   90.00000000
_cell_angle_beta   90.00000000
_cell_angle_gamma   90.00000000
_symmetry_Int_Tables_number   1
_chemical_formula_structural   Y3GaCo3
_chemical_formula_sum   'Y12 Ga4 Co12'
_cell_volume   530.55378547
_cell_formula_units_Z   4
loop_
 _symmetry_equiv_pos_site_id
 _symmetry_equiv_pos_as_xyz
  1  'x, y, z'
loop_
 _atom_site_type_symbol
 _atom_site_label
 _atom_site_symmetry_multiplicity
 _atom_site_fract_x
 _atom_site_fract_y
 _atom_site_fract_z
 _atom_site_occupancy
  Y  Y0  1  0.50000000  0.49972300  0.75000000  1
  Y  Y1  1  0.00000000  0.00027700  0.25000000  1
  Y  Y2  1  0.00000000  0.29154300  0.10297700  1
  Y  Y3  1  0.50000000  0.20845700  0.89702300  1
  Y  Y4  1  0.50000000  0.20845700  0.60297700  1
  Y  Y5  1  0.00000000  0.29154300  0.39702300  1
  Y  Y6  1  0.00000000  0.99972300  0.75000000  1
  Y  Y7  1  0.50000000  0.50027700  0.25000000  1
  Y  Y8  1  0.50000000  0.79154300  0.10297700  1
  Y  Y9  1  0.00000000  0.70845700  0.89702300  1
  Y  Y10  1  0.00000000  0.70845700  0.60297700  1
  Y  Y11  1  0.50000000  0.79154300  0.39702300  1
  Ga  Ga12  1  0.00000000  0.00000000  0.50000000  1
  Ga  Ga13  1  0.00000000  0.00000000  0.00000000  1
  Ga  Ga14  1  0.50000000  0.50000000  0.50000000  1
  Ga  Ga15  1  0.50000000  0.50000000  0.00000000  1
  Co  Co16  1  0.00000000  0.30342600  0.75000000  1
  Co  Co17  1  0.50000000  0.19657400  0.25000000  1
  Co  Co18  1  0.50000000  0.08167500  0.09583900  1
  Co  Co19  1  0.00000000  0.41832500  0.90416100  1
  Co  Co20  1  0.00000000  0.41832500  0.59583900  1
  Co  Co21  1  0.50000000  0.08167500  0.40416100  1
  Co  Co22  1  0.50000000  0.80342600  0.75000000  1
  Co  Co23  1  0.00000000  0.69657400  0.25000000  1
  Co  Co24  1  0.00000000  0.58167500  0.09583900  1
  Co  Co25  1  0.50000000  0.91832500  0.90416100  1
  Co  Co26  1  0.50000000  0.91832500  0.59583900  1
  Co  Co27  1  0.00000000  0.58167500  0.40416100  1
