# generated using pymatgen
data_MnH2(SO4)2
_symmetry_space_group_name_H-M   'P 1'
_cell_length_a   5.13912302
_cell_length_b   8.46151300
_cell_length_c   8.52012169
_cell_angle_alpha   90.00000000
_cell_angle_beta   116.82433375
_cell_angle_gamma   90.00000000
_symmetry_Int_Tables_number   1
_chemical_formula_structural   MnH2(SO4)2
_chemical_formula_sum   'Mn2 H4 S4 O16'
_cell_volume   330.62797746
_cell_formula_units_Z   2
loop_
 _symmetry_equiv_pos_site_id
 _symmetry_equiv_pos_as_xyz
  1  'x, y, z'
loop_
 _atom_site_type_symbol
 _atom_site_label
 _atom_site_symmetry_multiplicity
 _atom_site_fract_x
 _atom_site_fract_y
 _atom_site_fract_z
 _atom_site_occupancy
  Mn  Mn0  1  0.00000000  0.00000000  0.50000000  1
  Mn  Mn1  1  0.00000000  0.50000000  0.00000000  1
  H  H2  1  0.43589700  0.98190700  0.15621900  1
  H  H3  1  0.56410300  0.48190700  0.34378100  1
  H  H4  1  0.56410300  0.01809300  0.84378100  1
  H  H5  1  0.43589700  0.51809300  0.65621900  1
  S  S6  1  0.33833500  0.17810600  0.27763200  1
  S  S7  1  0.66166500  0.67810600  0.22236800  1
  S  S8  1  0.66166500  0.82189400  0.72236800  1
  S  S9  1  0.33833500  0.32189400  0.77763200  1
  O  O10  1  0.32944600  0.08503800  0.11514600  1
  O  O11  1  0.67055400  0.58503800  0.38485400  1
  O  O12  1  0.32944600  0.41496200  0.61514600  1
  O  O13  1  0.67055400  0.91496200  0.88485400  1
  O  O14  1  0.62292100  0.34846800  0.92902100  1
  O  O15  1  0.37707900  0.84846800  0.57097900  1
  O  O16  1  0.37707900  0.65153200  0.07097900  1
  O  O17  1  0.62292100  0.15153200  0.42902100  1
  O  O18  1  0.09329700  0.37520100  0.80678300  1
  O  O19  1  0.90670300  0.87520100  0.69321700  1
  O  O20  1  0.90670300  0.62479900  0.19321700  1
  O  O21  1  0.09329700  0.12479900  0.30678300  1
  O  O22  1  0.30387300  0.15518800  0.71949300  1
  O  O23  1  0.69612700  0.65518800  0.78050700  1
  O  O24  1  0.69612700  0.84481200  0.28050700  1
  O  O25  1  0.30387300  0.34481200  0.21949300  1
