# generated using pymatgen
data_Ba2Ti13O22
_symmetry_space_group_name_H-M   'P 1'
_cell_length_a   10.08023400
_cell_length_b   11.71496600
_cell_length_c   14.22865200
_cell_angle_alpha   90.00000000
_cell_angle_beta   90.00000000
_cell_angle_gamma   90.00000000
_symmetry_Int_Tables_number   1
_chemical_formula_structural   Ba2Ti13O22
_chemical_formula_sum   'Ba8 Ti52 O88'
_cell_volume   1680.25580304
_cell_formula_units_Z   4
loop_
 _symmetry_equiv_pos_site_id
 _symmetry_equiv_pos_as_xyz
  1  'x, y, z'
loop_
 _atom_site_type_symbol
 _atom_site_label
 _atom_site_symmetry_multiplicity
 _atom_site_fract_x
 _atom_site_fract_y
 _atom_site_fract_z
 _atom_site_occupancy
  Ba  Ba0  1  0.66668700  0.00000000  0.91225400  1
  Ba  Ba1  1  0.83331300  0.00000000  0.41225400  1
  Ba  Ba2  1  0.16668700  0.00000000  0.58774600  1
  Ba  Ba3  1  0.33331300  0.00000000  0.08774600  1
  Ba  Ba4  1  0.16668700  0.50000000  0.91225400  1
  Ba  Ba5  1  0.33331300  0.50000000  0.41225400  1
  Ba  Ba6  1  0.66668700  0.50000000  0.58774600  1
  Ba  Ba7  1  0.83331300  0.50000000  0.08774600  1
  Ti  Ti8  1  0.42795700  0.87038200  0.32594200  1
  Ti  Ti9  1  0.57204300  0.62961800  0.82594200  1
  Ti  Ti10  1  0.42795700  0.62961800  0.17405800  1
  Ti  Ti11  1  0.57204300  0.87038200  0.67405800  1
  Ti  Ti12  1  0.57204300  0.12961800  0.67405800  1
  Ti  Ti13  1  0.42795700  0.37038200  0.17405800  1
  Ti  Ti14  1  0.57204300  0.37038200  0.82594200  1
  Ti  Ti15  1  0.42795700  0.12961800  0.32594200  1
  Ti  Ti16  1  0.50000000  0.25602600  0.50000000  1
  Ti  Ti17  1  0.50000000  0.24397400  0.00000000  1
  Ti  Ti18  1  0.50000000  0.74397400  0.50000000  1
  Ti  Ti19  1  0.50000000  0.75602600  0.00000000  1
  Ti  Ti20  1  0.67400000  0.24772400  0.15318200  1
  Ti  Ti21  1  0.32600000  0.25227600  0.65318200  1
  Ti  Ti22  1  0.67400000  0.25227600  0.34681800  1
  Ti  Ti23  1  0.32600000  0.24772400  0.84681800  1
  Ti  Ti24  1  0.32600000  0.75227600  0.84681800  1
  Ti  Ti25  1  0.67400000  0.74772400  0.34681800  1
  Ti  Ti26  1  0.32600000  0.74772400  0.65318200  1
  Ti  Ti27  1  0.67400000  0.75227600  0.15318200  1
  Ti  Ti28  1  0.50000000  0.00000000  0.50000000  1
  Ti  Ti29  1  0.00000000  0.00000000  0.00000000  1
  Ti  Ti30  1  0.83275600  0.00000000  0.66657700  1
  Ti  Ti31  1  0.66724400  0.00000000  0.16657700  1
  Ti  Ti32  1  0.33275600  0.00000000  0.83342300  1
  Ti  Ti33  1  0.16724400  0.00000000  0.33342300  1
  Ti  Ti34  1  0.92795700  0.37038200  0.32594200  1
  Ti  Ti35  1  0.07204300  0.12961800  0.82594200  1
  Ti  Ti36  1  0.92795700  0.12961800  0.17405800  1
  Ti  Ti37  1  0.07204300  0.37038200  0.67405800  1
  Ti  Ti38  1  0.07204300  0.62961800  0.67405800  1
  Ti  Ti39  1  0.92795700  0.87038200  0.17405800  1
  Ti  Ti40  1  0.07204300  0.87038200  0.82594200  1
  Ti  Ti41  1  0.92795700  0.62961800  0.32594200  1
  Ti  Ti42  1  0.00000000  0.75602600  0.50000000  1
  Ti  Ti43  1  0.00000000  0.74397400  0.00000000  1
  Ti  Ti44  1  0.00000000  0.24397400  0.50000000  1
  Ti  Ti45  1  0.00000000  0.25602600  0.00000000  1
  Ti  Ti46  1  0.17400000  0.74772400  0.15318200  1
  Ti  Ti47  1  0.82600000  0.75227600  0.65318200  1
  Ti  Ti48  1  0.17400000  0.75227600  0.34681800  1
  Ti  Ti49  1  0.82600000  0.74772400  0.84681800  1
  Ti  Ti50  1  0.82600000  0.25227600  0.84681800  1
  Ti  Ti51  1  0.17400000  0.24772400  0.34681800  1
  Ti  Ti52  1  0.82600000  0.24772400  0.65318200  1
  Ti  Ti53  1  0.17400000  0.25227600  0.15318200  1
  Ti  Ti54  1  0.00000000  0.50000000  0.50000000  1
  Ti  Ti55  1  0.50000000  0.50000000  0.00000000  1
  Ti  Ti56  1  0.33275600  0.50000000  0.66657700  1
  Ti  Ti57  1  0.16724400  0.50000000  0.16657700  1
  Ti  Ti58  1  0.83275600  0.50000000  0.83342300  1
  Ti  Ti59  1  0.66724400  0.50000000  0.33342300  1
  O  O60  1  0.59236800  0.37918800  0.42005900  1
  O  O61  1  0.40763200  0.12081200  0.92005900  1
  O  O62  1  0.59236800  0.12081200  0.07994100  1
  O  O63  1  0.40763200  0.37918800  0.57994100  1
  O  O64  1  0.40763200  0.62081200  0.57994100  1
  O  O65  1  0.59236800  0.87918800  0.07994100  1
  O  O66  1  0.40763200  0.87918800  0.92005900  1
  O  O67  1  0.59236800  0.62081200  0.42005900  1
  O  O68  1  0.25368800  0.87151600  0.25234200  1
  O  O69  1  0.24631200  0.12848400  0.75234200  1
  O  O70  1  0.75368800  0.12848400  0.24765800  1
  O  O71  1  0.74631200  0.87151600  0.74765800  1
  O  O72  1  0.74631200  0.12848400  0.74765800  1
  O  O73  1  0.75368800  0.87151600  0.24765800  1
  O  O74  1  0.24631200  0.87151600  0.75234200  1
  O  O75  1  0.25368800  0.12848400  0.25234200  1
  O  O76  1  0.65775000  0.00000000  0.59422900  1
  O  O77  1  0.84225000  0.00000000  0.09422900  1
  O  O78  1  0.15775000  0.00000000  0.90577100  1
  O  O79  1  0.34225000  0.00000000  0.40577100  1
  O  O80  1  0.58854050  0.37585550  0.08001300  1
  O  O81  1  0.41145950  0.12414450  0.58001300  1
  O  O82  1  0.58854050  0.12414450  0.41998700  1
  O  O83  1  0.41145950  0.37585550  0.91998700  1
  O  O84  1  0.41145950  0.62414450  0.91998700  1
  O  O85  1  0.58854050  0.87585550  0.41998700  1
  O  O86  1  0.41145950  0.87585550  0.58001300  1
  O  O87  1  0.58854050  0.62414450  0.08001300  1
  O  O88  1  0.52072900  0.25000000  0.25000000  1
  O  O89  1  0.47927100  0.25000000  0.75000000  1
  O  O90  1  0.34841850  0.24989950  0.41017500  1
  O  O91  1  0.65158150  0.25010050  0.91017500  1
  O  O92  1  0.34841850  0.25010050  0.08982500  1
  O  O93  1  0.65158150  0.24989950  0.58982500  1
  O  O94  1  0.65158150  0.75010050  0.58982500  1
  O  O95  1  0.34841850  0.74989950  0.08982500  1
  O  O96  1  0.65158150  0.74989950  0.91017500  1
  O  O97  1  0.34841850  0.75010050  0.41017500  1
  O  O98  1  0.00433200  0.00000000  0.25172200  1
  O  O99  1  0.49566800  0.00000000  0.75172200  1
  O  O100  1  0.50433200  0.00000000  0.24827800  1
  O  O101  1  0.99566800  0.00000000  0.74827800  1
  O  O102  1  0.52072900  0.75000000  0.25000000  1
  O  O103  1  0.47927100  0.75000000  0.75000000  1
  O  O104  1  0.09236800  0.87918800  0.42005900  1
  O  O105  1  0.90763200  0.62081200  0.92005900  1
  O  O106  1  0.09236800  0.62081200  0.07994100  1
  O  O107  1  0.90763200  0.87918800  0.57994100  1
  O  O108  1  0.90763200  0.12081200  0.57994100  1
  O  O109  1  0.09236800  0.37918800  0.07994100  1
  O  O110  1  0.90763200  0.37918800  0.92005900  1
  O  O111  1  0.09236800  0.12081200  0.42005900  1
  O  O112  1  0.75368800  0.37151600  0.25234200  1
  O  O113  1  0.74631200  0.62848400  0.75234200  1
  O  O114  1  0.25368800  0.62848400  0.24765800  1
  O  O115  1  0.24631200  0.37151600  0.74765800  1
  O  O116  1  0.24631200  0.62848400  0.74765800  1
  O  O117  1  0.25368800  0.37151600  0.24765800  1
  O  O118  1  0.74631200  0.37151600  0.75234200  1
  O  O119  1  0.75368800  0.62848400  0.25234200  1
  O  O120  1  0.15775000  0.50000000  0.59422900  1
  O  O121  1  0.34225000  0.50000000  0.09422900  1
  O  O122  1  0.65775000  0.50000000  0.90577100  1
  O  O123  1  0.84225000  0.50000000  0.40577100  1
  O  O124  1  0.08854050  0.87585550  0.08001300  1
  O  O125  1  0.91145950  0.62414450  0.58001300  1
  O  O126  1  0.08854050  0.62414450  0.41998700  1
  O  O127  1  0.91145950  0.87585550  0.91998700  1
  O  O128  1  0.91145950  0.12414450  0.91998700  1
  O  O129  1  0.08854050  0.37585550  0.41998700  1
  O  O130  1  0.91145950  0.37585550  0.58001300  1
  O  O131  1  0.08854050  0.12414450  0.08001300  1
  O  O132  1  0.02072900  0.75000000  0.25000000  1
  O  O133  1  0.97927100  0.75000000  0.75000000  1
  O  O134  1  0.84841850  0.74989950  0.41017500  1
  O  O135  1  0.15158150  0.75010050  0.91017500  1
  O  O136  1  0.84841850  0.75010050  0.08982500  1
  O  O137  1  0.15158150  0.74989950  0.58982500  1
  O  O138  1  0.15158150  0.25010050  0.58982500  1
  O  O139  1  0.84841850  0.24989950  0.08982500  1
  O  O140  1  0.15158150  0.24989950  0.91017500  1
  O  O141  1  0.84841850  0.25010050  0.41017500  1
  O  O142  1  0.50433200  0.50000000  0.25172200  1
  O  O143  1  0.99566800  0.50000000  0.75172200  1
  O  O144  1  0.00433200  0.50000000  0.24827800  1
  O  O145  1  0.49566800  0.50000000  0.74827800  1
  O  O146  1  0.02072900  0.25000000  0.25000000  1
  O  O147  1  0.97927100  0.25000000  0.75000000  1
