# generated using pymatgen
data_BaCoBP2HO9
_symmetry_space_group_name_H-M   'P 1'
_cell_length_a   5.37267583
_cell_length_b   8.12313483
_cell_length_c   8.38714567
_cell_angle_alpha   88.48925798
_cell_angle_beta   79.41001572
_cell_angle_gamma   87.08932933
_symmetry_Int_Tables_number   1
_chemical_formula_structural   BaCoBP2HO9
_chemical_formula_sum   'Ba2 Co2 B2 P4 H2 O18'
_cell_volume   359.28710310
_cell_formula_units_Z   2
loop_
 _symmetry_equiv_pos_site_id
 _symmetry_equiv_pos_as_xyz
  1  'x, y, z'
loop_
 _atom_site_type_symbol
 _atom_site_label
 _atom_site_symmetry_multiplicity
 _atom_site_fract_x
 _atom_site_fract_y
 _atom_site_fract_z
 _atom_site_occupancy
  Ba  Ba0  1  0.27683300  0.69028300  0.88505750  1
  Ba  Ba1  1  0.72316700  0.30971700  0.11494250  1
  Co  Co2  1  0.27319700  0.20033700  0.80319850  1
  Co  Co3  1  0.72680300  0.79966300  0.19680150  1
  B  B4  1  0.88679600  0.74434050  0.54762200  1
  B  B5  1  0.11320400  0.25565950  0.45237800  1
  P  P6  1  0.77556800  0.94040400  0.81715550  1
  P  P7  1  0.22443200  0.05959600  0.18284450  1
  P  P8  1  0.19940300  0.56855800  0.30181850  1
  P  P9  1  0.80059700  0.43144200  0.69818150  1
  H  H10  1  0.73192200  0.94677100  0.45281900  1
  H  H11  1  0.26807800  0.05322900  0.54718100  1
  O  O12  1  0.44752600  0.62085500  0.19526300  1
  O  O13  1  0.55247400  0.37914500  0.80473700  1
  O  O14  1  0.04088400  0.13677700  0.33975000  1
  O  O15  1  0.95911600  0.86322300  0.66025000  1
  O  O16  1  0.75589200  0.79609100  0.94480200  1
  O  O17  1  0.24410800  0.20390900  0.05519800  1
  O  O18  1  0.27163600  0.17266050  0.55754600  1
  O  O19  1  0.72836400  0.82733950  0.44245400  1
  O  O20  1  0.01815200  0.42824700  0.79487950  1
  O  O21  1  0.98184800  0.57175300  0.20512050  1
  O  O22  1  0.13078300  0.67424050  0.45802300  1
  O  O23  1  0.86921700  0.32575950  0.54197700  1
  O  O24  1  0.51016000  0.98299200  0.77883800  1
  O  O25  1  0.48984000  0.01700800  0.22116200  1
  O  O26  1  0.26688800  0.38728900  0.35943950  1
  O  O27  1  0.73311200  0.61271100  0.64056050  1
  O  O28  1  0.08724500  0.91314550  0.13773650  1
  O  O29  1  0.91275500  0.08685450  0.86226350  1
