# generated using pymatgen
data_NaLi5Sn4
_symmetry_space_group_name_H-M   'P 1'
_cell_length_a   4.96661589
_cell_length_b   4.96661589
_cell_length_c   31.68634755
_cell_angle_alpha   90.00000000
_cell_angle_beta   90.00000000
_cell_angle_gamma   120.00000000
_symmetry_Int_Tables_number   1
_chemical_formula_structural   NaLi5Sn4
_chemical_formula_sum   'Na3 Li15 Sn12'
_cell_volume   676.89913611
_cell_formula_units_Z   3
loop_
 _symmetry_equiv_pos_site_id
 _symmetry_equiv_pos_as_xyz
  1  'x, y, z'
loop_
 _atom_site_type_symbol
 _atom_site_label
 _atom_site_symmetry_multiplicity
 _atom_site_fract_x
 _atom_site_fract_y
 _atom_site_fract_z
 _atom_site_occupancy
  Na  Na0  1  0.33333333  0.66666667  0.15059367  1
  Na  Na1  1  0.00000000  0.00000000  0.48392700  1
  Na  Na2  1  0.66666667  0.33333333  0.81726033  1
  Li  Li3  1  0.66666667  0.33333333  0.19470133  1
  Li  Li4  1  0.66666667  0.33333333  0.28068233  1
  Li  Li5  1  0.33333333  0.66666667  0.25069967  1
  Li  Li6  1  0.00000000  0.00000000  0.13681200  1
  Li  Li7  1  0.00000000  0.00000000  0.05386200  1
  Li  Li8  1  0.33333333  0.66666667  0.52803467  1
  Li  Li9  1  0.33333333  0.66666667  0.61401567  1
  Li  Li10  1  0.00000000  0.00000000  0.58403300  1
  Li  Li11  1  0.66666667  0.33333333  0.47014533  1
  Li  Li12  1  0.66666667  0.33333333  0.38719533  1
  Li  Li13  1  0.00000000  0.00000000  0.86136800  1
  Li  Li14  1  0.00000000  0.00000000  0.94734900  1
  Li  Li15  1  0.66666667  0.33333333  0.91736633  1
  Li  Li16  1  0.33333333  0.66666667  0.80347867  1
  Li  Li17  1  0.33333333  0.66666667  0.72052867  1
  Sn  Sn18  1  0.66666667  0.33333333  0.10463500  1
  Sn  Sn19  1  0.66666667  0.33333333  0.01503433  1
  Sn  Sn20  1  0.00000000  0.00000000  0.31745300  1
  Sn  Sn21  1  0.00000000  0.00000000  0.22499300  1
  Sn  Sn22  1  0.33333333  0.66666667  0.43796833  1
  Sn  Sn23  1  0.33333333  0.66666667  0.34836767  1
  Sn  Sn24  1  0.66666667  0.33333333  0.65078633  1
  Sn  Sn25  1  0.66666667  0.33333333  0.55832633  1
  Sn  Sn26  1  0.00000000  0.00000000  0.77130167  1
  Sn  Sn27  1  0.00000000  0.00000000  0.68170100  1
  Sn  Sn28  1  0.33333333  0.66666667  0.98411967  1
  Sn  Sn29  1  0.33333333  0.66666667  0.89165967  1
