# generated using pymatgen
data_Yb3Sb5O12
_symmetry_space_group_name_H-M   'P 1'
_cell_length_a   10.46657400
_cell_length_b   10.46657400
_cell_length_c   10.46657400
_cell_angle_alpha   90.00000000
_cell_angle_beta   90.00000000
_cell_angle_gamma   90.00000000
_symmetry_Int_Tables_number   1
_chemical_formula_structural   Yb3Sb5O12
_chemical_formula_sum   'Yb12 Sb20 O48'
_cell_volume   1146.60450802
_cell_formula_units_Z   4
loop_
 _symmetry_equiv_pos_site_id
 _symmetry_equiv_pos_as_xyz
  1  'x, y, z'
loop_
 _atom_site_type_symbol
 _atom_site_label
 _atom_site_symmetry_multiplicity
 _atom_site_fract_x
 _atom_site_fract_y
 _atom_site_fract_z
 _atom_site_occupancy
  Yb  Yb0  1  0.00000000  0.25000000  0.50000000  1
  Yb  Yb1  1  0.25000000  0.50000000  0.00000000  1
  Yb  Yb2  1  0.50000000  0.00000000  0.25000000  1
  Yb  Yb3  1  0.00000000  0.50000000  0.25000000  1
  Yb  Yb4  1  0.25000000  0.00000000  0.50000000  1
  Yb  Yb5  1  0.50000000  0.25000000  0.00000000  1
  Yb  Yb6  1  0.50000000  0.75000000  0.00000000  1
  Yb  Yb7  1  0.75000000  0.00000000  0.50000000  1
  Yb  Yb8  1  0.00000000  0.50000000  0.75000000  1
  Yb  Yb9  1  0.50000000  0.00000000  0.75000000  1
  Yb  Yb10  1  0.75000000  0.50000000  0.00000000  1
  Yb  Yb11  1  0.00000000  0.75000000  0.50000000  1
  Sb  Sb12  1  0.00000000  0.74863400  0.00000000  1
  Sb  Sb13  1  0.75000000  0.25000000  0.25000000  1
  Sb  Sb14  1  0.00000000  0.25136600  0.00000000  1
  Sb  Sb15  1  0.25136600  0.00000000  0.00000000  1
  Sb  Sb16  1  0.74863400  0.00000000  0.00000000  1
  Sb  Sb17  1  0.25000000  0.75000000  0.25000000  1
  Sb  Sb18  1  0.00000000  0.00000000  0.74863400  1
  Sb  Sb19  1  0.00000000  0.00000000  0.25136600  1
  Sb  Sb20  1  0.25000000  0.25000000  0.25000000  1
  Sb  Sb21  1  0.25000000  0.25000000  0.75000000  1
  Sb  Sb22  1  0.50000000  0.24863400  0.50000000  1
  Sb  Sb23  1  0.25000000  0.75000000  0.75000000  1
  Sb  Sb24  1  0.50000000  0.75136600  0.50000000  1
  Sb  Sb25  1  0.75136600  0.50000000  0.50000000  1
  Sb  Sb26  1  0.24863400  0.50000000  0.50000000  1
  Sb  Sb27  1  0.75000000  0.25000000  0.75000000  1
  Sb  Sb28  1  0.50000000  0.50000000  0.24863400  1
  Sb  Sb29  1  0.50000000  0.50000000  0.75136600  1
  Sb  Sb30  1  0.75000000  0.75000000  0.75000000  1
  Sb  Sb31  1  0.75000000  0.75000000  0.25000000  1
  O  O32  1  0.12511200  0.12511200  0.34146400  1
  O  O33  1  0.34146400  0.12511200  0.12511200  1
  O  O34  1  0.37488800  0.37488800  0.15853600  1
  O  O35  1  0.87488800  0.34146400  0.12511200  1
  O  O36  1  0.34146400  0.12511200  0.87488800  1
  O  O37  1  0.34146400  0.87488800  0.12511200  1
  O  O38  1  0.87488800  0.12511200  0.34146400  1
  O  O39  1  0.65853600  0.87488800  0.12511200  1
  O  O40  1  0.65853600  0.12511200  0.12511200  1
  O  O41  1  0.12511200  0.87488800  0.65853600  1
  O  O42  1  0.37488800  0.37488800  0.84146400  1
  O  O43  1  0.12511200  0.65853600  0.87488800  1
  O  O44  1  0.12511200  0.34146400  0.12511200  1
  O  O45  1  0.65853600  0.12511200  0.87488800  1
  O  O46  1  0.37488800  0.15853600  0.37488800  1
  O  O47  1  0.12511200  0.65853600  0.12511200  1
  O  O48  1  0.37488800  0.84146400  0.37488800  1
  O  O49  1  0.87488800  0.12511200  0.65853600  1
  O  O50  1  0.15853600  0.37488800  0.37488800  1
  O  O51  1  0.12511200  0.87488800  0.34146400  1
  O  O52  1  0.12511200  0.34146400  0.87488800  1
  O  O53  1  0.12511200  0.12511200  0.65853600  1
  O  O54  1  0.84146400  0.37488800  0.37488800  1
  O  O55  1  0.87488800  0.65853600  0.12511200  1
  O  O56  1  0.62511200  0.62511200  0.84146400  1
  O  O57  1  0.84146400  0.62511200  0.62511200  1
  O  O58  1  0.87488800  0.87488800  0.65853600  1
  O  O59  1  0.37488800  0.84146400  0.62511200  1
  O  O60  1  0.84146400  0.62511200  0.37488800  1
  O  O61  1  0.84146400  0.37488800  0.62511200  1
  O  O62  1  0.37488800  0.62511200  0.84146400  1
  O  O63  1  0.15853600  0.37488800  0.62511200  1
  O  O64  1  0.15853600  0.62511200  0.62511200  1
  O  O65  1  0.62511200  0.37488800  0.15853600  1
  O  O66  1  0.87488800  0.87488800  0.34146400  1
  O  O67  1  0.62511200  0.15853600  0.37488800  1
  O  O68  1  0.62511200  0.84146400  0.62511200  1
  O  O69  1  0.15853600  0.62511200  0.37488800  1
  O  O70  1  0.87488800  0.65853600  0.87488800  1
  O  O71  1  0.62511200  0.15853600  0.62511200  1
  O  O72  1  0.87488800  0.34146400  0.87488800  1
  O  O73  1  0.37488800  0.62511200  0.15853600  1
  O  O74  1  0.65853600  0.87488800  0.87488800  1
  O  O75  1  0.62511200  0.37488800  0.84146400  1
  O  O76  1  0.62511200  0.84146400  0.37488800  1
  O  O77  1  0.62511200  0.62511200  0.15853600  1
  O  O78  1  0.34146400  0.87488800  0.87488800  1
  O  O79  1  0.37488800  0.15853600  0.62511200  1
