# generated using pymatgen
data_MnBiO3
_symmetry_space_group_name_H-M   'P 1'
_cell_length_a   9.70879040
_cell_length_b   5.70021801
_cell_length_c   9.99979976
_cell_angle_alpha   90.00000000
_cell_angle_beta   110.84718214
_cell_angle_gamma   90.00000000
_symmetry_Int_Tables_number   1
_chemical_formula_structural   MnBiO3
_chemical_formula_sum   'Mn8 Bi8 O24'
_cell_volume   517.18093367
_cell_formula_units_Z   8
loop_
 _symmetry_equiv_pos_site_id
 _symmetry_equiv_pos_as_xyz
  1  'x, y, z'
loop_
 _atom_site_type_symbol
 _atom_site_label
 _atom_site_symmetry_multiplicity
 _atom_site_fract_x
 _atom_site_fract_y
 _atom_site_fract_z
 _atom_site_occupancy
  Mn  Mn0  1  0.00000000  0.78680300  0.25000000  1
  Mn  Mn1  1  0.50000000  0.71319700  0.75000000  1
  Mn  Mn2  1  0.25000000  0.75000000  0.00000000  1
  Mn  Mn3  1  0.75000000  0.75000000  0.50000000  1
  Mn  Mn4  1  0.50000000  0.28680300  0.25000000  1
  Mn  Mn5  1  0.00000000  0.21319700  0.75000000  1
  Mn  Mn6  1  0.75000000  0.25000000  0.00000000  1
  Mn  Mn7  1  0.25000000  0.25000000  0.50000000  1
  Bi  Bi8  1  0.13715150  0.78277050  0.62357300  1
  Bi  Bi9  1  0.86284850  0.78277050  0.87642700  1
  Bi  Bi10  1  0.36284850  0.71722950  0.37642700  1
  Bi  Bi11  1  0.63715150  0.71722950  0.12357300  1
  Bi  Bi12  1  0.63715150  0.28277050  0.62357300  1
  Bi  Bi13  1  0.36284850  0.28277050  0.87642700  1
  Bi  Bi14  1  0.86284850  0.21722950  0.37642700  1
  Bi  Bi15  1  0.13715150  0.21722950  0.12357300  1
  O  O16  1  0.09536500  0.82547400  0.07880700  1
  O  O17  1  0.90463500  0.82547400  0.42119300  1
  O  O18  1  0.40463500  0.67452600  0.92119300  1
  O  O19  1  0.59536500  0.67452600  0.57880700  1
  O  O20  1  0.64609450  0.93286550  0.87229800  1
  O  O21  1  0.35390550  0.93286550  0.62770200  1
  O  O22  1  0.85390550  0.56713450  0.12770200  1
  O  O23  1  0.64609450  0.06713450  0.37229800  1
  O  O24  1  0.85099700  0.95625800  0.66566700  1
  O  O25  1  0.64900300  0.45625800  0.83433300  1
  O  O26  1  0.14900300  0.04374200  0.33433300  1
  O  O27  1  0.35099700  0.54374200  0.16566700  1
  O  O28  1  0.59536500  0.32547400  0.07880700  1
  O  O29  1  0.40463500  0.32547400  0.42119300  1
  O  O30  1  0.90463500  0.17452600  0.92119300  1
  O  O31  1  0.09536500  0.17452600  0.57880700  1
  O  O32  1  0.14609450  0.43286550  0.87229800  1
  O  O33  1  0.85390550  0.43286550  0.62770200  1
  O  O34  1  0.35390550  0.06713450  0.12770200  1
  O  O35  1  0.14609450  0.56713450  0.37229800  1
  O  O36  1  0.35099700  0.45625800  0.66566700  1
  O  O37  1  0.14900300  0.95625800  0.83433300  1
  O  O38  1  0.64900300  0.54374200  0.33433300  1
  O  O39  1  0.85099700  0.04374200  0.16566700  1
