# generated using pymatgen
data_Sc11(AlGe4)2
_symmetry_space_group_name_H-M   'P 1'
_cell_length_a   10.44689400
_cell_length_b   10.44689400
_cell_length_c   15.03325800
_cell_angle_alpha   90.00000000
_cell_angle_beta   90.00000000
_cell_angle_gamma   90.00000000
_symmetry_Int_Tables_number   1
_chemical_formula_structural   Sc11(AlGe4)2
_chemical_formula_sum   'Sc44 Al8 Ge32'
_cell_volume   1640.69361182
_cell_formula_units_Z   4
loop_
 _symmetry_equiv_pos_site_id
 _symmetry_equiv_pos_as_xyz
  1  'x, y, z'
loop_
 _atom_site_type_symbol
 _atom_site_label
 _atom_site_symmetry_multiplicity
 _atom_site_fract_x
 _atom_site_fract_y
 _atom_site_fract_z
 _atom_site_occupancy
  Sc  Sc0  1  0.50000000  0.75144500  0.18973500  1
  Sc  Sc1  1  0.75144500  0.50000000  0.18973500  1
  Sc  Sc2  1  0.24855500  0.50000000  0.18973500  1
  Sc  Sc3  1  0.00000000  0.74855500  0.31026500  1
  Sc  Sc4  1  0.00000000  0.33604150  0.10276750  1
  Sc  Sc5  1  0.66395850  0.00000000  0.10276750  1
  Sc  Sc6  1  0.33604150  0.00000000  0.10276750  1
  Sc  Sc7  1  0.50000000  0.16395850  0.39723250  1
  Sc  Sc8  1  0.50000000  0.83604150  0.39723250  1
  Sc  Sc9  1  0.83604150  0.50000000  0.39723250  1
  Sc  Sc10  1  0.16395850  0.50000000  0.39723250  1
  Sc  Sc11  1  0.00000000  0.66395850  0.10276750  1
  Sc  Sc12  1  0.82830050  0.82830050  0.50000000  1
  Sc  Sc13  1  0.67169950  0.32830050  0.00000000  1
  Sc  Sc14  1  0.32830050  0.67169950  0.00000000  1
  Sc  Sc15  1  0.67169950  0.67169950  0.00000000  1
  Sc  Sc16  1  0.00000000  0.00000000  0.16927500  1
  Sc  Sc17  1  0.50000000  0.50000000  0.33072500  1
  Sc  Sc18  1  0.25144500  0.00000000  0.31026500  1
  Sc  Sc19  1  0.74855500  0.00000000  0.31026500  1
  Sc  Sc20  1  0.00000000  0.25144500  0.31026500  1
  Sc  Sc21  1  0.50000000  0.24855500  0.18973500  1
  Sc  Sc22  1  0.00000000  0.25144500  0.68973500  1
  Sc  Sc23  1  0.25144500  0.00000000  0.68973500  1
  Sc  Sc24  1  0.74855500  0.00000000  0.68973500  1
  Sc  Sc25  1  0.50000000  0.24855500  0.81026500  1
  Sc  Sc26  1  0.50000000  0.83604150  0.60276750  1
  Sc  Sc27  1  0.16395850  0.50000000  0.60276750  1
  Sc  Sc28  1  0.83604150  0.50000000  0.60276750  1
  Sc  Sc29  1  0.00000000  0.66395850  0.89723250  1
  Sc  Sc30  1  0.00000000  0.33604150  0.89723250  1
  Sc  Sc31  1  0.33604150  0.00000000  0.89723250  1
  Sc  Sc32  1  0.66395850  0.00000000  0.89723250  1
  Sc  Sc33  1  0.50000000  0.16395850  0.60276750  1
  Sc  Sc34  1  0.32830050  0.32830050  0.00000000  1
  Sc  Sc35  1  0.17169950  0.82830050  0.50000000  1
  Sc  Sc36  1  0.82830050  0.17169950  0.50000000  1
  Sc  Sc37  1  0.17169950  0.17169950  0.50000000  1
  Sc  Sc38  1  0.50000000  0.50000000  0.66927500  1
  Sc  Sc39  1  0.00000000  0.00000000  0.83072500  1
  Sc  Sc40  1  0.75144500  0.50000000  0.81026500  1
  Sc  Sc41  1  0.24855500  0.50000000  0.81026500  1
  Sc  Sc42  1  0.50000000  0.75144500  0.81026500  1
  Sc  Sc43  1  0.00000000  0.74855500  0.68973500  1
  Al  Al44  1  0.12714000  0.87286000  0.00000000  1
  Al  Al45  1  0.87286000  0.12714000  0.00000000  1
  Al  Al46  1  0.12714000  0.12714000  0.00000000  1
  Al  Al47  1  0.87286000  0.87286000  0.00000000  1
  Al  Al48  1  0.62714000  0.37286000  0.50000000  1
  Al  Al49  1  0.37286000  0.62714000  0.50000000  1
  Al  Al50  1  0.62714000  0.62714000  0.50000000  1
  Al  Al51  1  0.37286000  0.37286000  0.50000000  1
  Ge  Ge52  1  0.20385700  0.20385700  0.17060300  1
  Ge  Ge53  1  0.79614300  0.20385700  0.17060300  1
  Ge  Ge54  1  0.20385700  0.79614300  0.17060300  1
  Ge  Ge55  1  0.70385700  0.29614300  0.32939700  1
  Ge  Ge56  1  0.29614300  0.70385700  0.32939700  1
  Ge  Ge57  1  0.70385700  0.70385700  0.32939700  1
  Ge  Ge58  1  0.29614300  0.29614300  0.32939700  1
  Ge  Ge59  1  0.79614300  0.79614300  0.17060300  1
  Ge  Ge60  1  0.14705500  0.50000000  0.00000000  1
  Ge  Ge61  1  0.50000000  0.14705500  0.00000000  1
  Ge  Ge62  1  0.50000000  0.85294500  0.00000000  1
  Ge  Ge63  1  0.85294500  0.50000000  0.00000000  1
  Ge  Ge64  1  0.00000000  0.00000000  0.38198600  1
  Ge  Ge65  1  0.50000000  0.50000000  0.11801400  1
  Ge  Ge66  1  0.00000000  0.50000000  0.25000000  1
  Ge  Ge67  1  0.50000000  0.00000000  0.25000000  1
  Ge  Ge68  1  0.70385700  0.70385700  0.67060300  1
  Ge  Ge69  1  0.29614300  0.70385700  0.67060300  1
  Ge  Ge70  1  0.70385700  0.29614300  0.67060300  1
  Ge  Ge71  1  0.20385700  0.79614300  0.82939700  1
  Ge  Ge72  1  0.79614300  0.20385700  0.82939700  1
  Ge  Ge73  1  0.20385700  0.20385700  0.82939700  1
  Ge  Ge74  1  0.79614300  0.79614300  0.82939700  1
  Ge  Ge75  1  0.29614300  0.29614300  0.67060300  1
  Ge  Ge76  1  0.64705500  0.00000000  0.50000000  1
  Ge  Ge77  1  0.00000000  0.64705500  0.50000000  1
  Ge  Ge78  1  0.00000000  0.35294500  0.50000000  1
  Ge  Ge79  1  0.35294500  0.00000000  0.50000000  1
  Ge  Ge80  1  0.50000000  0.50000000  0.88198600  1
  Ge  Ge81  1  0.00000000  0.00000000  0.61801400  1
  Ge  Ge82  1  0.50000000  0.00000000  0.75000000  1
  Ge  Ge83  1  0.00000000  0.50000000  0.75000000  1
