# generated using pymatgen
data_Li4H5Rh
_symmetry_space_group_name_H-M   'P 1'
_cell_length_a   3.89375400
_cell_length_b   9.26964600
_cell_length_c   9.29236900
_cell_angle_alpha   90.00000000
_cell_angle_beta   90.00000000
_cell_angle_gamma   90.00000000
_symmetry_Int_Tables_number   1
_chemical_formula_structural   Li4H5Rh
_chemical_formula_sum   'Li16 H20 Rh4'
_cell_volume   335.39617589
_cell_formula_units_Z   4
loop_
 _symmetry_equiv_pos_site_id
 _symmetry_equiv_pos_as_xyz
  1  'x, y, z'
loop_
 _atom_site_type_symbol
 _atom_site_label
 _atom_site_symmetry_multiplicity
 _atom_site_fract_x
 _atom_site_fract_y
 _atom_site_fract_z
 _atom_site_occupancy
  Li  Li0  1  0.00000000  0.42070300  0.88541100  1
  Li  Li1  1  0.00000000  0.13047300  0.90813700  1
  Li  Li2  1  0.00000000  0.13047300  0.59186300  1
  Li  Li3  1  0.50000000  0.36952700  0.40813700  1
  Li  Li4  1  0.50000000  0.07929700  0.11458900  1
  Li  Li5  1  0.50000000  0.07929700  0.38541100  1
  Li  Li6  1  0.00000000  0.42070300  0.61458900  1
  Li  Li7  1  0.50000000  0.36952700  0.09186300  1
  Li  Li8  1  0.50000000  0.92070300  0.88541100  1
  Li  Li9  1  0.50000000  0.63047300  0.90813700  1
  Li  Li10  1  0.50000000  0.63047300  0.59186300  1
  Li  Li11  1  0.00000000  0.86952700  0.40813700  1
  Li  Li12  1  0.00000000  0.57929700  0.11458900  1
  Li  Li13  1  0.00000000  0.57929700  0.38541100  1
  Li  Li14  1  0.50000000  0.92070300  0.61458900  1
  Li  Li15  1  0.00000000  0.86952700  0.09186300  1
  H  H16  1  0.00000000  0.26668400  0.75000000  1
  H  H17  1  0.50000000  0.23331600  0.25000000  1
  H  H18  1  0.00000000  0.36428400  0.10909400  1
  H  H19  1  0.50000000  0.13571600  0.89090600  1
  H  H20  1  0.50000000  0.13571600  0.60909400  1
  H  H21  1  0.00000000  0.36428400  0.39090600  1
  H  H22  1  0.00000000  0.09582900  0.12009300  1
  H  H23  1  0.50000000  0.40417100  0.87990700  1
  H  H24  1  0.00000000  0.09582900  0.37990700  1
  H  H25  1  0.50000000  0.40417100  0.62009300  1
  H  H26  1  0.50000000  0.76668400  0.75000000  1
  H  H27  1  0.00000000  0.73331600  0.25000000  1
  H  H28  1  0.50000000  0.86428400  0.10909400  1
  H  H29  1  0.00000000  0.63571600  0.89090600  1
  H  H30  1  0.00000000  0.63571600  0.60909400  1
  H  H31  1  0.50000000  0.86428400  0.39090600  1
  H  H32  1  0.50000000  0.59582900  0.12009300  1
  H  H33  1  0.00000000  0.90417100  0.87990700  1
  H  H34  1  0.50000000  0.59582900  0.37990700  1
  H  H35  1  0.00000000  0.90417100  0.62009300  1
  Rh  Rh36  1  0.50000000  0.26788500  0.75000000  1
  Rh  Rh37  1  0.00000000  0.23211500  0.25000000  1
  Rh  Rh38  1  0.00000000  0.76788500  0.75000000  1
  Rh  Rh39  1  0.50000000  0.73211500  0.25000000  1
