# generated using pymatgen
data_V2CoP2(H4O7)2
_symmetry_space_group_name_H-M   'P 1'
_cell_length_a   6.34977590
_cell_length_b   6.34977590
_cell_length_c   13.46571537
_cell_angle_alpha   90.00000000
_cell_angle_beta   90.00000000
_cell_angle_gamma   90.00000000
_symmetry_Int_Tables_number   1
_chemical_formula_structural   V2CoP2(H4O7)2
_chemical_formula_sum   'V4 Co2 P4 H16 O28'
_cell_volume   542.93298442
_cell_formula_units_Z   2
loop_
 _symmetry_equiv_pos_site_id
 _symmetry_equiv_pos_as_xyz
  1  'x, y, z'
loop_
 _atom_site_type_symbol
 _atom_site_label
 _atom_site_symmetry_multiplicity
 _atom_site_fract_x
 _atom_site_fract_y
 _atom_site_fract_z
 _atom_site_occupancy
  V  V0  1  0.00000000  0.00000000  0.27780050  1
  V  V1  1  0.50000000  0.50000000  0.22219950  1
  V  V2  1  0.50000000  0.50000000  0.77780050  1
  V  V3  1  0.00000000  0.00000000  0.72219950  1
  Co  Co4  1  0.00000000  0.00000000  0.00000000  1
  Co  Co5  1  0.50000000  0.50000000  0.50000000  1
  P  P6  1  0.00000000  0.50000000  0.25000000  1
  P  P7  1  0.50000000  0.00000000  0.25000000  1
  P  P8  1  0.50000000  0.00000000  0.75000000  1
  P  P9  1  0.00000000  0.50000000  0.75000000  1
  H  H10  1  0.67299750  0.85938250  0.43982250  1
  H  H11  1  0.14061750  0.67299750  0.43982250  1
  H  H12  1  0.85938250  0.32700250  0.43982250  1
  H  H13  1  0.32700250  0.14061750  0.43982250  1
  H  H14  1  0.82700250  0.64061750  0.06017750  1
  H  H15  1  0.17299750  0.35938250  0.06017750  1
  H  H16  1  0.35938250  0.82700250  0.06017750  1
  H  H17  1  0.64061750  0.17299750  0.06017750  1
  H  H18  1  0.17299750  0.35938250  0.93982250  1
  H  H19  1  0.64061750  0.17299750  0.93982250  1
  H  H20  1  0.35938250  0.82700250  0.93982250  1
  H  H21  1  0.82700250  0.64061750  0.93982250  1
  H  H22  1  0.32700250  0.14061750  0.56017750  1
  H  H23  1  0.67299750  0.85938250  0.56017750  1
  H  H24  1  0.85938250  0.32700250  0.56017750  1
  H  H25  1  0.14061750  0.67299750  0.56017750  1
  O  O26  1  0.50000000  0.50000000  0.34412750  1
  O  O27  1  0.00000000  0.00000000  0.15587250  1
  O  O28  1  0.68225500  0.77031700  0.50000000  1
  O  O29  1  0.22968300  0.68225500  0.50000000  1
  O  O30  1  0.77031700  0.31774500  0.50000000  1
  O  O31  1  0.31774500  0.22968300  0.50000000  1
  O  O32  1  0.97881550  0.30451950  0.31872250  1
  O  O33  1  0.02118450  0.69548050  0.31872250  1
  O  O34  1  0.30451950  0.02118450  0.31872250  1
  O  O35  1  0.19548050  0.47881550  0.18127750  1
  O  O36  1  0.52118450  0.19548050  0.18127750  1
  O  O37  1  0.80451950  0.52118450  0.18127750  1
  O  O38  1  0.69548050  0.97881550  0.31872250  1
  O  O39  1  0.47881550  0.80451950  0.18127750  1
  O  O40  1  0.00000000  0.00000000  0.84412750  1
  O  O41  1  0.50000000  0.50000000  0.65587250  1
  O  O42  1  0.18225500  0.27031700  0.00000000  1
  O  O43  1  0.72968300  0.18225500  0.00000000  1
  O  O44  1  0.27031700  0.81774500  0.00000000  1
  O  O45  1  0.81774500  0.72968300  0.00000000  1
  O  O46  1  0.47881550  0.80451950  0.81872250  1
  O  O47  1  0.52118450  0.19548050  0.81872250  1
  O  O48  1  0.80451950  0.52118450  0.81872250  1
  O  O49  1  0.69548050  0.97881550  0.68127750  1
  O  O50  1  0.02118450  0.69548050  0.68127750  1
  O  O51  1  0.30451950  0.02118450  0.68127750  1
  O  O52  1  0.19548050  0.47881550  0.81872250  1
  O  O53  1  0.97881550  0.30451950  0.68127750  1
