# generated using pymatgen
data_Gd4Sb3
_symmetry_space_group_name_H-M   'P 1'
_cell_length_a   9.34474800
_cell_length_b   9.34474800
_cell_length_c   9.34474800
_cell_angle_alpha   90.00000000
_cell_angle_beta   90.00000000
_cell_angle_gamma   90.00000000
_symmetry_Int_Tables_number   1
_chemical_formula_structural   Gd4Sb3
_chemical_formula_sum   'Gd16 Sb12'
_cell_volume   816.02371966
_cell_formula_units_Z   4
loop_
 _symmetry_equiv_pos_site_id
 _symmetry_equiv_pos_as_xyz
  1  'x, y, z'
loop_
 _atom_site_type_symbol
 _atom_site_label
 _atom_site_symmetry_multiplicity
 _atom_site_fract_x
 _atom_site_fract_y
 _atom_site_fract_z
 _atom_site_occupancy
  Gd  Gd0  1  0.92638350  0.42638350  0.07361650  1
  Gd  Gd1  1  0.17638350  0.67638350  0.82361650  1
  Gd  Gd2  1  0.32361650  0.32361650  0.32361650  1
  Gd  Gd3  1  0.42638350  0.07361650  0.92638350  1
  Gd  Gd4  1  0.07361650  0.07361650  0.07361650  1
  Gd  Gd5  1  0.82361650  0.17638350  0.67638350  1
  Gd  Gd6  1  0.67638350  0.82361650  0.17638350  1
  Gd  Gd7  1  0.07361650  0.92638350  0.42638350  1
  Gd  Gd8  1  0.42638350  0.92638350  0.57361650  1
  Gd  Gd9  1  0.67638350  0.17638350  0.32361650  1
  Gd  Gd10  1  0.82361650  0.82361650  0.82361650  1
  Gd  Gd11  1  0.92638350  0.57361650  0.42638350  1
  Gd  Gd12  1  0.57361650  0.57361650  0.57361650  1
  Gd  Gd13  1  0.32361650  0.67638350  0.17638350  1
  Gd  Gd14  1  0.17638350  0.32361650  0.67638350  1
  Gd  Gd15  1  0.57361650  0.42638350  0.92638350  1
  Sb  Sb16  1  0.75000000  0.12500000  0.00000000  1
  Sb  Sb17  1  0.00000000  0.75000000  0.12500000  1
  Sb  Sb18  1  0.00000000  0.25000000  0.37500000  1
  Sb  Sb19  1  0.25000000  0.37500000  0.00000000  1
  Sb  Sb20  1  0.12500000  0.00000000  0.75000000  1
  Sb  Sb21  1  0.37500000  0.00000000  0.25000000  1
  Sb  Sb22  1  0.25000000  0.62500000  0.50000000  1
  Sb  Sb23  1  0.50000000  0.25000000  0.62500000  1
  Sb  Sb24  1  0.50000000  0.75000000  0.87500000  1
  Sb  Sb25  1  0.75000000  0.87500000  0.50000000  1
  Sb  Sb26  1  0.62500000  0.50000000  0.25000000  1
  Sb  Sb27  1  0.87500000  0.50000000  0.75000000  1
