# generated using pymatgen
data_LiVPO4F
_symmetry_space_group_name_H-M   'P 1'
_cell_length_a   5.23773483
_cell_length_b   5.39140384
_cell_length_c   7.42715305
_cell_angle_alpha   106.89238378
_cell_angle_beta   108.74272008
_cell_angle_gamma   97.80615714
_symmetry_Int_Tables_number   1
_chemical_formula_structural   LiVPO4F
_chemical_formula_sum   'Li2 V2 P2 O8 F2'
_cell_volume   183.86220695
_cell_formula_units_Z   2
loop_
 _symmetry_equiv_pos_site_id
 _symmetry_equiv_pos_as_xyz
  1  'x, y, z'
loop_
 _atom_site_type_symbol
 _atom_site_label
 _atom_site_symmetry_multiplicity
 _atom_site_fract_x
 _atom_site_fract_y
 _atom_site_fract_z
 _atom_site_occupancy
  Li  Li0  1  0.26994000  0.61576650  0.18759400  1
  Li  Li1  1  0.73006000  0.38423350  0.81240600  1
  V  V2  1  0.00000000  0.00000000  0.00000000  1
  V  V3  1  0.00000000  0.00000000  0.50000000  1
  P  P4  1  0.32246500  0.64078150  0.76283700  1
  P  P5  1  0.67753500  0.35921850  0.23716300  1
  O  O6  1  0.30680400  0.34144600  0.65642900  1
  O  O7  1  0.69319600  0.65855400  0.34357100  1
  O  O8  1  0.36781100  0.24884600  0.08655700  1
  O  O9  1  0.63218900  0.75115400  0.91344300  1
  O  O10  1  0.74906200  0.21404300  0.38897050  1
  O  O11  1  0.25093800  0.78595700  0.61102950  1
  O  O12  1  0.13030800  0.66575600  0.88854950  1
  O  O13  1  0.86969200  0.33424400  0.11145050  1
  F  F14  1  0.13026100  0.92648250  0.26258200  1
  F  F15  1  0.86973900  0.07351750  0.73741800  1
