# generated using pymatgen
data_UF4
_symmetry_space_group_name_H-M   'P 1'
_cell_length_a   12.88021000
_cell_length_b   10.85075400
_cell_length_c   8.43062968
_cell_angle_alpha   90.00000000
_cell_angle_beta   126.23555972
_cell_angle_gamma   90.00000000
_symmetry_Int_Tables_number   1
_chemical_formula_structural   UF4
_chemical_formula_sum   'U12 F48'
_cell_volume   950.38079113
_cell_formula_units_Z   12
loop_
 _symmetry_equiv_pos_site_id
 _symmetry_equiv_pos_as_xyz
  1  'x, y, z'
loop_
 _atom_site_type_symbol
 _atom_site_label
 _atom_site_symmetry_multiplicity
 _atom_site_fract_x
 _atom_site_fract_y
 _atom_site_fract_z
 _atom_site_occupancy
  U  U0  1  0.79596650  0.57197750  0.67030300  1
  U  U1  1  0.20403350  0.57197750  0.82969700  1
  U  U2  1  0.20403350  0.42802250  0.32969700  1
  U  U3  1  0.79596650  0.42802250  0.17030300  1
  U  U4  1  0.00000000  0.78725400  0.25000000  1
  U  U5  1  0.00000000  0.21274600  0.75000000  1
  U  U6  1  0.29596650  0.07197750  0.67030300  1
  U  U7  1  0.70403350  0.07197750  0.82969700  1
  U  U8  1  0.70403350  0.92802250  0.32969700  1
  U  U9  1  0.29596650  0.92802250  0.17030300  1
  U  U10  1  0.50000000  0.28725400  0.25000000  1
  U  U11  1  0.50000000  0.71274600  0.75000000  1
  F  F12  1  0.87630100  0.14984800  0.84817700  1
  F  F13  1  0.12369900  0.14984800  0.65182300  1
  F  F14  1  0.12369900  0.85015200  0.15182300  1
  F  F15  1  0.87630100  0.85015200  0.34817700  1
  F  F16  1  0.87881450  0.37615150  0.70937200  1
  F  F17  1  0.12118550  0.37615150  0.79062800  1
  F  F18  1  0.25000000  0.75000000  0.00000000  1
  F  F19  1  0.75000000  0.75000000  0.50000000  1
  F  F20  1  0.00000000  0.60095800  0.75000000  1
  F  F21  1  0.00000000  0.39904200  0.25000000  1
  F  F22  1  0.10493550  0.29463750  0.07294300  1
  F  F23  1  0.89506450  0.29463750  0.42705700  1
  F  F24  1  0.89506450  0.70536250  0.92705700  1
  F  F25  1  0.10493550  0.70536250  0.57294300  1
  F  F26  1  0.62203750  0.55468150  0.95479300  1
  F  F27  1  0.37796250  0.55468150  0.54520700  1
  F  F28  1  0.37796250  0.44531850  0.04520700  1
  F  F29  1  0.62203750  0.44531850  0.45479300  1
  F  F30  1  0.20787650  0.53070350  0.10445900  1
  F  F31  1  0.79212350  0.53070350  0.39554100  1
  F  F32  1  0.79212350  0.46929650  0.89554100  1
  F  F33  1  0.20787650  0.46929650  0.60445900  1
  F  F34  1  0.87881450  0.62384850  0.20937200  1
  F  F35  1  0.12118550  0.62384850  0.29062800  1
  F  F36  1  0.37630100  0.64984800  0.84817700  1
  F  F37  1  0.62369900  0.64984800  0.65182300  1
  F  F38  1  0.62369900  0.35015200  0.15182300  1
  F  F39  1  0.37630100  0.35015200  0.34817700  1
  F  F40  1  0.37881450  0.87615150  0.70937200  1
  F  F41  1  0.62118550  0.87615150  0.79062800  1
  F  F42  1  0.75000000  0.25000000  0.00000000  1
  F  F43  1  0.25000000  0.25000000  0.50000000  1
  F  F44  1  0.50000000  0.10095800  0.75000000  1
  F  F45  1  0.50000000  0.89904200  0.25000000  1
  F  F46  1  0.60493550  0.79463750  0.07294300  1
  F  F47  1  0.39506450  0.79463750  0.42705700  1
  F  F48  1  0.39506450  0.20536250  0.92705700  1
  F  F49  1  0.60493550  0.20536250  0.57294300  1
  F  F50  1  0.12203750  0.05468150  0.95479300  1
  F  F51  1  0.87796250  0.05468150  0.54520700  1
  F  F52  1  0.87796250  0.94531850  0.04520700  1
  F  F53  1  0.12203750  0.94531850  0.45479300  1
  F  F54  1  0.70787650  0.03070350  0.10445900  1
  F  F55  1  0.29212350  0.03070350  0.39554100  1
  F  F56  1  0.29212350  0.96929650  0.89554100  1
  F  F57  1  0.70787650  0.96929650  0.60445900  1
  F  F58  1  0.37881450  0.12384850  0.20937200  1
  F  F59  1  0.62118550  0.12384850  0.29062800  1
