# generated using pymatgen
data_Tb4Sb3
_symmetry_space_group_name_H-M   'P 1'
_cell_length_a   9.22139800
_cell_length_b   9.22139800
_cell_length_c   9.22139800
_cell_angle_alpha   90.00000000
_cell_angle_beta   90.00000000
_cell_angle_gamma   90.00000000
_symmetry_Int_Tables_number   1
_chemical_formula_structural   Tb4Sb3
_chemical_formula_sum   'Tb16 Sb12'
_cell_volume   784.13402729
_cell_formula_units_Z   4
loop_
 _symmetry_equiv_pos_site_id
 _symmetry_equiv_pos_as_xyz
  1  'x, y, z'
loop_
 _atom_site_type_symbol
 _atom_site_label
 _atom_site_symmetry_multiplicity
 _atom_site_fract_x
 _atom_site_fract_y
 _atom_site_fract_z
 _atom_site_occupancy
  Tb  Tb0  1  0.92705000  0.42705000  0.07295000  1
  Tb  Tb1  1  0.17705000  0.67705000  0.82295000  1
  Tb  Tb2  1  0.32295000  0.32295000  0.32295000  1
  Tb  Tb3  1  0.42705000  0.07295000  0.92705000  1
  Tb  Tb4  1  0.07295000  0.07295000  0.07295000  1
  Tb  Tb5  1  0.82295000  0.17705000  0.67705000  1
  Tb  Tb6  1  0.67705000  0.82295000  0.17705000  1
  Tb  Tb7  1  0.07295000  0.92705000  0.42705000  1
  Tb  Tb8  1  0.42705000  0.92705000  0.57295000  1
  Tb  Tb9  1  0.67705000  0.17705000  0.32295000  1
  Tb  Tb10  1  0.82295000  0.82295000  0.82295000  1
  Tb  Tb11  1  0.92705000  0.57295000  0.42705000  1
  Tb  Tb12  1  0.57295000  0.57295000  0.57295000  1
  Tb  Tb13  1  0.32295000  0.67705000  0.17705000  1
  Tb  Tb14  1  0.17705000  0.32295000  0.67705000  1
  Tb  Tb15  1  0.57295000  0.42705000  0.92705000  1
  Sb  Sb16  1  0.75000000  0.12500000  0.00000000  1
  Sb  Sb17  1  0.00000000  0.75000000  0.12500000  1
  Sb  Sb18  1  0.00000000  0.25000000  0.37500000  1
  Sb  Sb19  1  0.25000000  0.37500000  0.00000000  1
  Sb  Sb20  1  0.12500000  0.00000000  0.75000000  1
  Sb  Sb21  1  0.37500000  0.00000000  0.25000000  1
  Sb  Sb22  1  0.25000000  0.62500000  0.50000000  1
  Sb  Sb23  1  0.50000000  0.25000000  0.62500000  1
  Sb  Sb24  1  0.50000000  0.75000000  0.87500000  1
  Sb  Sb25  1  0.75000000  0.87500000  0.50000000  1
  Sb  Sb26  1  0.62500000  0.50000000  0.25000000  1
  Sb  Sb27  1  0.87500000  0.50000000  0.75000000  1
