# generated using pymatgen
data_Ba7(BIr)12
_symmetry_space_group_name_H-M   'P 1'
_cell_length_a   15.45036428
_cell_length_b   15.45036428
_cell_length_c   8.42902705
_cell_angle_alpha   90.00000000
_cell_angle_beta   90.00000000
_cell_angle_gamma   120.00000000
_symmetry_Int_Tables_number   1
_chemical_formula_structural   Ba7(BIr)12
_chemical_formula_sum   'Ba21 B36 Ir36'
_cell_volume   1742.55111429
_cell_formula_units_Z   3
loop_
 _symmetry_equiv_pos_site_id
 _symmetry_equiv_pos_as_xyz
  1  'x, y, z'
loop_
 _atom_site_type_symbol
 _atom_site_label
 _atom_site_symmetry_multiplicity
 _atom_site_fract_x
 _atom_site_fract_y
 _atom_site_fract_z
 _atom_site_occupancy
  Ba  Ba0  1  0.23213200  0.46426400  0.47525800  1
  Ba  Ba1  1  0.89879867  0.10120133  0.80859133  1
  Ba  Ba2  1  0.53573600  0.76786800  0.47525800  1
  Ba  Ba3  1  0.79759733  0.89879867  0.19140867  1
  Ba  Ba4  1  0.10120133  0.20240267  0.19140867  1
  Ba  Ba5  1  0.76786800  0.23213200  0.52474200  1
  Ba  Ba6  1  0.00000000  0.00000000  0.50000000  1
  Ba  Ba7  1  0.89879867  0.79759733  0.80859133  1
  Ba  Ba8  1  0.56546533  0.43453467  0.14192467  1
  Ba  Ba9  1  0.20240267  0.10120133  0.80859133  1
  Ba  Ba10  1  0.46426400  0.23213200  0.52474200  1
  Ba  Ba11  1  0.76786800  0.53573600  0.52474200  1
  Ba  Ba12  1  0.43453467  0.56546533  0.85807533  1
  Ba  Ba13  1  0.66666667  0.33333333  0.83333333  1
  Ba  Ba14  1  0.56546533  0.13093067  0.14192467  1
  Ba  Ba15  1  0.23213200  0.76786800  0.47525800  1
  Ba  Ba16  1  0.86906933  0.43453467  0.14192467  1
  Ba  Ba17  1  0.13093067  0.56546533  0.85807533  1
  Ba  Ba18  1  0.43453467  0.86906933  0.85807533  1
  Ba  Ba19  1  0.10120133  0.89879867  0.19140867  1
  Ba  Ba20  1  0.33333333  0.66666667  0.16666667  1
  B  B21  1  0.56036333  0.89369667  0.16666667  1
  B  B22  1  0.66666667  0.10630333  0.83333333  1
  B  B23  1  0.77297000  1.00000000  0.50000000  1
  B  B24  1  0.10630333  0.43963667  0.16666667  1
  B  B25  1  0.00000000  0.22703000  0.50000000  1
  B  B26  1  0.89369667  0.33333333  0.83333333  1
  B  B27  1  0.77412333  0.10745667  0.16666667  1
  B  B28  1  0.66666667  0.89254333  0.83333333  1
  B  B29  1  0.55921000  0.00000000  0.50000000  1
  B  B30  1  0.89254333  0.22587667  0.16666667  1
  B  B31  1  1.00000000  0.44079000  0.50000000  1
  B  B32  1  0.10745667  0.33333333  0.83333333  1
  B  B33  1  0.22703000  0.22703000  0.50000000  1
  B  B34  1  0.33333333  0.43963667  0.16666667  1
  B  B35  1  0.43963667  0.33333333  0.83333333  1
  B  B36  1  0.77297000  0.77297000  0.50000000  1
  B  B37  1  0.66666667  0.56036333  0.83333333  1
  B  B38  1  0.56036333  0.66666667  0.16666667  1
  B  B39  1  0.44079000  0.44079000  0.50000000  1
  B  B40  1  0.33333333  0.22587667  0.16666667  1
  B  B41  1  0.22587667  0.33333333  0.83333333  1
  B  B42  1  0.55921000  0.55921000  0.50000000  1
  B  B43  1  0.66666667  0.77412333  0.83333333  1
  B  B44  1  0.77412333  0.66666667  0.16666667  1
  B  B45  1  0.89369667  0.56036333  0.83333333  1
  B  B46  1  0.00000000  0.77297000  0.50000000  1
  B  B47  1  0.10630333  0.66666667  0.16666667  1
  B  B48  1  0.43963667  0.10630333  0.83333333  1
  B  B49  1  0.33333333  0.89369667  0.16666667  1
  B  B50  1  0.22703000  0.00000000  0.50000000  1
  B  B51  1  0.10745667  0.77412333  0.83333333  1
  B  B52  1  0.00000000  0.55921000  0.50000000  1
  B  B53  1  0.89254333  0.66666667  0.16666667  1
  B  B54  1  0.22587667  0.89254333  0.83333333  1
  B  B55  1  0.33333333  0.10745667  0.16666667  1
  B  B56  1  0.44079000  1.00000000  0.50000000  1
  Ir  Ir57  1  0.66376533  0.99709867  0.66666667  1
  Ir  Ir58  1  0.66666667  0.00290133  0.33333333  1
  Ir  Ir59  1  0.66956800  1.00000000  0.00000000  1
  Ir  Ir60  1  0.00290133  0.33623467  0.66666667  1
  Ir  Ir61  1  0.00000000  0.33043200  0.00000000  1
  Ir  Ir62  1  0.99709867  0.33333333  0.33333333  1
  Ir  Ir63  1  0.20688433  0.41376867  0.02902267  1
  Ir  Ir64  1  0.87355100  0.12644900  0.36235600  1
  Ir  Ir65  1  0.58623133  0.79311567  0.02902267  1
  Ir  Ir66  1  0.74710200  0.87355100  0.63764400  1
  Ir  Ir67  1  0.12644900  0.25289800  0.63764400  1
  Ir  Ir68  1  0.79311567  0.20688433  0.97097733  1
  Ir  Ir69  1  0.33043200  0.33043200  0.00000000  1
  Ir  Ir70  1  0.33333333  0.33623467  0.66666667  1
  Ir  Ir71  1  0.33623467  0.33333333  0.33333333  1
  Ir  Ir72  1  0.66956800  0.66956800  0.00000000  1
  Ir  Ir73  1  0.66666667  0.66376533  0.33333333  1
  Ir  Ir74  1  0.66376533  0.66666667  0.66666667  1
  Ir  Ir75  1  0.87355100  0.74710200  0.36235600  1
  Ir  Ir76  1  0.54021767  0.45978233  0.69568933  1
  Ir  Ir77  1  0.25289800  0.12644900  0.36235600  1
  Ir  Ir78  1  0.41376867  0.20688433  0.97097733  1
  Ir  Ir79  1  0.79311567  0.58623133  0.97097733  1
  Ir  Ir80  1  0.45978233  0.54021767  0.30431067  1
  Ir  Ir81  1  0.99709867  0.66376533  0.33333333  1
  Ir  Ir82  1  0.00000000  0.66956800  0.00000000  1
  Ir  Ir83  1  0.00290133  0.66666667  0.66666667  1
  Ir  Ir84  1  0.33623467  0.00290133  0.33333333  1
  Ir  Ir85  1  0.33333333  0.99709867  0.66666667  1
  Ir  Ir86  1  0.33043200  0.00000000  0.00000000  1
  Ir  Ir87  1  0.54021767  0.08043533  0.69568933  1
  Ir  Ir88  1  0.20688433  0.79311567  0.02902267  1
  Ir  Ir89  1  0.91956467  0.45978233  0.69568933  1
  Ir  Ir90  1  0.08043533  0.54021767  0.30431067  1
  Ir  Ir91  1  0.45978233  0.91956467  0.30431067  1
  Ir  Ir92  1  0.12644900  0.87355100  0.63764400  1
