# generated using pymatgen
data_Sr2Ru3O10
_symmetry_space_group_name_H-M   'P 1'
_cell_length_a   11.40594200
_cell_length_b   5.59356800
_cell_length_c   6.66170619
_cell_angle_alpha   90.00000000
_cell_angle_beta   102.65852349
_cell_angle_gamma   90.00000000
_symmetry_Int_Tables_number   1
_chemical_formula_structural   Sr2Ru3O10
_chemical_formula_sum   'Sr4 Ru6 O20'
_cell_volume   414.68558460
_cell_formula_units_Z   2
loop_
 _symmetry_equiv_pos_site_id
 _symmetry_equiv_pos_as_xyz
  1  'x, y, z'
loop_
 _atom_site_type_symbol
 _atom_site_label
 _atom_site_symmetry_multiplicity
 _atom_site_fract_x
 _atom_site_fract_y
 _atom_site_fract_z
 _atom_site_occupancy
  Sr  Sr0  1  0.67764400  0.00000000  0.16321600  1
  Sr  Sr1  1  0.82235600  0.50000000  0.83678400  1
  Sr  Sr2  1  0.17764400  0.50000000  0.16321600  1
  Sr  Sr3  1  0.32235600  0.00000000  0.83678400  1
  Ru  Ru4  1  0.00000000  0.77201000  0.50000000  1
  Ru  Ru5  1  0.00000000  0.22799000  0.50000000  1
  Ru  Ru6  1  0.00000000  0.00000000  0.00000000  1
  Ru  Ru7  1  0.50000000  0.27201000  0.50000000  1
  Ru  Ru8  1  0.50000000  0.72799000  0.50000000  1
  Ru  Ru9  1  0.50000000  0.50000000  0.00000000  1
  O  O10  1  0.86539800  0.00000000  0.44619800  1
  O  O11  1  0.63460200  0.50000000  0.55380200  1
  O  O12  1  0.88939100  0.50000000  0.46893400  1
  O  O13  1  0.61060900  0.00000000  0.53106600  1
  O  O14  1  0.66984400  0.50000000  0.06019000  1
  O  O15  1  0.50026050  0.74492450  0.79557400  1
  O  O16  1  0.99973950  0.24492450  0.20442600  1
  O  O17  1  0.99973950  0.75507550  0.20442600  1
  O  O18  1  0.50026050  0.25507550  0.79557400  1
  O  O19  1  0.83015600  0.00000000  0.93981000  1
  O  O20  1  0.36539800  0.50000000  0.44619800  1
  O  O21  1  0.13460200  0.00000000  0.55380200  1
  O  O22  1  0.38939100  0.00000000  0.46893400  1
  O  O23  1  0.11060900  0.50000000  0.53106600  1
  O  O24  1  0.16984400  0.00000000  0.06019000  1
  O  O25  1  0.00026050  0.24492450  0.79557400  1
  O  O26  1  0.49973950  0.74492450  0.20442600  1
  O  O27  1  0.49973950  0.25507550  0.20442600  1
  O  O28  1  0.00026050  0.75507550  0.79557400  1
  O  O29  1  0.33015600  0.50000000  0.93981000  1
