# generated using pymatgen
data_Cr2TeO6
_symmetry_space_group_name_H-M   'P 1'
_cell_length_a   4.63222250
_cell_length_b   4.63222250
_cell_length_c   9.19868300
_cell_angle_alpha   90.00000000
_cell_angle_beta   90.00000000
_cell_angle_gamma   90.00000000
_symmetry_Int_Tables_number   1
_chemical_formula_structural   Cr2TeO6
_chemical_formula_sum   'Cr4 Te2 O12'
_cell_volume   197.38060516
_cell_formula_units_Z   2
loop_
 _symmetry_equiv_pos_site_id
 _symmetry_equiv_pos_as_xyz
  1  'x, y, z'
loop_
 _atom_site_type_symbol
 _atom_site_label
 _atom_site_symmetry_multiplicity
 _atom_site_fract_x
 _atom_site_fract_y
 _atom_site_fract_z
 _atom_site_occupancy
  Cr  Cr0  1  0.50000000  0.50000000  0.16532100  1
  Cr  Cr1  1  0.00000000  0.00000000  0.66532100  1
  Cr  Cr2  1  0.00000000  0.00000000  0.33467900  1
  Cr  Cr3  1  0.50000000  0.50000000  0.83467900  1
  Te  Te4  1  0.00000000  0.00000000  0.00000000  1
  Te  Te5  1  0.50000000  0.50000000  0.50000000  1
  O  O6  1  0.30026300  0.30026300  0.00000000  1
  O  O7  1  0.19973700  0.80026300  0.50000000  1
  O  O8  1  0.80026300  0.19973700  0.50000000  1
  O  O9  1  0.69973700  0.69973700  0.00000000  1
  O  O10  1  0.30847350  0.30847350  0.33696000  1
  O  O11  1  0.19152650  0.80847350  0.16304000  1
  O  O12  1  0.19152650  0.80847350  0.83696000  1
  O  O13  1  0.30847350  0.30847350  0.66304000  1
  O  O14  1  0.80847350  0.19152650  0.16304000  1
  O  O15  1  0.69152650  0.69152650  0.33696000  1
  O  O16  1  0.69152650  0.69152650  0.66304000  1
  O  O17  1  0.80847350  0.19152650  0.83696000  1
