# generated using pymatgen
data_Sr2InPd2
_symmetry_space_group_name_H-M   'P 1'
_cell_length_a   10.59306200
_cell_length_b   6.09744000
_cell_length_c   8.41900281
_cell_angle_alpha   90.00000000
_cell_angle_beta   103.73560810
_cell_angle_gamma   90.00000000
_symmetry_Int_Tables_number   1
_chemical_formula_structural   Sr2InPd2
_chemical_formula_sum   'Sr8 In4 Pd8'
_cell_volume   528.23671355
_cell_formula_units_Z   4
loop_
 _symmetry_equiv_pos_site_id
 _symmetry_equiv_pos_as_xyz
  1  'x, y, z'
loop_
 _atom_site_type_symbol
 _atom_site_label
 _atom_site_symmetry_multiplicity
 _atom_site_fract_x
 _atom_site_fract_y
 _atom_site_fract_z
 _atom_site_occupancy
  Sr  Sr0  1  0.64857850  0.13959250  0.64787100  1
  Sr  Sr1  1  0.85142150  0.63959250  0.85212900  1
  Sr  Sr2  1  0.85142150  0.36040750  0.35212900  1
  Sr  Sr3  1  0.64857850  0.86040750  0.14787100  1
  Sr  Sr4  1  0.14857850  0.63959250  0.64787100  1
  Sr  Sr5  1  0.35142150  0.13959250  0.85212900  1
  Sr  Sr6  1  0.35142150  0.86040750  0.35212900  1
  Sr  Sr7  1  0.14857850  0.36040750  0.14787100  1
  In  In8  1  0.00000000  0.13508000  0.75000000  1
  In  In9  1  0.00000000  0.86492000  0.25000000  1
  In  In10  1  0.50000000  0.63508000  0.75000000  1
  In  In11  1  0.50000000  0.36492000  0.25000000  1
  Pd  Pd12  1  0.86626400  0.13613100  0.99697100  1
  Pd  Pd13  1  0.63373600  0.63613100  0.50302900  1
  Pd  Pd14  1  0.63373600  0.36386900  0.00302900  1
  Pd  Pd15  1  0.86626400  0.86386900  0.49697100  1
  Pd  Pd16  1  0.36626400  0.63613100  0.99697100  1
  Pd  Pd17  1  0.13373600  0.13613100  0.50302900  1
  Pd  Pd18  1  0.13373600  0.86386900  0.00302900  1
  Pd  Pd19  1  0.36626400  0.36386900  0.49697100  1
