# generated using pymatgen
data_Na3B20
_symmetry_space_group_name_H-M   'P 1'
_cell_length_a   5.68972800
_cell_length_b   18.69634600
_cell_length_c   4.14890800
_cell_angle_alpha   90.00000000
_cell_angle_beta   90.00000000
_cell_angle_gamma   90.00000000
_symmetry_Int_Tables_number   1
_chemical_formula_structural   Na3B20
_chemical_formula_sum   'Na6 B40'
_cell_volume   441.34889802
_cell_formula_units_Z   2
loop_
 _symmetry_equiv_pos_site_id
 _symmetry_equiv_pos_as_xyz
  1  'x, y, z'
loop_
 _atom_site_type_symbol
 _atom_site_label
 _atom_site_symmetry_multiplicity
 _atom_site_fract_x
 _atom_site_fract_y
 _atom_site_fract_z
 _atom_site_occupancy
  Na  Na0  1  0.50000000  0.13552300  0.00000000  1
  Na  Na1  1  0.00000000  0.36447700  0.00000000  1
  Na  Na2  1  0.00000000  0.00000000  0.00000000  1
  Na  Na3  1  0.00000000  0.63552300  0.00000000  1
  Na  Na4  1  0.50000000  0.86447700  0.00000000  1
  Na  Na5  1  0.50000000  0.50000000  0.00000000  1
  B  B6  1  0.00000000  0.25596900  0.50000000  1
  B  B7  1  0.50000000  0.24403100  0.50000000  1
  B  B8  1  0.72886400  0.29754200  0.50000000  1
  B  B9  1  0.50000000  0.32597900  0.20806700  1
  B  B10  1  0.00000000  0.17402100  0.20806700  1
  B  B11  1  0.00000000  0.17402100  0.79193300  1
  B  B12  1  0.50000000  0.32597900  0.79193300  1
  B  B13  1  0.50000000  0.00000000  0.20165200  1
  B  B14  1  0.50000000  0.00000000  0.79834800  1
  B  B15  1  0.15520750  0.45287950  0.50000000  1
  B  B16  1  0.34479250  0.04712050  0.50000000  1
  B  B17  1  0.65520750  0.04712050  0.50000000  1
  B  B18  1  0.84479250  0.45287950  0.50000000  1
  B  B19  1  0.34996900  0.38467400  0.50000000  1
  B  B20  1  0.15003100  0.11532600  0.50000000  1
  B  B21  1  0.84996900  0.11532600  0.50000000  1
  B  B22  1  0.65003100  0.38467400  0.50000000  1
  B  B23  1  0.27113600  0.29754200  0.50000000  1
  B  B24  1  0.22886400  0.20245800  0.50000000  1
  B  B25  1  0.77113600  0.20245800  0.50000000  1
  B  B26  1  0.50000000  0.75596900  0.50000000  1
  B  B27  1  0.00000000  0.74403100  0.50000000  1
  B  B28  1  0.22886400  0.79754200  0.50000000  1
  B  B29  1  0.00000000  0.82597900  0.20806700  1
  B  B30  1  0.50000000  0.67402100  0.20806700  1
  B  B31  1  0.50000000  0.67402100  0.79193300  1
  B  B32  1  0.00000000  0.82597900  0.79193300  1
  B  B33  1  0.00000000  0.50000000  0.20165200  1
  B  B34  1  0.00000000  0.50000000  0.79834800  1
  B  B35  1  0.65520750  0.95287950  0.50000000  1
  B  B36  1  0.84479250  0.54712050  0.50000000  1
  B  B37  1  0.15520750  0.54712050  0.50000000  1
  B  B38  1  0.34479250  0.95287950  0.50000000  1
  B  B39  1  0.84996900  0.88467400  0.50000000  1
  B  B40  1  0.65003100  0.61532600  0.50000000  1
  B  B41  1  0.34996900  0.61532600  0.50000000  1
  B  B42  1  0.15003100  0.88467400  0.50000000  1
  B  B43  1  0.77113600  0.79754200  0.50000000  1
  B  B44  1  0.72886400  0.70245800  0.50000000  1
  B  B45  1  0.27113600  0.70245800  0.50000000  1
