# generated using pymatgen
data_Ca11Bi10
_symmetry_space_group_name_H-M   'P 1'
_cell_length_a   12.37299600
_cell_length_b   12.37299600
_cell_length_c   17.88094400
_cell_angle_alpha   90.00000000
_cell_angle_beta   90.00000000
_cell_angle_gamma   90.00000000
_symmetry_Int_Tables_number   1
_chemical_formula_structural   Ca11Bi10
_chemical_formula_sum   'Ca44 Bi40'
_cell_volume   2737.41213462
_cell_formula_units_Z   4
loop_
 _symmetry_equiv_pos_site_id
 _symmetry_equiv_pos_as_xyz
  1  'x, y, z'
loop_
 _atom_site_type_symbol
 _atom_site_label
 _atom_site_symmetry_multiplicity
 _atom_site_fract_x
 _atom_site_fract_y
 _atom_site_fract_z
 _atom_site_occupancy
  Ca  Ca0  1  0.00000000  0.25066350  0.19075050  1
  Ca  Ca1  1  0.74933650  0.00000000  0.19075050  1
  Ca  Ca2  1  0.25066350  0.00000000  0.19075050  1
  Ca  Ca3  1  0.50000000  0.24933650  0.30924950  1
  Ca  Ca4  1  0.50000000  0.75066350  0.30924950  1
  Ca  Ca5  1  0.75066350  0.50000000  0.30924950  1
  Ca  Ca6  1  0.24933650  0.50000000  0.30924950  1
  Ca  Ca7  1  0.00000000  0.74933650  0.19075050  1
  Ca  Ca8  1  0.16007900  0.16007900  0.00000000  1
  Ca  Ca9  1  0.83992100  0.16007900  0.00000000  1
  Ca  Ca10  1  0.16007900  0.83992100  0.00000000  1
  Ca  Ca11  1  0.83992100  0.83992100  0.00000000  1
  Ca  Ca12  1  0.00000000  0.00000000  0.33564100  1
  Ca  Ca13  1  0.50000000  0.50000000  0.16435900  1
  Ca  Ca14  1  0.00000000  0.34144850  0.39646450  1
  Ca  Ca15  1  0.65855150  0.00000000  0.39646450  1
  Ca  Ca16  1  0.34144850  0.00000000  0.39646450  1
  Ca  Ca17  1  0.50000000  0.15855150  0.10353550  1
  Ca  Ca18  1  0.50000000  0.84144850  0.10353550  1
  Ca  Ca19  1  0.84144850  0.50000000  0.10353550  1
  Ca  Ca20  1  0.15855150  0.50000000  0.10353550  1
  Ca  Ca21  1  0.00000000  0.65855150  0.39646450  1
  Ca  Ca22  1  0.50000000  0.75066350  0.69075050  1
  Ca  Ca23  1  0.24933650  0.50000000  0.69075050  1
  Ca  Ca24  1  0.75066350  0.50000000  0.69075050  1
  Ca  Ca25  1  0.00000000  0.74933650  0.80924950  1
  Ca  Ca26  1  0.00000000  0.25066350  0.80924950  1
  Ca  Ca27  1  0.25066350  0.00000000  0.80924950  1
  Ca  Ca28  1  0.74933650  0.00000000  0.80924950  1
  Ca  Ca29  1  0.50000000  0.24933650  0.69075050  1
  Ca  Ca30  1  0.66007900  0.66007900  0.50000000  1
  Ca  Ca31  1  0.33992100  0.66007900  0.50000000  1
  Ca  Ca32  1  0.66007900  0.33992100  0.50000000  1
  Ca  Ca33  1  0.33992100  0.33992100  0.50000000  1
  Ca  Ca34  1  0.50000000  0.50000000  0.83564100  1
  Ca  Ca35  1  0.00000000  0.00000000  0.66435900  1
  Ca  Ca36  1  0.50000000  0.84144850  0.89646450  1
  Ca  Ca37  1  0.15855150  0.50000000  0.89646450  1
  Ca  Ca38  1  0.84144850  0.50000000  0.89646450  1
  Ca  Ca39  1  0.00000000  0.65855150  0.60353550  1
  Ca  Ca40  1  0.00000000  0.34144850  0.60353550  1
  Ca  Ca41  1  0.34144850  0.00000000  0.60353550  1
  Ca  Ca42  1  0.65855150  0.00000000  0.60353550  1
  Ca  Ca43  1  0.50000000  0.15855150  0.89646450  1
  Bi  Bi44  1  0.34775400  0.00000000  0.00000000  1
  Bi  Bi45  1  0.00000000  0.34775400  0.00000000  1
  Bi  Bi46  1  0.00000000  0.65224600  0.00000000  1
  Bi  Bi47  1  0.65224600  0.00000000  0.00000000  1
  Bi  Bi48  1  0.00000000  0.00000000  0.12802300  1
  Bi  Bi49  1  0.50000000  0.50000000  0.37197700  1
  Bi  Bi50  1  0.36911900  0.36911900  0.00000000  1
  Bi  Bi51  1  0.63088100  0.36911900  0.00000000  1
  Bi  Bi52  1  0.36911900  0.63088100  0.00000000  1
  Bi  Bi53  1  0.63088100  0.63088100  0.00000000  1
  Bi  Bi54  1  0.00000000  0.50000000  0.25000000  1
  Bi  Bi55  1  0.50000000  0.00000000  0.25000000  1
  Bi  Bi56  1  0.20449700  0.20449700  0.32746100  1
  Bi  Bi57  1  0.79550300  0.20449700  0.32746100  1
  Bi  Bi58  1  0.20449700  0.79550300  0.32746100  1
  Bi  Bi59  1  0.70449700  0.29550300  0.17253900  1
  Bi  Bi60  1  0.29550300  0.70449700  0.17253900  1
  Bi  Bi61  1  0.70449700  0.70449700  0.17253900  1
  Bi  Bi62  1  0.29550300  0.29550300  0.17253900  1
  Bi  Bi63  1  0.79550300  0.79550300  0.32746100  1
  Bi  Bi64  1  0.84775400  0.50000000  0.50000000  1
  Bi  Bi65  1  0.50000000  0.84775400  0.50000000  1
  Bi  Bi66  1  0.50000000  0.15224600  0.50000000  1
  Bi  Bi67  1  0.15224600  0.50000000  0.50000000  1
  Bi  Bi68  1  0.50000000  0.50000000  0.62802300  1
  Bi  Bi69  1  0.00000000  0.00000000  0.87197700  1
  Bi  Bi70  1  0.86911900  0.86911900  0.50000000  1
  Bi  Bi71  1  0.13088100  0.86911900  0.50000000  1
  Bi  Bi72  1  0.86911900  0.13088100  0.50000000  1
  Bi  Bi73  1  0.13088100  0.13088100  0.50000000  1
  Bi  Bi74  1  0.50000000  0.00000000  0.75000000  1
  Bi  Bi75  1  0.00000000  0.50000000  0.75000000  1
  Bi  Bi76  1  0.70449700  0.70449700  0.82746100  1
  Bi  Bi77  1  0.29550300  0.70449700  0.82746100  1
  Bi  Bi78  1  0.70449700  0.29550300  0.82746100  1
  Bi  Bi79  1  0.20449700  0.79550300  0.67253900  1
  Bi  Bi80  1  0.79550300  0.20449700  0.67253900  1
  Bi  Bi81  1  0.20449700  0.20449700  0.67253900  1
  Bi  Bi82  1  0.79550300  0.79550300  0.67253900  1
  Bi  Bi83  1  0.29550300  0.29550300  0.82746100  1
