# generated using pymatgen
data_CoH4(CO3)2
_symmetry_space_group_name_H-M   'P 1'
_cell_length_a   12.56029086
_cell_length_b   5.51535643
_cell_length_c   9.80451355
_cell_angle_alpha   90.00000000
_cell_angle_beta   128.73623741
_cell_angle_gamma   90.00000000
_symmetry_Int_Tables_number   1
_chemical_formula_structural   CoH4(CO3)2
_chemical_formula_sum   'Co4 H16 C8 O24'
_cell_volume   529.80166019
_cell_formula_units_Z   4
loop_
 _symmetry_equiv_pos_site_id
 _symmetry_equiv_pos_as_xyz
  1  'x, y, z'
loop_
 _atom_site_type_symbol
 _atom_site_label
 _atom_site_symmetry_multiplicity
 _atom_site_fract_x
 _atom_site_fract_y
 _atom_site_fract_z
 _atom_site_occupancy
  Co  Co0  1  0.00000000  0.58065200  0.25000000  1
  Co  Co1  1  0.00000000  0.41934800  0.75000000  1
  Co  Co2  1  0.50000000  0.08065200  0.25000000  1
  Co  Co3  1  0.50000000  0.91934800  0.75000000  1
  H  H4  1  0.85048250  0.65080850  0.35908800  1
  H  H5  1  0.64951750  0.15080850  0.14091200  1
  H  H6  1  0.35048250  0.84919150  0.85908800  1
  H  H7  1  0.14951750  0.34919150  0.64091200  1
  H  H8  1  0.74495250  0.61470550  0.14784900  1
  H  H9  1  0.75504750  0.11470550  0.35215100  1
  H  H10  1  0.25504750  0.38529450  0.85215100  1
  H  H11  1  0.24495250  0.88529450  0.64784900  1
  H  H12  1  0.35048250  0.15080850  0.35908800  1
  H  H13  1  0.14951750  0.65080850  0.14091200  1
  H  H14  1  0.85048250  0.34919150  0.85908800  1
  H  H15  1  0.64951750  0.84919150  0.64091200  1
  H  H16  1  0.24495250  0.11470550  0.14784900  1
  H  H17  1  0.25504750  0.61470550  0.35215100  1
  H  H18  1  0.75504750  0.88529450  0.85215100  1
  H  H19  1  0.74495250  0.38529450  0.64784900  1
  C  C20  1  0.05149050  0.91890850  0.85209800  1
  C  C21  1  0.94850950  0.08109150  0.14790200  1
  C  C22  1  0.05149050  0.08109150  0.35209800  1
  C  C23  1  0.94850950  0.91890850  0.64790200  1
  C  C24  1  0.55149050  0.41890850  0.85209800  1
  C  C25  1  0.44850950  0.58109150  0.14790200  1
  C  C26  1  0.55149050  0.58109150  0.35209800  1
  C  C27  1  0.44850950  0.41890850  0.64790200  1
  O  O28  1  0.08909000  0.28575700  0.42739100  1
  O  O29  1  0.08909000  0.71424300  0.92739100  1
  O  O30  1  0.91091000  0.28575700  0.07260900  1
  O  O31  1  0.91091000  0.71424300  0.57260900  1
  O  O32  1  0.83819100  0.58033200  0.25695900  1
  O  O33  1  0.66180900  0.08033200  0.24304100  1
  O  O34  1  0.33819100  0.91966800  0.75695900  1
  O  O35  1  0.16180900  0.41966800  0.74304100  1
  O  O36  1  0.90931200  0.87702200  0.07122600  1
  O  O37  1  0.09068800  0.87702200  0.42877400  1
  O  O38  1  0.09068800  0.12297800  0.92877400  1
  O  O39  1  0.90931200  0.12297800  0.57122600  1
  O  O40  1  0.58909000  0.78575700  0.42739100  1
  O  O41  1  0.58909000  0.21424300  0.92739100  1
  O  O42  1  0.41091000  0.78575700  0.07260900  1
  O  O43  1  0.41091000  0.21424300  0.57260900  1
  O  O44  1  0.33819100  0.08033200  0.25695900  1
  O  O45  1  0.16180900  0.58033200  0.24304100  1
  O  O46  1  0.83819100  0.41966800  0.75695900  1
  O  O47  1  0.66180900  0.91966800  0.74304100  1
  O  O48  1  0.40931200  0.37702200  0.07122600  1
  O  O49  1  0.59068800  0.37702200  0.42877400  1
  O  O50  1  0.59068800  0.62297800  0.92877400  1
  O  O51  1  0.40931200  0.62297800  0.57122600  1
