# generated using pymatgen
data_MoPb2O5
_symmetry_space_group_name_H-M   'P 1'
_cell_length_a   14.38729400
_cell_length_b   5.93187800
_cell_length_c   7.50007142
_cell_angle_alpha   90.00000000
_cell_angle_beta   112.23352878
_cell_angle_gamma   90.00000000
_symmetry_Int_Tables_number   1
_chemical_formula_structural   MoPb2O5
_chemical_formula_sum   'Mo4 Pb8 O20'
_cell_volume   592.49298613
_cell_formula_units_Z   4
loop_
 _symmetry_equiv_pos_site_id
 _symmetry_equiv_pos_as_xyz
  1  'x, y, z'
loop_
 _atom_site_type_symbol
 _atom_site_label
 _atom_site_symmetry_multiplicity
 _atom_site_fract_x
 _atom_site_fract_y
 _atom_site_fract_z
 _atom_site_occupancy
  Mo  Mo0  1  0.17032400  0.00000000  0.65924700  1
  Mo  Mo1  1  0.32967600  0.50000000  0.34075300  1
  Mo  Mo2  1  0.67032400  0.50000000  0.65924700  1
  Mo  Mo3  1  0.82967600  0.00000000  0.34075300  1
  Pb  Pb4  1  0.49091400  0.00000000  0.75114200  1
  Pb  Pb5  1  0.00908600  0.50000000  0.24885800  1
  Pb  Pb6  1  0.36483400  0.50000000  0.88791900  1
  Pb  Pb7  1  0.13516600  0.00000000  0.11208100  1
  Pb  Pb8  1  0.99091400  0.50000000  0.75114200  1
  Pb  Pb9  1  0.50908600  0.00000000  0.24885800  1
  Pb  Pb10  1  0.86483400  0.00000000  0.88791900  1
  Pb  Pb11  1  0.63516600  0.50000000  0.11208100  1
  O  O12  1  0.00000000  0.74680400  0.00000000  1
  O  O13  1  0.00000000  0.25319600  0.00000000  1
  O  O14  1  0.30098200  0.00000000  0.69381800  1
  O  O15  1  0.19901800  0.50000000  0.30618200  1
  O  O16  1  0.35425900  0.25824600  0.22147400  1
  O  O17  1  0.14574100  0.75824600  0.77852600  1
  O  O18  1  0.09265300  0.00000000  0.40348800  1
  O  O19  1  0.40734700  0.50000000  0.59651200  1
  O  O20  1  0.35425900  0.74175400  0.22147400  1
  O  O21  1  0.14574100  0.24175400  0.77852600  1
  O  O22  1  0.50000000  0.24680400  0.00000000  1
  O  O23  1  0.50000000  0.75319600  0.00000000  1
  O  O24  1  0.80098200  0.50000000  0.69381800  1
  O  O25  1  0.69901800  0.00000000  0.30618200  1
  O  O26  1  0.85425900  0.75824600  0.22147400  1
  O  O27  1  0.64574100  0.25824600  0.77852600  1
  O  O28  1  0.59265300  0.50000000  0.40348800  1
  O  O29  1  0.90734700  0.00000000  0.59651200  1
  O  O30  1  0.85425900  0.24175400  0.22147400  1
  O  O31  1  0.64574100  0.74175400  0.77852600  1
