# generated using pymatgen
data_U2Co3Si5
_symmetry_space_group_name_H-M   'P 1'
_cell_length_a   5.57548600
_cell_length_b   9.60039000
_cell_length_c   11.04293200
_cell_angle_alpha   90.00000000
_cell_angle_beta   90.00000000
_cell_angle_gamma   90.00000000
_symmetry_Int_Tables_number   1
_chemical_formula_structural   U2Co3Si5
_chemical_formula_sum   'U8 Co12 Si20'
_cell_volume   591.09325473
_cell_formula_units_Z   4
loop_
 _symmetry_equiv_pos_site_id
 _symmetry_equiv_pos_as_xyz
  1  'x, y, z'
loop_
 _atom_site_type_symbol
 _atom_site_label
 _atom_site_symmetry_multiplicity
 _atom_site_fract_x
 _atom_site_fract_y
 _atom_site_fract_z
 _atom_site_occupancy
  U  U0  1  0.00000000  0.23355200  0.63445400  1
  U  U1  1  0.00000000  0.76644800  0.36554600  1
  U  U2  1  0.50000000  0.23355200  0.36554600  1
  U  U3  1  0.50000000  0.76644800  0.63445400  1
  U  U4  1  0.50000000  0.73355200  0.13445400  1
  U  U5  1  0.50000000  0.26644800  0.86554600  1
  U  U6  1  0.00000000  0.73355200  0.86554600  1
  U  U7  1  0.00000000  0.26644800  0.13445400  1
  Co  Co8  1  0.25000000  0.00000000  0.00000000  1
  Co  Co9  1  0.50000000  0.11471050  0.63867150  1
  Co  Co10  1  0.00000000  0.88528950  0.63867150  1
  Co  Co11  1  0.00000000  0.11471050  0.36132850  1
  Co  Co12  1  0.75000000  0.00000000  0.00000000  1
  Co  Co13  1  0.50000000  0.88528950  0.36132850  1
  Co  Co14  1  0.75000000  0.50000000  0.50000000  1
  Co  Co15  1  0.00000000  0.61471050  0.13867150  1
  Co  Co16  1  0.50000000  0.38528950  0.13867150  1
  Co  Co17  1  0.50000000  0.61471050  0.86132850  1
  Co  Co18  1  0.25000000  0.50000000  0.50000000  1
  Co  Co19  1  0.00000000  0.38528950  0.86132850  1
  Si  Si20  1  0.50000000  0.65335100  0.39747400  1
  Si  Si21  1  0.50000000  0.34664900  0.60252600  1
  Si  Si22  1  0.00000000  0.65335100  0.60252600  1
  Si  Si23  1  0.00000000  0.34664900  0.39747400  1
  Si  Si24  1  0.75000000  0.00000000  0.22893600  1
  Si  Si25  1  0.75000000  0.00000000  0.77106400  1
  Si  Si26  1  0.25000000  0.00000000  0.77106400  1
  Si  Si27  1  0.75000000  0.00000000  0.50000000  1
  Si  Si28  1  0.25000000  0.00000000  0.50000000  1
  Si  Si29  1  0.25000000  0.00000000  0.22893600  1
  Si  Si30  1  0.00000000  0.15335100  0.89747400  1
  Si  Si31  1  0.00000000  0.84664900  0.10252600  1
  Si  Si32  1  0.50000000  0.15335100  0.10252600  1
  Si  Si33  1  0.50000000  0.84664900  0.89747400  1
  Si  Si34  1  0.25000000  0.50000000  0.72893600  1
  Si  Si35  1  0.25000000  0.50000000  0.27106400  1
  Si  Si36  1  0.75000000  0.50000000  0.27106400  1
  Si  Si37  1  0.25000000  0.50000000  0.00000000  1
  Si  Si38  1  0.75000000  0.50000000  0.00000000  1
  Si  Si39  1  0.75000000  0.50000000  0.72893600  1
