# generated using pymatgen
data_NaMoP2O7
_symmetry_space_group_name_H-M   'P 1'
_cell_length_a   7.56280500
_cell_length_b   8.32155900
_cell_length_c   9.93585435
_cell_angle_alpha   90.00000000
_cell_angle_beta   111.78943767
_cell_angle_gamma   90.00000000
_symmetry_Int_Tables_number   1
_chemical_formula_structural   NaMoP2O7
_chemical_formula_sum   'Na4 Mo4 P8 O28'
_cell_volume   580.63085156
_cell_formula_units_Z   4
loop_
 _symmetry_equiv_pos_site_id
 _symmetry_equiv_pos_as_xyz
  1  'x, y, z'
loop_
 _atom_site_type_symbol
 _atom_site_label
 _atom_site_symmetry_multiplicity
 _atom_site_fract_x
 _atom_site_fract_y
 _atom_site_fract_z
 _atom_site_occupancy
  Na  Na0  1  0.71519800  0.01940400  0.21388200  1
  Na  Na1  1  0.28480200  0.51940400  0.28611800  1
  Na  Na2  1  0.28480200  0.98059600  0.78611800  1
  Na  Na3  1  0.71519800  0.48059600  0.71388200  1
  Mo  Mo4  1  0.74343500  0.49514700  0.25026100  1
  Mo  Mo5  1  0.25656500  0.99514700  0.24973900  1
  Mo  Mo6  1  0.25656500  0.50485300  0.74973900  1
  Mo  Mo7  1  0.74343500  0.00485300  0.75026100  1
  P  P8  1  0.32807100  0.28301300  0.04621100  1
  P  P9  1  0.67192900  0.78301300  0.45378900  1
  P  P10  1  0.67192900  0.71698700  0.95378900  1
  P  P11  1  0.32807100  0.21698700  0.54621100  1
  P  P12  1  0.92678500  0.24631300  0.04200800  1
  P  P13  1  0.07321500  0.74631300  0.45799200  1
  P  P14  1  0.07321500  0.75368700  0.95799200  1
  P  P15  1  0.92678500  0.25368700  0.54200800  1
  O  O16  1  0.12743500  0.33335200  0.06089300  1
  O  O17  1  0.87256500  0.83335200  0.43910700  1
  O  O18  1  0.87256500  0.66664800  0.93910700  1
  O  O19  1  0.12743500  0.16664800  0.56089300  1
  O  O20  1  0.62723900  0.60926200  0.39768100  1
  O  O21  1  0.37276100  0.10926200  0.10231900  1
  O  O22  1  0.37276100  0.39073800  0.60231900  1
  O  O23  1  0.62723900  0.89073800  0.89768100  1
  O  O24  1  0.81689100  0.28071500  0.37998500  1
  O  O25  1  0.18310900  0.78071500  0.12001500  1
  O  O26  1  0.18310900  0.71928500  0.62001500  1
  O  O27  1  0.81689100  0.21928500  0.87998500  1
  O  O28  1  0.02623200  0.59028500  0.36816200  1
  O  O29  1  0.97376800  0.09028500  0.13183800  1
  O  O30  1  0.97376800  0.40971500  0.63183800  1
  O  O31  1  0.02623200  0.90971500  0.86816200  1
  O  O32  1  0.45916800  0.09179900  0.64589500  1
  O  O33  1  0.54083200  0.59179900  0.85410500  1
  O  O34  1  0.54083200  0.90820100  0.35410500  1
  O  O35  1  0.45916800  0.40820100  0.14589500  1
  O  O36  1  0.69179400  0.79119600  0.61249300  1
  O  O37  1  0.30820600  0.29119600  0.88750700  1
  O  O38  1  0.30820600  0.20880400  0.38750700  1
  O  O39  1  0.69179400  0.70880400  0.11249300  1
  O  O40  1  0.82750900  0.13011500  0.60007400  1
  O  O41  1  0.17249100  0.63011500  0.89992600  1
  O  O42  1  0.17249100  0.86988500  0.39992600  1
  O  O43  1  0.82750900  0.36988500  0.10007400  1
