# generated using pymatgen
data_U6Fe
_symmetry_space_group_name_H-M   'P 1'
_cell_length_a   10.14139400
_cell_length_b   10.14139400
_cell_length_c   5.25324200
_cell_angle_alpha   90.00000000
_cell_angle_beta   90.00000000
_cell_angle_gamma   90.00000000
_symmetry_Int_Tables_number   1
_chemical_formula_structural   U6Fe
_chemical_formula_sum   'U24 Fe4'
_cell_volume   540.28476218
_cell_formula_units_Z   4
loop_
 _symmetry_equiv_pos_site_id
 _symmetry_equiv_pos_as_xyz
  1  'x, y, z'
loop_
 _atom_site_type_symbol
 _atom_site_label
 _atom_site_symmetry_multiplicity
 _atom_site_fract_x
 _atom_site_fract_y
 _atom_site_fract_z
 _atom_site_occupancy
  U  U0  1  0.59390950  0.09390950  0.00000000  1
  U  U1  1  0.59390950  0.90609050  0.50000000  1
  U  U2  1  0.40609050  0.09390950  0.50000000  1
  U  U3  1  0.40609050  0.90609050  0.00000000  1
  U  U4  1  0.39927850  0.28243250  0.00000000  1
  U  U5  1  0.78243250  0.10072150  0.50000000  1
  U  U6  1  0.21756750  0.89927850  0.50000000  1
  U  U7  1  0.60072150  0.71756750  0.00000000  1
  U  U8  1  0.21756750  0.10072150  0.00000000  1
  U  U9  1  0.78243250  0.89927850  0.00000000  1
  U  U10  1  0.39927850  0.71756750  0.50000000  1
  U  U11  1  0.60072150  0.28243250  0.50000000  1
  U  U12  1  0.09390950  0.59390950  0.50000000  1
  U  U13  1  0.09390950  0.40609050  0.00000000  1
  U  U14  1  0.90609050  0.59390950  0.00000000  1
  U  U15  1  0.90609050  0.40609050  0.50000000  1
  U  U16  1  0.89927850  0.78243250  0.50000000  1
  U  U17  1  0.28243250  0.60072150  0.00000000  1
  U  U18  1  0.71756750  0.39927850  0.00000000  1
  U  U19  1  0.10072150  0.21756750  0.50000000  1
  U  U20  1  0.71756750  0.60072150  0.50000000  1
  U  U21  1  0.28243250  0.39927850  0.50000000  1
  U  U22  1  0.89927850  0.21756750  0.00000000  1
  U  U23  1  0.10072150  0.78243250  0.00000000  1
  Fe  Fe24  1  0.00000000  0.00000000  0.25000000  1
  Fe  Fe25  1  0.00000000  0.00000000  0.75000000  1
  Fe  Fe26  1  0.50000000  0.50000000  0.75000000  1
  Fe  Fe27  1  0.50000000  0.50000000  0.25000000  1
