# generated using pymatgen
data_Er7Ru2C11
_symmetry_space_group_name_H-M   'P 1'
_cell_length_a   3.40562400
_cell_length_b   16.47059000
_cell_length_c   19.73231800
_cell_angle_alpha   90.00000000
_cell_angle_beta   90.00000000
_cell_angle_gamma   90.00000000
_symmetry_Int_Tables_number   1
_chemical_formula_structural   Er7Ru2C11
_chemical_formula_sum   'Er28 Ru8 C44'
_cell_volume   1106.83774281
_cell_formula_units_Z   4
loop_
 _symmetry_equiv_pos_site_id
 _symmetry_equiv_pos_as_xyz
  1  'x, y, z'
loop_
 _atom_site_type_symbol
 _atom_site_label
 _atom_site_symmetry_multiplicity
 _atom_site_fract_x
 _atom_site_fract_y
 _atom_site_fract_z
 _atom_site_occupancy
  Er  Er0  1  0.00000000  0.10411600  0.75000000  1
  Er  Er1  1  0.50000000  0.39588400  0.25000000  1
  Er  Er2  1  0.50000000  0.02181800  0.12711300  1
  Er  Er3  1  0.00000000  0.47818200  0.87288700  1
  Er  Er4  1  0.00000000  0.47818200  0.62711300  1
  Er  Er5  1  0.50000000  0.02181800  0.37288700  1
  Er  Er6  1  0.00000000  0.33823100  0.01877700  1
  Er  Er7  1  0.50000000  0.16176900  0.98122300  1
  Er  Er8  1  0.50000000  0.16176900  0.51877700  1
  Er  Er9  1  0.00000000  0.33823100  0.48122300  1
  Er  Er10  1  0.00000000  0.27869700  0.65498100  1
  Er  Er11  1  0.50000000  0.22130300  0.34501900  1
  Er  Er12  1  0.50000000  0.22130300  0.15498100  1
  Er  Er13  1  0.00000000  0.27869700  0.84501900  1
  Er  Er14  1  0.50000000  0.60411600  0.75000000  1
  Er  Er15  1  0.00000000  0.89588400  0.25000000  1
  Er  Er16  1  0.00000000  0.52181800  0.12711300  1
  Er  Er17  1  0.50000000  0.97818200  0.87288700  1
  Er  Er18  1  0.50000000  0.97818200  0.62711300  1
  Er  Er19  1  0.00000000  0.52181800  0.37288700  1
  Er  Er20  1  0.50000000  0.83823100  0.01877700  1
  Er  Er21  1  0.00000000  0.66176900  0.98122300  1
  Er  Er22  1  0.00000000  0.66176900  0.51877700  1
  Er  Er23  1  0.50000000  0.83823100  0.48122300  1
  Er  Er24  1  0.50000000  0.77869700  0.65498100  1
  Er  Er25  1  0.00000000  0.72130300  0.34501900  1
  Er  Er26  1  0.00000000  0.72130300  0.15498100  1
  Er  Er27  1  0.50000000  0.77869700  0.84501900  1
  Ru  Ru28  1  0.00000000  0.00000000  0.00000000  1
  Ru  Ru29  1  0.00000000  0.00000000  0.50000000  1
  Ru  Ru30  1  0.50000000  0.42013700  0.75000000  1
  Ru  Ru31  1  0.00000000  0.07986300  0.25000000  1
  Ru  Ru32  1  0.50000000  0.50000000  0.00000000  1
  Ru  Ru33  1  0.50000000  0.50000000  0.50000000  1
  Ru  Ru34  1  0.00000000  0.92013700  0.75000000  1
  Ru  Ru35  1  0.50000000  0.57986300  0.25000000  1
  C  C36  1  0.00000000  0.49960900  0.75000000  1
  C  C37  1  0.50000000  0.00039100  0.25000000  1
  C  C38  1  0.50000000  0.22207300  0.75000000  1
  C  C39  1  0.00000000  0.27792700  0.25000000  1
  C  C40  1  0.50000000  0.30301800  0.75000000  1
  C  C41  1  0.00000000  0.19698200  0.25000000  1
  C  C42  1  0.00000000  0.20645100  0.06371900  1
  C  C43  1  0.50000000  0.29354900  0.93628100  1
  C  C44  1  0.50000000  0.29354900  0.56371900  1
  C  C45  1  0.00000000  0.20645100  0.43628100  1
  C  C46  1  0.00000000  0.13293600  0.62370200  1
  C  C47  1  0.50000000  0.36706400  0.37629800  1
  C  C48  1  0.50000000  0.36706400  0.12370200  1
  C  C49  1  0.00000000  0.13293600  0.87629800  1
  C  C50  1  0.00000000  0.12682800  0.08475800  1
  C  C51  1  0.50000000  0.37317200  0.91524200  1
  C  C52  1  0.50000000  0.37317200  0.58475800  1
  C  C53  1  0.00000000  0.12682800  0.41524200  1
  C  C54  1  0.00000000  0.07471900  0.92109800  1
  C  C55  1  0.50000000  0.42528100  0.07890200  1
  C  C56  1  0.50000000  0.42528100  0.42109800  1
  C  C57  1  0.00000000  0.07471900  0.57890200  1
  C  C58  1  0.50000000  0.99960900  0.75000000  1
  C  C59  1  0.00000000  0.50039100  0.25000000  1
  C  C60  1  0.00000000  0.72207300  0.75000000  1
  C  C61  1  0.50000000  0.77792700  0.25000000  1
  C  C62  1  0.00000000  0.80301800  0.75000000  1
  C  C63  1  0.50000000  0.69698200  0.25000000  1
  C  C64  1  0.50000000  0.70645100  0.06371900  1
  C  C65  1  0.00000000  0.79354900  0.93628100  1
  C  C66  1  0.00000000  0.79354900  0.56371900  1
  C  C67  1  0.50000000  0.70645100  0.43628100  1
  C  C68  1  0.50000000  0.63293600  0.62370200  1
  C  C69  1  0.00000000  0.86706400  0.37629800  1
  C  C70  1  0.00000000  0.86706400  0.12370200  1
  C  C71  1  0.50000000  0.63293600  0.87629800  1
  C  C72  1  0.50000000  0.62682800  0.08475800  1
  C  C73  1  0.00000000  0.87317200  0.91524200  1
  C  C74  1  0.00000000  0.87317200  0.58475800  1
  C  C75  1  0.50000000  0.62682800  0.41524200  1
  C  C76  1  0.50000000  0.57471900  0.92109800  1
  C  C77  1  0.00000000  0.92528100  0.07890200  1
  C  C78  1  0.00000000  0.92528100  0.42109800  1
  C  C79  1  0.50000000  0.57471900  0.57890200  1
