# generated using pymatgen
data_Eu(SiRh)2
_symmetry_space_group_name_H-M   'P 1'
_cell_length_a   4.14712400
_cell_length_b   4.14712400
_cell_length_c   10.33108600
_cell_angle_alpha   90.00000000
_cell_angle_beta   90.00000000
_cell_angle_gamma   90.00000000
_symmetry_Int_Tables_number   1
_chemical_formula_structural   Eu(SiRh)2
_chemical_formula_sum   'Eu2 Si4 Rh4'
_cell_volume   177.68060280
_cell_formula_units_Z   2
loop_
 _symmetry_equiv_pos_site_id
 _symmetry_equiv_pos_as_xyz
  1  'x, y, z'
loop_
 _atom_site_type_symbol
 _atom_site_label
 _atom_site_symmetry_multiplicity
 _atom_site_fract_x
 _atom_site_fract_y
 _atom_site_fract_z
 _atom_site_occupancy
  Eu  Eu0  1  0.00000000  0.00000000  0.00000000  1
  Eu  Eu1  1  0.50000000  0.50000000  0.50000000  1
  Si  Si2  1  0.50000000  0.50000000  0.12941500  1
  Si  Si3  1  0.00000000  0.00000000  0.37058500  1
  Si  Si4  1  0.00000000  0.00000000  0.62941500  1
  Si  Si5  1  0.50000000  0.50000000  0.87058500  1
  Rh  Rh6  1  0.00000000  0.50000000  0.25000000  1
  Rh  Rh7  1  0.50000000  0.00000000  0.25000000  1
  Rh  Rh8  1  0.50000000  0.00000000  0.75000000  1
  Rh  Rh9  1  0.00000000  0.50000000  0.75000000  1
