# generated using pymatgen
data_Ca2Fe2O5
_symmetry_space_group_name_H-M   'P 1'
_cell_length_a   5.51238200
_cell_length_b   5.64158800
_cell_length_c   14.83404200
_cell_angle_alpha   90.00000000
_cell_angle_beta   90.00000000
_cell_angle_gamma   90.00000000
_symmetry_Int_Tables_number   1
_chemical_formula_structural   Ca2Fe2O5
_chemical_formula_sum   'Ca8 Fe8 O20'
_cell_volume   461.31776265
_cell_formula_units_Z   4
loop_
 _symmetry_equiv_pos_site_id
 _symmetry_equiv_pos_as_xyz
  1  'x, y, z'
loop_
 _atom_site_type_symbol
 _atom_site_label
 _atom_site_symmetry_multiplicity
 _atom_site_fract_x
 _atom_site_fract_y
 _atom_site_fract_z
 _atom_site_occupancy
  Ca  Ca0  1  0.03156850  0.47796700  0.10885050  1
  Ca  Ca1  1  0.53156850  0.02203300  0.39114950  1
  Ca  Ca2  1  0.46843150  0.97796700  0.89114950  1
  Ca  Ca3  1  0.96843150  0.52203300  0.60885050  1
  Ca  Ca4  1  0.96843150  0.52203300  0.89114950  1
  Ca  Ca5  1  0.46843150  0.97796700  0.60885050  1
  Ca  Ca6  1  0.53156850  0.02203300  0.10885050  1
  Ca  Ca7  1  0.03156850  0.47796700  0.39114950  1
  Fe  Fe8  1  0.00000000  0.00000000  0.50000000  1
  Fe  Fe9  1  0.00000000  0.00000000  0.00000000  1
  Fe  Fe10  1  0.55368650  0.56435300  0.25000000  1
  Fe  Fe11  1  0.44631350  0.43564700  0.75000000  1
  Fe  Fe12  1  0.50000000  0.50000000  0.00000000  1
  Fe  Fe13  1  0.50000000  0.50000000  0.50000000  1
  Fe  Fe14  1  0.05368650  0.93564700  0.25000000  1
  Fe  Fe15  1  0.94631350  0.06435300  0.75000000  1
  O  O16  1  0.09931350  0.37368300  0.75000000  1
  O  O17  1  0.59931350  0.12631700  0.75000000  1
  O  O18  1  0.40068650  0.87368300  0.25000000  1
  O  O19  1  0.90068650  0.62631700  0.25000000  1
  O  O20  1  0.46732050  0.42185700  0.35917450  1
  O  O21  1  0.96732050  0.07814300  0.14082550  1
  O  O22  1  0.03267950  0.92185700  0.64082550  1
  O  O23  1  0.53267950  0.57814300  0.85917450  1
  O  O24  1  0.53267950  0.57814300  0.64082550  1
  O  O25  1  0.03267950  0.92185700  0.85917450  1
  O  O26  1  0.96732050  0.07814300  0.35917450  1
  O  O27  1  0.46732050  0.42185700  0.14082550  1
  O  O28  1  0.22340350  0.27665000  0.51847850  1
  O  O29  1  0.72340350  0.22335000  0.98152150  1
  O  O30  1  0.27659650  0.77665000  0.48152150  1
  O  O31  1  0.77659650  0.72335000  0.01847850  1
  O  O32  1  0.22340350  0.27665000  0.98152150  1
  O  O33  1  0.72340350  0.22335000  0.51847850  1
  O  O34  1  0.27659650  0.77665000  0.01847850  1
  O  O35  1  0.77659650  0.72335000  0.48152150  1
