# generated using pymatgen
data_V2O3
_symmetry_space_group_name_H-M   'P 1'
_cell_length_a   9.57411000
_cell_length_b   9.57411000
_cell_length_c   9.57411000
_cell_angle_alpha   90.00000000
_cell_angle_beta   90.00000000
_cell_angle_gamma   90.00000000
_symmetry_Int_Tables_number   1
_chemical_formula_structural   V2O3
_chemical_formula_sum   'V32 O48'
_cell_volume   877.59721986
_cell_formula_units_Z   16
loop_
 _symmetry_equiv_pos_site_id
 _symmetry_equiv_pos_as_xyz
  1  'x, y, z'
loop_
 _atom_site_type_symbol
 _atom_site_label
 _atom_site_symmetry_multiplicity
 _atom_site_fract_x
 _atom_site_fract_y
 _atom_site_fract_z
 _atom_site_occupancy
  V  V0  1  0.00000000  0.25000000  0.46801400  1
  V  V1  1  0.75000000  0.03198600  0.00000000  1
  V  V2  1  0.46801400  0.50000000  0.75000000  1
  V  V3  1  0.46801400  0.00000000  0.25000000  1
  V  V4  1  0.25000000  0.46801400  0.00000000  1
  V  V5  1  0.00000000  0.75000000  0.03198600  1
  V  V6  1  0.25000000  0.03198600  0.50000000  1
  V  V7  1  0.03198600  0.00000000  0.75000000  1
  V  V8  1  0.50000000  0.25000000  0.03198600  1
  V  V9  1  0.75000000  0.46801400  0.50000000  1
  V  V10  1  0.03198600  0.50000000  0.25000000  1
  V  V11  1  0.50000000  0.75000000  0.46801400  1
  V  V12  1  0.25000000  0.25000000  0.75000000  1
  V  V13  1  0.75000000  0.25000000  0.25000000  1
  V  V14  1  0.25000000  0.25000000  0.25000000  1
  V  V15  1  0.25000000  0.75000000  0.25000000  1
  V  V16  1  0.50000000  0.75000000  0.96801400  1
  V  V17  1  0.25000000  0.53198600  0.50000000  1
  V  V18  1  0.96801400  0.00000000  0.25000000  1
  V  V19  1  0.96801400  0.50000000  0.75000000  1
  V  V20  1  0.75000000  0.96801400  0.50000000  1
  V  V21  1  0.50000000  0.25000000  0.53198600  1
  V  V22  1  0.75000000  0.53198600  0.00000000  1
  V  V23  1  0.53198600  0.50000000  0.25000000  1
  V  V24  1  0.00000000  0.75000000  0.53198600  1
  V  V25  1  0.25000000  0.96801400  0.00000000  1
  V  V26  1  0.53198600  0.00000000  0.75000000  1
  V  V27  1  0.00000000  0.25000000  0.96801400  1
  V  V28  1  0.75000000  0.75000000  0.25000000  1
  V  V29  1  0.25000000  0.75000000  0.75000000  1
  V  V30  1  0.75000000  0.75000000  0.75000000  1
  V  V31  1  0.75000000  0.25000000  0.75000000  1
  O  O32  1  0.34442150  0.11859450  0.11022850  1
  O  O33  1  0.88140550  0.38977150  0.34442150  1
  O  O34  1  0.61022850  0.34442150  0.38140550  1
  O  O35  1  0.38977150  0.15557850  0.38140550  1
  O  O36  1  0.11022850  0.34442150  0.11859450  1
  O  O37  1  0.15557850  0.38140550  0.38977150  1
  O  O38  1  0.34442150  0.38140550  0.61022850  1
  O  O39  1  0.38977150  0.34442150  0.88140550  1
  O  O40  1  0.88140550  0.61022850  0.15557850  1
  O  O41  1  0.11859450  0.88977150  0.15557850  1
  O  O42  1  0.61022850  0.15557850  0.88140550  1
  O  O43  1  0.15557850  0.88140550  0.61022850  1
  O  O44  1  0.34442150  0.88140550  0.38977150  1
  O  O45  1  0.15557850  0.61859450  0.11022850  1
  O  O46  1  0.61859450  0.11022850  0.15557850  1
  O  O47  1  0.61859450  0.88977150  0.34442150  1
  O  O48  1  0.11022850  0.15557850  0.61859450  1
  O  O49  1  0.88977150  0.15557850  0.11859450  1
  O  O50  1  0.38140550  0.38977150  0.15557850  1
  O  O51  1  0.11859450  0.11022850  0.34442150  1
  O  O52  1  0.88977150  0.34442150  0.61859450  1
  O  O53  1  0.38140550  0.61022850  0.34442150  1
  O  O54  1  0.34442150  0.61859450  0.88977150  1
  O  O55  1  0.15557850  0.11859450  0.88977150  1
  O  O56  1  0.84442150  0.61859450  0.61022850  1
  O  O57  1  0.38140550  0.88977150  0.84442150  1
  O  O58  1  0.11022850  0.84442150  0.88140550  1
  O  O59  1  0.88977150  0.65557850  0.88140550  1
  O  O60  1  0.61022850  0.84442150  0.61859450  1
  O  O61  1  0.65557850  0.88140550  0.88977150  1
  O  O62  1  0.84442150  0.88140550  0.11022850  1
  O  O63  1  0.88977150  0.84442150  0.38140550  1
  O  O64  1  0.38140550  0.11022850  0.65557850  1
  O  O65  1  0.61859450  0.38977150  0.65557850  1
  O  O66  1  0.11022850  0.65557850  0.38140550  1
  O  O67  1  0.65557850  0.38140550  0.11022850  1
  O  O68  1  0.84442150  0.38140550  0.88977150  1
  O  O69  1  0.65557850  0.11859450  0.61022850  1
  O  O70  1  0.11859450  0.61022850  0.65557850  1
  O  O71  1  0.11859450  0.38977150  0.84442150  1
  O  O72  1  0.61022850  0.65557850  0.11859450  1
  O  O73  1  0.38977150  0.65557850  0.61859450  1
  O  O74  1  0.88140550  0.88977150  0.65557850  1
  O  O75  1  0.61859450  0.61022850  0.84442150  1
  O  O76  1  0.38977150  0.84442150  0.11859450  1
  O  O77  1  0.88140550  0.11022850  0.84442150  1
  O  O78  1  0.84442150  0.11859450  0.38977150  1
  O  O79  1  0.65557850  0.61859450  0.38977150  1
