# generated using pymatgen
data_YbIn2Au
_symmetry_space_group_name_H-M   'P 1'
_cell_length_a   4.58889200
_cell_length_b   10.82218200
_cell_length_c   7.72224900
_cell_angle_alpha   90.00000000
_cell_angle_beta   90.00000000
_cell_angle_gamma   90.00000000
_symmetry_Int_Tables_number   1
_chemical_formula_structural   YbIn2Au
_chemical_formula_sum   'Yb4 In8 Au4'
_cell_volume   383.50097383
_cell_formula_units_Z   4
loop_
 _symmetry_equiv_pos_site_id
 _symmetry_equiv_pos_as_xyz
  1  'x, y, z'
loop_
 _atom_site_type_symbol
 _atom_site_label
 _atom_site_symmetry_multiplicity
 _atom_site_fract_x
 _atom_site_fract_y
 _atom_site_fract_z
 _atom_site_occupancy
  Yb  Yb0  1  0.50000000  0.42415000  0.75000000  1
  Yb  Yb1  1  0.00000000  0.07585000  0.25000000  1
  Yb  Yb2  1  0.00000000  0.92415000  0.75000000  1
  Yb  Yb3  1  0.50000000  0.57585000  0.25000000  1
  In  In4  1  0.00000000  0.36587200  0.04998000  1
  In  In5  1  0.50000000  0.13412800  0.95002000  1
  In  In6  1  0.00000000  0.36587200  0.45002000  1
  In  In7  1  0.50000000  0.13412800  0.54998000  1
  In  In8  1  0.50000000  0.86587200  0.04998000  1
  In  In9  1  0.00000000  0.63412800  0.95002000  1
  In  In10  1  0.50000000  0.86587200  0.45002000  1
  In  In11  1  0.00000000  0.63412800  0.54998000  1
  Au  Au12  1  0.50000000  0.28893500  0.25000000  1
  Au  Au13  1  0.00000000  0.21106500  0.75000000  1
  Au  Au14  1  0.00000000  0.78893500  0.25000000  1
  Au  Au15  1  0.50000000  0.71106500  0.75000000  1
