# generated using pymatgen
data_Ba2(CuO2)3
_symmetry_space_group_name_H-M   'P 1'
_cell_length_a   8.34323400
_cell_length_b   11.33421800
_cell_length_c   14.76266800
_cell_angle_alpha   90.00000000
_cell_angle_beta   90.00000000
_cell_angle_gamma   90.00000000
_symmetry_Int_Tables_number   1
_chemical_formula_structural   Ba2(CuO2)3
_chemical_formula_sum   'Ba16 Cu24 O48'
_cell_volume   1396.01742364
_cell_formula_units_Z   8
loop_
 _symmetry_equiv_pos_site_id
 _symmetry_equiv_pos_as_xyz
  1  'x, y, z'
loop_
 _atom_site_type_symbol
 _atom_site_label
 _atom_site_symmetry_multiplicity
 _atom_site_fract_x
 _atom_site_fract_y
 _atom_site_fract_z
 _atom_site_occupancy
  Ba  Ba0  1  0.75000000  0.25000000  0.25000000  1
  Ba  Ba1  1  0.50000000  0.73279800  0.00000000  1
  Ba  Ba2  1  0.50000000  0.26720200  0.00000000  1
  Ba  Ba3  1  0.75000000  0.75000000  0.25000000  1
  Ba  Ba4  1  0.75000000  0.75000000  0.75000000  1
  Ba  Ba5  1  0.50000000  0.23279800  0.50000000  1
  Ba  Ba6  1  0.50000000  0.76720200  0.50000000  1
  Ba  Ba7  1  0.75000000  0.25000000  0.75000000  1
  Ba  Ba8  1  0.25000000  0.25000000  0.75000000  1
  Ba  Ba9  1  0.00000000  0.73279800  0.50000000  1
  Ba  Ba10  1  0.00000000  0.26720200  0.50000000  1
  Ba  Ba11  1  0.25000000  0.75000000  0.75000000  1
  Ba  Ba12  1  0.25000000  0.75000000  0.25000000  1
  Ba  Ba13  1  0.00000000  0.23279800  0.00000000  1
  Ba  Ba14  1  0.00000000  0.76720200  0.00000000  1
  Ba  Ba15  1  0.25000000  0.25000000  0.25000000  1
  Cu  Cu16  1  0.69233900  0.00000000  0.00000000  1
  Cu  Cu17  1  0.30766100  0.00000000  0.00000000  1
  Cu  Cu18  1  0.34788950  0.00000000  0.35199050  1
  Cu  Cu19  1  0.84788950  0.00000000  0.14800950  1
  Cu  Cu20  1  0.65211050  0.00000000  0.35199050  1
  Cu  Cu21  1  0.15211050  0.00000000  0.14800950  1
  Cu  Cu22  1  0.69233900  0.50000000  0.50000000  1
  Cu  Cu23  1  0.30766100  0.50000000  0.50000000  1
  Cu  Cu24  1  0.34788950  0.50000000  0.85199050  1
  Cu  Cu25  1  0.84788950  0.50000000  0.64800950  1
  Cu  Cu26  1  0.65211050  0.50000000  0.85199050  1
  Cu  Cu27  1  0.15211050  0.50000000  0.64800950  1
  Cu  Cu28  1  0.19233900  0.00000000  0.50000000  1
  Cu  Cu29  1  0.80766100  0.00000000  0.50000000  1
  Cu  Cu30  1  0.84788950  0.00000000  0.85199050  1
  Cu  Cu31  1  0.34788950  0.00000000  0.64800950  1
  Cu  Cu32  1  0.15211050  0.00000000  0.85199050  1
  Cu  Cu33  1  0.65211050  0.00000000  0.64800950  1
  Cu  Cu34  1  0.19233900  0.50000000  0.00000000  1
  Cu  Cu35  1  0.80766100  0.50000000  0.00000000  1
  Cu  Cu36  1  0.84788950  0.50000000  0.35199050  1
  Cu  Cu37  1  0.34788950  0.50000000  0.14800950  1
  Cu  Cu38  1  0.15211050  0.50000000  0.35199050  1
  Cu  Cu39  1  0.65211050  0.50000000  0.14800950  1
  O  O40  1  0.21600150  0.88666550  0.40919300  1
  O  O41  1  0.71600150  0.88666550  0.09080700  1
  O  O42  1  0.21600150  0.11333450  0.40919300  1
  O  O43  1  0.71600150  0.11333450  0.09080700  1
  O  O44  1  0.00000000  0.88417750  0.18352950  1
  O  O45  1  0.50000000  0.88417750  0.31647050  1
  O  O46  1  0.50000000  0.11582250  0.31647050  1
  O  O47  1  0.00000000  0.11582250  0.18352950  1
  O  O48  1  0.78399850  0.88666550  0.40919300  1
  O  O49  1  0.28399850  0.11333450  0.09080700  1
  O  O50  1  0.78399850  0.11333450  0.40919300  1
  O  O51  1  0.28399850  0.88666550  0.09080700  1
  O  O52  1  0.21600150  0.38666550  0.90919300  1
  O  O53  1  0.71600150  0.38666550  0.59080700  1
  O  O54  1  0.21600150  0.61333450  0.90919300  1
  O  O55  1  0.71600150  0.61333450  0.59080700  1
  O  O56  1  0.00000000  0.38417750  0.68352950  1
  O  O57  1  0.50000000  0.38417750  0.81647050  1
  O  O58  1  0.50000000  0.61582250  0.81647050  1
  O  O59  1  0.00000000  0.61582250  0.68352950  1
  O  O60  1  0.78399850  0.38666550  0.90919300  1
  O  O61  1  0.28399850  0.61333450  0.59080700  1
  O  O62  1  0.78399850  0.61333450  0.90919300  1
  O  O63  1  0.28399850  0.38666550  0.59080700  1
  O  O64  1  0.71600150  0.88666550  0.90919300  1
  O  O65  1  0.21600150  0.88666550  0.59080700  1
  O  O66  1  0.71600150  0.11333450  0.90919300  1
  O  O67  1  0.21600150  0.11333450  0.59080700  1
  O  O68  1  0.50000000  0.88417750  0.68352950  1
  O  O69  1  0.00000000  0.88417750  0.81647050  1
  O  O70  1  0.00000000  0.11582250  0.81647050  1
  O  O71  1  0.50000000  0.11582250  0.68352950  1
  O  O72  1  0.28399850  0.88666550  0.90919300  1
  O  O73  1  0.78399850  0.11333450  0.59080700  1
  O  O74  1  0.28399850  0.11333450  0.90919300  1
  O  O75  1  0.78399850  0.88666550  0.59080700  1
  O  O76  1  0.71600150  0.38666550  0.40919300  1
  O  O77  1  0.21600150  0.38666550  0.09080700  1
  O  O78  1  0.71600150  0.61333450  0.40919300  1
  O  O79  1  0.21600150  0.61333450  0.09080700  1
  O  O80  1  0.50000000  0.38417750  0.18352950  1
  O  O81  1  0.00000000  0.38417750  0.31647050  1
  O  O82  1  0.00000000  0.61582250  0.31647050  1
  O  O83  1  0.50000000  0.61582250  0.18352950  1
  O  O84  1  0.28399850  0.38666550  0.40919300  1
  O  O85  1  0.78399850  0.61333450  0.09080700  1
  O  O86  1  0.28399850  0.61333450  0.40919300  1
  O  O87  1  0.78399850  0.38666550  0.09080700  1
