# generated using pymatgen
data_Na2CoGeO4
_symmetry_space_group_name_H-M   'P 1'
_cell_length_a   5.46258800
_cell_length_b   6.25639500
_cell_length_c   6.47539850
_cell_angle_alpha   90.00000000
_cell_angle_beta   90.00000000
_cell_angle_gamma   90.00000000
_symmetry_Int_Tables_number   1
_chemical_formula_structural   Na2CoGeO4
_chemical_formula_sum   'Na4 Co2 Ge2 O8'
_cell_volume   221.30392015
_cell_formula_units_Z   2
loop_
 _symmetry_equiv_pos_site_id
 _symmetry_equiv_pos_as_xyz
  1  'x, y, z'
loop_
 _atom_site_type_symbol
 _atom_site_label
 _atom_site_symmetry_multiplicity
 _atom_site_fract_x
 _atom_site_fract_y
 _atom_site_fract_z
 _atom_site_occupancy
  Na  Na0  1  0.50909800  0.66551425  0.74910200  1
  Na  Na1  1  0.50909800  0.66551425  0.25089800  1
  Na  Na2  1  0.00909800  0.33448575  0.24910200  1
  Na  Na3  1  0.00909800  0.33448575  0.75089800  1
  Co  Co4  1  0.00317200  0.85177275  0.50000000  1
  Co  Co5  1  0.50317200  0.14822725  0.00000000  1
  Ge  Ge6  1  0.49965550  0.15198725  0.50000000  1
  Ge  Ge7  1  0.99965550  0.84801275  0.00000000  1
  O  O8  1  0.67511700  0.87301975  0.00000000  1
  O  O9  1  0.17511700  0.12698025  0.50000000  1
  O  O10  1  0.64085300  0.89613225  0.50000000  1
  O  O11  1  0.14085300  0.10386775  0.00000000  1
  O  O12  1  0.58153100  0.30074225  0.27145000  1
  O  O13  1  0.08153100  0.69925775  0.77145000  1
  O  O14  1  0.08153100  0.69925775  0.22855000  1
  O  O15  1  0.58153100  0.30074225  0.72855000  1
