# generated using pymatgen
data_K4P3
_symmetry_space_group_name_H-M   'P 1'
_cell_length_a   5.02085800
_cell_length_b   11.43691200
_cell_length_c   15.05199000
_cell_angle_alpha   90.00000000
_cell_angle_beta   90.00000000
_cell_angle_gamma   90.00000000
_symmetry_Int_Tables_number   1
_chemical_formula_structural   K4P3
_chemical_formula_sum   'K16 P12'
_cell_volume   864.33209420
_cell_formula_units_Z   4
loop_
 _symmetry_equiv_pos_site_id
 _symmetry_equiv_pos_as_xyz
  1  'x, y, z'
loop_
 _atom_site_type_symbol
 _atom_site_label
 _atom_site_symmetry_multiplicity
 _atom_site_fract_x
 _atom_site_fract_y
 _atom_site_fract_z
 _atom_site_occupancy
  K  K0  1  0.50000000  0.30489400  0.61138400  1
  K  K1  1  0.00000000  0.19510600  0.38861600  1
  K  K2  1  0.50000000  0.30489400  0.88861600  1
  K  K3  1  0.00000000  0.19510600  0.11138400  1
  K  K4  1  0.50000000  0.01804300  0.75000000  1
  K  K5  1  0.00000000  0.48195700  0.25000000  1
  K  K6  1  0.50000000  0.00000000  0.50000000  1
  K  K7  1  0.50000000  0.00000000  0.00000000  1
  K  K8  1  0.00000000  0.80489400  0.61138400  1
  K  K9  1  0.50000000  0.69510600  0.38861600  1
  K  K10  1  0.00000000  0.80489400  0.88861600  1
  K  K11  1  0.50000000  0.69510600  0.11138400  1
  K  K12  1  0.00000000  0.51804300  0.75000000  1
  K  K13  1  0.50000000  0.98195700  0.25000000  1
  K  K14  1  0.00000000  0.50000000  0.50000000  1
  K  K15  1  0.00000000  0.50000000  0.00000000  1
  P  P16  1  0.50000000  0.38639500  0.12505800  1
  P  P17  1  0.00000000  0.11360500  0.87494200  1
  P  P18  1  0.00000000  0.11360500  0.62505800  1
  P  P19  1  0.50000000  0.38639500  0.37494200  1
  P  P20  1  0.00000000  0.21219700  0.75000000  1
  P  P21  1  0.50000000  0.28780300  0.25000000  1
  P  P22  1  0.00000000  0.88639500  0.12505800  1
  P  P23  1  0.50000000  0.61360500  0.87494200  1
  P  P24  1  0.50000000  0.61360500  0.62505800  1
  P  P25  1  0.00000000  0.88639500  0.37494200  1
  P  P26  1  0.50000000  0.71219700  0.75000000  1
  P  P27  1  0.00000000  0.78780300  0.25000000  1
