# generated using pymatgen
data_DyGe3
_symmetry_space_group_name_H-M   'P 1'
_cell_length_a   4.03109000
_cell_length_b   20.89470800
_cell_length_c   3.92508400
_cell_angle_alpha   90.00000000
_cell_angle_beta   90.00000000
_cell_angle_gamma   90.00000000
_symmetry_Int_Tables_number   1
_chemical_formula_structural   DyGe3
_chemical_formula_sum   'Dy4 Ge12'
_cell_volume   330.60373544
_cell_formula_units_Z   4
loop_
 _symmetry_equiv_pos_site_id
 _symmetry_equiv_pos_as_xyz
  1  'x, y, z'
loop_
 _atom_site_type_symbol
 _atom_site_label
 _atom_site_symmetry_multiplicity
 _atom_site_fract_x
 _atom_site_fract_y
 _atom_site_fract_z
 _atom_site_occupancy
  Dy  Dy0  1  0.50000000  0.08215100  0.25000000  1
  Dy  Dy1  1  0.00000000  0.41784900  0.75000000  1
  Dy  Dy2  1  0.00000000  0.58215100  0.25000000  1
  Dy  Dy3  1  0.50000000  0.91784900  0.75000000  1
  Ge  Ge4  1  0.00000000  0.18926500  0.25000000  1
  Ge  Ge5  1  0.50000000  0.31073500  0.75000000  1
  Ge  Ge6  1  0.00000000  0.03950400  0.75000000  1
  Ge  Ge7  1  0.50000000  0.46049600  0.25000000  1
  Ge  Ge8  1  0.50000000  0.19091200  0.75000000  1
  Ge  Ge9  1  0.00000000  0.30908800  0.25000000  1
  Ge  Ge10  1  0.50000000  0.68926500  0.25000000  1
  Ge  Ge11  1  0.00000000  0.81073500  0.75000000  1
  Ge  Ge12  1  0.50000000  0.53950400  0.75000000  1
  Ge  Ge13  1  0.00000000  0.96049600  0.25000000  1
  Ge  Ge14  1  0.00000000  0.69091200  0.75000000  1
  Ge  Ge15  1  0.50000000  0.80908800  0.25000000  1
