# generated using pymatgen
data_Lu3Ni2Ge3
_symmetry_space_group_name_H-M   'P 1'
_cell_length_a   4.15733600
_cell_length_b   10.09033600
_cell_length_c   13.83636700
_cell_angle_alpha   90.00000000
_cell_angle_beta   90.00000000
_cell_angle_gamma   90.00000000
_symmetry_Int_Tables_number   1
_chemical_formula_structural   Lu3Ni2Ge3
_chemical_formula_sum   'Lu12 Ni8 Ge12'
_cell_volume   580.42061232
_cell_formula_units_Z   4
loop_
 _symmetry_equiv_pos_site_id
 _symmetry_equiv_pos_as_xyz
  1  'x, y, z'
loop_
 _atom_site_type_symbol
 _atom_site_label
 _atom_site_symmetry_multiplicity
 _atom_site_fract_x
 _atom_site_fract_y
 _atom_site_fract_z
 _atom_site_occupancy
  Lu  Lu0  1  0.00000000  0.41334600  0.10937300  1
  Lu  Lu1  1  0.50000000  0.08665400  0.89062700  1
  Lu  Lu2  1  0.50000000  0.08665400  0.60937300  1
  Lu  Lu3  1  0.00000000  0.41334600  0.39062700  1
  Lu  Lu4  1  0.50000000  0.36392200  0.75000000  1
  Lu  Lu5  1  0.00000000  0.13607800  0.25000000  1
  Lu  Lu6  1  0.50000000  0.91334600  0.10937300  1
  Lu  Lu7  1  0.00000000  0.58665400  0.89062700  1
  Lu  Lu8  1  0.00000000  0.58665400  0.60937300  1
  Lu  Lu9  1  0.50000000  0.91334600  0.39062700  1
  Lu  Lu10  1  0.00000000  0.86392200  0.75000000  1
  Lu  Lu11  1  0.50000000  0.63607800  0.25000000  1
  Ni  Ni12  1  0.50000000  0.20215500  0.10059500  1
  Ni  Ni13  1  0.00000000  0.29784500  0.89940500  1
  Ni  Ni14  1  0.00000000  0.29784500  0.60059500  1
  Ni  Ni15  1  0.50000000  0.20215500  0.39940500  1
  Ni  Ni16  1  0.00000000  0.70215500  0.10059500  1
  Ni  Ni17  1  0.50000000  0.79784500  0.89940500  1
  Ni  Ni18  1  0.50000000  0.79784500  0.60059500  1
  Ni  Ni19  1  0.00000000  0.70215500  0.39940500  1
  Ge  Ge20  1  0.00000000  0.12235300  0.03841100  1
  Ge  Ge21  1  0.50000000  0.37764700  0.96158900  1
  Ge  Ge22  1  0.50000000  0.33985400  0.25000000  1
  Ge  Ge23  1  0.00000000  0.16014600  0.75000000  1
  Ge  Ge24  1  0.00000000  0.12235300  0.46158900  1
  Ge  Ge25  1  0.50000000  0.37764700  0.53841100  1
  Ge  Ge26  1  0.50000000  0.62235300  0.03841100  1
  Ge  Ge27  1  0.00000000  0.87764700  0.96158900  1
  Ge  Ge28  1  0.00000000  0.83985400  0.25000000  1
  Ge  Ge29  1  0.50000000  0.66014600  0.75000000  1
  Ge  Ge30  1  0.50000000  0.62235300  0.46158900  1
  Ge  Ge31  1  0.00000000  0.87764700  0.53841100  1
