# generated using pymatgen
data_Lu(BRh)4
_symmetry_space_group_name_H-M   'P 1'
_cell_length_a   7.50733800
_cell_length_b   22.38562200
_cell_length_c   7.51271000
_cell_angle_alpha   90.00000000
_cell_angle_beta   90.00000000
_cell_angle_gamma   90.00000000
_symmetry_Int_Tables_number   1
_chemical_formula_structural   Lu(BRh)4
_chemical_formula_sum   'Lu12 B48 Rh48'
_cell_volume   1262.55922744
_cell_formula_units_Z   12
loop_
 _symmetry_equiv_pos_site_id
 _symmetry_equiv_pos_as_xyz
  1  'x, y, z'
loop_
 _atom_site_type_symbol
 _atom_site_label
 _atom_site_symmetry_multiplicity
 _atom_site_fract_x
 _atom_site_fract_y
 _atom_site_fract_z
 _atom_site_occupancy
  Lu  Lu0  1  0.00000000  0.00000000  0.50000000  1
  Lu  Lu1  1  0.50000000  0.00000000  0.00000000  1
  Lu  Lu2  1  0.50000000  0.83316800  0.50000000  1
  Lu  Lu3  1  0.00000000  0.66683200  0.50000000  1
  Lu  Lu4  1  0.50000000  0.66683200  0.00000000  1
  Lu  Lu5  1  0.00000000  0.83316800  0.00000000  1
  Lu  Lu6  1  0.50000000  0.50000000  0.50000000  1
  Lu  Lu7  1  0.00000000  0.50000000  0.00000000  1
  Lu  Lu8  1  0.00000000  0.33316800  0.50000000  1
  Lu  Lu9  1  0.50000000  0.16683200  0.50000000  1
  Lu  Lu10  1  0.00000000  0.16683200  0.00000000  1
  Lu  Lu11  1  0.50000000  0.33316800  0.00000000  1
  B  B12  1  0.35553100  0.94655300  0.33425800  1
  B  B13  1  0.85553100  0.55344700  0.66574200  1
  B  B14  1  0.14446900  0.55344700  0.33425800  1
  B  B15  1  0.64446900  0.94655300  0.66574200  1
  B  B16  1  0.64446900  0.55344700  0.16574200  1
  B  B17  1  0.14446900  0.94655300  0.83425800  1
  B  B18  1  0.66949050  0.72155750  0.63632900  1
  B  B19  1  0.16949050  0.77844250  0.36367100  1
  B  B20  1  0.83050950  0.77844250  0.63632900  1
  B  B21  1  0.33050950  0.72155750  0.36367100  1
  B  B22  1  0.33050950  0.77844250  0.86367100  1
  B  B23  1  0.83050950  0.72155750  0.13632900  1
  B  B24  1  0.16949050  0.72155750  0.86367100  1
  B  B25  1  0.66949050  0.77844250  0.13632900  1
  B  B26  1  0.63698400  0.61041700  0.32802800  1
  B  B27  1  0.13698400  0.88958300  0.67197200  1
  B  B28  1  0.86301600  0.88958300  0.32802800  1
  B  B29  1  0.36301600  0.61041700  0.67197200  1
  B  B30  1  0.36301600  0.88958300  0.17197200  1
  B  B31  1  0.86301600  0.61041700  0.82802800  1
  B  B32  1  0.13698400  0.61041700  0.17197200  1
  B  B33  1  0.63698400  0.88958300  0.82802800  1
  B  B34  1  0.85553100  0.94655300  0.16574200  1
  B  B35  1  0.35553100  0.55344700  0.83425800  1
  B  B36  1  0.85553100  0.44655300  0.33425800  1
  B  B37  1  0.35553100  0.05344700  0.66574200  1
  B  B38  1  0.64446900  0.05344700  0.33425800  1
  B  B39  1  0.14446900  0.44655300  0.66574200  1
  B  B40  1  0.14446900  0.05344700  0.16574200  1
  B  B41  1  0.64446900  0.44655300  0.83425800  1
  B  B42  1  0.16949050  0.22155750  0.63632900  1
  B  B43  1  0.66949050  0.27844250  0.36367100  1
  B  B44  1  0.33050950  0.27844250  0.63632900  1
  B  B45  1  0.83050950  0.22155750  0.36367100  1
  B  B46  1  0.83050950  0.27844250  0.86367100  1
  B  B47  1  0.33050950  0.22155750  0.13632900  1
  B  B48  1  0.66949050  0.22155750  0.86367100  1
  B  B49  1  0.16949050  0.27844250  0.13632900  1
  B  B50  1  0.13698400  0.11041700  0.32802800  1
  B  B51  1  0.63698400  0.38958300  0.67197200  1
  B  B52  1  0.36301600  0.38958300  0.32802800  1
  B  B53  1  0.86301600  0.11041700  0.67197200  1
  B  B54  1  0.86301600  0.38958300  0.17197200  1
  B  B55  1  0.36301600  0.11041700  0.82802800  1
  B  B56  1  0.63698400  0.11041700  0.17197200  1
  B  B57  1  0.13698400  0.38958300  0.82802800  1
  B  B58  1  0.35553100  0.44655300  0.16574200  1
  B  B59  1  0.85553100  0.05344700  0.83425800  1
  Rh  Rh60  1  0.64934600  0.54291200  0.87598900  1
  Rh  Rh61  1  0.14934600  0.95708800  0.12401100  1
  Rh  Rh62  1  0.14934600  0.54291200  0.62401100  1
  Rh  Rh63  1  0.64934600  0.95708800  0.37598900  1
  Rh  Rh64  1  0.35065400  0.95708800  0.62401100  1
  Rh  Rh65  1  0.85065400  0.54291200  0.37598900  1
  Rh  Rh66  1  0.65409900  0.62553400  0.61435200  1
  Rh  Rh67  1  0.15409900  0.87446600  0.38564800  1
  Rh  Rh68  1  0.84590100  0.87446600  0.61435200  1
  Rh  Rh69  1  0.34590100  0.62553400  0.38564800  1
  Rh  Rh70  1  0.34590100  0.87446600  0.88564800  1
  Rh  Rh71  1  0.84590100  0.62553400  0.11435200  1
  Rh  Rh72  1  0.15409900  0.62553400  0.88564800  1
  Rh  Rh73  1  0.65409900  0.87446600  0.11435200  1
  Rh  Rh74  1  0.61621350  0.70870250  0.34405100  1
  Rh  Rh75  1  0.11621350  0.79129750  0.65594900  1
  Rh  Rh76  1  0.88378650  0.79129750  0.34405100  1
  Rh  Rh77  1  0.38378650  0.70870250  0.65594900  1
  Rh  Rh78  1  0.38378650  0.79129750  0.15594900  1
  Rh  Rh79  1  0.88378650  0.70870250  0.84405100  1
  Rh  Rh80  1  0.11621350  0.70870250  0.15594900  1
  Rh  Rh81  1  0.61621350  0.79129750  0.84405100  1
  Rh  Rh82  1  0.35065400  0.54291200  0.12401100  1
  Rh  Rh83  1  0.85065400  0.95708800  0.87598900  1
  Rh  Rh84  1  0.14934600  0.04291200  0.87598900  1
  Rh  Rh85  1  0.64934600  0.45708800  0.12401100  1
  Rh  Rh86  1  0.64934600  0.04291200  0.62401100  1
  Rh  Rh87  1  0.14934600  0.45708800  0.37598900  1
  Rh  Rh88  1  0.85065400  0.45708800  0.62401100  1
  Rh  Rh89  1  0.35065400  0.04291200  0.37598900  1
  Rh  Rh90  1  0.15409900  0.12553400  0.61435200  1
  Rh  Rh91  1  0.65409900  0.37446600  0.38564800  1
  Rh  Rh92  1  0.34590100  0.37446600  0.61435200  1
  Rh  Rh93  1  0.84590100  0.12553400  0.38564800  1
  Rh  Rh94  1  0.84590100  0.37446600  0.88564800  1
  Rh  Rh95  1  0.34590100  0.12553400  0.11435200  1
  Rh  Rh96  1  0.65409900  0.12553400  0.88564800  1
  Rh  Rh97  1  0.15409900  0.37446600  0.11435200  1
  Rh  Rh98  1  0.11621350  0.20870250  0.34405100  1
  Rh  Rh99  1  0.61621350  0.29129750  0.65594900  1
  Rh  Rh100  1  0.38378650  0.29129750  0.34405100  1
  Rh  Rh101  1  0.88378650  0.20870250  0.65594900  1
  Rh  Rh102  1  0.88378650  0.29129750  0.15594900  1
  Rh  Rh103  1  0.38378650  0.20870250  0.84405100  1
  Rh  Rh104  1  0.61621350  0.20870250  0.15594900  1
  Rh  Rh105  1  0.11621350  0.29129750  0.84405100  1
  Rh  Rh106  1  0.85065400  0.04291200  0.12401100  1
  Rh  Rh107  1  0.35065400  0.45708800  0.87598900  1
