# generated using pymatgen
data_Y(CuO2)2
_symmetry_space_group_name_H-M   'P 1'
_cell_length_a   5.71549800
_cell_length_b   5.71549800
_cell_length_c   9.63482400
_cell_angle_alpha   90.00000000
_cell_angle_beta   90.00000000
_cell_angle_gamma   90.00000000
_symmetry_Int_Tables_number   1
_chemical_formula_structural   Y(CuO2)2
_chemical_formula_sum   'Y4 Cu8 O16'
_cell_volume   314.73999966
_cell_formula_units_Z   4
loop_
 _symmetry_equiv_pos_site_id
 _symmetry_equiv_pos_as_xyz
  1  'x, y, z'
loop_
 _atom_site_type_symbol
 _atom_site_label
 _atom_site_symmetry_multiplicity
 _atom_site_fract_x
 _atom_site_fract_y
 _atom_site_fract_z
 _atom_site_occupancy
  Y  Y0  1  0.00000000  0.00000000  0.00000000  1
  Y  Y1  1  0.00000000  0.50000000  0.25000000  1
  Y  Y2  1  0.50000000  0.50000000  0.50000000  1
  Y  Y3  1  0.50000000  0.00000000  0.75000000  1
  Cu  Cu4  1  0.50000000  0.75000000  0.12500000  1
  Cu  Cu5  1  0.50000000  0.25000000  0.12500000  1
  Cu  Cu6  1  0.75000000  0.00000000  0.37500000  1
  Cu  Cu7  1  0.25000000  0.00000000  0.37500000  1
  Cu  Cu8  1  0.00000000  0.25000000  0.62500000  1
  Cu  Cu9  1  0.00000000  0.75000000  0.62500000  1
  Cu  Cu10  1  0.25000000  0.50000000  0.87500000  1
  Cu  Cu11  1  0.75000000  0.50000000  0.87500000  1
  O  O12  1  0.79120000  0.14707100  0.19828300  1
  O  O13  1  0.20880000  0.85292900  0.19828300  1
  O  O14  1  0.79120000  0.64707100  0.05171700  1
  O  O15  1  0.20880000  0.35292900  0.05171700  1
  O  O16  1  0.14707100  0.70880000  0.44828300  1
  O  O17  1  0.85292900  0.29120000  0.44828300  1
  O  O18  1  0.35292900  0.29120000  0.30171700  1
  O  O19  1  0.64707100  0.70880000  0.30171700  1
  O  O20  1  0.29120000  0.64707100  0.69828300  1
  O  O21  1  0.70880000  0.35292900  0.69828300  1
  O  O22  1  0.29120000  0.14707100  0.55171700  1
  O  O23  1  0.70880000  0.85292900  0.55171700  1
  O  O24  1  0.64707100  0.20880000  0.94828300  1
  O  O25  1  0.35292900  0.79120000  0.94828300  1
  O  O26  1  0.85292900  0.79120000  0.80171700  1
  O  O27  1  0.14707100  0.20880000  0.80171700  1
