# generated using pymatgen
data_CrO2
_symmetry_space_group_name_H-M   'P 1'
_cell_length_a   2.97993599
_cell_length_b   2.97993599
_cell_length_c   14.36986140
_cell_angle_alpha   90.00000000
_cell_angle_beta   90.00000000
_cell_angle_gamma   120.00000000
_symmetry_Int_Tables_number   1
_chemical_formula_structural   CrO2
_chemical_formula_sum   'Cr3 O6'
_cell_volume   110.50885597
_cell_formula_units_Z   3
loop_
 _symmetry_equiv_pos_site_id
 _symmetry_equiv_pos_as_xyz
  1  'x, y, z'
loop_
 _atom_site_type_symbol
 _atom_site_label
 _atom_site_symmetry_multiplicity
 _atom_site_fract_x
 _atom_site_fract_y
 _atom_site_fract_z
 _atom_site_occupancy
  Cr  Cr0  1  0.33333333  0.66666667  0.16666667  1
  Cr  Cr1  1  1.00000000  1.00000000  0.50000000  1
  Cr  Cr2  1  0.66666667  0.33333333  0.83333333  1
  O  O3  1  0.66666667  0.33333333  0.10241533  1
  O  O4  1  0.00000000  0.00000000  0.23091800  1
  O  O5  1  0.33333333  0.66666667  0.43574867  1
  O  O6  1  0.66666667  0.33333333  0.56425133  1
  O  O7  1  0.00000000  0.00000000  0.76908200  1
  O  O8  1  0.33333333  0.66666667  0.89758467  1
