# generated using pymatgen
data_Gd3CCl3
_symmetry_space_group_name_H-M   'P 1'
_cell_length_a   10.83818600
_cell_length_b   10.83818600
_cell_length_c   10.83818600
_cell_angle_alpha   90.00000000
_cell_angle_beta   90.00000000
_cell_angle_gamma   90.00000000
_symmetry_Int_Tables_number   1
_chemical_formula_structural   Gd3CCl3
_chemical_formula_sum   'Gd24 C8 Cl24'
_cell_volume   1273.12134553
_cell_formula_units_Z   8
loop_
 _symmetry_equiv_pos_site_id
 _symmetry_equiv_pos_as_xyz
  1  'x, y, z'
loop_
 _atom_site_type_symbol
 _atom_site_label
 _atom_site_symmetry_multiplicity
 _atom_site_fract_x
 _atom_site_fract_y
 _atom_site_fract_z
 _atom_site_occupancy
  Gd  Gd0  1  0.14270500  0.87500000  0.60729500  1
  Gd  Gd1  1  0.87500000  0.39270500  0.35729500  1
  Gd  Gd2  1  0.39270500  0.35729500  0.87500000  1
  Gd  Gd3  1  0.12500000  0.10729500  0.35729500  1
  Gd  Gd4  1  0.89270500  0.14270500  0.12500000  1
  Gd  Gd5  1  0.35729500  0.12500000  0.10729500  1
  Gd  Gd6  1  0.14270500  0.12500000  0.89270500  1
  Gd  Gd7  1  0.60729500  0.14270500  0.87500000  1
  Gd  Gd8  1  0.10729500  0.35729500  0.12500000  1
  Gd  Gd9  1  0.87500000  0.60729500  0.14270500  1
  Gd  Gd10  1  0.12500000  0.89270500  0.14270500  1
  Gd  Gd11  1  0.35729500  0.87500000  0.39270500  1
  Gd  Gd12  1  0.64270500  0.37500000  0.10729500  1
  Gd  Gd13  1  0.37500000  0.89270500  0.85729500  1
  Gd  Gd14  1  0.89270500  0.85729500  0.37500000  1
  Gd  Gd15  1  0.62500000  0.60729500  0.85729500  1
  Gd  Gd16  1  0.39270500  0.64270500  0.62500000  1
  Gd  Gd17  1  0.85729500  0.62500000  0.60729500  1
  Gd  Gd18  1  0.64270500  0.62500000  0.39270500  1
  Gd  Gd19  1  0.10729500  0.64270500  0.37500000  1
  Gd  Gd20  1  0.60729500  0.85729500  0.62500000  1
  Gd  Gd21  1  0.37500000  0.10729500  0.64270500  1
  Gd  Gd22  1  0.62500000  0.39270500  0.64270500  1
  Gd  Gd23  1  0.85729500  0.37500000  0.89270500  1
  C  C24  1  0.12500000  0.12500000  0.12500000  1
  C  C25  1  0.37500000  0.12500000  0.87500000  1
  C  C26  1  0.12500000  0.87500000  0.37500000  1
  C  C27  1  0.87500000  0.37500000  0.12500000  1
  C  C28  1  0.62500000  0.62500000  0.62500000  1
  C  C29  1  0.87500000  0.62500000  0.37500000  1
  C  C30  1  0.62500000  0.37500000  0.87500000  1
  C  C31  1  0.37500000  0.87500000  0.62500000  1
  Cl  Cl32  1  0.36812850  0.37500000  0.61812850  1
  Cl  Cl33  1  0.11812850  0.13187150  0.62500000  1
  Cl  Cl34  1  0.37500000  0.61812850  0.36812850  1
  Cl  Cl35  1  0.62500000  0.88187150  0.36812850  1
  Cl  Cl36  1  0.61812850  0.36812850  0.37500000  1
  Cl  Cl37  1  0.36812850  0.62500000  0.88187150  1
  Cl  Cl38  1  0.13187150  0.62500000  0.11812850  1
  Cl  Cl39  1  0.38187150  0.13187150  0.37500000  1
  Cl  Cl40  1  0.13187150  0.37500000  0.38187150  1
  Cl  Cl41  1  0.62500000  0.11812850  0.13187150  1
  Cl  Cl42  1  0.37500000  0.38187150  0.13187150  1
  Cl  Cl43  1  0.88187150  0.36812850  0.62500000  1
  Cl  Cl44  1  0.86812850  0.87500000  0.11812850  1
  Cl  Cl45  1  0.61812850  0.63187150  0.12500000  1
  Cl  Cl46  1  0.87500000  0.11812850  0.86812850  1
  Cl  Cl47  1  0.12500000  0.38187150  0.86812850  1
  Cl  Cl48  1  0.11812850  0.86812850  0.87500000  1
  Cl  Cl49  1  0.86812850  0.12500000  0.38187150  1
  Cl  Cl50  1  0.63187150  0.12500000  0.61812850  1
  Cl  Cl51  1  0.88187150  0.63187150  0.87500000  1
  Cl  Cl52  1  0.63187150  0.87500000  0.88187150  1
  Cl  Cl53  1  0.12500000  0.61812850  0.63187150  1
  Cl  Cl54  1  0.87500000  0.88187150  0.63187150  1
  Cl  Cl55  1  0.38187150  0.86812850  0.12500000  1
