# generated using pymatgen
data_MnGeO3
_symmetry_space_group_name_H-M   'P 1'
_cell_length_a   5.09503669
_cell_length_b   5.09503669
_cell_length_c   14.55278202
_cell_angle_alpha   90.00000000
_cell_angle_beta   90.00000000
_cell_angle_gamma   120.00000000
_symmetry_Int_Tables_number   1
_chemical_formula_structural   MnGeO3
_chemical_formula_sum   'Mn6 Ge6 O18'
_cell_volume   327.16835344
_cell_formula_units_Z   6
loop_
 _symmetry_equiv_pos_site_id
 _symmetry_equiv_pos_as_xyz
  1  'x, y, z'
loop_
 _atom_site_type_symbol
 _atom_site_label
 _atom_site_symmetry_multiplicity
 _atom_site_fract_x
 _atom_site_fract_y
 _atom_site_fract_z
 _atom_site_occupancy
  Mn  Mn0  1  0.33333333  0.66666667  0.30360967  1
  Mn  Mn1  1  0.33333333  0.66666667  0.02972367  1
  Mn  Mn2  1  0.00000000  0.00000000  0.63694300  1
  Mn  Mn3  1  0.00000000  0.00000000  0.36305700  1
  Mn  Mn4  1  0.66666667  0.33333333  0.97027633  1
  Mn  Mn5  1  0.66666667  0.33333333  0.69639033  1
  Ge  Ge6  1  0.00000000  0.00000000  0.15705333  1
  Ge  Ge7  1  0.66666667  0.33333333  0.17628000  1
  Ge  Ge8  1  0.66666667  0.33333333  0.49038667  1
  Ge  Ge9  1  0.33333333  0.66666667  0.50961333  1
  Ge  Ge10  1  0.33333333  0.66666667  0.82372000  1
  Ge  Ge11  1  0.00000000  1.00000000  0.84294667  1
  O  O12  1  0.31980600  0.03587900  0.24098000  1
  O  O13  1  0.96412100  0.28392700  0.24098000  1
  O  O14  1  0.71607300  0.68019400  0.24098000  1
  O  O15  1  0.34686067  0.29745433  0.09235333  1
  O  O16  1  0.70254567  0.04940633  0.09235333  1
  O  O17  1  0.95059367  0.65313933  0.09235333  1
  O  O18  1  0.98647267  0.36921233  0.57431333  1
  O  O19  1  0.63078767  0.61726033  0.57431333  1
  O  O20  1  0.38273967  0.01352733  0.57431333  1
  O  O21  1  0.01352733  0.63078767  0.42568667  1
  O  O22  1  0.36921233  0.38273967  0.42568667  1
  O  O23  1  0.61726033  0.98647267  0.42568667  1
  O  O24  1  0.65313933  0.70254567  0.90764667  1
  O  O25  1  0.29745433  0.95059367  0.90764667  1
  O  O26  1  0.04940633  0.34686067  0.90764667  1
  O  O27  1  0.68019400  0.96412100  0.75902000  1
  O  O28  1  0.03587900  0.71607300  0.75902000  1
  O  O29  1  0.28392700  0.31980600  0.75902000  1
