# generated using pymatgen
data_Ce3Sn7
_symmetry_space_group_name_H-M   'P 1'
_cell_length_a   4.58021800
_cell_length_b   25.34488800
_cell_length_c   4.64450800
_cell_angle_alpha   90.00000000
_cell_angle_beta   90.00000000
_cell_angle_gamma   90.00000000
_symmetry_Int_Tables_number   1
_chemical_formula_structural   Ce3Sn7
_chemical_formula_sum   'Ce6 Sn14'
_cell_volume   539.15823241
_cell_formula_units_Z   2
loop_
 _symmetry_equiv_pos_site_id
 _symmetry_equiv_pos_as_xyz
  1  'x, y, z'
loop_
 _atom_site_type_symbol
 _atom_site_label
 _atom_site_symmetry_multiplicity
 _atom_site_fract_x
 _atom_site_fract_y
 _atom_site_fract_z
 _atom_site_occupancy
  Ce  Ce0  1  0.50000000  0.68526300  0.00000000  1
  Ce  Ce1  1  0.00000000  0.81473700  0.00000000  1
  Ce  Ce2  1  0.00000000  0.00000000  0.00000000  1
  Ce  Ce3  1  0.00000000  0.18526300  0.00000000  1
  Ce  Ce4  1  0.50000000  0.31473700  0.00000000  1
  Ce  Ce5  1  0.50000000  0.50000000  0.00000000  1
  Sn  Sn6  1  0.50000000  0.79157100  0.50000000  1
  Sn  Sn7  1  0.00000000  0.70842900  0.50000000  1
  Sn  Sn8  1  0.50000000  0.59597800  0.50000000  1
  Sn  Sn9  1  0.50000000  0.00000000  0.50000000  1
  Sn  Sn10  1  0.00000000  0.59505000  0.00000000  1
  Sn  Sn11  1  0.50000000  0.90495000  0.00000000  1
  Sn  Sn12  1  0.00000000  0.90402200  0.50000000  1
  Sn  Sn13  1  0.00000000  0.29157100  0.50000000  1
  Sn  Sn14  1  0.50000000  0.20842900  0.50000000  1
  Sn  Sn15  1  0.00000000  0.09597800  0.50000000  1
  Sn  Sn16  1  0.00000000  0.50000000  0.50000000  1
  Sn  Sn17  1  0.50000000  0.09505000  0.00000000  1
  Sn  Sn18  1  0.00000000  0.40495000  0.00000000  1
  Sn  Sn19  1  0.50000000  0.40402200  0.50000000  1
