# generated using pymatgen
data_Ga3Ni5Ge2
_symmetry_space_group_name_H-M   'P 1'
_cell_length_a   3.90476600
_cell_length_b   12.13554200
_cell_length_c   11.15499100
_cell_angle_alpha   90.00000000
_cell_angle_beta   90.00000000
_cell_angle_gamma   90.00000000
_symmetry_Int_Tables_number   1
_chemical_formula_structural   Ga3Ni5Ge2
_chemical_formula_sum   'Ga12 Ni20 Ge8'
_cell_volume   528.59544327
_cell_formula_units_Z   4
loop_
 _symmetry_equiv_pos_site_id
 _symmetry_equiv_pos_as_xyz
  1  'x, y, z'
loop_
 _atom_site_type_symbol
 _atom_site_label
 _atom_site_symmetry_multiplicity
 _atom_site_fract_x
 _atom_site_fract_y
 _atom_site_fract_z
 _atom_site_occupancy
  Ga  Ga0  1  0.50000000  0.33127100  0.47678900  1
  Ga  Ga1  1  0.00000000  0.16872900  0.52321100  1
  Ga  Ga2  1  0.00000000  0.16872900  0.97678900  1
  Ga  Ga3  1  0.50000000  0.33127100  0.02321100  1
  Ga  Ga4  1  0.50000000  0.00000000  0.50000000  1
  Ga  Ga5  1  0.50000000  0.00000000  0.00000000  1
  Ga  Ga6  1  0.00000000  0.83127100  0.47678900  1
  Ga  Ga7  1  0.50000000  0.66872900  0.52321100  1
  Ga  Ga8  1  0.50000000  0.66872900  0.97678900  1
  Ga  Ga9  1  0.00000000  0.83127100  0.02321100  1
  Ga  Ga10  1  0.00000000  0.50000000  0.50000000  1
  Ga  Ga11  1  0.00000000  0.50000000  0.00000000  1
  Ni  Ni12  1  0.50000000  0.15925200  0.36807000  1
  Ni  Ni13  1  0.00000000  0.34074800  0.63193000  1
  Ni  Ni14  1  0.00000000  0.34074800  0.86807000  1
  Ni  Ni15  1  0.50000000  0.15925200  0.13193000  1
  Ni  Ni16  1  0.00000000  0.02050500  0.36811800  1
  Ni  Ni17  1  0.50000000  0.47949500  0.63188200  1
  Ni  Ni18  1  0.50000000  0.47949500  0.86811800  1
  Ni  Ni19  1  0.00000000  0.02050500  0.13188200  1
  Ni  Ni20  1  0.50000000  0.33957300  0.25000000  1
  Ni  Ni21  1  0.00000000  0.16042700  0.75000000  1
  Ni  Ni22  1  0.00000000  0.65925200  0.36807000  1
  Ni  Ni23  1  0.50000000  0.84074800  0.63193000  1
  Ni  Ni24  1  0.50000000  0.84074800  0.86807000  1
  Ni  Ni25  1  0.00000000  0.65925200  0.13193000  1
  Ni  Ni26  1  0.50000000  0.52050500  0.36811800  1
  Ni  Ni27  1  0.00000000  0.97949500  0.63188200  1
  Ni  Ni28  1  0.00000000  0.97949500  0.86811800  1
  Ni  Ni29  1  0.50000000  0.52050500  0.13188200  1
  Ni  Ni30  1  0.00000000  0.83957300  0.25000000  1
  Ni  Ni31  1  0.50000000  0.66042700  0.75000000  1
  Ge  Ge32  1  0.00000000  0.21066100  0.25000000  1
  Ge  Ge33  1  0.50000000  0.28933900  0.75000000  1
  Ge  Ge34  1  0.00000000  0.46259200  0.25000000  1
  Ge  Ge35  1  0.50000000  0.03740800  0.75000000  1
  Ge  Ge36  1  0.50000000  0.71066100  0.25000000  1
  Ge  Ge37  1  0.00000000  0.78933900  0.75000000  1
  Ge  Ge38  1  0.50000000  0.96259200  0.25000000  1
  Ge  Ge39  1  0.00000000  0.53740800  0.75000000  1
