# generated using pymatgen
data_Sm(Sn3Ru2)2
_symmetry_space_group_name_H-M   'P 1'
_cell_length_a   6.94428000
_cell_length_b   6.94428000
_cell_length_c   9.88681200
_cell_angle_alpha   90.00000000
_cell_angle_beta   90.00000000
_cell_angle_gamma   90.00000000
_symmetry_Int_Tables_number   1
_chemical_formula_structural   Sm(Sn3Ru2)2
_chemical_formula_sum   'Sm2 Sn12 Ru8'
_cell_volume   476.77197946
_cell_formula_units_Z   2
loop_
 _symmetry_equiv_pos_site_id
 _symmetry_equiv_pos_as_xyz
  1  'x, y, z'
loop_
 _atom_site_type_symbol
 _atom_site_label
 _atom_site_symmetry_multiplicity
 _atom_site_fract_x
 _atom_site_fract_y
 _atom_site_fract_z
 _atom_site_occupancy
  Sm  Sm0  1  0.00000000  0.00000000  0.00000000  1
  Sm  Sm1  1  0.50000000  0.50000000  0.50000000  1
  Sn  Sn2  1  0.50000000  0.00000000  0.00000000  1
  Sn  Sn3  1  0.17641400  0.17641400  0.29428900  1
  Sn  Sn4  1  0.67641400  0.32358600  0.20571100  1
  Sn  Sn5  1  0.32358600  0.67641400  0.20571100  1
  Sn  Sn6  1  0.82358600  0.82358600  0.29428900  1
  Sn  Sn7  1  0.00000000  0.50000000  0.00000000  1
  Sn  Sn8  1  0.00000000  0.50000000  0.50000000  1
  Sn  Sn9  1  0.67641400  0.67641400  0.79428900  1
  Sn  Sn10  1  0.17641400  0.82358600  0.70571100  1
  Sn  Sn11  1  0.82358600  0.17641400  0.70571100  1
  Sn  Sn12  1  0.32358600  0.32358600  0.79428900  1
  Sn  Sn13  1  0.50000000  0.00000000  0.50000000  1
  Ru  Ru14  1  0.32728550  0.32728550  0.07774650  1
  Ru  Ru15  1  0.67271450  0.67271450  0.07774650  1
  Ru  Ru16  1  0.17271450  0.82728550  0.42225350  1
  Ru  Ru17  1  0.82728550  0.17271450  0.42225350  1
  Ru  Ru18  1  0.82728550  0.82728550  0.57774650  1
  Ru  Ru19  1  0.17271450  0.17271450  0.57774650  1
  Ru  Ru20  1  0.67271450  0.32728550  0.92225350  1
  Ru  Ru21  1  0.32728550  0.67271450  0.92225350  1
