# generated using pymatgen
data_Ca2Si3Ag
_symmetry_space_group_name_H-M   'P 1'
_cell_length_a   8.34502000
_cell_length_b   8.67647800
_cell_length_c   14.43508600
_cell_angle_alpha   90.00000000
_cell_angle_beta   90.00000000
_cell_angle_gamma   90.00000000
_symmetry_Int_Tables_number   1
_chemical_formula_structural   Ca2Si3Ag
_chemical_formula_sum   'Ca16 Si24 Ag8'
_cell_volume   1045.17792238
_cell_formula_units_Z   8
loop_
 _symmetry_equiv_pos_site_id
 _symmetry_equiv_pos_as_xyz
  1  'x, y, z'
loop_
 _atom_site_type_symbol
 _atom_site_label
 _atom_site_symmetry_multiplicity
 _atom_site_fract_x
 _atom_site_fract_y
 _atom_site_fract_z
 _atom_site_occupancy
  Ca  Ca0  1  0.75000000  0.25000000  0.25000000  1
  Ca  Ca1  1  0.50000000  0.25287600  0.00000000  1
  Ca  Ca2  1  0.75000000  0.75000000  0.25000000  1
  Ca  Ca3  1  0.50000000  0.74712400  0.00000000  1
  Ca  Ca4  1  0.75000000  0.75000000  0.75000000  1
  Ca  Ca5  1  0.50000000  0.75287600  0.50000000  1
  Ca  Ca6  1  0.75000000  0.25000000  0.75000000  1
  Ca  Ca7  1  0.50000000  0.24712400  0.50000000  1
  Ca  Ca8  1  0.25000000  0.25000000  0.75000000  1
  Ca  Ca9  1  0.00000000  0.25287600  0.50000000  1
  Ca  Ca10  1  0.25000000  0.75000000  0.75000000  1
  Ca  Ca11  1  0.00000000  0.74712400  0.50000000  1
  Ca  Ca12  1  0.25000000  0.75000000  0.25000000  1
  Ca  Ca13  1  0.00000000  0.75287600  0.00000000  1
  Ca  Ca14  1  0.25000000  0.25000000  0.25000000  1
  Ca  Ca15  1  0.00000000  0.24712400  0.00000000  1
  Si  Si16  1  0.24361200  0.00000000  0.08085300  1
  Si  Si17  1  0.74361200  0.00000000  0.41914700  1
  Si  Si18  1  0.25638800  0.00000000  0.41914700  1
  Si  Si19  1  0.75638800  0.00000000  0.08085300  1
  Si  Si20  1  0.00000000  0.00000000  0.16158200  1
  Si  Si21  1  0.50000000  0.00000000  0.33841800  1
  Si  Si22  1  0.24361200  0.50000000  0.58085300  1
  Si  Si23  1  0.74361200  0.50000000  0.91914700  1
  Si  Si24  1  0.25638800  0.50000000  0.91914700  1
  Si  Si25  1  0.75638800  0.50000000  0.58085300  1
  Si  Si26  1  0.00000000  0.50000000  0.66158200  1
  Si  Si27  1  0.50000000  0.50000000  0.83841800  1
  Si  Si28  1  0.74361200  0.00000000  0.58085300  1
  Si  Si29  1  0.24361200  0.00000000  0.91914700  1
  Si  Si30  1  0.75638800  0.00000000  0.91914700  1
  Si  Si31  1  0.25638800  0.00000000  0.58085300  1
  Si  Si32  1  0.50000000  0.00000000  0.66158200  1
  Si  Si33  1  0.00000000  0.00000000  0.83841800  1
  Si  Si34  1  0.74361200  0.50000000  0.08085300  1
  Si  Si35  1  0.24361200  0.50000000  0.41914700  1
  Si  Si36  1  0.75638800  0.50000000  0.41914700  1
  Si  Si37  1  0.25638800  0.50000000  0.08085300  1
  Si  Si38  1  0.50000000  0.50000000  0.16158200  1
  Si  Si39  1  0.00000000  0.50000000  0.33841800  1
  Ag  Ag40  1  0.50000000  0.00000000  0.16661900  1
  Ag  Ag41  1  0.00000000  0.00000000  0.33338100  1
  Ag  Ag42  1  0.50000000  0.50000000  0.66661900  1
  Ag  Ag43  1  0.00000000  0.50000000  0.83338100  1
  Ag  Ag44  1  0.00000000  0.00000000  0.66661900  1
  Ag  Ag45  1  0.50000000  0.00000000  0.83338100  1
  Ag  Ag46  1  0.00000000  0.50000000  0.16661900  1
  Ag  Ag47  1  0.50000000  0.50000000  0.33338100  1
