# generated using pymatgen
data_Sc5(Re2Si3)4
_symmetry_space_group_name_H-M   'P 1'
_cell_length_a   5.26804200
_cell_length_b   19.78008000
_cell_length_c   14.50626300
_cell_angle_alpha   90.00000000
_cell_angle_beta   90.00000000
_cell_angle_gamma   90.00000000
_symmetry_Int_Tables_number   1
_chemical_formula_structural   Sc5(Re2Si3)4
_chemical_formula_sum   'Sc20 Re32 Si48'
_cell_volume   1511.58585590
_cell_formula_units_Z   4
loop_
 _symmetry_equiv_pos_site_id
 _symmetry_equiv_pos_as_xyz
  1  'x, y, z'
loop_
 _atom_site_type_symbol
 _atom_site_label
 _atom_site_symmetry_multiplicity
 _atom_site_fract_x
 _atom_site_fract_y
 _atom_site_fract_z
 _atom_site_occupancy
  Sc  Sc0  1  0.27622650  0.13559550  0.32678100  1
  Sc  Sc1  1  0.03930900  0.00000000  0.00000000  1
  Sc  Sc2  1  0.27622650  0.13559550  0.67321900  1
  Sc  Sc3  1  0.27292900  0.36592500  0.17527200  1
  Sc  Sc4  1  0.77292900  0.13407500  0.82472800  1
  Sc  Sc5  1  0.27292900  0.36592500  0.82472800  1
  Sc  Sc6  1  0.77292900  0.13407500  0.17527200  1
  Sc  Sc7  1  0.56360200  0.00000000  0.50000000  1
  Sc  Sc8  1  0.77622650  0.36440450  0.32678100  1
  Sc  Sc9  1  0.77622650  0.36440450  0.67321900  1
  Sc  Sc10  1  0.77622650  0.63559550  0.32678100  1
  Sc  Sc11  1  0.53930900  0.50000000  0.00000000  1
  Sc  Sc12  1  0.77622650  0.63559550  0.67321900  1
  Sc  Sc13  1  0.77292900  0.86592500  0.17527200  1
  Sc  Sc14  1  0.27292900  0.63407500  0.82472800  1
  Sc  Sc15  1  0.77292900  0.86592500  0.82472800  1
  Sc  Sc16  1  0.27292900  0.63407500  0.17527200  1
  Sc  Sc17  1  0.06360200  0.50000000  0.50000000  1
  Sc  Sc18  1  0.27622650  0.86440450  0.32678100  1
  Sc  Sc19  1  0.27622650  0.86440450  0.67321900  1
  Re  Re20  1  0.02824300  0.10064600  0.50000000  1
  Re  Re21  1  0.52824300  0.39935400  0.50000000  1
  Re  Re22  1  0.26760750  0.29417250  0.37590800  1
  Re  Re23  1  0.76760750  0.20582750  0.62409200  1
  Re  Re24  1  0.52736250  0.08372350  0.00000000  1
  Re  Re25  1  0.02736250  0.41627650  0.00000000  1
  Re  Re26  1  0.76760750  0.20582750  0.37590800  1
  Re  Re27  1  0.27112850  0.20109250  0.10754700  1
  Re  Re28  1  0.00097700  0.00000000  0.23086300  1
  Re  Re29  1  0.00097700  0.00000000  0.76913700  1
  Re  Re30  1  0.49317100  0.00000000  0.27939900  1
  Re  Re31  1  0.49317100  0.00000000  0.72060100  1
  Re  Re32  1  0.77112850  0.29890750  0.89245300  1
  Re  Re33  1  0.27112850  0.20109250  0.89245300  1
  Re  Re34  1  0.77112850  0.29890750  0.10754700  1
  Re  Re35  1  0.26760750  0.29417250  0.62409200  1
  Re  Re36  1  0.52824300  0.60064600  0.50000000  1
  Re  Re37  1  0.02824300  0.89935400  0.50000000  1
  Re  Re38  1  0.76760750  0.79417250  0.37590800  1
  Re  Re39  1  0.26760750  0.70582750  0.62409200  1
  Re  Re40  1  0.02736250  0.58372350  0.00000000  1
  Re  Re41  1  0.52736250  0.91627650  0.00000000  1
  Re  Re42  1  0.26760750  0.70582750  0.37590800  1
  Re  Re43  1  0.77112850  0.70109250  0.10754700  1
  Re  Re44  1  0.50097700  0.50000000  0.23086300  1
  Re  Re45  1  0.50097700  0.50000000  0.76913700  1
  Re  Re46  1  0.99317100  0.50000000  0.27939900  1
  Re  Re47  1  0.99317100  0.50000000  0.72060100  1
  Re  Re48  1  0.27112850  0.79890750  0.89245300  1
  Re  Re49  1  0.77112850  0.70109250  0.89245300  1
  Re  Re50  1  0.27112850  0.79890750  0.10754700  1
  Re  Re51  1  0.76760750  0.79417250  0.62409200  1
  Si  Si52  1  0.77694900  0.42180500  0.14864200  1
  Si  Si53  1  0.27694900  0.07819500  0.85135800  1
  Si  Si54  1  0.77694900  0.42180500  0.85135800  1
  Si  Si55  1  0.27694900  0.07819500  0.14864200  1
  Si  Si56  1  0.10681550  0.21944850  0.50000000  1
  Si  Si57  1  0.13803600  0.00000000  0.60333100  1
  Si  Si58  1  0.13803600  0.00000000  0.39666900  1
  Si  Si59  1  0.65126100  0.00000000  0.87869000  1
  Si  Si60  1  0.60681550  0.28055150  0.50000000  1
  Si  Si61  1  0.51209100  0.36898800  0.00000000  1
  Si  Si62  1  0.01209100  0.13101200  0.00000000  1
  Si  Si63  1  0.63558500  0.20782200  0.00000000  1
  Si  Si64  1  0.52185950  0.24986750  0.24218100  1
  Si  Si65  1  0.02185950  0.25013250  0.75781900  1
  Si  Si66  1  0.52185950  0.24986750  0.75781900  1
  Si  Si67  1  0.02185950  0.25013250  0.24218100  1
  Si  Si68  1  0.53090750  0.13995350  0.50000000  1
  Si  Si69  1  0.13558500  0.29217800  0.00000000  1
  Si  Si70  1  0.03090750  0.36004650  0.50000000  1
  Si  Si71  1  0.65126100  0.00000000  0.12131000  1
  Si  Si72  1  0.78300350  0.08095850  0.35326400  1
  Si  Si73  1  0.28300350  0.41904150  0.64673600  1
  Si  Si74  1  0.78300350  0.08095850  0.64673600  1
  Si  Si75  1  0.28300350  0.41904150  0.35326400  1
  Si  Si76  1  0.27694900  0.92180500  0.14864200  1
  Si  Si77  1  0.77694900  0.57819500  0.85135800  1
  Si  Si78  1  0.27694900  0.92180500  0.85135800  1
  Si  Si79  1  0.77694900  0.57819500  0.14864200  1
  Si  Si80  1  0.60681550  0.71944850  0.50000000  1
  Si  Si81  1  0.63803600  0.50000000  0.60333100  1
  Si  Si82  1  0.63803600  0.50000000  0.39666900  1
  Si  Si83  1  0.15126100  0.50000000  0.87869000  1
  Si  Si84  1  0.10681550  0.78055150  0.50000000  1
  Si  Si85  1  0.01209100  0.86898800  0.00000000  1
  Si  Si86  1  0.51209100  0.63101200  0.00000000  1
  Si  Si87  1  0.13558500  0.70782200  0.00000000  1
  Si  Si88  1  0.02185950  0.74986750  0.24218100  1
  Si  Si89  1  0.52185950  0.75013250  0.75781900  1
  Si  Si90  1  0.02185950  0.74986750  0.75781900  1
  Si  Si91  1  0.52185950  0.75013250  0.24218100  1
  Si  Si92  1  0.03090750  0.63995350  0.50000000  1
  Si  Si93  1  0.63558500  0.79217800  0.00000000  1
  Si  Si94  1  0.53090750  0.86004650  0.50000000  1
  Si  Si95  1  0.15126100  0.50000000  0.12131000  1
  Si  Si96  1  0.28300350  0.58095850  0.35326400  1
  Si  Si97  1  0.78300350  0.91904150  0.64673600  1
  Si  Si98  1  0.28300350  0.58095850  0.64673600  1
  Si  Si99  1  0.78300350  0.91904150  0.35326400  1
