# generated using pymatgen
data_Cr3AsN
_symmetry_space_group_name_H-M   'P 1'
_cell_length_a   5.33963400
_cell_length_b   5.33963400
_cell_length_c   7.91684200
_cell_angle_alpha   90.00000000
_cell_angle_beta   90.00000000
_cell_angle_gamma   90.00000000
_symmetry_Int_Tables_number   1
_chemical_formula_structural   Cr3AsN
_chemical_formula_sum   'Cr12 As4 N4'
_cell_volume   225.72255481
_cell_formula_units_Z   4
loop_
 _symmetry_equiv_pos_site_id
 _symmetry_equiv_pos_as_xyz
  1  'x, y, z'
loop_
 _atom_site_type_symbol
 _atom_site_label
 _atom_site_symmetry_multiplicity
 _atom_site_fract_x
 _atom_site_fract_y
 _atom_site_fract_z
 _atom_site_occupancy
  Cr  Cr0  1  0.31608050  0.81608050  0.50000000  1
  Cr  Cr1  1  0.50000000  0.50000000  0.25000000  1
  Cr  Cr2  1  0.00000000  0.00000000  0.25000000  1
  Cr  Cr3  1  0.18391950  0.68391950  0.00000000  1
  Cr  Cr4  1  0.31608050  0.18391950  0.00000000  1
  Cr  Cr5  1  0.68391950  0.81608050  0.00000000  1
  Cr  Cr6  1  0.81608050  0.31608050  0.00000000  1
  Cr  Cr7  1  0.00000000  0.00000000  0.75000000  1
  Cr  Cr8  1  0.50000000  0.50000000  0.75000000  1
  Cr  Cr9  1  0.68391950  0.18391950  0.50000000  1
  Cr  Cr10  1  0.81608050  0.68391950  0.50000000  1
  Cr  Cr11  1  0.18391950  0.31608050  0.50000000  1
  As  As12  1  0.50000000  0.00000000  0.25000000  1
  As  As13  1  0.00000000  0.50000000  0.25000000  1
  As  As14  1  0.00000000  0.50000000  0.75000000  1
  As  As15  1  0.50000000  0.00000000  0.75000000  1
  N  N16  1  0.50000000  0.50000000  0.00000000  1
  N  N17  1  0.00000000  0.00000000  0.00000000  1
  N  N18  1  0.00000000  0.00000000  0.50000000  1
  N  N19  1  0.50000000  0.50000000  0.50000000  1
