# generated using pymatgen
data_Sb(PO3)4
_symmetry_space_group_name_H-M   'P 1'
_cell_length_a   15.90627600
_cell_length_b   7.15428200
_cell_length_c   9.28330487
_cell_angle_alpha   90.00000000
_cell_angle_beta   124.44905430
_cell_angle_gamma   90.00000000
_symmetry_Int_Tables_number   1
_chemical_formula_structural   Sb(PO3)4
_chemical_formula_sum   'Sb4 P16 O48'
_cell_volume   871.15622811
_cell_formula_units_Z   4
loop_
 _symmetry_equiv_pos_site_id
 _symmetry_equiv_pos_as_xyz
  1  'x, y, z'
loop_
 _atom_site_type_symbol
 _atom_site_label
 _atom_site_symmetry_multiplicity
 _atom_site_fract_x
 _atom_site_fract_y
 _atom_site_fract_z
 _atom_site_occupancy
  Sb  Sb0  1  0.00000000  0.20339900  0.25000000  1
  Sb  Sb1  1  0.00000000  0.79660100  0.75000000  1
  Sb  Sb2  1  0.50000000  0.70339900  0.25000000  1
  Sb  Sb3  1  0.50000000  0.29660100  0.75000000  1
  P  P4  1  0.63688250  0.97229850  0.12440300  1
  P  P5  1  0.14226150  0.13086850  0.68677500  1
  P  P6  1  0.64226150  0.36913150  0.18677500  1
  P  P7  1  0.86311750  0.47229850  0.37559700  1
  P  P8  1  0.13688250  0.52770150  0.62440300  1
  P  P9  1  0.35773850  0.63086850  0.81322500  1
  P  P10  1  0.85773850  0.86913150  0.31322500  1
  P  P11  1  0.36311750  0.02770150  0.87559700  1
  P  P12  1  0.13688250  0.47229850  0.12440300  1
  P  P13  1  0.64226150  0.63086850  0.68677500  1
  P  P14  1  0.14226150  0.86913150  0.18677500  1
  P  P15  1  0.36311750  0.97229850  0.37559700  1
  P  P16  1  0.63688250  0.02770150  0.62440300  1
  P  P17  1  0.85773850  0.13086850  0.81322500  1
  P  P18  1  0.35773850  0.36913150  0.31322500  1
  P  P19  1  0.86311750  0.52770150  0.87559700  1
  O  O20  1  0.62003400  0.80400900  0.20454200  1
  O  O21  1  0.87067150  0.88426250  0.48827000  1
  O  O22  1  0.74936600  0.94923600  0.16295600  1
  O  O23  1  0.93862950  0.04782350  0.79754300  1
  O  O24  1  0.06137050  0.04782350  0.70245700  1
  O  O25  1  0.65237650  0.15277350  0.24126600  1
  O  O26  1  0.87996600  0.30400900  0.29545800  1
  O  O27  1  0.15237650  0.34722650  0.74126600  1
  O  O28  1  0.62932850  0.38426250  0.01173000  1
  O  O29  1  0.75063400  0.44923600  0.33704400  1
  O  O30  1  0.93473050  0.51126550  0.56655700  1
  O  O31  1  0.06526950  0.51126550  0.93344300  1
  O  O32  1  0.93473050  0.48873450  0.06655700  1
  O  O33  1  0.06526950  0.48873450  0.43344300  1
  O  O34  1  0.24936600  0.55076400  0.66295600  1
  O  O35  1  0.37067150  0.61573750  0.98827000  1
  O  O36  1  0.84762350  0.65277350  0.25873400  1
  O  O37  1  0.12003400  0.69599100  0.70454200  1
  O  O38  1  0.34762350  0.84722650  0.75873400  1
  O  O39  1  0.93862950  0.95217650  0.29754300  1
  O  O40  1  0.06137050  0.95217650  0.20245700  1
  O  O41  1  0.25063400  0.05076400  0.83704400  1
  O  O42  1  0.12932850  0.11573750  0.51173000  1
  O  O43  1  0.37996600  0.19599100  0.79545800  1
  O  O44  1  0.12003400  0.30400900  0.20454200  1
  O  O45  1  0.37067150  0.38426250  0.48827000  1
  O  O46  1  0.24936600  0.44923600  0.16295600  1
  O  O47  1  0.43862950  0.54782350  0.79754300  1
  O  O48  1  0.56137050  0.54782350  0.70245700  1
  O  O49  1  0.15237650  0.65277350  0.24126600  1
  O  O50  1  0.37996600  0.80400900  0.29545800  1
  O  O51  1  0.65237650  0.84722650  0.74126600  1
  O  O52  1  0.12932850  0.88426250  0.01173000  1
  O  O53  1  0.25063400  0.94923600  0.33704400  1
  O  O54  1  0.43473050  0.01126550  0.56655700  1
  O  O55  1  0.56526950  0.01126550  0.93344300  1
  O  O56  1  0.43473050  0.98873450  0.06655700  1
  O  O57  1  0.56526950  0.98873450  0.43344300  1
  O  O58  1  0.74936600  0.05076400  0.66295600  1
  O  O59  1  0.87067150  0.11573750  0.98827000  1
  O  O60  1  0.34762350  0.15277350  0.25873400  1
  O  O61  1  0.62003400  0.19599100  0.70454200  1
  O  O62  1  0.84762350  0.34722650  0.75873400  1
  O  O63  1  0.43862950  0.45217650  0.29754300  1
  O  O64  1  0.56137050  0.45217650  0.20245700  1
  O  O65  1  0.75063400  0.55076400  0.83704400  1
  O  O66  1  0.62932850  0.61573750  0.51173000  1
  O  O67  1  0.87996600  0.69599100  0.79545800  1
