# generated using pymatgen
data_MgPb2WO6
_symmetry_space_group_name_H-M   'P 1'
_cell_length_a   8.08514800
_cell_length_b   8.08514800
_cell_length_c   8.08514800
_cell_angle_alpha   90.00000000
_cell_angle_beta   90.00000000
_cell_angle_gamma   90.00000000
_symmetry_Int_Tables_number   1
_chemical_formula_structural   MgPb2WO6
_chemical_formula_sum   'Mg4 Pb8 W4 O24'
_cell_volume   528.52303770
_cell_formula_units_Z   4
loop_
 _symmetry_equiv_pos_site_id
 _symmetry_equiv_pos_as_xyz
  1  'x, y, z'
loop_
 _atom_site_type_symbol
 _atom_site_label
 _atom_site_symmetry_multiplicity
 _atom_site_fract_x
 _atom_site_fract_y
 _atom_site_fract_z
 _atom_site_occupancy
  Mg  Mg0  1  0.50000000  0.00000000  0.00000000  1
  Mg  Mg1  1  0.50000000  0.50000000  0.50000000  1
  Mg  Mg2  1  0.00000000  0.00000000  0.50000000  1
  Mg  Mg3  1  0.00000000  0.50000000  0.00000000  1
  Pb  Pb4  1  0.25000000  0.25000000  0.75000000  1
  Pb  Pb5  1  0.25000000  0.75000000  0.75000000  1
  Pb  Pb6  1  0.25000000  0.75000000  0.25000000  1
  Pb  Pb7  1  0.25000000  0.25000000  0.25000000  1
  Pb  Pb8  1  0.75000000  0.25000000  0.25000000  1
  Pb  Pb9  1  0.75000000  0.75000000  0.25000000  1
  Pb  Pb10  1  0.75000000  0.75000000  0.75000000  1
  Pb  Pb11  1  0.75000000  0.25000000  0.75000000  1
  W  W12  1  0.00000000  0.00000000  0.00000000  1
  W  W13  1  0.00000000  0.50000000  0.50000000  1
  W  W14  1  0.50000000  0.00000000  0.50000000  1
  W  W15  1  0.50000000  0.50000000  0.00000000  1
  O  O16  1  0.50000000  0.25831100  0.00000000  1
  O  O17  1  0.50000000  0.00000000  0.74168900  1
  O  O18  1  0.00000000  0.00000000  0.75831100  1
  O  O19  1  0.24168900  0.00000000  0.00000000  1
  O  O20  1  0.50000000  0.74168900  0.00000000  1
  O  O21  1  0.75831100  0.00000000  0.00000000  1
  O  O22  1  0.50000000  0.75831100  0.50000000  1
  O  O23  1  0.50000000  0.50000000  0.24168900  1
  O  O24  1  0.00000000  0.50000000  0.25831100  1
  O  O25  1  0.24168900  0.50000000  0.50000000  1
  O  O26  1  0.50000000  0.24168900  0.50000000  1
  O  O27  1  0.75831100  0.50000000  0.50000000  1
  O  O28  1  0.00000000  0.25831100  0.50000000  1
  O  O29  1  0.00000000  0.00000000  0.24168900  1
  O  O30  1  0.50000000  0.00000000  0.25831100  1
  O  O31  1  0.74168900  0.00000000  0.50000000  1
  O  O32  1  0.00000000  0.74168900  0.50000000  1
  O  O33  1  0.25831100  0.00000000  0.50000000  1
  O  O34  1  0.00000000  0.75831100  0.00000000  1
  O  O35  1  0.00000000  0.50000000  0.74168900  1
  O  O36  1  0.50000000  0.50000000  0.75831100  1
  O  O37  1  0.74168900  0.50000000  0.00000000  1
  O  O38  1  0.00000000  0.24168900  0.00000000  1
  O  O39  1  0.25831100  0.50000000  0.00000000  1
