# generated using pymatgen
data_Ag3BO3
_symmetry_space_group_name_H-M   'P 1'
_cell_length_a   10.14055839
_cell_length_b   10.14055839
_cell_length_c   3.34142974
_cell_angle_alpha   90.00000000
_cell_angle_beta   90.00000000
_cell_angle_gamma   120.00000000
_symmetry_Int_Tables_number   1
_chemical_formula_structural   Ag3BO3
_chemical_formula_sum   'Ag9 B3 O9'
_cell_volume   297.56832827
_cell_formula_units_Z   3
loop_
 _symmetry_equiv_pos_site_id
 _symmetry_equiv_pos_as_xyz
  1  'x, y, z'
loop_
 _atom_site_type_symbol
 _atom_site_label
 _atom_site_symmetry_multiplicity
 _atom_site_fract_x
 _atom_site_fract_y
 _atom_site_fract_z
 _atom_site_occupancy
  Ag  Ag0  1  0.17605267  0.33333333  0.33333333  1
  Ag  Ag1  1  0.33333333  0.17605267  0.66666667  1
  Ag  Ag2  1  0.49061400  0.49061400  0.00000000  1
  Ag  Ag3  1  0.84271933  0.66666667  0.66666667  1
  Ag  Ag4  1  0.00000000  0.50938600  0.00000000  1
  Ag  Ag5  1  0.15728067  0.82394733  0.33333333  1
  Ag  Ag6  1  0.50938600  0.00000000  0.00000000  1
  Ag  Ag7  1  0.66666667  0.84271933  0.33333333  1
  Ag  Ag8  1  0.82394733  0.15728067  0.66666667  1
  B  B9  1  0.00000000  0.00000000  0.00000000  1
  B  B10  1  0.66666667  0.33333333  0.33333333  1
  B  B11  1  0.33333333  0.66666667  0.66666667  1
  O  O12  1  0.33333333  0.80319867  0.66666667  1
  O  O13  1  0.53013467  0.19680133  0.33333333  1
  O  O14  1  0.13653200  0.00000000  0.00000000  1
  O  O15  1  0.00000000  0.13653200  0.00000000  1
  O  O16  1  0.19680133  0.53013467  0.66666667  1
  O  O17  1  0.80319867  0.33333333  0.33333333  1
  O  O18  1  0.66666667  0.46986533  0.33333333  1
  O  O19  1  0.86346800  0.86346800  0.00000000  1
  O  O20  1  0.46986533  0.66666667  0.66666667  1
