# generated using pymatgen
data_NaCr(GeO3)2
_symmetry_space_group_name_H-M   'P 1'
_cell_length_a   10.11068583
_cell_length_b   8.96095478
_cell_length_c   5.55523971
_cell_angle_alpha   90.00000000
_cell_angle_beta   107.75247986
_cell_angle_gamma   90.00000000
_symmetry_Int_Tables_number   1
_chemical_formula_structural   NaCr(GeO3)2
_chemical_formula_sum   'Na4 Cr4 Ge8 O24'
_cell_volume   479.34605702
_cell_formula_units_Z   4
loop_
 _symmetry_equiv_pos_site_id
 _symmetry_equiv_pos_as_xyz
  1  'x, y, z'
loop_
 _atom_site_type_symbol
 _atom_site_label
 _atom_site_symmetry_multiplicity
 _atom_site_fract_x
 _atom_site_fract_y
 _atom_site_fract_z
 _atom_site_occupancy
  Na  Na0  1  0.00000000  0.30276800  0.75000000  1
  Na  Na1  1  0.00000000  0.69723200  0.25000000  1
  Na  Na2  1  0.50000000  0.80276800  0.75000000  1
  Na  Na3  1  0.50000000  0.19723200  0.25000000  1
  Cr  Cr4  1  0.00000000  0.08908500  0.25000000  1
  Cr  Cr5  1  0.00000000  0.91091500  0.75000000  1
  Cr  Cr6  1  0.50000000  0.58908500  0.25000000  1
  Cr  Cr7  1  0.50000000  0.41091500  0.75000000  1
  Ge  Ge8  1  0.78986300  0.40403000  0.22604400  1
  Ge  Ge9  1  0.21013700  0.40403000  0.27395600  1
  Ge  Ge10  1  0.21013700  0.59597000  0.77395600  1
  Ge  Ge11  1  0.78986300  0.59597000  0.72604400  1
  Ge  Ge12  1  0.28986300  0.90403000  0.22604400  1
  Ge  Ge13  1  0.71013700  0.90403000  0.27395600  1
  Ge  Ge14  1  0.71013700  0.09597000  0.77395600  1
  Ge  Ge15  1  0.28986300  0.09597000  0.72604400  1
  O  O16  1  0.86293000  0.51223600  0.50662500  1
  O  O17  1  0.13707000  0.51223600  0.99337500  1
  O  O18  1  0.13707000  0.48776400  0.49337500  1
  O  O19  1  0.86293000  0.48776400  0.00662500  1
  O  O20  1  0.85917800  0.77305600  0.80973500  1
  O  O21  1  0.14082200  0.77305600  0.69026500  1
  O  O22  1  0.14082200  0.22694400  0.19026500  1
  O  O23  1  0.85917800  0.22694400  0.30973500  1
  O  O24  1  0.60535050  0.41762350  0.12941300  1
  O  O25  1  0.39464950  0.41762350  0.37058700  1
  O  O26  1  0.39464950  0.58237650  0.87058700  1
  O  O27  1  0.60535050  0.58237650  0.62941300  1
  O  O28  1  0.36293000  0.01223600  0.50662500  1
  O  O29  1  0.63707000  0.01223600  0.99337500  1
  O  O30  1  0.63707000  0.98776400  0.49337500  1
  O  O31  1  0.36293000  0.98776400  0.00662500  1
  O  O32  1  0.35917800  0.27305600  0.80973500  1
  O  O33  1  0.64082200  0.27305600  0.69026500  1
  O  O34  1  0.64082200  0.72694400  0.19026500  1
  O  O35  1  0.35917800  0.72694400  0.30973500  1
  O  O36  1  0.10535050  0.91762350  0.12941300  1
  O  O37  1  0.89464950  0.91762350  0.37058700  1
  O  O38  1  0.89464950  0.08237650  0.87058700  1
  O  O39  1  0.10535050  0.08237650  0.62941300  1
