# generated using pymatgen
data_CaIn2Au
_symmetry_space_group_name_H-M   'P 1'
_cell_length_a   4.61547600
_cell_length_b   10.95792800
_cell_length_c   7.73819900
_cell_angle_alpha   90.00000000
_cell_angle_beta   90.00000000
_cell_angle_gamma   90.00000000
_symmetry_Int_Tables_number   1
_chemical_formula_structural   CaIn2Au
_chemical_formula_sum   'Ca4 In8 Au4'
_cell_volume   391.36756812
_cell_formula_units_Z   4
loop_
 _symmetry_equiv_pos_site_id
 _symmetry_equiv_pos_as_xyz
  1  'x, y, z'
loop_
 _atom_site_type_symbol
 _atom_site_label
 _atom_site_symmetry_multiplicity
 _atom_site_fract_x
 _atom_site_fract_y
 _atom_site_fract_z
 _atom_site_occupancy
  Ca  Ca0  1  0.00000000  0.07469000  0.25000000  1
  Ca  Ca1  1  0.50000000  0.42531000  0.75000000  1
  Ca  Ca2  1  0.50000000  0.57469000  0.25000000  1
  Ca  Ca3  1  0.00000000  0.92531000  0.75000000  1
  In  In4  1  0.00000000  0.36506600  0.44943200  1
  In  In5  1  0.00000000  0.36506600  0.05056800  1
  In  In6  1  0.50000000  0.13493400  0.55056800  1
  In  In7  1  0.50000000  0.13493400  0.94943200  1
  In  In8  1  0.50000000  0.86506600  0.44943200  1
  In  In9  1  0.50000000  0.86506600  0.05056800  1
  In  In10  1  0.00000000  0.63493400  0.55056800  1
  In  In11  1  0.00000000  0.63493400  0.94943200  1
  Au  Au12  1  0.50000000  0.28820500  0.25000000  1
  Au  Au13  1  0.00000000  0.21179500  0.75000000  1
  Au  Au14  1  0.00000000  0.78820500  0.25000000  1
  Au  Au15  1  0.50000000  0.71179500  0.75000000  1
