# generated using pymatgen
data_Sm2MoO6
_symmetry_space_group_name_H-M   'P 1'
_cell_length_a   16.75065800
_cell_length_b   11.39407200
_cell_length_c   5.52237557
_cell_angle_alpha   90.00000000
_cell_angle_beta   108.03244783
_cell_angle_gamma   90.00000000
_symmetry_Int_Tables_number   1
_chemical_formula_structural   Sm2MoO6
_chemical_formula_sum   'Sm16 Mo8 O48'
_cell_volume   1002.22009194
_cell_formula_units_Z   8
loop_
 _symmetry_equiv_pos_site_id
 _symmetry_equiv_pos_as_xyz
  1  'x, y, z'
loop_
 _atom_site_type_symbol
 _atom_site_label
 _atom_site_symmetry_multiplicity
 _atom_site_fract_x
 _atom_site_fract_y
 _atom_site_fract_z
 _atom_site_occupancy
  Sm  Sm0  1  0.17055450  0.88412850  0.38032800  1
  Sm  Sm1  1  0.82944550  0.88412850  0.11967200  1
  Sm  Sm2  1  0.82944550  0.11587150  0.61967200  1
  Sm  Sm3  1  0.17055450  0.11587150  0.88032800  1
  Sm  Sm4  1  0.50000000  0.60851000  0.25000000  1
  Sm  Sm5  1  0.50000000  0.39149000  0.75000000  1
  Sm  Sm6  1  0.50000000  0.13402300  0.25000000  1
  Sm  Sm7  1  0.50000000  0.86597700  0.75000000  1
  Sm  Sm8  1  0.67055450  0.38412850  0.38032800  1
  Sm  Sm9  1  0.32944550  0.38412850  0.11967200  1
  Sm  Sm10  1  0.32944550  0.61587150  0.61967200  1
  Sm  Sm11  1  0.67055450  0.61587150  0.88032800  1
  Sm  Sm12  1  0.00000000  0.10851000  0.25000000  1
  Sm  Sm13  1  0.00000000  0.89149000  0.75000000  1
  Sm  Sm14  1  0.00000000  0.63402300  0.25000000  1
  Sm  Sm15  1  0.00000000  0.36597700  0.75000000  1
  Mo  Mo16  1  0.65294050  0.85597950  0.44037300  1
  Mo  Mo17  1  0.34705950  0.85597950  0.05962700  1
  Mo  Mo18  1  0.34705950  0.14402050  0.55962700  1
  Mo  Mo19  1  0.65294050  0.14402050  0.94037300  1
  Mo  Mo20  1  0.15294050  0.35597950  0.44037300  1
  Mo  Mo21  1  0.84705950  0.35597950  0.05962700  1
  Mo  Mo22  1  0.84705950  0.64402050  0.55962700  1
  Mo  Mo23  1  0.15294050  0.64402050  0.94037300  1
  O  O24  1  0.60529000  0.77900200  0.13508500  1
  O  O25  1  0.39471000  0.77900200  0.36491500  1
  O  O26  1  0.39471000  0.22099800  0.86491500  1
  O  O27  1  0.60529000  0.22099800  0.63508500  1
  O  O28  1  0.72795650  0.79802250  0.73887900  1
  O  O29  1  0.27204350  0.79802250  0.76112100  1
  O  O30  1  0.27204350  0.20197750  0.26112100  1
  O  O31  1  0.72795650  0.20197750  0.23887900  1
  O  O32  1  0.73299350  0.94481250  0.36317400  1
  O  O33  1  0.26700650  0.94481250  0.13682600  1
  O  O34  1  0.26700650  0.05518750  0.63682600  1
  O  O35  1  0.73299350  0.05518750  0.86317400  1
  O  O36  1  0.09207650  0.01662850  0.07796700  1
  O  O37  1  0.90792350  0.01662850  0.42203300  1
  O  O38  1  0.90792350  0.98337150  0.92203300  1
  O  O39  1  0.09207650  0.98337150  0.57796700  1
  O  O40  1  0.57433650  0.26283150  0.08420100  1
  O  O41  1  0.42566350  0.26283150  0.41579900  1
  O  O42  1  0.42566350  0.73716850  0.91579900  1
  O  O43  1  0.57433650  0.73716850  0.58420100  1
  O  O44  1  0.57990000  0.03372300  0.98247200  1
  O  O45  1  0.42010000  0.03372300  0.51752800  1
  O  O46  1  0.42010000  0.96627700  0.01752800  1
  O  O47  1  0.57990000  0.96627700  0.48247200  1
  O  O48  1  0.10529000  0.27900200  0.13508500  1
  O  O49  1  0.89471000  0.27900200  0.36491500  1
  O  O50  1  0.89471000  0.72099800  0.86491500  1
  O  O51  1  0.10529000  0.72099800  0.63508500  1
  O  O52  1  0.22795650  0.29802250  0.73887900  1
  O  O53  1  0.77204350  0.29802250  0.76112100  1
  O  O54  1  0.77204350  0.70197750  0.26112100  1
  O  O55  1  0.22795650  0.70197750  0.23887900  1
  O  O56  1  0.23299350  0.44481250  0.36317400  1
  O  O57  1  0.76700650  0.44481250  0.13682600  1
  O  O58  1  0.76700650  0.55518750  0.63682600  1
  O  O59  1  0.23299350  0.55518750  0.86317400  1
  O  O60  1  0.59207650  0.51662850  0.07796700  1
  O  O61  1  0.40792350  0.51662850  0.42203300  1
  O  O62  1  0.40792350  0.48337150  0.92203300  1
  O  O63  1  0.59207650  0.48337150  0.57796700  1
  O  O64  1  0.07433650  0.76283150  0.08420100  1
  O  O65  1  0.92566350  0.76283150  0.41579900  1
  O  O66  1  0.92566350  0.23716850  0.91579900  1
  O  O67  1  0.07433650  0.23716850  0.58420100  1
  O  O68  1  0.07990000  0.53372300  0.98247200  1
  O  O69  1  0.92010000  0.53372300  0.51752800  1
  O  O70  1  0.92010000  0.46627700  0.01752800  1
  O  O71  1  0.07990000  0.46627700  0.48247200  1
