# generated using pymatgen
data_CeSiNi
_symmetry_space_group_name_H-M   'P 1'
_cell_length_a   4.01088400
_cell_length_b   4.01088400
_cell_length_c   14.05574800
_cell_angle_alpha   90.00000000
_cell_angle_beta   90.00000000
_cell_angle_gamma   90.00000000
_symmetry_Int_Tables_number   1
_chemical_formula_structural   CeSiNi
_chemical_formula_sum   'Ce4 Si4 Ni4'
_cell_volume   226.11749515
_cell_formula_units_Z   4
loop_
 _symmetry_equiv_pos_site_id
 _symmetry_equiv_pos_as_xyz
  1  'x, y, z'
loop_
 _atom_site_type_symbol
 _atom_site_label
 _atom_site_symmetry_multiplicity
 _atom_site_fract_x
 _atom_site_fract_y
 _atom_site_fract_z
 _atom_site_occupancy
  Ce  Ce0  1  0.50000000  0.50000000  0.99980300  1
  Ce  Ce1  1  0.50000000  0.00000000  0.24980300  1
  Ce  Ce2  1  0.00000000  0.00000000  0.49980300  1
  Ce  Ce3  1  0.00000000  0.50000000  0.74980300  1
  Si  Si4  1  0.00000000  0.00000000  0.08167000  1
  Si  Si5  1  0.50000000  0.00000000  0.83167000  1
  Si  Si6  1  0.50000000  0.50000000  0.58167000  1
  Si  Si7  1  0.00000000  0.50000000  0.33167000  1
  Ni  Ni8  1  0.00000000  0.50000000  0.16452700  1
  Ni  Ni9  1  0.00000000  0.00000000  0.91452700  1
  Ni  Ni10  1  0.50000000  0.00000000  0.66452700  1
  Ni  Ni11  1  0.50000000  0.50000000  0.41452700  1
