# generated using pymatgen
data_Mn3O4
_symmetry_space_group_name_H-M   'P 1'
_cell_length_a   3.06985000
_cell_length_b   9.72508000
_cell_length_c   9.95322200
_cell_angle_alpha   90.00000000
_cell_angle_beta   90.00000000
_cell_angle_gamma   90.00000000
_symmetry_Int_Tables_number   1
_chemical_formula_structural   Mn3O4
_chemical_formula_sum   'Mn12 O16'
_cell_volume   297.14883286
_cell_formula_units_Z   4
loop_
 _symmetry_equiv_pos_site_id
 _symmetry_equiv_pos_as_xyz
  1  'x, y, z'
loop_
 _atom_site_type_symbol
 _atom_site_label
 _atom_site_symmetry_multiplicity
 _atom_site_fract_x
 _atom_site_fract_y
 _atom_site_fract_z
 _atom_site_occupancy
  Mn  Mn0  1  0.29544750  0.75000000  0.85665200  1
  Mn  Mn1  1  0.29544750  0.25000000  0.64334800  1
  Mn  Mn2  1  0.78485750  0.42999500  0.88578300  1
  Mn  Mn3  1  0.78485750  0.57000500  0.61421700  1
  Mn  Mn4  1  0.78485750  0.07000500  0.88578300  1
  Mn  Mn5  1  0.78485750  0.92999500  0.61421700  1
  Mn  Mn6  1  0.70455250  0.25000000  0.14334800  1
  Mn  Mn7  1  0.70455250  0.75000000  0.35665200  1
  Mn  Mn8  1  0.21514250  0.42999500  0.38578300  1
  Mn  Mn9  1  0.21514250  0.92999500  0.11421700  1
  Mn  Mn10  1  0.21514250  0.57000500  0.11421700  1
  Mn  Mn11  1  0.21514250  0.07000500  0.38578300  1
  O  O12  1  0.36527550  0.50000000  0.75000000  1
  O  O13  1  0.36527550  0.00000000  0.75000000  1
  O  O14  1  0.63472450  0.00000000  0.25000000  1
  O  O15  1  0.63472450  0.50000000  0.25000000  1
  O  O16  1  0.20501650  0.75000000  0.20135400  1
  O  O17  1  0.79498350  0.75000000  0.70135400  1
  O  O18  1  0.20501650  0.25000000  0.29864600  1
  O  O19  1  0.79498350  0.25000000  0.79864600  1
  O  O20  1  0.79264350  0.11180600  0.52924500  1
  O  O21  1  0.79264350  0.61180600  0.97075500  1
  O  O22  1  0.79264350  0.38819400  0.52924500  1
  O  O23  1  0.20735650  0.88819400  0.47075500  1
  O  O24  1  0.20735650  0.61180600  0.47075500  1
  O  O25  1  0.20735650  0.11180600  0.02924500  1
  O  O26  1  0.20735650  0.38819400  0.02924500  1
  O  O27  1  0.79264350  0.88819400  0.97075500  1
