# generated using pymatgen
data_YbIn4Pt
_symmetry_space_group_name_H-M   'P 1'
_cell_length_a   4.48828000
_cell_length_b   16.74034600
_cell_length_c   7.68421900
_cell_angle_alpha   90.00000000
_cell_angle_beta   90.00000000
_cell_angle_gamma   90.00000000
_symmetry_Int_Tables_number   1
_chemical_formula_structural   YbIn4Pt
_chemical_formula_sum   'Yb4 In16 Pt4'
_cell_volume   577.35656200
_cell_formula_units_Z   4
loop_
 _symmetry_equiv_pos_site_id
 _symmetry_equiv_pos_as_xyz
  1  'x, y, z'
loop_
 _atom_site_type_symbol
 _atom_site_label
 _atom_site_symmetry_multiplicity
 _atom_site_fract_x
 _atom_site_fract_y
 _atom_site_fract_z
 _atom_site_occupancy
  Yb  Yb0  1  0.00000000  0.86823400  0.75000000  1
  Yb  Yb1  1  0.50000000  0.63176600  0.25000000  1
  Yb  Yb2  1  0.50000000  0.36823400  0.75000000  1
  Yb  Yb3  1  0.00000000  0.13176600  0.25000000  1
  In  In4  1  0.50000000  0.00000000  0.50000000  1
  In  In5  1  0.50000000  0.00000000  0.00000000  1
  In  In6  1  0.00000000  0.93725800  0.25000000  1
  In  In7  1  0.50000000  0.56274200  0.75000000  1
  In  In8  1  0.00000000  0.68186000  0.95235100  1
  In  In9  1  0.50000000  0.81814000  0.04764900  1
  In  In10  1  0.50000000  0.81814000  0.45235100  1
  In  In11  1  0.00000000  0.68186000  0.54764900  1
  In  In12  1  0.00000000  0.50000000  0.50000000  1
  In  In13  1  0.00000000  0.50000000  0.00000000  1
  In  In14  1  0.50000000  0.43725800  0.25000000  1
  In  In15  1  0.00000000  0.06274200  0.75000000  1
  In  In16  1  0.50000000  0.18186000  0.95235100  1
  In  In17  1  0.00000000  0.31814000  0.04764900  1
  In  In18  1  0.00000000  0.31814000  0.45235100  1
  In  In19  1  0.50000000  0.18186000  0.54764900  1
  Pt  Pt20  1  0.50000000  0.72738600  0.75000000  1
  Pt  Pt21  1  0.00000000  0.77261400  0.25000000  1
  Pt  Pt22  1  0.00000000  0.22738600  0.75000000  1
  Pt  Pt23  1  0.50000000  0.27261400  0.25000000  1
