# generated using pymatgen
data_LiNb2(PO4)3
_symmetry_space_group_name_H-M   'P 1'
_cell_length_a   15.49171000
_cell_length_b   8.88975200
_cell_length_c   8.94566111
_cell_angle_alpha   90.00000000
_cell_angle_beta   125.12267346
_cell_angle_gamma   90.00000000
_symmetry_Int_Tables_number   1
_chemical_formula_structural   LiNb2(PO4)3
_chemical_formula_sum   'Li4 Nb8 P12 O48'
_cell_volume   1007.65854775
_cell_formula_units_Z   4
loop_
 _symmetry_equiv_pos_site_id
 _symmetry_equiv_pos_as_xyz
  1  'x, y, z'
loop_
 _atom_site_type_symbol
 _atom_site_label
 _atom_site_symmetry_multiplicity
 _atom_site_fract_x
 _atom_site_fract_y
 _atom_site_fract_z
 _atom_site_occupancy
  Li  Li0  1  0.29937000  0.76698800  0.99568800  1
  Li  Li1  1  0.29937000  0.23301200  0.49568800  1
  Li  Li2  1  0.79937000  0.26698800  0.99568800  1
  Li  Li3  1  0.79937000  0.73301200  0.49568800  1
  Nb  Nb4  1  0.10731700  0.75020900  0.57158600  1
  Nb  Nb5  1  0.39246200  0.74856600  0.42886500  1
  Nb  Nb6  1  0.10731700  0.24979100  0.07158600  1
  Nb  Nb7  1  0.39246200  0.25143400  0.92886500  1
  Nb  Nb8  1  0.60731700  0.25020900  0.57158600  1
  Nb  Nb9  1  0.89246200  0.24856600  0.42886500  1
  Nb  Nb10  1  0.60731700  0.74979100  0.07158600  1
  Nb  Nb11  1  0.89246200  0.75143400  0.92886500  1
  P  P12  1  0.35543700  0.60440300  0.75190100  1
  P  P13  1  0.14604750  0.10433250  0.75135800  1
  P  P14  1  0.35543700  0.39559700  0.25190100  1
  P  P15  1  0.14604750  0.89566750  0.25135800  1
  P  P16  1  0.49974650  0.95896950  0.24752800  1
  P  P17  1  0.49974650  0.04103050  0.74752800  1
  P  P18  1  0.85543700  0.10440300  0.75190100  1
  P  P19  1  0.64604750  0.60433250  0.75135800  1
  P  P20  1  0.85543700  0.89559700  0.25190100  1
  P  P21  1  0.64604750  0.39566750  0.25135800  1
  P  P22  1  0.99974650  0.45896950  0.24752800  1
  P  P23  1  0.99974650  0.54103050  0.74752800  1
  O  O24  1  0.14857950  0.14546450  0.92242800  1
  O  O25  1  0.26613150  0.67794550  0.75683600  1
  O  O26  1  0.41734250  0.85501750  0.24254700  1
  O  O27  1  0.04228200  0.16251200  0.57918100  1
  O  O28  1  0.14857950  0.85453550  0.42242800  1
  O  O29  1  0.34697900  0.56864100  0.25309400  1
  O  O30  1  0.07849650  0.36025550  0.23909900  1
  O  O31  1  0.15771800  0.93130100  0.75171400  1
  O  O32  1  0.07849650  0.63974450  0.73909900  1
  O  O33  1  0.04228200  0.83748800  0.07918100  1
  O  O34  1  0.23896700  0.17686100  0.75959600  1
  O  O35  1  0.43556650  0.94129450  0.57451700  1
  O  O36  1  0.06223950  0.44431250  0.92082400  1
  O  O37  1  0.45862300  0.33682800  0.42487700  1
  O  O38  1  0.06223950  0.55568750  0.42082400  1
  O  O39  1  0.15771800  0.06869900  0.25171400  1
  O  O40  1  0.41734250  0.14498250  0.74254700  1
  O  O41  1  0.34869600  0.64515100  0.57836300  1
  O  O42  1  0.43556650  0.05870550  0.07451700  1
  O  O43  1  0.34697900  0.43135900  0.75309400  1
  O  O44  1  0.26613150  0.32205450  0.25683600  1
  O  O45  1  0.23896700  0.82313900  0.25959600  1
  O  O46  1  0.45862300  0.66317200  0.92487700  1
  O  O47  1  0.34869600  0.35484900  0.07836300  1
  O  O48  1  0.64857950  0.64546450  0.92242800  1
  O  O49  1  0.76613150  0.17794550  0.75683600  1
  O  O50  1  0.91734250  0.35501750  0.24254700  1
  O  O51  1  0.54228200  0.66251200  0.57918100  1
  O  O52  1  0.64857950  0.35453550  0.42242800  1
  O  O53  1  0.84697900  0.06864100  0.25309400  1
  O  O54  1  0.57849650  0.86025550  0.23909900  1
  O  O55  1  0.65771800  0.43130100  0.75171400  1
  O  O56  1  0.57849650  0.13974450  0.73909900  1
  O  O57  1  0.54228200  0.33748800  0.07918100  1
  O  O58  1  0.73896700  0.67686100  0.75959600  1
  O  O59  1  0.93556650  0.44129450  0.57451700  1
  O  O60  1  0.56223950  0.94431250  0.92082400  1
  O  O61  1  0.95862300  0.83682800  0.42487700  1
  O  O62  1  0.56223950  0.05568750  0.42082400  1
  O  O63  1  0.65771800  0.56869900  0.25171400  1
  O  O64  1  0.91734250  0.64498250  0.74254700  1
  O  O65  1  0.84869600  0.14515100  0.57836300  1
  O  O66  1  0.93556650  0.55870550  0.07451700  1
  O  O67  1  0.84697900  0.93135900  0.75309400  1
  O  O68  1  0.76613150  0.82205450  0.25683600  1
  O  O69  1  0.73896700  0.32313900  0.25959600  1
  O  O70  1  0.95862300  0.16317200  0.92487700  1
  O  O71  1  0.84869600  0.85484900  0.07836300  1
