# generated using pymatgen
data_MnO2
_symmetry_space_group_name_H-M   'P 1'
_cell_length_a   8.24050752
_cell_length_b   8.24050752
_cell_length_c   8.24050752
_cell_angle_alpha   90.00000000
_cell_angle_beta   90.00000000
_cell_angle_gamma   90.00000000
_symmetry_Int_Tables_number   1
_chemical_formula_structural   MnO2
_chemical_formula_sum   'Mn16 O32'
_cell_volume   559.57960760
_cell_formula_units_Z   16
loop_
 _symmetry_equiv_pos_site_id
 _symmetry_equiv_pos_as_xyz
  1  'x, y, z'
loop_
 _atom_site_type_symbol
 _atom_site_label
 _atom_site_symmetry_multiplicity
 _atom_site_fract_x
 _atom_site_fract_y
 _atom_site_fract_z
 _atom_site_occupancy
  Mn  Mn0  1  0.87500000  0.12500000  0.37500000  1
  Mn  Mn1  1  0.12500000  0.37500000  0.87500000  1
  Mn  Mn2  1  0.87500000  0.37500000  0.12500000  1
  Mn  Mn3  1  0.62500000  0.12500000  0.12500000  1
  Mn  Mn4  1  0.87500000  0.62500000  0.87500000  1
  Mn  Mn5  1  0.12500000  0.87500000  0.37500000  1
  Mn  Mn6  1  0.87500000  0.87500000  0.62500000  1
  Mn  Mn7  1  0.62500000  0.62500000  0.62500000  1
  Mn  Mn8  1  0.37500000  0.12500000  0.87500000  1
  Mn  Mn9  1  0.62500000  0.37500000  0.37500000  1
  Mn  Mn10  1  0.37500000  0.37500000  0.62500000  1
  Mn  Mn11  1  0.12500000  0.12500000  0.62500000  1
  Mn  Mn12  1  0.37500000  0.62500000  0.37500000  1
  Mn  Mn13  1  0.62500000  0.87500000  0.87500000  1
  Mn  Mn14  1  0.37500000  0.87500000  0.12500000  1
  Mn  Mn15  1  0.12500000  0.62500000  0.12500000  1
  O  O16  1  0.38982550  0.61017450  0.61017450  1
  O  O17  1  0.11017450  0.38982550  0.11017450  1
  O  O18  1  0.38982550  0.38982550  0.38982550  1
  O  O19  1  0.61017450  0.61017450  0.38982550  1
  O  O20  1  0.13982550  0.36017450  0.63982550  1
  O  O21  1  0.86017450  0.13982550  0.13982550  1
  O  O22  1  0.63982550  0.13982550  0.36017450  1
  O  O23  1  0.86017450  0.36017450  0.36017450  1
  O  O24  1  0.38982550  0.11017450  0.11017450  1
  O  O25  1  0.11017450  0.88982550  0.61017450  1
  O  O26  1  0.38982550  0.88982550  0.88982550  1
  O  O27  1  0.61017450  0.11017450  0.88982550  1
  O  O28  1  0.13982550  0.86017450  0.13982550  1
  O  O29  1  0.86017450  0.63982550  0.63982550  1
  O  O30  1  0.63982550  0.63982550  0.86017450  1
  O  O31  1  0.86017450  0.86017450  0.86017450  1
  O  O32  1  0.88982550  0.61017450  0.11017450  1
  O  O33  1  0.61017450  0.38982550  0.61017450  1
  O  O34  1  0.88982550  0.38982550  0.88982550  1
  O  O35  1  0.11017450  0.61017450  0.88982550  1
  O  O36  1  0.63982550  0.36017450  0.13982550  1
  O  O37  1  0.36017450  0.13982550  0.63982550  1
  O  O38  1  0.13982550  0.13982550  0.86017450  1
  O  O39  1  0.36017450  0.36017450  0.86017450  1
  O  O40  1  0.88982550  0.11017450  0.61017450  1
  O  O41  1  0.61017450  0.88982550  0.11017450  1
  O  O42  1  0.88982550  0.88982550  0.38982550  1
  O  O43  1  0.11017450  0.11017450  0.38982550  1
  O  O44  1  0.63982550  0.86017450  0.63982550  1
  O  O45  1  0.36017450  0.63982550  0.13982550  1
  O  O46  1  0.13982550  0.63982550  0.36017450  1
  O  O47  1  0.36017450  0.86017450  0.36017450  1
