# generated using pymatgen
data_BaVP2(H2O5)2
_symmetry_space_group_name_H-M   'P 1'
_cell_length_a   10.98521900
_cell_length_b   6.49371600
_cell_length_c   14.18631212
_cell_angle_alpha   90.00000000
_cell_angle_beta   127.11717438
_cell_angle_gamma   90.00000000
_symmetry_Int_Tables_number   1
_chemical_formula_structural   BaVP2(H2O5)2
_chemical_formula_sum   'Ba4 V4 P8 H16 O40'
_cell_volume   806.95521164
_cell_formula_units_Z   4
loop_
 _symmetry_equiv_pos_site_id
 _symmetry_equiv_pos_as_xyz
  1  'x, y, z'
loop_
 _atom_site_type_symbol
 _atom_site_label
 _atom_site_symmetry_multiplicity
 _atom_site_fract_x
 _atom_site_fract_y
 _atom_site_fract_z
 _atom_site_occupancy
  Ba  Ba0  1  0.70803800  0.36295000  0.55306800  1
  Ba  Ba1  1  0.29196200  0.86295000  0.94693200  1
  Ba  Ba2  1  0.29196200  0.63705000  0.44693200  1
  Ba  Ba3  1  0.70803800  0.13705000  0.05306800  1
  V  V4  1  0.31339200  0.51825500  0.18228600  1
  V  V5  1  0.68660800  0.01825500  0.31771400  1
  V  V6  1  0.68660800  0.48174500  0.81771400  1
  V  V7  1  0.31339200  0.98174500  0.68228600  1
  P  P8  1  0.34105600  0.00440600  0.23723500  1
  P  P9  1  0.65894400  0.50440600  0.26276500  1
  P  P10  1  0.65894400  0.99559400  0.76276500  1
  P  P11  1  0.34105600  0.49559400  0.73723500  1
  P  P12  1  0.96045000  0.61544100  0.11349800  1
  P  P13  1  0.03955000  0.11544100  0.38650200  1
  P  P14  1  0.03955000  0.38455900  0.88650200  1
  P  P15  1  0.96045000  0.88455900  0.61349800  1
  H  H16  1  0.43278800  0.33801900  0.05063200  1
  H  H17  1  0.56721200  0.83801900  0.44936800  1
  H  H18  1  0.56721200  0.66198100  0.94936800  1
  H  H19  1  0.43278800  0.16198100  0.55063200  1
  H  H20  1  0.36264900  0.35562100  0.91549100  1
  H  H21  1  0.63735100  0.85562100  0.58450900  1
  H  H22  1  0.63735100  0.64437900  0.08450900  1
  H  H23  1  0.36264900  0.14437900  0.41549100  1
  H  H24  1  0.14408500  0.16571700  0.02990600  1
  H  H25  1  0.85591500  0.66571700  0.47009400  1
  H  H26  1  0.85591500  0.83428300  0.97009400  1
  H  H27  1  0.14408500  0.33428300  0.52990600  1
  H  H28  1  0.87557300  0.58205500  0.22319500  1
  H  H29  1  0.12442700  0.08205500  0.27680500  1
  H  H30  1  0.12442700  0.41794500  0.77680500  1
  H  H31  1  0.87557300  0.91794500  0.72319500  1
  O  O32  1  0.41531900  0.25786000  0.98372900  1
  O  O33  1  0.58468100  0.75786000  0.51627100  1
  O  O34  1  0.58468100  0.74214000  0.01627100  1
  O  O35  1  0.41531900  0.24214000  0.48372900  1
  O  O36  1  0.26770900  0.98004300  0.30161700  1
  O  O37  1  0.73229100  0.48004300  0.19838300  1
  O  O38  1  0.73229100  0.01995700  0.69838300  1
  O  O39  1  0.26770900  0.51995700  0.80161700  1
  O  O40  1  0.06720800  0.15840500  0.93894700  1
  O  O41  1  0.93279200  0.65840500  0.56105300  1
  O  O42  1  0.93279200  0.84159500  0.06105300  1
  O  O43  1  0.06720800  0.34159500  0.43894700  1
  O  O44  1  0.96550100  0.64271700  0.22717900  1
  O  O45  1  0.03449900  0.14271700  0.27282100  1
  O  O46  1  0.03449900  0.35728300  0.77282100  1
  O  O47  1  0.96550100  0.85728300  0.72717900  1
  O  O48  1  0.17174900  0.52072600  0.98011200  1
  O  O49  1  0.82825100  0.02072600  0.51988800  1
  O  O50  1  0.82825100  0.47927400  0.01988800  1
  O  O51  1  0.17174900  0.97927400  0.48011200  1
  O  O52  1  0.29971300  0.82246100  0.15147100  1
  O  O53  1  0.70028700  0.32246100  0.34852900  1
  O  O54  1  0.70028700  0.17753900  0.84852900  1
  O  O55  1  0.29971300  0.67753900  0.65147100  1
  O  O56  1  0.48239800  0.51319200  0.16369200  1
  O  O57  1  0.51760200  0.01319200  0.33630800  1
  O  O58  1  0.51760200  0.48680800  0.83630800  1
  O  O59  1  0.48239800  0.98680800  0.66369200  1
  O  O60  1  0.11782000  0.53440300  0.16175600  1
  O  O61  1  0.88218000  0.03440300  0.33824400  1
  O  O62  1  0.88218000  0.46559700  0.83824400  1
  O  O63  1  0.11782000  0.96559700  0.66175600  1
  O  O64  1  0.28312000  0.20139400  0.15821100  1
  O  O65  1  0.71688000  0.70139400  0.34178900  1
  O  O66  1  0.71688000  0.79860600  0.84178900  1
  O  O67  1  0.28312000  0.29860600  0.65821100  1
  O  O68  1  0.42480300  0.50870400  0.32645500  1
  O  O69  1  0.57519700  0.00870400  0.17354500  1
  O  O70  1  0.57519700  0.49129600  0.67354500  1
  O  O71  1  0.42480300  0.99129600  0.82645500  1
