# generated using pymatgen
data_Li6Bi3P8O29
_symmetry_space_group_name_H-M   'P 1'
_cell_length_a   17.96507800
_cell_length_b   10.34974800
_cell_length_c   14.28336055
_cell_angle_alpha   90.00000000
_cell_angle_beta   90.65261915
_cell_angle_gamma   90.00000000
_symmetry_Int_Tables_number   1
_chemical_formula_structural   Li6Bi3P8O29
_chemical_formula_sum   'Li24 Bi12 P32 O116'
_cell_volume   2655.59051326
_cell_formula_units_Z   4
loop_
 _symmetry_equiv_pos_site_id
 _symmetry_equiv_pos_as_xyz
  1  'x, y, z'
loop_
 _atom_site_type_symbol
 _atom_site_label
 _atom_site_symmetry_multiplicity
 _atom_site_fract_x
 _atom_site_fract_y
 _atom_site_fract_z
 _atom_site_occupancy
  Li  Li0  1  0.88995200  0.80030600  0.55629200  1
  Li  Li1  1  0.54842300  0.76722000  0.93870200  1
  Li  Li2  1  0.61085200  0.70055700  0.44827200  1
  Li  Li3  1  0.54842300  0.23278000  0.43870200  1
  Li  Li4  1  0.61085200  0.29944300  0.94827200  1
  Li  Li5  1  0.65374200  0.43574100  0.55774600  1
  Li  Li6  1  0.85499850  0.93504350  0.94624100  1
  Li  Li7  1  0.83760550  0.50034350  0.87694800  1
  Li  Li8  1  0.83760550  0.49965650  0.37694800  1
  Li  Li9  1  0.88995200  0.19969400  0.05629200  1
  Li  Li10  1  0.85499850  0.06495650  0.44624100  1
  Li  Li11  1  0.65374200  0.56425900  0.05774600  1
  Li  Li12  1  0.38995200  0.30030600  0.55629200  1
  Li  Li13  1  0.04842300  0.26722000  0.93870200  1
  Li  Li14  1  0.11085200  0.20055700  0.44827200  1
  Li  Li15  1  0.04842300  0.73278000  0.43870200  1
  Li  Li16  1  0.11085200  0.79944300  0.94827200  1
  Li  Li17  1  0.15374200  0.93574100  0.55774600  1
  Li  Li18  1  0.35499850  0.43504350  0.94624100  1
  Li  Li19  1  0.33760550  0.00034350  0.87694800  1
  Li  Li20  1  0.33760550  0.99965650  0.37694800  1
  Li  Li21  1  0.38995200  0.69969400  0.05629200  1
  Li  Li22  1  0.35499850  0.56495650  0.44624100  1
  Li  Li23  1  0.15374200  0.06425900  0.05774600  1
  Bi  Bi24  1  0.50068300  0.93060500  0.74061500  1
  Bi  Bi25  1  0.50068300  0.06939500  0.24061500  1
  Bi  Bi26  1  0.71381500  0.72043600  0.24731800  1
  Bi  Bi27  1  0.78330750  0.78897050  0.74961600  1
  Bi  Bi28  1  0.71381500  0.27956400  0.74731800  1
  Bi  Bi29  1  0.78330750  0.21102950  0.24961600  1
  Bi  Bi30  1  0.00068300  0.43060500  0.74061500  1
  Bi  Bi31  1  0.00068300  0.56939500  0.24061500  1
  Bi  Bi32  1  0.21381500  0.22043600  0.24731800  1
  Bi  Bi33  1  0.28330750  0.28897050  0.74961600  1
  Bi  Bi34  1  0.21381500  0.77956400  0.74731800  1
  Bi  Bi35  1  0.28330750  0.71102950  0.24961600  1
  P  P36  1  0.66212800  0.43196800  0.34611000  1
  P  P37  1  0.61408450  0.30522850  0.16010500  1
  P  P38  1  0.66687750  0.00148050  0.39173900  1
  P  P39  1  0.66687750  0.99851950  0.89173900  1
  P  P40  1  0.53842650  0.23146650  0.65111800  1
  P  P41  1  0.61408450  0.69477150  0.66010500  1
  P  P42  1  0.95719400  0.72799900  0.83825300  1
  P  P43  1  0.88645250  0.79593950  0.34296700  1
  P  P44  1  0.95719400  0.27200100  0.33825300  1
  P  P45  1  0.82894200  0.50321000  0.61159900  1
  P  P46  1  0.82894200  0.49679000  0.11159900  1
  P  P47  1  0.88645250  0.20406050  0.84296700  1
  P  P48  1  0.84451000  0.07314400  0.65621700  1
  P  P49  1  0.66212800  0.56803200  0.84611000  1
  P  P50  1  0.84451000  0.92685600  0.15621700  1
  P  P51  1  0.53842650  0.76853350  0.15111800  1
  P  P52  1  0.16212800  0.93196800  0.34611000  1
  P  P53  1  0.11408450  0.80522850  0.16010500  1
  P  P54  1  0.16687750  0.50148050  0.39173900  1
  P  P55  1  0.16687750  0.49851950  0.89173900  1
  P  P56  1  0.03842650  0.73146650  0.65111800  1
  P  P57  1  0.11408450  0.19477150  0.66010500  1
  P  P58  1  0.45719400  0.22799900  0.83825300  1
  P  P59  1  0.38645250  0.29593950  0.34296700  1
  P  P60  1  0.45719400  0.77200100  0.33825300  1
  P  P61  1  0.32894200  0.00321000  0.61159900  1
  P  P62  1  0.32894200  0.99679000  0.11159900  1
  P  P63  1  0.38645250  0.70406050  0.84296700  1
  P  P64  1  0.34451000  0.57314400  0.65621700  1
  P  P65  1  0.16212800  0.06803200  0.84611000  1
  P  P66  1  0.34451000  0.42685600  0.15621700  1
  P  P67  1  0.03842650  0.26853350  0.15111800  1
  O  O68  1  0.76273850  0.11021450  0.67356100  1
  O  O69  1  0.56350750  0.90818750  0.17113900  1
  O  O70  1  0.60886350  0.68185950  0.15221300  1
  O  O71  1  0.62739450  0.63454850  0.92909500  1
  O  O72  1  0.53641150  0.75714750  0.65599000  1
  O  O73  1  0.51451250  0.74438150  0.41117600  1
  O  O74  1  0.98572950  0.77720150  0.73564100  1
  O  O75  1  0.99501300  0.75075200  0.56084300  1
  O  O76  1  0.96212300  0.72468900  0.34902800  1
  O  O77  1  0.89069950  0.88537850  0.25065100  1
  O  O78  1  0.87942950  0.87327150  0.07022400  1
  O  O79  1  0.88466150  0.80713950  0.85183300  1
  O  O80  1  0.93363000  0.58407400  0.82634100  1
  O  O81  1  0.89313850  0.57601050  0.15745600  1
  O  O82  1  0.99501300  0.24924800  0.06084300  1
  O  O83  1  0.93363000  0.41592600  0.32634100  1
  O  O84  1  0.98572950  0.22279850  0.23564100  1
  O  O85  1  0.82459350  0.69246350  0.32881900  1
  O  O86  1  0.83352000  0.65018700  0.64144100  1
  O  O87  1  0.96212300  0.27531100  0.84902800  1
  O  O88  1  0.89313850  0.42398950  0.65745600  1
  O  O89  1  0.83276650  0.50168250  0.50584200  1
  O  O90  1  0.83276650  0.49831750  0.00584200  1
  O  O91  1  0.83352000  0.34981300  0.14144100  1
  O  O92  1  0.88466150  0.19286050  0.35183300  1
  O  O93  1  0.74479000  0.60543400  0.82889400  1
  O  O94  1  0.75271600  0.55900700  0.14192000  1
  O  O95  1  0.89069950  0.11462150  0.75065100  1
  O  O96  1  0.82459350  0.30753650  0.82881900  1
  O  O97  1  0.87942950  0.12672850  0.57022400  1
  O  O98  1  0.87514200  0.11992300  0.92817000  1
  O  O99  1  0.75271600  0.44099300  0.64192000  1
  O  O100  1  0.84909000  0.07752000  0.15343900  1
  O  O101  1  0.74479000  0.39456600  0.32889400  1
  O  O102  1  0.65861300  0.58024800  0.35649800  1
  O  O103  1  0.87514200  0.88007700  0.42817000  1
  O  O104  1  0.62653350  0.61458050  0.57327200  1
  O  O105  1  0.84909000  0.92248000  0.65343900  1
  O  O106  1  0.61514100  0.60060700  0.75176500  1
  O  O107  1  0.56350750  0.09181250  0.67113900  1
  O  O108  1  0.65861300  0.41975200  0.85649800  1
  O  O109  1  0.74211950  0.06515450  0.36119700  1
  O  O110  1  0.62653350  0.38541950  0.07327200  1
  O  O111  1  0.62739450  0.36545150  0.42909500  1
  O  O112  1  0.61514100  0.39939300  0.25176500  1
  O  O113  1  0.67272650  0.19892950  0.17727500  1
  O  O114  1  0.76273850  0.88978550  0.17356100  1
  O  O115  1  0.74211950  0.93484550  0.86119700  1
  O  O116  1  0.60886350  0.31814050  0.65221300  1
  O  O117  1  0.66336200  0.14337600  0.85969800  1
  O  O118  1  0.66565650  0.00015750  0.49883900  1
  O  O119  1  0.59795100  0.91929200  0.85627800  1
  O  O120  1  0.59795100  0.08070800  0.35627800  1
  O  O121  1  0.53641150  0.24285250  0.15599000  1
  O  O122  1  0.66336200  0.85662400  0.35969800  1
  O  O123  1  0.67272650  0.80107050  0.67727500  1
  O  O124  1  0.51451250  0.25561850  0.91117600  1
  O  O125  1  0.66565650  0.99984250  0.99883900  1
  O  O126  1  0.26273850  0.61021450  0.67356100  1
  O  O127  1  0.06350750  0.40818750  0.17113900  1
  O  O128  1  0.10886350  0.18185950  0.15221300  1
  O  O129  1  0.12739450  0.13454850  0.92909500  1
  O  O130  1  0.03641150  0.25714750  0.65599000  1
  O  O131  1  0.01451250  0.24438150  0.41117600  1
  O  O132  1  0.48572950  0.27720150  0.73564100  1
  O  O133  1  0.49501300  0.25075200  0.56084300  1
  O  O134  1  0.46212300  0.22468900  0.34902800  1
  O  O135  1  0.39069950  0.38537850  0.25065100  1
  O  O136  1  0.37942950  0.37327150  0.07022400  1
  O  O137  1  0.38466150  0.30713950  0.85183300  1
  O  O138  1  0.43363000  0.08407400  0.82634100  1
  O  O139  1  0.39313850  0.07601050  0.15745600  1
  O  O140  1  0.49501300  0.74924800  0.06084300  1
  O  O141  1  0.43363000  0.91592600  0.32634100  1
  O  O142  1  0.48572950  0.72279850  0.23564100  1
  O  O143  1  0.32459350  0.19246350  0.32881900  1
  O  O144  1  0.33352000  0.15018700  0.64144100  1
  O  O145  1  0.46212300  0.77531100  0.84902800  1
  O  O146  1  0.39313850  0.92398950  0.65745600  1
  O  O147  1  0.33276650  0.00168250  0.50584200  1
  O  O148  1  0.33276650  0.99831750  0.00584200  1
  O  O149  1  0.33352000  0.84981300  0.14144100  1
  O  O150  1  0.38466150  0.69286050  0.35183300  1
  O  O151  1  0.24479000  0.10543400  0.82889400  1
  O  O152  1  0.25271600  0.05900700  0.14192000  1
  O  O153  1  0.39069950  0.61462150  0.75065100  1
  O  O154  1  0.32459350  0.80753650  0.82881900  1
  O  O155  1  0.37942950  0.62672850  0.57022400  1
  O  O156  1  0.37514200  0.61992300  0.92817000  1
  O  O157  1  0.25271600  0.94099300  0.64192000  1
  O  O158  1  0.34909000  0.57752000  0.15343900  1
  O  O159  1  0.24479000  0.89456600  0.32889400  1
  O  O160  1  0.15861300  0.08024800  0.35649800  1
  O  O161  1  0.37514200  0.38007700  0.42817000  1
  O  O162  1  0.12653350  0.11458050  0.57327200  1
  O  O163  1  0.34909000  0.42248000  0.65343900  1
  O  O164  1  0.11514100  0.10060700  0.75176500  1
  O  O165  1  0.06350750  0.59181250  0.67113900  1
  O  O166  1  0.15861300  0.91975200  0.85649800  1
  O  O167  1  0.24211950  0.56515450  0.36119700  1
  O  O168  1  0.12653350  0.88541950  0.07327200  1
  O  O169  1  0.12739450  0.86545150  0.42909500  1
  O  O170  1  0.11514100  0.89939300  0.25176500  1
  O  O171  1  0.17272650  0.69892950  0.17727500  1
  O  O172  1  0.26273850  0.38978550  0.17356100  1
  O  O173  1  0.24211950  0.43484550  0.86119700  1
  O  O174  1  0.10886350  0.81814050  0.65221300  1
  O  O175  1  0.16336200  0.64337600  0.85969800  1
  O  O176  1  0.16565650  0.50015750  0.49883900  1
  O  O177  1  0.09795100  0.41929200  0.85627800  1
  O  O178  1  0.09795100  0.58070800  0.35627800  1
  O  O179  1  0.03641150  0.74285250  0.15599000  1
  O  O180  1  0.16336200  0.35662400  0.35969800  1
  O  O181  1  0.17272650  0.30107050  0.67727500  1
  O  O182  1  0.01451250  0.75561850  0.91117600  1
  O  O183  1  0.16565650  0.49984250  0.99883900  1
