# generated using pymatgen
data_Sr3Fe2Cl2O5
_symmetry_space_group_name_H-M   'P 1'
_cell_length_a   3.99982252
_cell_length_b   3.99982252
_cell_length_c   24.33321765
_cell_angle_alpha   90.00000000
_cell_angle_beta   90.00000000
_cell_angle_gamma   90.00000000
_symmetry_Int_Tables_number   1
_chemical_formula_structural   Sr3Fe2Cl2O5
_chemical_formula_sum   'Sr6 Fe4 Cl4 O10'
_cell_volume   389.29693469
_cell_formula_units_Z   2
loop_
 _symmetry_equiv_pos_site_id
 _symmetry_equiv_pos_as_xyz
  1  'x, y, z'
loop_
 _atom_site_type_symbol
 _atom_site_label
 _atom_site_symmetry_multiplicity
 _atom_site_fract_x
 _atom_site_fract_y
 _atom_site_fract_z
 _atom_site_occupancy
  Sr  Sr0  1  0.00000000  0.00000000  0.65530970  1
  Sr  Sr1  1  0.50000000  0.50000000  0.84469030  1
  Sr  Sr2  1  0.00000000  0.00000000  0.50000000  1
  Sr  Sr3  1  0.50000000  0.50000000  0.15530971  1
  Sr  Sr4  1  0.00000000  0.00000000  0.34469029  1
  Sr  Sr5  1  0.50000000  0.50000000  0.00000000  1
  Fe  Fe6  1  0.00000000  0.00000000  0.92097851  1
  Fe  Fe7  1  0.50000000  0.50000000  0.57902149  1
  Fe  Fe8  1  0.50000000  0.50000000  0.42097851  1
  Fe  Fe9  1  0.00000000  0.00000000  0.07902149  1
  Cl  Cl10  1  0.50000000  0.50000000  0.70278590  1
  Cl  Cl11  1  0.00000000  0.00000000  0.79721410  1
  Cl  Cl12  1  0.00000000  0.00000000  0.20278590  1
  Cl  Cl13  1  0.50000000  0.50000000  0.29721410  1
  O  O14  1  0.00000000  0.50000000  0.90991726  1
  O  O15  1  0.50000000  0.00000000  0.90991726  1
  O  O16  1  0.50000000  0.00000000  0.59008274  1
  O  O17  1  0.00000000  0.00000000  0.00000000  1
  O  O18  1  0.00000000  0.50000000  0.59008274  1
  O  O19  1  0.50000000  0.00000000  0.40991726  1
  O  O20  1  0.00000000  0.50000000  0.40991726  1
  O  O21  1  0.00000000  0.50000000  0.09008274  1
  O  O22  1  0.50000000  0.50000000  0.50000000  1
  O  O23  1  0.50000000  0.00000000  0.09008274  1
