# generated using pymatgen
data_Na2TbO3
_symmetry_space_group_name_H-M   'P 1'
_cell_length_a   5.97884600
_cell_length_b   10.38064600
_cell_length_c   11.34652258
_cell_angle_alpha   90.00000000
_cell_angle_beta   100.29779120
_cell_angle_gamma   90.00000000
_symmetry_Int_Tables_number   1
_chemical_formula_structural   Na2TbO3
_chemical_formula_sum   'Na16 Tb8 O24'
_cell_volume   692.87027256
_cell_formula_units_Z   8
loop_
 _symmetry_equiv_pos_site_id
 _symmetry_equiv_pos_as_xyz
  1  'x, y, z'
loop_
 _atom_site_type_symbol
 _atom_site_label
 _atom_site_symmetry_multiplicity
 _atom_site_fract_x
 _atom_site_fract_y
 _atom_site_fract_z
 _atom_site_occupancy
  Na  Na0  1  0.00000000  0.91412700  0.75000000  1
  Na  Na1  1  0.73869700  0.57952500  0.99983700  1
  Na  Na2  1  0.23869700  0.92047500  0.49983700  1
  Na  Na3  1  0.76130300  0.92047500  0.00016300  1
  Na  Na4  1  0.25000000  0.75000000  0.00000000  1
  Na  Na5  1  0.75000000  0.75000000  0.50000000  1
  Na  Na6  1  0.50000000  0.58587300  0.25000000  1
  Na  Na7  1  0.26130300  0.57952500  0.50016300  1
  Na  Na8  1  0.50000000  0.41412700  0.75000000  1
  Na  Na9  1  0.23869700  0.07952500  0.99983700  1
  Na  Na10  1  0.73869700  0.42047500  0.49983700  1
  Na  Na11  1  0.26130300  0.42047500  0.00016300  1
  Na  Na12  1  0.75000000  0.25000000  0.00000000  1
  Na  Na13  1  0.25000000  0.25000000  0.50000000  1
  Na  Na14  1  0.00000000  0.08587300  0.25000000  1
  Na  Na15  1  0.76130300  0.07952500  0.50016300  1
  Tb  Tb16  1  0.50000000  0.74752800  0.75000000  1
  Tb  Tb17  1  0.00000000  0.75247200  0.25000000  1
  Tb  Tb18  1  0.00000000  0.58158900  0.75000000  1
  Tb  Tb19  1  0.50000000  0.91841100  0.25000000  1
  Tb  Tb20  1  0.00000000  0.24752800  0.75000000  1
  Tb  Tb21  1  0.50000000  0.25247200  0.25000000  1
  Tb  Tb22  1  0.50000000  0.08158900  0.75000000  1
  Tb  Tb23  1  0.00000000  0.41841100  0.25000000  1
  O  O24  1  0.64299100  0.59659000  0.63632200  1
  O  O25  1  0.35700900  0.59659000  0.86367800  1
  O  O26  1  0.85700900  0.90341000  0.36367800  1
  O  O27  1  0.14299100  0.90341000  0.13632200  1
  O  O28  1  0.14366200  0.73342900  0.63869100  1
  O  O29  1  0.85633800  0.73342900  0.86130900  1
  O  O30  1  0.35633800  0.76657100  0.36130900  1
  O  O31  1  0.64366200  0.76657100  0.13869100  1
  O  O32  1  0.59956950  0.91515750  0.63912800  1
  O  O33  1  0.09956950  0.58484250  0.13912800  1
  O  O34  1  0.90043050  0.58484250  0.36087200  1
  O  O35  1  0.40043050  0.91515750  0.86087200  1
  O  O36  1  0.14299100  0.09659000  0.63632200  1
  O  O37  1  0.85700900  0.09659000  0.86367800  1
  O  O38  1  0.35700900  0.40341000  0.36367800  1
  O  O39  1  0.64299100  0.40341000  0.13632200  1
  O  O40  1  0.64366200  0.23342900  0.63869100  1
  O  O41  1  0.35633800  0.23342900  0.86130900  1
  O  O42  1  0.85633800  0.26657100  0.36130900  1
  O  O43  1  0.14366200  0.26657100  0.13869100  1
  O  O44  1  0.09956950  0.41515750  0.63912800  1
  O  O45  1  0.59956950  0.08484250  0.13912800  1
  O  O46  1  0.40043050  0.08484250  0.36087200  1
  O  O47  1  0.90043050  0.41515750  0.86087200  1
