# generated using pymatgen
data_Cu5Se2(ClO4)2
_symmetry_space_group_name_H-M   'P 1'
_cell_length_a   5.67813686
_cell_length_b   13.91093200
_cell_length_c   6.15563854
_cell_angle_alpha   90.00000000
_cell_angle_beta   95.05372917
_cell_angle_gamma   90.00000000
_symmetry_Int_Tables_number   1
_chemical_formula_structural   Cu5Se2(ClO4)2
_chemical_formula_sum   'Cu10 Se4 Cl4 O16'
_cell_volume   484.33248227
_cell_formula_units_Z   2
loop_
 _symmetry_equiv_pos_site_id
 _symmetry_equiv_pos_as_xyz
  1  'x, y, z'
loop_
 _atom_site_type_symbol
 _atom_site_label
 _atom_site_symmetry_multiplicity
 _atom_site_fract_x
 _atom_site_fract_y
 _atom_site_fract_z
 _atom_site_occupancy
  Cu  Cu0  1  0.49092200  0.99649700  0.25842600  1
  Cu  Cu1  1  0.94687000  0.68808200  0.56654700  1
  Cu  Cu2  1  0.05313000  0.31191800  0.43345300  1
  Cu  Cu3  1  0.50000000  0.50000000  0.50000000  1
  Cu  Cu4  1  0.44687000  0.81191800  0.56654700  1
  Cu  Cu5  1  0.55313000  0.18808200  0.43345300  1
  Cu  Cu6  1  0.99092200  0.50350300  0.25842600  1
  Cu  Cu7  1  0.50907800  0.00350300  0.74157400  1
  Cu  Cu8  1  0.00000000  0.00000000  0.50000000  1
  Cu  Cu9  1  0.00907800  0.49649700  0.74157400  1
  Se  Se10  1  0.40036000  0.36534500  0.06610000  1
  Se  Se11  1  0.09964000  0.86534500  0.93390000  1
  Se  Se12  1  0.90036000  0.13465500  0.06610000  1
  Se  Se13  1  0.59964000  0.63465500  0.93390000  1
  Cl  Cl14  1  0.77059000  0.32428900  0.67007200  1
  Cl  Cl15  1  0.27059000  0.17571100  0.67007200  1
  Cl  Cl16  1  0.22941000  0.67571100  0.32992800  1
  Cl  Cl17  1  0.72941000  0.82428900  0.32992800  1
  O  O18  1  0.57313700  0.44354900  0.22997600  1
  O  O19  1  0.81808100  0.55901400  0.49484900  1
  O  O20  1  0.36952800  0.92641800  0.97434900  1
  O  O21  1  0.31808100  0.94098600  0.49484900  1
  O  O22  1  0.68589000  0.72230900  0.75071500  1
  O  O23  1  0.92686300  0.94354900  0.77002400  1
  O  O24  1  0.42686300  0.55645100  0.77002400  1
  O  O25  1  0.18191900  0.44098600  0.50515100  1
  O  O26  1  0.13047200  0.42641800  0.02565100  1
  O  O27  1  0.81411000  0.22230900  0.24928500  1
  O  O28  1  0.31411000  0.27769100  0.24928500  1
  O  O29  1  0.68191900  0.05901400  0.50515100  1
  O  O30  1  0.18589000  0.77769100  0.75071500  1
  O  O31  1  0.07313700  0.05645100  0.22997600  1
  O  O32  1  0.86952800  0.57358200  0.97434900  1
  O  O33  1  0.63047200  0.07358200  0.02565100  1
