# generated using pymatgen
data_In2Ir
_symmetry_space_group_name_H-M   'P 1'
_cell_length_a   5.47925600
_cell_length_b   9.91551000
_cell_length_c   18.14110200
_cell_angle_alpha   90.00000000
_cell_angle_beta   90.00000000
_cell_angle_gamma   90.00000000
_symmetry_Int_Tables_number   1
_chemical_formula_structural   In2Ir
_chemical_formula_sum   'In32 Ir16'
_cell_volume   985.59913560
_cell_formula_units_Z   16
loop_
 _symmetry_equiv_pos_site_id
 _symmetry_equiv_pos_as_xyz
  1  'x, y, z'
loop_
 _atom_site_type_symbol
 _atom_site_label
 _atom_site_symmetry_multiplicity
 _atom_site_fract_x
 _atom_site_fract_y
 _atom_site_fract_z
 _atom_site_occupancy
  In  In0  1  0.75000000  0.59295400  0.75000000  1
  In  In1  1  0.75000000  0.90704600  0.75000000  1
  In  In2  1  0.00000000  0.00000000  0.91450700  1
  In  In3  1  0.50000000  0.84295400  0.00000000  1
  In  In4  1  0.50000000  0.00000000  0.58549300  1
  In  In5  1  0.25000000  0.75000000  0.66450700  1
  In  In6  1  0.00000000  0.65704600  0.00000000  1
  In  In7  1  0.25000000  0.75000000  0.83549300  1
  In  In8  1  0.75000000  0.09295400  0.25000000  1
  In  In9  1  0.75000000  0.40704600  0.25000000  1
  In  In10  1  0.00000000  0.50000000  0.41450700  1
  In  In11  1  0.50000000  0.34295400  0.50000000  1
  In  In12  1  0.50000000  0.50000000  0.08549300  1
  In  In13  1  0.25000000  0.25000000  0.16450700  1
  In  In14  1  0.00000000  0.15704600  0.50000000  1
  In  In15  1  0.25000000  0.25000000  0.33549300  1
  In  In16  1  0.25000000  0.59295400  0.25000000  1
  In  In17  1  0.25000000  0.90704600  0.25000000  1
  In  In18  1  0.50000000  0.00000000  0.41450700  1
  In  In19  1  0.00000000  0.84295400  0.50000000  1
  In  In20  1  0.00000000  0.00000000  0.08549300  1
  In  In21  1  0.75000000  0.75000000  0.16450700  1
  In  In22  1  0.50000000  0.65704600  0.50000000  1
  In  In23  1  0.75000000  0.75000000  0.33549300  1
  In  In24  1  0.25000000  0.09295400  0.75000000  1
  In  In25  1  0.25000000  0.40704600  0.75000000  1
  In  In26  1  0.50000000  0.50000000  0.91450700  1
  In  In27  1  0.00000000  0.34295400  0.00000000  1
  In  In28  1  0.00000000  0.50000000  0.58549300  1
  In  In29  1  0.75000000  0.25000000  0.66450700  1
  In  In30  1  0.50000000  0.15704600  0.00000000  1
  In  In31  1  0.75000000  0.25000000  0.83549300  1
  Ir  Ir32  1  0.75000000  0.75000000  0.62016000  1
  Ir  Ir33  1  0.50000000  0.00000000  0.87016000  1
  Ir  Ir34  1  0.75000000  0.75000000  0.87984000  1
  Ir  Ir35  1  0.00000000  0.00000000  0.62984000  1
  Ir  Ir36  1  0.75000000  0.25000000  0.12016000  1
  Ir  Ir37  1  0.50000000  0.50000000  0.37016000  1
  Ir  Ir38  1  0.75000000  0.25000000  0.37984000  1
  Ir  Ir39  1  0.00000000  0.50000000  0.12984000  1
  Ir  Ir40  1  0.25000000  0.75000000  0.12016000  1
  Ir  Ir41  1  0.00000000  0.00000000  0.37016000  1
  Ir  Ir42  1  0.25000000  0.75000000  0.37984000  1
  Ir  Ir43  1  0.50000000  0.00000000  0.12984000  1
  Ir  Ir44  1  0.25000000  0.25000000  0.62016000  1
  Ir  Ir45  1  0.00000000  0.50000000  0.87016000  1
  Ir  Ir46  1  0.25000000  0.25000000  0.87984000  1
  Ir  Ir47  1  0.50000000  0.50000000  0.62984000  1
