# generated using pymatgen
data_Sc5Re2C7
_symmetry_space_group_name_H-M   'P 1'
_cell_length_a   7.81242400
_cell_length_b   13.71747600
_cell_length_c   3.21922300
_cell_angle_alpha   90.00000000
_cell_angle_beta   90.00000000
_cell_angle_gamma   90.00000000
_symmetry_Int_Tables_number   1
_chemical_formula_structural   Sc5Re2C7
_chemical_formula_sum   'Sc10 Re4 C14'
_cell_volume   344.99363013
_cell_formula_units_Z   2
loop_
 _symmetry_equiv_pos_site_id
 _symmetry_equiv_pos_as_xyz
  1  'x, y, z'
loop_
 _atom_site_type_symbol
 _atom_site_label
 _atom_site_symmetry_multiplicity
 _atom_site_fract_x
 _atom_site_fract_y
 _atom_site_fract_z
 _atom_site_occupancy
  Sc  Sc0  1  0.21094750  0.12765550  0.50000000  1
  Sc  Sc1  1  0.71094750  0.37234450  0.50000000  1
  Sc  Sc2  1  0.50000000  0.00000000  0.00000000  1
  Sc  Sc3  1  0.28905250  0.37234450  0.50000000  1
  Sc  Sc4  1  0.78905250  0.12765550  0.50000000  1
  Sc  Sc5  1  0.71094750  0.62765550  0.50000000  1
  Sc  Sc6  1  0.21094750  0.87234450  0.50000000  1
  Sc  Sc7  1  0.00000000  0.50000000  0.00000000  1
  Sc  Sc8  1  0.78905250  0.87234450  0.50000000  1
  Sc  Sc9  1  0.28905250  0.62765550  0.50000000  1
  Re  Re10  1  0.00000000  0.28468200  0.00000000  1
  Re  Re11  1  0.50000000  0.21531800  0.00000000  1
  Re  Re12  1  0.50000000  0.78468200  0.00000000  1
  Re  Re13  1  0.00000000  0.71531800  0.00000000  1
  C  C14  1  0.00000000  0.00000000  0.00000000  1
  C  C15  1  0.25000000  0.25000000  0.00000000  1
  C  C16  1  0.75000000  0.25000000  0.00000000  1
  C  C17  1  0.17349000  0.00000000  0.00000000  1
  C  C18  1  0.82651000  0.00000000  0.00000000  1
  C  C19  1  0.00000000  0.38122700  0.50000000  1
  C  C20  1  0.50000000  0.11877300  0.50000000  1
  C  C21  1  0.50000000  0.50000000  0.00000000  1
  C  C22  1  0.75000000  0.75000000  0.00000000  1
  C  C23  1  0.25000000  0.75000000  0.00000000  1
  C  C24  1  0.67349000  0.50000000  0.00000000  1
  C  C25  1  0.32651000  0.50000000  0.00000000  1
  C  C26  1  0.50000000  0.88122700  0.50000000  1
  C  C27  1  0.00000000  0.61877300  0.50000000  1
