# generated using pymatgen
data_NiH2SeO5
_symmetry_space_group_name_H-M   'P 1'
_cell_length_a   6.97367807
_cell_length_b   8.15154772
_cell_length_c   7.64309389
_cell_angle_alpha   90.00000000
_cell_angle_beta   116.72236714
_cell_angle_gamma   90.00000000
_symmetry_Int_Tables_number   1
_chemical_formula_structural   NiH2SeO5
_chemical_formula_sum   'Ni4 H8 Se4 O20'
_cell_volume   388.07699007
_cell_formula_units_Z   4
loop_
 _symmetry_equiv_pos_site_id
 _symmetry_equiv_pos_as_xyz
  1  'x, y, z'
loop_
 _atom_site_type_symbol
 _atom_site_label
 _atom_site_symmetry_multiplicity
 _atom_site_fract_x
 _atom_site_fract_y
 _atom_site_fract_z
 _atom_site_occupancy
  Ni  Ni0  1  0.25000000  0.25000000  0.00000000  1
  Ni  Ni1  1  0.75000000  0.25000000  0.50000000  1
  Ni  Ni2  1  0.75000000  0.75000000  0.00000000  1
  Ni  Ni3  1  0.25000000  0.75000000  0.50000000  1
  H  H4  1  0.41780100  0.55404900  0.79840300  1
  H  H5  1  0.08219900  0.05404900  0.70159700  1
  H  H6  1  0.08219900  0.94595100  0.20159700  1
  H  H7  1  0.41780100  0.44595100  0.29840300  1
  H  H8  1  0.91780100  0.05404900  0.79840300  1
  H  H9  1  0.58219900  0.55404900  0.70159700  1
  H  H10  1  0.58219900  0.44595100  0.20159700  1
  H  H11  1  0.91780100  0.94595100  0.29840300  1
  Se  Se12  1  0.00000000  0.41588400  0.25000000  1
  Se  Se13  1  0.50000000  0.08411600  0.75000000  1
  Se  Se14  1  0.50000000  0.91588400  0.25000000  1
  Se  Se15  1  0.00000000  0.58411600  0.75000000  1
  O  O16  1  0.50000000  0.37281500  0.25000000  1
  O  O17  1  0.00000000  0.12718500  0.75000000  1
  O  O18  1  0.98979700  0.30070500  0.42529300  1
  O  O19  1  0.01020300  0.30070500  0.07470700  1
  O  O20  1  0.51020300  0.19929500  0.57470700  1
  O  O21  1  0.48979700  0.19929500  0.92529300  1
  O  O22  1  0.27724000  0.03353400  0.15239700  1
  O  O23  1  0.22276000  0.53353400  0.34760300  1
  O  O24  1  0.22276000  0.46646600  0.84760300  1
  O  O25  1  0.27724000  0.96646600  0.65239700  1
  O  O26  1  0.00000000  0.87281500  0.25000000  1
  O  O27  1  0.50000000  0.62718500  0.75000000  1
  O  O28  1  0.48979700  0.80070500  0.42529300  1
  O  O29  1  0.51020300  0.80070500  0.07470700  1
  O  O30  1  0.01020300  0.69929500  0.57470700  1
  O  O31  1  0.98979700  0.69929500  0.92529300  1
  O  O32  1  0.77724000  0.53353400  0.15239700  1
  O  O33  1  0.72276000  0.03353400  0.34760300  1
  O  O34  1  0.72276000  0.96646600  0.84760300  1
  O  O35  1  0.77724000  0.46646600  0.65239700  1
