# generated using pymatgen
data_Ca2InPd2
_symmetry_space_group_name_H-M   'P 1'
_cell_length_a   10.25678800
_cell_length_b   5.77216200
_cell_length_c   8.23659802
_cell_angle_alpha   90.00000000
_cell_angle_beta   104.75305068
_cell_angle_gamma   90.00000000
_symmetry_Int_Tables_number   1
_chemical_formula_structural   Ca2InPd2
_chemical_formula_sum   'Ca8 In4 Pd8'
_cell_volume   471.56197564
_cell_formula_units_Z   4
loop_
 _symmetry_equiv_pos_site_id
 _symmetry_equiv_pos_as_xyz
  1  'x, y, z'
loop_
 _atom_site_type_symbol
 _atom_site_label
 _atom_site_symmetry_multiplicity
 _atom_site_fract_x
 _atom_site_fract_y
 _atom_site_fract_z
 _atom_site_occupancy
  Ca  Ca0  1  0.64936100  0.14487900  0.64959800  1
  Ca  Ca1  1  0.85063900  0.64487900  0.85040200  1
  Ca  Ca2  1  0.85063900  0.35512100  0.35040200  1
  Ca  Ca3  1  0.64936100  0.85512100  0.14959800  1
  Ca  Ca4  1  0.14936100  0.64487900  0.64959800  1
  Ca  Ca5  1  0.35063900  0.14487900  0.85040200  1
  Ca  Ca6  1  0.35063900  0.85512100  0.35040200  1
  Ca  Ca7  1  0.14936100  0.35512100  0.14959800  1
  In  In8  1  0.00000000  0.15232200  0.75000000  1
  In  In9  1  0.00000000  0.84767800  0.25000000  1
  In  In10  1  0.50000000  0.65232200  0.75000000  1
  In  In11  1  0.50000000  0.34767800  0.25000000  1
  Pd  Pd12  1  0.86606500  0.13780300  0.99720900  1
  Pd  Pd13  1  0.63393500  0.63780300  0.50279100  1
  Pd  Pd14  1  0.63393500  0.36219700  0.00279100  1
  Pd  Pd15  1  0.86606500  0.86219700  0.49720900  1
  Pd  Pd16  1  0.36606500  0.63780300  0.99720900  1
  Pd  Pd17  1  0.13393500  0.13780300  0.50279100  1
  Pd  Pd18  1  0.13393500  0.86219700  0.00279100  1
  Pd  Pd19  1  0.36606500  0.36219700  0.49720900  1
