# generated using pymatgen
data_Li21Si5
_symmetry_space_group_name_H-M   'P 1'
_cell_length_a   18.53249600
_cell_length_b   18.53249600
_cell_length_c   18.53249600
_cell_angle_alpha   90.00000000
_cell_angle_beta   90.00000000
_cell_angle_gamma   90.00000000
_symmetry_Int_Tables_number   1
_chemical_formula_structural   Li21Si5
_chemical_formula_sum   'Li336 Si80'
_cell_volume   6365.04890976
_cell_formula_units_Z   16
loop_
 _symmetry_equiv_pos_site_id
 _symmetry_equiv_pos_as_xyz
  1  'x, y, z'
loop_
 _atom_site_type_symbol
 _atom_site_label
 _atom_site_symmetry_multiplicity
 _atom_site_fract_x
 _atom_site_fract_y
 _atom_site_fract_z
 _atom_site_occupancy
  Li  Li0  1  0.75659300  0.08902800  0.08902800  1
  Li  Li1  1  0.41097200  0.25659300  0.91097200  1
  Li  Li2  1  0.91097200  0.41097200  0.25659300  1
  Li  Li3  1  0.08902800  0.41097200  0.74340700  1
  Li  Li4  1  0.08902800  0.24340700  0.91097200  1
  Li  Li5  1  0.74340700  0.41097200  0.08902800  1
  Li  Li6  1  0.24340700  0.08902800  0.91097200  1
  Li  Li7  1  0.58902800  0.08902800  0.25659300  1
  Li  Li8  1  0.41097200  0.08902800  0.74340700  1
  Li  Li9  1  0.91097200  0.24340700  0.08902800  1
  Li  Li10  1  0.58902800  0.25659300  0.08902800  1
  Li  Li11  1  0.25659300  0.41097200  0.91097200  1
  Li  Li12  1  0.26995300  0.09518000  0.09518000  1
  Li  Li13  1  0.90482000  0.26995300  0.90482000  1
  Li  Li14  1  0.90482000  0.40482000  0.76995300  1
  Li  Li15  1  0.09518000  0.40482000  0.23004700  1
  Li  Li16  1  0.59518000  0.23004700  0.90482000  1
  Li  Li17  1  0.23004700  0.40482000  0.09518000  1
  Li  Li18  1  0.73004700  0.09518000  0.90482000  1
  Li  Li19  1  0.59518000  0.09518000  0.76995300  1
  Li  Li20  1  0.05278000  0.44722000  0.44722000  1
  Li  Li21  1  0.05278000  0.05278000  0.05278000  1
  Li  Li22  1  0.44722000  0.44722000  0.05278000  1
  Li  Li23  1  0.44722000  0.05278000  0.44722000  1
  Li  Li24  1  0.16843300  0.33156700  0.33156700  1
  Li  Li25  1  0.16843300  0.16843300  0.16843300  1
  Li  Li26  1  0.33156700  0.33156700  0.16843300  1
  Li  Li27  1  0.33156700  0.16843300  0.33156700  1
  Li  Li28  1  0.30700000  0.19300000  0.19300000  1
  Li  Li29  1  0.30700000  0.30700000  0.30700000  1
  Li  Li30  1  0.19300000  0.19300000  0.30700000  1
  Li  Li31  1  0.19300000  0.30700000  0.19300000  1
  Li  Li32  1  0.43623900  0.06376100  0.06376100  1
  Li  Li33  1  0.93623900  0.43623900  0.93623900  1
  Li  Li34  1  0.56376100  0.06376100  0.93623900  1
  Li  Li35  1  0.06376100  0.43623900  0.06376100  1
  Li  Li36  1  0.08011100  0.41988900  0.91988900  1
  Li  Li37  1  0.58011100  0.08011100  0.08011100  1
  Li  Li38  1  0.91988900  0.41988900  0.08011100  1
  Li  Li39  1  0.41988900  0.08011100  0.91988900  1
  Li  Li40  1  0.30608400  0.19391600  0.69391600  1
  Li  Li41  1  0.30608400  0.30608400  0.80608400  1
  Li  Li42  1  0.19391600  0.19391600  0.80608400  1
  Li  Li43  1  0.19391600  0.30608400  0.69391600  1
  Li  Li44  1  0.50000000  0.32467500  0.00000000  1
  Li  Li45  1  0.17532500  0.00000000  0.00000000  1
  Li  Li46  1  0.82467500  0.00000000  0.00000000  1
  Li  Li47  1  0.00000000  0.17532500  0.00000000  1
  Li  Li48  1  0.50000000  0.00000000  0.32467500  1
  Li  Li49  1  0.50000000  0.00000000  0.67532500  1
  Li  Li50  1  0.25000000  0.42276000  0.75000000  1
  Li  Li51  1  0.07724000  0.25000000  0.75000000  1
  Li  Li52  1  0.42276000  0.25000000  0.75000000  1
  Li  Li53  1  0.25000000  0.07724000  0.75000000  1
  Li  Li54  1  0.25000000  0.25000000  0.92276000  1
  Li  Li55  1  0.25000000  0.25000000  0.57724000  1
  Li  Li56  1  0.01275100  0.15903800  0.15903800  1
  Li  Li57  1  0.34096200  0.01275100  0.34096200  1
  Li  Li58  1  0.15903800  0.48724900  0.34096200  1
  Li  Li59  1  0.15903800  0.34096200  0.48724900  1
  Li  Li60  1  0.34096200  0.34096200  0.01275100  1
  Li  Li61  1  0.48724900  0.34096200  0.15903800  1
  Li  Li62  1  0.48724900  0.15903800  0.34096200  1
  Li  Li63  1  0.34096200  0.48724900  0.15903800  1
  Li  Li64  1  0.34096200  0.15903800  0.48724900  1
  Li  Li65  1  0.15903800  0.15903800  0.01275100  1
  Li  Li66  1  0.15903800  0.01275100  0.15903800  1
  Li  Li67  1  0.01275100  0.34096200  0.34096200  1
  Li  Li68  1  0.01122400  0.34050450  0.84050450  1
  Li  Li69  1  0.65949550  0.01122400  0.15949550  1
  Li  Li70  1  0.84050450  0.48877600  0.15949550  1
  Li  Li71  1  0.34050450  0.15949550  0.98877600  1
  Li  Li72  1  0.65949550  0.15949550  0.01122400  1
  Li  Li73  1  0.48877600  0.15949550  0.84050450  1
  Li  Li74  1  0.98877600  0.34050450  0.15949550  1
  Li  Li75  1  0.15949550  0.48877600  0.84050450  1
  Li  Li76  1  0.15949550  0.34050450  0.98877600  1
  Li  Li77  1  0.84050450  0.34050450  0.01122400  1
  Li  Li78  1  0.34050450  0.01122400  0.84050450  1
  Li  Li79  1  0.51122400  0.15949550  0.15949550  1
  Li  Li80  1  0.76995300  0.40482000  0.90482000  1
  Li  Li81  1  0.09518000  0.26995300  0.09518000  1
  Li  Li82  1  0.40482000  0.23004700  0.09518000  1
  Li  Li83  1  0.40482000  0.09518000  0.23004700  1
  Li  Li84  1  0.75659300  0.58902800  0.58902800  1
  Li  Li85  1  0.41097200  0.75659300  0.41097200  1
  Li  Li86  1  0.91097200  0.91097200  0.75659300  1
  Li  Li87  1  0.08902800  0.91097200  0.24340700  1
  Li  Li88  1  0.08902800  0.74340700  0.41097200  1
  Li  Li89  1  0.74340700  0.91097200  0.58902800  1
  Li  Li90  1  0.24340700  0.58902800  0.41097200  1
  Li  Li91  1  0.58902800  0.58902800  0.75659300  1
  Li  Li92  1  0.41097200  0.58902800  0.24340700  1
  Li  Li93  1  0.91097200  0.74340700  0.58902800  1
  Li  Li94  1  0.58902800  0.75659300  0.58902800  1
  Li  Li95  1  0.25659300  0.91097200  0.41097200  1
  Li  Li96  1  0.26995300  0.59518000  0.59518000  1
  Li  Li97  1  0.90482000  0.76995300  0.40482000  1
  Li  Li98  1  0.90482000  0.90482000  0.26995300  1
  Li  Li99  1  0.09518000  0.90482000  0.73004700  1
  Li  Li100  1  0.59518000  0.73004700  0.40482000  1
  Li  Li101  1  0.23004700  0.90482000  0.59518000  1
  Li  Li102  1  0.73004700  0.59518000  0.40482000  1
  Li  Li103  1  0.59518000  0.59518000  0.26995300  1
  Li  Li104  1  0.05278000  0.94722000  0.94722000  1
  Li  Li105  1  0.05278000  0.55278000  0.55278000  1
  Li  Li106  1  0.44722000  0.94722000  0.55278000  1
  Li  Li107  1  0.44722000  0.55278000  0.94722000  1
  Li  Li108  1  0.16843300  0.83156700  0.83156700  1
  Li  Li109  1  0.16843300  0.66843300  0.66843300  1
  Li  Li110  1  0.33156700  0.83156700  0.66843300  1
  Li  Li111  1  0.33156700  0.66843300  0.83156700  1
  Li  Li112  1  0.30700000  0.69300000  0.69300000  1
  Li  Li113  1  0.30700000  0.80700000  0.80700000  1
  Li  Li114  1  0.19300000  0.69300000  0.80700000  1
  Li  Li115  1  0.19300000  0.80700000  0.69300000  1
  Li  Li116  1  0.43623900  0.56376100  0.56376100  1
  Li  Li117  1  0.93623900  0.93623900  0.43623900  1
  Li  Li118  1  0.56376100  0.56376100  0.43623900  1
  Li  Li119  1  0.06376100  0.93623900  0.56376100  1
  Li  Li120  1  0.08011100  0.91988900  0.41988900  1
  Li  Li121  1  0.58011100  0.58011100  0.58011100  1
  Li  Li122  1  0.91988900  0.91988900  0.58011100  1
  Li  Li123  1  0.41988900  0.58011100  0.41988900  1
  Li  Li124  1  0.30608400  0.69391600  0.19391600  1
  Li  Li125  1  0.30608400  0.80608400  0.30608400  1
  Li  Li126  1  0.19391600  0.69391600  0.30608400  1
  Li  Li127  1  0.19391600  0.80608400  0.19391600  1
  Li  Li128  1  0.50000000  0.82467500  0.50000000  1
  Li  Li129  1  0.17532500  0.50000000  0.50000000  1
  Li  Li130  1  0.82467500  0.50000000  0.50000000  1
  Li  Li131  1  0.00000000  0.67532500  0.50000000  1
  Li  Li132  1  0.50000000  0.50000000  0.82467500  1
  Li  Li133  1  0.50000000  0.50000000  0.17532500  1
  Li  Li134  1  0.25000000  0.92276000  0.25000000  1
  Li  Li135  1  0.07724000  0.75000000  0.25000000  1
  Li  Li136  1  0.42276000  0.75000000  0.25000000  1
  Li  Li137  1  0.25000000  0.57724000  0.25000000  1
  Li  Li138  1  0.25000000  0.75000000  0.42276000  1
  Li  Li139  1  0.25000000  0.75000000  0.07724000  1
  Li  Li140  1  0.01275100  0.65903800  0.65903800  1
  Li  Li141  1  0.34096200  0.51275100  0.84096200  1
  Li  Li142  1  0.15903800  0.98724900  0.84096200  1
  Li  Li143  1  0.15903800  0.84096200  0.98724900  1
  Li  Li144  1  0.34096200  0.84096200  0.51275100  1
  Li  Li145  1  0.48724900  0.84096200  0.65903800  1
  Li  Li146  1  0.48724900  0.65903800  0.84096200  1
  Li  Li147  1  0.34096200  0.98724900  0.65903800  1
  Li  Li148  1  0.34096200  0.65903800  0.98724900  1
  Li  Li149  1  0.15903800  0.65903800  0.51275100  1
  Li  Li150  1  0.15903800  0.51275100  0.65903800  1
  Li  Li151  1  0.01275100  0.84096200  0.84096200  1
  Li  Li152  1  0.01122400  0.84050450  0.34050450  1
  Li  Li153  1  0.65949550  0.51122400  0.65949550  1
  Li  Li154  1  0.84050450  0.98877600  0.65949550  1
  Li  Li155  1  0.34050450  0.65949550  0.48877600  1
  Li  Li156  1  0.65949550  0.65949550  0.51122400  1
  Li  Li157  1  0.48877600  0.65949550  0.34050450  1
  Li  Li158  1  0.98877600  0.84050450  0.65949550  1
  Li  Li159  1  0.15949550  0.98877600  0.34050450  1
  Li  Li160  1  0.15949550  0.84050450  0.48877600  1
  Li  Li161  1  0.84050450  0.84050450  0.51122400  1
  Li  Li162  1  0.34050450  0.51122400  0.34050450  1
  Li  Li163  1  0.51122400  0.65949550  0.65949550  1
  Li  Li164  1  0.76995300  0.90482000  0.40482000  1
  Li  Li165  1  0.09518000  0.76995300  0.59518000  1
  Li  Li166  1  0.40482000  0.73004700  0.59518000  1
  Li  Li167  1  0.40482000  0.59518000  0.73004700  1
  Li  Li168  1  0.25659300  0.08902800  0.58902800  1
  Li  Li169  1  0.91097200  0.25659300  0.41097200  1
  Li  Li170  1  0.41097200  0.41097200  0.75659300  1
  Li  Li171  1  0.58902800  0.41097200  0.24340700  1
  Li  Li172  1  0.58902800  0.24340700  0.41097200  1
  Li  Li173  1  0.24340700  0.41097200  0.58902800  1
  Li  Li174  1  0.74340700  0.08902800  0.41097200  1
  Li  Li175  1  0.08902800  0.08902800  0.75659300  1
  Li  Li176  1  0.91097200  0.08902800  0.24340700  1
  Li  Li177  1  0.41097200  0.24340700  0.58902800  1
  Li  Li178  1  0.08902800  0.25659300  0.58902800  1
  Li  Li179  1  0.75659300  0.41097200  0.41097200  1
  Li  Li180  1  0.76995300  0.09518000  0.59518000  1
  Li  Li181  1  0.40482000  0.26995300  0.40482000  1
  Li  Li182  1  0.40482000  0.40482000  0.26995300  1
  Li  Li183  1  0.59518000  0.40482000  0.73004700  1
  Li  Li184  1  0.09518000  0.23004700  0.40482000  1
  Li  Li185  1  0.73004700  0.40482000  0.59518000  1
  Li  Li186  1  0.23004700  0.09518000  0.40482000  1
  Li  Li187  1  0.09518000  0.09518000  0.26995300  1
  Li  Li188  1  0.55278000  0.44722000  0.94722000  1
  Li  Li189  1  0.55278000  0.05278000  0.55278000  1
  Li  Li190  1  0.94722000  0.44722000  0.55278000  1
  Li  Li191  1  0.94722000  0.05278000  0.94722000  1
  Li  Li192  1  0.66843300  0.33156700  0.83156700  1
  Li  Li193  1  0.66843300  0.16843300  0.66843300  1
  Li  Li194  1  0.83156700  0.33156700  0.66843300  1
  Li  Li195  1  0.83156700  0.16843300  0.83156700  1
  Li  Li196  1  0.80700000  0.19300000  0.69300000  1
  Li  Li197  1  0.80700000  0.30700000  0.80700000  1
  Li  Li198  1  0.69300000  0.19300000  0.80700000  1
  Li  Li199  1  0.69300000  0.30700000  0.69300000  1
  Li  Li200  1  0.93623900  0.06376100  0.56376100  1
  Li  Li201  1  0.43623900  0.43623900  0.43623900  1
  Li  Li202  1  0.06376100  0.06376100  0.43623900  1
  Li  Li203  1  0.56376100  0.43623900  0.56376100  1
  Li  Li204  1  0.58011100  0.41988900  0.41988900  1
  Li  Li205  1  0.08011100  0.08011100  0.58011100  1
  Li  Li206  1  0.41988900  0.41988900  0.58011100  1
  Li  Li207  1  0.91988900  0.08011100  0.41988900  1
  Li  Li208  1  0.80608400  0.19391600  0.19391600  1
  Li  Li209  1  0.80608400  0.30608400  0.30608400  1
  Li  Li210  1  0.69391600  0.19391600  0.30608400  1
  Li  Li211  1  0.69391600  0.30608400  0.19391600  1
  Li  Li212  1  0.00000000  0.32467500  0.50000000  1
  Li  Li213  1  0.67532500  0.00000000  0.50000000  1
  Li  Li214  1  0.32467500  0.00000000  0.50000000  1
  Li  Li215  1  0.50000000  0.17532500  0.50000000  1
  Li  Li216  1  0.00000000  0.00000000  0.82467500  1
  Li  Li217  1  0.00000000  0.00000000  0.17532500  1
  Li  Li218  1  0.75000000  0.42276000  0.25000000  1
  Li  Li219  1  0.57724000  0.25000000  0.25000000  1
  Li  Li220  1  0.92276000  0.25000000  0.25000000  1
  Li  Li221  1  0.75000000  0.07724000  0.25000000  1
  Li  Li222  1  0.75000000  0.25000000  0.42276000  1
  Li  Li223  1  0.75000000  0.25000000  0.07724000  1
  Li  Li224  1  0.51275100  0.15903800  0.65903800  1
  Li  Li225  1  0.84096200  0.01275100  0.84096200  1
  Li  Li226  1  0.65903800  0.48724900  0.84096200  1
  Li  Li227  1  0.65903800  0.34096200  0.98724900  1
  Li  Li228  1  0.84096200  0.34096200  0.51275100  1
  Li  Li229  1  0.98724900  0.34096200  0.65903800  1
  Li  Li230  1  0.98724900  0.15903800  0.84096200  1
  Li  Li231  1  0.84096200  0.48724900  0.65903800  1
  Li  Li232  1  0.84096200  0.15903800  0.98724900  1
  Li  Li233  1  0.65903800  0.15903800  0.51275100  1
  Li  Li234  1  0.65903800  0.01275100  0.65903800  1
  Li  Li235  1  0.51275100  0.34096200  0.84096200  1
  Li  Li236  1  0.51122400  0.34050450  0.34050450  1
  Li  Li237  1  0.15949550  0.01122400  0.65949550  1
  Li  Li238  1  0.34050450  0.48877600  0.65949550  1
  Li  Li239  1  0.84050450  0.15949550  0.48877600  1
  Li  Li240  1  0.15949550  0.15949550  0.51122400  1
  Li  Li241  1  0.98877600  0.15949550  0.34050450  1
  Li  Li242  1  0.48877600  0.34050450  0.65949550  1
  Li  Li243  1  0.65949550  0.48877600  0.34050450  1
  Li  Li244  1  0.65949550  0.34050450  0.48877600  1
  Li  Li245  1  0.34050450  0.34050450  0.51122400  1
  Li  Li246  1  0.84050450  0.01122400  0.34050450  1
  Li  Li247  1  0.01122400  0.15949550  0.65949550  1
  Li  Li248  1  0.26995300  0.40482000  0.40482000  1
  Li  Li249  1  0.59518000  0.26995300  0.59518000  1
  Li  Li250  1  0.90482000  0.23004700  0.59518000  1
  Li  Li251  1  0.90482000  0.09518000  0.73004700  1
  Li  Li252  1  0.25659300  0.58902800  0.08902800  1
  Li  Li253  1  0.91097200  0.75659300  0.91097200  1
  Li  Li254  1  0.41097200  0.91097200  0.25659300  1
  Li  Li255  1  0.58902800  0.91097200  0.74340700  1
  Li  Li256  1  0.58902800  0.74340700  0.91097200  1
  Li  Li257  1  0.24340700  0.91097200  0.08902800  1
  Li  Li258  1  0.74340700  0.58902800  0.91097200  1
  Li  Li259  1  0.08902800  0.58902800  0.25659300  1
  Li  Li260  1  0.91097200  0.58902800  0.74340700  1
  Li  Li261  1  0.41097200  0.74340700  0.08902800  1
  Li  Li262  1  0.08902800  0.75659300  0.08902800  1
  Li  Li263  1  0.75659300  0.91097200  0.91097200  1
  Li  Li264  1  0.76995300  0.59518000  0.09518000  1
  Li  Li265  1  0.40482000  0.76995300  0.90482000  1
  Li  Li266  1  0.40482000  0.90482000  0.76995300  1
  Li  Li267  1  0.59518000  0.90482000  0.23004700  1
  Li  Li268  1  0.09518000  0.73004700  0.90482000  1
  Li  Li269  1  0.73004700  0.90482000  0.09518000  1
  Li  Li270  1  0.23004700  0.59518000  0.90482000  1
  Li  Li271  1  0.09518000  0.59518000  0.76995300  1
  Li  Li272  1  0.55278000  0.94722000  0.44722000  1
  Li  Li273  1  0.55278000  0.55278000  0.05278000  1
  Li  Li274  1  0.94722000  0.94722000  0.05278000  1
  Li  Li275  1  0.94722000  0.55278000  0.44722000  1
  Li  Li276  1  0.66843300  0.83156700  0.33156700  1
  Li  Li277  1  0.66843300  0.66843300  0.16843300  1
  Li  Li278  1  0.83156700  0.83156700  0.16843300  1
  Li  Li279  1  0.83156700  0.66843300  0.33156700  1
  Li  Li280  1  0.80700000  0.69300000  0.19300000  1
  Li  Li281  1  0.80700000  0.80700000  0.30700000  1
  Li  Li282  1  0.69300000  0.69300000  0.30700000  1
  Li  Li283  1  0.69300000  0.80700000  0.19300000  1
  Li  Li284  1  0.93623900  0.56376100  0.06376100  1
  Li  Li285  1  0.43623900  0.93623900  0.93623900  1
  Li  Li286  1  0.06376100  0.56376100  0.93623900  1
  Li  Li287  1  0.56376100  0.93623900  0.06376100  1
  Li  Li288  1  0.58011100  0.91988900  0.91988900  1
  Li  Li289  1  0.08011100  0.58011100  0.08011100  1
  Li  Li290  1  0.41988900  0.91988900  0.08011100  1
  Li  Li291  1  0.91988900  0.58011100  0.91988900  1
  Li  Li292  1  0.80608400  0.69391600  0.69391600  1
  Li  Li293  1  0.80608400  0.80608400  0.80608400  1
  Li  Li294  1  0.69391600  0.69391600  0.80608400  1
  Li  Li295  1  0.69391600  0.80608400  0.69391600  1
  Li  Li296  1  0.00000000  0.82467500  0.00000000  1
  Li  Li297  1  0.67532500  0.50000000  0.00000000  1
  Li  Li298  1  0.32467500  0.50000000  0.00000000  1
  Li  Li299  1  0.50000000  0.67532500  0.00000000  1
  Li  Li300  1  0.00000000  0.50000000  0.32467500  1
  Li  Li301  1  0.00000000  0.50000000  0.67532500  1
  Li  Li302  1  0.75000000  0.92276000  0.75000000  1
  Li  Li303  1  0.57724000  0.75000000  0.75000000  1
  Li  Li304  1  0.92276000  0.75000000  0.75000000  1
  Li  Li305  1  0.75000000  0.57724000  0.75000000  1
  Li  Li306  1  0.75000000  0.75000000  0.92276000  1
  Li  Li307  1  0.75000000  0.75000000  0.57724000  1
  Li  Li308  1  0.51275100  0.65903800  0.15903800  1
  Li  Li309  1  0.84096200  0.51275100  0.34096200  1
  Li  Li310  1  0.65903800  0.98724900  0.34096200  1
  Li  Li311  1  0.65903800  0.84096200  0.48724900  1
  Li  Li312  1  0.84096200  0.84096200  0.01275100  1
  Li  Li313  1  0.98724900  0.84096200  0.15903800  1
  Li  Li314  1  0.98724900  0.65903800  0.34096200  1
  Li  Li315  1  0.84096200  0.98724900  0.15903800  1
  Li  Li316  1  0.84096200  0.65903800  0.48724900  1
  Li  Li317  1  0.65903800  0.65903800  0.01275100  1
  Li  Li318  1  0.65903800  0.51275100  0.15903800  1
  Li  Li319  1  0.51275100  0.84096200  0.34096200  1
  Li  Li320  1  0.51122400  0.84050450  0.84050450  1
  Li  Li321  1  0.15949550  0.51122400  0.15949550  1
  Li  Li322  1  0.34050450  0.98877600  0.15949550  1
  Li  Li323  1  0.84050450  0.65949550  0.98877600  1
  Li  Li324  1  0.15949550  0.65949550  0.01122400  1
  Li  Li325  1  0.98877600  0.65949550  0.84050450  1
  Li  Li326  1  0.48877600  0.84050450  0.15949550  1
  Li  Li327  1  0.65949550  0.98877600  0.84050450  1
  Li  Li328  1  0.65949550  0.84050450  0.98877600  1
  Li  Li329  1  0.34050450  0.84050450  0.01122400  1
  Li  Li330  1  0.84050450  0.51122400  0.84050450  1
  Li  Li331  1  0.01122400  0.65949550  0.15949550  1
  Li  Li332  1  0.26995300  0.90482000  0.90482000  1
  Li  Li333  1  0.59518000  0.76995300  0.09518000  1
  Li  Li334  1  0.90482000  0.73004700  0.09518000  1
  Li  Li335  1  0.90482000  0.59518000  0.23004700  1
  Si  Si336  1  0.25000000  0.25000000  0.07190800  1
  Si  Si337  1  0.25000000  0.25000000  0.42809200  1
  Si  Si338  1  0.25000000  0.07190800  0.25000000  1
  Si  Si339  1  0.42809200  0.25000000  0.25000000  1
  Si  Si340  1  0.07190800  0.25000000  0.25000000  1
  Si  Si341  1  0.25000000  0.42809200  0.25000000  1
  Si  Si342  1  0.50000000  0.00000000  0.82018500  1
  Si  Si343  1  0.50000000  0.00000000  0.17981500  1
  Si  Si344  1  0.00000000  0.32018500  0.00000000  1
  Si  Si345  1  0.67981500  0.00000000  0.00000000  1
  Si  Si346  1  0.32018500  0.00000000  0.00000000  1
  Si  Si347  1  0.50000000  0.17981500  0.00000000  1
  Si  Si348  1  0.33509600  0.16490400  0.83509600  1
  Si  Si349  1  0.83509600  0.33509600  0.16490400  1
  Si  Si350  1  0.66490400  0.16490400  0.16490400  1
  Si  Si351  1  0.16490400  0.33509600  0.83509600  1
  Si  Si352  1  0.08983400  0.41016600  0.58983400  1
  Si  Si353  1  0.08983400  0.08983400  0.91016600  1
  Si  Si354  1  0.41016600  0.41016600  0.91016600  1
  Si  Si355  1  0.41016600  0.08983400  0.58983400  1
  Si  Si356  1  0.25000000  0.75000000  0.57190800  1
  Si  Si357  1  0.25000000  0.75000000  0.92809200  1
  Si  Si358  1  0.25000000  0.57190800  0.75000000  1
  Si  Si359  1  0.42809200  0.75000000  0.75000000  1
  Si  Si360  1  0.07190800  0.75000000  0.75000000  1
  Si  Si361  1  0.25000000  0.92809200  0.75000000  1
  Si  Si362  1  0.50000000  0.50000000  0.32018500  1
  Si  Si363  1  0.50000000  0.50000000  0.67981500  1
  Si  Si364  1  0.00000000  0.82018500  0.50000000  1
  Si  Si365  1  0.67981500  0.50000000  0.50000000  1
  Si  Si366  1  0.32018500  0.50000000  0.50000000  1
  Si  Si367  1  0.50000000  0.67981500  0.50000000  1
  Si  Si368  1  0.33509600  0.66490400  0.33509600  1
  Si  Si369  1  0.83509600  0.83509600  0.66490400  1
  Si  Si370  1  0.66490400  0.66490400  0.66490400  1
  Si  Si371  1  0.16490400  0.83509600  0.33509600  1
  Si  Si372  1  0.08983400  0.91016600  0.08983400  1
  Si  Si373  1  0.08983400  0.58983400  0.41016600  1
  Si  Si374  1  0.41016600  0.91016600  0.41016600  1
  Si  Si375  1  0.41016600  0.58983400  0.08983400  1
  Si  Si376  1  0.75000000  0.25000000  0.57190800  1
  Si  Si377  1  0.75000000  0.25000000  0.92809200  1
  Si  Si378  1  0.75000000  0.07190800  0.75000000  1
  Si  Si379  1  0.92809200  0.25000000  0.75000000  1
  Si  Si380  1  0.57190800  0.25000000  0.75000000  1
  Si  Si381  1  0.75000000  0.42809200  0.75000000  1
  Si  Si382  1  0.00000000  0.00000000  0.32018500  1
  Si  Si383  1  0.00000000  0.00000000  0.67981500  1
  Si  Si384  1  0.50000000  0.32018500  0.50000000  1
  Si  Si385  1  0.17981500  0.00000000  0.50000000  1
  Si  Si386  1  0.82018500  0.00000000  0.50000000  1
  Si  Si387  1  0.00000000  0.17981500  0.50000000  1
  Si  Si388  1  0.83509600  0.16490400  0.33509600  1
  Si  Si389  1  0.33509600  0.33509600  0.66490400  1
  Si  Si390  1  0.16490400  0.16490400  0.66490400  1
  Si  Si391  1  0.66490400  0.33509600  0.33509600  1
  Si  Si392  1  0.58983400  0.41016600  0.08983400  1
  Si  Si393  1  0.58983400  0.08983400  0.41016600  1
  Si  Si394  1  0.91016600  0.41016600  0.41016600  1
  Si  Si395  1  0.91016600  0.08983400  0.08983400  1
  Si  Si396  1  0.75000000  0.75000000  0.07190800  1
  Si  Si397  1  0.75000000  0.75000000  0.42809200  1
  Si  Si398  1  0.75000000  0.57190800  0.25000000  1
  Si  Si399  1  0.92809200  0.75000000  0.25000000  1
  Si  Si400  1  0.57190800  0.75000000  0.25000000  1
  Si  Si401  1  0.75000000  0.92809200  0.25000000  1
  Si  Si402  1  0.00000000  0.50000000  0.82018500  1
  Si  Si403  1  0.00000000  0.50000000  0.17981500  1
  Si  Si404  1  0.50000000  0.82018500  0.00000000  1
  Si  Si405  1  0.17981500  0.50000000  0.00000000  1
  Si  Si406  1  0.82018500  0.50000000  0.00000000  1
  Si  Si407  1  0.00000000  0.67981500  0.00000000  1
  Si  Si408  1  0.83509600  0.66490400  0.83509600  1
  Si  Si409  1  0.33509600  0.83509600  0.16490400  1
  Si  Si410  1  0.16490400  0.66490400  0.16490400  1
  Si  Si411  1  0.66490400  0.83509600  0.83509600  1
  Si  Si412  1  0.58983400  0.91016600  0.58983400  1
  Si  Si413  1  0.58983400  0.58983400  0.91016600  1
  Si  Si414  1  0.91016600  0.91016600  0.91016600  1
  Si  Si415  1  0.91016600  0.58983400  0.58983400  1
