# generated using pymatgen
data_VIn2O5
_symmetry_space_group_name_H-M   'P 1'
_cell_length_a   3.56929039
_cell_length_b   7.32687262
_cell_length_c   14.98459887
_cell_angle_alpha   90.00000000
_cell_angle_beta   90.00000000
_cell_angle_gamma   90.00000000
_symmetry_Int_Tables_number   1
_chemical_formula_structural   VIn2O5
_chemical_formula_sum   'V4 In8 O20'
_cell_volume   391.87327418
_cell_formula_units_Z   4
loop_
 _symmetry_equiv_pos_site_id
 _symmetry_equiv_pos_as_xyz
  1  'x, y, z'
loop_
 _atom_site_type_symbol
 _atom_site_label
 _atom_site_symmetry_multiplicity
 _atom_site_fract_x
 _atom_site_fract_y
 _atom_site_fract_z
 _atom_site_occupancy
  V  V0  1  0.25000000  0.10447309  0.57482951  1
  V  V1  1  0.75000000  0.89552691  0.42517049  1
  V  V2  1  0.25000000  0.60447309  0.92517049  1
  V  V3  1  0.75000000  0.39552691  0.07482951  1
  In  In4  1  0.25000000  0.10355844  0.91819589  1
  In  In5  1  0.75000000  0.39644156  0.41819589  1
  In  In6  1  0.25000000  0.60355844  0.58180411  1
  In  In7  1  0.75000000  0.89644156  0.08180411  1
  In  In8  1  0.25000000  0.17420448  0.26064645  1
  In  In9  1  0.75000000  0.82579552  0.73935355  1
  In  In10  1  0.25000000  0.67420448  0.23935355  1
  In  In11  1  0.75000000  0.32579552  0.76064645  1
  O  O12  1  0.25000000  0.93526182  0.45865208  1
  O  O13  1  0.75000000  0.06473818  0.54134792  1
  O  O14  1  0.25000000  0.43526182  0.04134792  1
  O  O15  1  0.75000000  0.56473818  0.95865208  1
  O  O16  1  0.25000000  0.23257644  0.67628176  1
  O  O17  1  0.75000000  0.76742356  0.32371824  1
  O  O18  1  0.25000000  0.73257644  0.82371824  1
  O  O19  1  0.75000000  0.26742356  0.17628176  1
  O  O20  1  0.25000000  0.86952586  0.65148680  1
  O  O21  1  0.75000000  0.13047414  0.34851320  1
  O  O22  1  0.25000000  0.36952586  0.84851320  1
  O  O23  1  0.75000000  0.63047414  0.15148680  1
  O  O24  1  0.75000000  0.55847127  0.67574369  1
  O  O25  1  0.25000000  0.44152873  0.32425631  1
  O  O26  1  0.75000000  0.05847127  0.82425631  1
  O  O27  1  0.25000000  0.94152873  0.17574369  1
  O  O28  1  0.25000000  0.34529933  0.50453658  1
  O  O29  1  0.25000000  0.84529933  0.99546342  1
  O  O30  1  0.75000000  0.65470067  0.49546342  1
  O  O31  1  0.75000000  0.15470067  0.00453658  1
