# generated using pymatgen
data_MnH4(CO3)2
_symmetry_space_group_name_H-M   'P 1'
_cell_length_a   12.49158861
_cell_length_b   5.75585112
_cell_length_c   9.83032329
_cell_angle_alpha   90.00000000
_cell_angle_beta   128.10148244
_cell_angle_gamma   90.00000000
_symmetry_Int_Tables_number   1
_chemical_formula_structural   MnH4(CO3)2
_chemical_formula_sum   'Mn4 H16 C8 O24'
_cell_volume   556.19244868
_cell_formula_units_Z   4
loop_
 _symmetry_equiv_pos_site_id
 _symmetry_equiv_pos_as_xyz
  1  'x, y, z'
loop_
 _atom_site_type_symbol
 _atom_site_label
 _atom_site_symmetry_multiplicity
 _atom_site_fract_x
 _atom_site_fract_y
 _atom_site_fract_z
 _atom_site_occupancy
  Mn  Mn0  1  0.00000000  0.07405300  0.25000000  1
  Mn  Mn1  1  0.50000000  0.42594700  0.75000000  1
  Mn  Mn2  1  0.50000000  0.57405300  0.25000000  1
  Mn  Mn3  1  0.00000000  0.92594700  0.75000000  1
  H  H4  1  0.23620700  0.60863700  0.14788800  1
  H  H5  1  0.26379300  0.10863700  0.35211200  1
  H  H6  1  0.26379300  0.89136300  0.85211200  1
  H  H7  1  0.23620700  0.39136300  0.64788800  1
  H  H8  1  0.33795950  0.65866550  0.35292300  1
  H  H9  1  0.16204050  0.15866550  0.14707700  1
  H  H10  1  0.16204050  0.84133450  0.64707700  1
  H  H11  1  0.33795950  0.34133450  0.85292300  1
  H  H12  1  0.73620700  0.10863700  0.14788800  1
  H  H13  1  0.76379300  0.60863700  0.35211200  1
  H  H14  1  0.76379300  0.39136300  0.85211200  1
  H  H15  1  0.73620700  0.89136300  0.64788800  1
  H  H16  1  0.83795950  0.15866550  0.35292300  1
  H  H17  1  0.66204050  0.65866550  0.14707700  1
  H  H18  1  0.66204050  0.34133450  0.64707700  1
  H  H19  1  0.83795950  0.84133450  0.85292300  1
  C  C20  1  0.94859150  0.57547350  0.14901100  1
  C  C21  1  0.05140850  0.57547350  0.35098900  1
  C  C22  1  0.55140850  0.92452650  0.85098900  1
  C  C23  1  0.44859150  0.92452650  0.64901100  1
  C  C24  1  0.44859150  0.07547350  0.14901100  1
  C  C25  1  0.55140850  0.07547350  0.35098900  1
  C  C26  1  0.05140850  0.42452650  0.85098900  1
  C  C27  1  0.94859150  0.42452650  0.64901100  1
  O  O28  1  0.91097350  0.77141650  0.07453900  1
  O  O29  1  0.08902650  0.77141650  0.42546100  1
  O  O30  1  0.58902650  0.72858350  0.92546100  1
  O  O31  1  0.41097350  0.72858350  0.57453900  1
  O  O32  1  0.91024750  0.37927050  0.07397700  1
  O  O33  1  0.08975250  0.37927050  0.42602300  1
  O  O34  1  0.58975250  0.12072950  0.92602300  1
  O  O35  1  0.41024750  0.12072950  0.57397700  1
  O  O36  1  0.17303950  0.07176650  0.24200700  1
  O  O37  1  0.32696050  0.57176650  0.25799300  1
  O  O38  1  0.32696050  0.42823350  0.75799300  1
  O  O39  1  0.17303950  0.92823350  0.74200700  1
  O  O40  1  0.41097350  0.27141650  0.07453900  1
  O  O41  1  0.58902650  0.27141650  0.42546100  1
  O  O42  1  0.08902650  0.22858350  0.92546100  1
  O  O43  1  0.91097350  0.22858350  0.57453900  1
  O  O44  1  0.41024750  0.87927050  0.07397700  1
  O  O45  1  0.58975250  0.87927050  0.42602300  1
  O  O46  1  0.08975250  0.62072950  0.92602300  1
  O  O47  1  0.91024750  0.62072950  0.57397700  1
  O  O48  1  0.67303950  0.57176650  0.24200700  1
  O  O49  1  0.82696050  0.07176650  0.25799300  1
  O  O50  1  0.82696050  0.92823350  0.75799300  1
  O  O51  1  0.67303950  0.42823350  0.74200700  1
