# generated using pymatgen
data_LuHCl
_symmetry_space_group_name_H-M   'P 1'
_cell_length_a   3.65420030
_cell_length_b   3.65420030
_cell_length_c   27.70347254
_cell_angle_alpha   90.00000000
_cell_angle_beta   90.00000000
_cell_angle_gamma   120.00000000
_symmetry_Int_Tables_number   1
_chemical_formula_structural   LuHCl
_chemical_formula_sum   'Lu6 H6 Cl6'
_cell_volume   320.36830264
_cell_formula_units_Z   6
loop_
 _symmetry_equiv_pos_site_id
 _symmetry_equiv_pos_as_xyz
  1  'x, y, z'
loop_
 _atom_site_type_symbol
 _atom_site_label
 _atom_site_symmetry_multiplicity
 _atom_site_fract_x
 _atom_site_fract_y
 _atom_site_fract_z
 _atom_site_occupancy
  Lu  Lu0  1  0.00000000  0.00000000  0.11950700  1
  Lu  Lu1  1  0.66666667  0.33333333  0.21382633  1
  Lu  Lu2  1  0.66666667  0.33333333  0.45284033  1
  Lu  Lu3  1  0.33333333  0.66666667  0.54715967  1
  Lu  Lu4  1  0.33333333  0.66666667  0.78617367  1
  Lu  Lu5  1  0.00000000  0.00000000  0.88049300  1
  H  H6  1  0.00000000  0.00000000  0.19634600  1
  H  H7  1  0.66666667  0.33333333  0.13698733  1
  H  H8  1  0.66666667  0.33333333  0.52967933  1
  H  H9  1  0.33333333  0.66666667  0.47032067  1
  H  H10  1  0.33333333  0.66666667  0.86301267  1
  H  H11  1  0.00000000  0.00000000  0.80365400  1
  Cl  Cl12  1  0.33333333  0.66666667  0.27434967  1
  Cl  Cl13  1  0.33333333  0.66666667  0.05898367  1
  Cl  Cl14  1  0.00000000  0.00000000  0.60768300  1
  Cl  Cl15  1  0.00000000  0.00000000  0.39231700  1
  Cl  Cl16  1  0.66666667  0.33333333  0.94101633  1
  Cl  Cl17  1  0.66666667  0.33333333  0.72565033  1
