# generated using pymatgen
data_Yb2Ru2O7
_symmetry_space_group_name_H-M   'P 1'
_cell_length_a   10.20144000
_cell_length_b   10.20144000
_cell_length_c   10.20144000
_cell_angle_alpha   90.00000000
_cell_angle_beta   90.00000000
_cell_angle_gamma   90.00000000
_symmetry_Int_Tables_number   1
_chemical_formula_structural   Yb2Ru2O7
_chemical_formula_sum   'Yb16 Ru16 O56'
_cell_volume   1061.65751626
_cell_formula_units_Z   8
loop_
 _symmetry_equiv_pos_site_id
 _symmetry_equiv_pos_as_xyz
  1  'x, y, z'
loop_
 _atom_site_type_symbol
 _atom_site_label
 _atom_site_symmetry_multiplicity
 _atom_site_fract_x
 _atom_site_fract_y
 _atom_site_fract_z
 _atom_site_occupancy
  Yb  Yb0  1  0.12500000  0.62500000  0.12500000  1
  Yb  Yb1  1  0.12500000  0.87500000  0.37500000  1
  Yb  Yb2  1  0.37500000  0.87500000  0.12500000  1
  Yb  Yb3  1  0.37500000  0.62500000  0.37500000  1
  Yb  Yb4  1  0.12500000  0.12500000  0.62500000  1
  Yb  Yb5  1  0.12500000  0.37500000  0.87500000  1
  Yb  Yb6  1  0.37500000  0.37500000  0.62500000  1
  Yb  Yb7  1  0.37500000  0.12500000  0.87500000  1
  Yb  Yb8  1  0.62500000  0.62500000  0.62500000  1
  Yb  Yb9  1  0.62500000  0.87500000  0.87500000  1
  Yb  Yb10  1  0.87500000  0.87500000  0.62500000  1
  Yb  Yb11  1  0.87500000  0.62500000  0.87500000  1
  Yb  Yb12  1  0.62500000  0.12500000  0.12500000  1
  Yb  Yb13  1  0.62500000  0.37500000  0.37500000  1
  Yb  Yb14  1  0.87500000  0.37500000  0.12500000  1
  Yb  Yb15  1  0.87500000  0.12500000  0.37500000  1
  Ru  Ru16  1  0.12500000  0.12500000  0.12500000  1
  Ru  Ru17  1  0.62500000  0.87500000  0.37500000  1
  Ru  Ru18  1  0.87500000  0.87500000  0.12500000  1
  Ru  Ru19  1  0.37500000  0.12500000  0.37500000  1
  Ru  Ru20  1  0.12500000  0.62500000  0.62500000  1
  Ru  Ru21  1  0.62500000  0.37500000  0.87500000  1
  Ru  Ru22  1  0.87500000  0.37500000  0.62500000  1
  Ru  Ru23  1  0.37500000  0.62500000  0.87500000  1
  Ru  Ru24  1  0.62500000  0.12500000  0.62500000  1
  Ru  Ru25  1  0.12500000  0.87500000  0.87500000  1
  Ru  Ru26  1  0.37500000  0.87500000  0.62500000  1
  Ru  Ru27  1  0.87500000  0.12500000  0.87500000  1
  Ru  Ru28  1  0.62500000  0.62500000  0.12500000  1
  Ru  Ru29  1  0.12500000  0.37500000  0.37500000  1
  Ru  Ru30  1  0.37500000  0.37500000  0.12500000  1
  Ru  Ru31  1  0.87500000  0.62500000  0.37500000  1
  O  O32  1  0.00000000  0.00000000  0.50000000  1
  O  O33  1  0.25000000  0.75000000  0.25000000  1
  O  O34  1  0.50000000  0.00000000  0.30346700  1
  O  O35  1  0.25000000  0.25000000  0.05346700  1
  O  O36  1  0.50000000  0.19653300  0.50000000  1
  O  O37  1  0.30346700  0.00000000  0.50000000  1
  O  O38  1  0.69653300  0.00000000  0.50000000  1
  O  O39  1  0.50000000  0.80346700  0.50000000  1
  O  O40  1  0.00000000  0.00000000  0.19653300  1
  O  O41  1  0.05346700  0.25000000  0.25000000  1
  O  O42  1  0.44653300  0.25000000  0.25000000  1
  O  O43  1  0.25000000  0.25000000  0.44653300  1
  O  O44  1  0.25000000  0.44653300  0.25000000  1
  O  O45  1  0.25000000  0.05346700  0.25000000  1
  O  O46  1  0.00000000  0.50000000  0.00000000  1
  O  O47  1  0.25000000  0.25000000  0.75000000  1
  O  O48  1  0.50000000  0.50000000  0.80346700  1
  O  O49  1  0.25000000  0.75000000  0.55346700  1
  O  O50  1  0.50000000  0.69653300  0.00000000  1
  O  O51  1  0.30346700  0.50000000  0.00000000  1
  O  O52  1  0.69653300  0.50000000  0.00000000  1
  O  O53  1  0.50000000  0.30346700  0.00000000  1
  O  O54  1  0.00000000  0.50000000  0.69653300  1
  O  O55  1  0.05346700  0.75000000  0.75000000  1
  O  O56  1  0.44653300  0.75000000  0.75000000  1
  O  O57  1  0.25000000  0.75000000  0.94653300  1
  O  O58  1  0.25000000  0.94653300  0.75000000  1
  O  O59  1  0.25000000  0.55346700  0.75000000  1
  O  O60  1  0.50000000  0.00000000  0.00000000  1
  O  O61  1  0.75000000  0.75000000  0.75000000  1
  O  O62  1  0.00000000  0.00000000  0.80346700  1
  O  O63  1  0.75000000  0.25000000  0.55346700  1
  O  O64  1  0.00000000  0.19653300  0.00000000  1
  O  O65  1  0.80346700  0.00000000  0.00000000  1
  O  O66  1  0.19653300  0.00000000  0.00000000  1
  O  O67  1  0.00000000  0.80346700  0.00000000  1
  O  O68  1  0.50000000  0.00000000  0.69653300  1
  O  O69  1  0.55346700  0.25000000  0.75000000  1
  O  O70  1  0.94653300  0.25000000  0.75000000  1
  O  O71  1  0.75000000  0.25000000  0.94653300  1
  O  O72  1  0.75000000  0.44653300  0.75000000  1
  O  O73  1  0.75000000  0.05346700  0.75000000  1
  O  O74  1  0.50000000  0.50000000  0.50000000  1
  O  O75  1  0.75000000  0.25000000  0.25000000  1
  O  O76  1  0.00000000  0.50000000  0.30346700  1
  O  O77  1  0.75000000  0.75000000  0.05346700  1
  O  O78  1  0.00000000  0.69653300  0.50000000  1
  O  O79  1  0.80346700  0.50000000  0.50000000  1
  O  O80  1  0.19653300  0.50000000  0.50000000  1
  O  O81  1  0.00000000  0.30346700  0.50000000  1
  O  O82  1  0.50000000  0.50000000  0.19653300  1
  O  O83  1  0.55346700  0.75000000  0.25000000  1
  O  O84  1  0.94653300  0.75000000  0.25000000  1
  O  O85  1  0.75000000  0.75000000  0.44653300  1
  O  O86  1  0.75000000  0.94653300  0.25000000  1
  O  O87  1  0.75000000  0.55346700  0.25000000  1
