# generated using pymatgen
data_MoCl3O
_symmetry_space_group_name_H-M   'P 1'
_cell_length_a   6.22247800
_cell_length_b   14.27481600
_cell_length_c   6.25415929
_cell_angle_alpha   90.00000000
_cell_angle_beta   92.30271737
_cell_angle_gamma   90.00000000
_symmetry_Int_Tables_number   1
_chemical_formula_structural   MoCl3O
_chemical_formula_sum   'Mo4 Cl12 O4'
_cell_volume   555.07541038
_cell_formula_units_Z   4
loop_
 _symmetry_equiv_pos_site_id
 _symmetry_equiv_pos_as_xyz
  1  'x, y, z'
loop_
 _atom_site_type_symbol
 _atom_site_label
 _atom_site_symmetry_multiplicity
 _atom_site_fract_x
 _atom_site_fract_y
 _atom_site_fract_z
 _atom_site_occupancy
  Mo  Mo0  1  0.69659500  0.66470700  0.96883300  1
  Mo  Mo1  1  0.80340500  0.16470700  0.03116700  1
  Mo  Mo2  1  0.30340500  0.33529300  0.03116700  1
  Mo  Mo3  1  0.19659500  0.83529300  0.96883300  1
  Cl  Cl4  1  0.35280200  0.92844900  0.71596900  1
  Cl  Cl5  1  0.14719800  0.42844900  0.28403100  1
  Cl  Cl6  1  0.64719800  0.07155100  0.28403100  1
  Cl  Cl7  1  0.85280200  0.57155100  0.71596900  1
  Cl  Cl8  1  0.38866000  0.68750800  0.73584800  1
  Cl  Cl9  1  0.11134000  0.18750800  0.26415200  1
  Cl  Cl10  1  0.61134000  0.31249200  0.26415200  1
  Cl  Cl11  1  0.88866000  0.81249200  0.73584800  1
  Cl  Cl12  1  0.55369400  0.80611300  0.15883400  1
  Cl  Cl13  1  0.94630600  0.30611300  0.84116600  1
  Cl  Cl14  1  0.44630600  0.19388700  0.84116600  1
  Cl  Cl15  1  0.05369400  0.69388700  0.15883400  1
  O  O16  1  0.61589000  0.58596300  0.15043300  1
  O  O17  1  0.88411000  0.08596300  0.84956700  1
  O  O18  1  0.38411000  0.41403700  0.84956700  1
  O  O19  1  0.11589000  0.91403700  0.15043300  1
