# generated using pymatgen
data_Pr3(BN2)2
_symmetry_space_group_name_H-M   'P 1'
_cell_length_a   3.59627000
_cell_length_b   6.35552400
_cell_length_c   10.92890800
_cell_angle_alpha   90.00000000
_cell_angle_beta   90.00000000
_cell_angle_gamma   90.00000000
_symmetry_Int_Tables_number   1
_chemical_formula_structural   Pr3(BN2)2
_chemical_formula_sum   'Pr6 B4 N8'
_cell_volume   249.79309168
_cell_formula_units_Z   2
loop_
 _symmetry_equiv_pos_site_id
 _symmetry_equiv_pos_as_xyz
  1  'x, y, z'
loop_
 _atom_site_type_symbol
 _atom_site_label
 _atom_site_symmetry_multiplicity
 _atom_site_fract_x
 _atom_site_fract_y
 _atom_site_fract_z
 _atom_site_occupancy
  Pr  Pr0  1  0.50000000  0.00000000  0.70187100  1
  Pr  Pr1  1  0.00000000  0.50000000  0.79812900  1
  Pr  Pr2  1  0.00000000  0.00000000  0.00000000  1
  Pr  Pr3  1  0.00000000  0.50000000  0.20187100  1
  Pr  Pr4  1  0.50000000  0.00000000  0.29812900  1
  Pr  Pr5  1  0.50000000  0.50000000  0.50000000  1
  B  B6  1  0.50000000  0.35710400  0.00000000  1
  B  B7  1  0.50000000  0.64289600  0.00000000  1
  B  B8  1  0.00000000  0.85710400  0.50000000  1
  B  B9  1  0.00000000  0.14289600  0.50000000  1
  N  N10  1  0.00000000  0.74472200  0.61820900  1
  N  N11  1  0.00000000  0.25527800  0.61820900  1
  N  N12  1  0.50000000  0.24472200  0.88179100  1
  N  N13  1  0.50000000  0.75527800  0.88179100  1
  N  N14  1  0.50000000  0.24472200  0.11820900  1
  N  N15  1  0.50000000  0.75527800  0.11820900  1
  N  N16  1  0.00000000  0.74472200  0.38179100  1
  N  N17  1  0.00000000  0.25527800  0.38179100  1
