# generated using pymatgen
data_Zr2Be17
_symmetry_space_group_name_H-M   'P 1'
_cell_length_a   7.51567406
_cell_length_b   7.51567406
_cell_length_c   10.97050804
_cell_angle_alpha   90.00000000
_cell_angle_beta   90.00000000
_cell_angle_gamma   120.00000000
_symmetry_Int_Tables_number   1
_chemical_formula_structural   Zr2Be17
_chemical_formula_sum   'Zr6 Be51'
_cell_volume   536.65261099
_cell_formula_units_Z   3
loop_
 _symmetry_equiv_pos_site_id
 _symmetry_equiv_pos_as_xyz
  1  'x, y, z'
loop_
 _atom_site_type_symbol
 _atom_site_label
 _atom_site_symmetry_multiplicity
 _atom_site_fract_x
 _atom_site_fract_y
 _atom_site_fract_z
 _atom_site_occupancy
  Zr  Zr0  1  0.33333333  0.66666667  0.82929567  1
  Zr  Zr1  1  0.33333333  0.66666667  0.50403767  1
  Zr  Zr2  1  0.00000000  0.00000000  0.16262900  1
  Zr  Zr3  1  0.00000000  0.00000000  0.83737100  1
  Zr  Zr4  1  0.66666667  0.33333333  0.49596233  1
  Zr  Zr5  1  0.66666667  0.33333333  0.17070433  1
  Be  Be6  1  0.33333333  0.66666667  0.07012967  1
  Be  Be7  1  0.33333333  0.66666667  0.26320367  1
  Be  Be8  1  0.16666667  0.83333333  0.33333333  1
  Be  Be9  1  0.00000000  0.50000000  0.00000000  1
  Be  Be10  1  0.50000000  0.00000000  0.00000000  1
  Be  Be11  1  0.62002533  0.95335867  0.16666667  1
  Be  Be12  1  0.33333333  0.37997467  0.16666667  1
  Be  Be13  1  0.04664133  0.66666667  0.16666667  1
  Be  Be14  1  0.04664133  0.37997467  0.16666667  1
  Be  Be15  1  0.33333333  0.95335867  0.16666667  1
  Be  Be16  1  0.62002533  0.66666667  0.16666667  1
  Be  Be17  1  0.16588600  0.33177200  0.99121100  1
  Be  Be18  1  0.16588600  0.83411400  0.99121100  1
  Be  Be19  1  0.66822800  0.83411400  0.99121100  1
  Be  Be20  1  0.99843867  0.49921933  0.34212233  1
  Be  Be21  1  0.50078067  0.00156133  0.34212233  1
  Be  Be22  1  0.50078067  0.49921933  0.34212233  1
  Be  Be23  1  0.00000000  0.00000000  0.40346300  1
  Be  Be24  1  0.00000000  0.00000000  0.59653700  1
  Be  Be25  1  0.83333333  0.16666667  0.66666667  1
  Be  Be26  1  0.66666667  0.83333333  0.33333333  1
  Be  Be27  1  0.16666667  0.33333333  0.33333333  1
  Be  Be28  1  0.28669200  0.28669200  0.50000000  1
  Be  Be29  1  0.00000000  0.71330800  0.50000000  1
  Be  Be30  1  0.71330800  0.00000000  0.50000000  1
  Be  Be31  1  0.71330800  0.71330800  0.50000000  1
  Be  Be32  1  0.00000000  0.28669200  0.50000000  1
  Be  Be33  1  0.28669200  0.00000000  0.50000000  1
  Be  Be34  1  0.83255267  0.66510533  0.32454433  1
  Be  Be35  1  0.83255267  0.16744733  0.32454433  1
  Be  Be36  1  0.33489467  0.16744733  0.32454433  1
  Be  Be37  1  0.66510533  0.83255267  0.67545567  1
  Be  Be38  1  0.16744733  0.33489467  0.67545567  1
  Be  Be39  1  0.16744733  0.83255267  0.67545567  1
  Be  Be40  1  0.66666667  0.33333333  0.73679633  1
  Be  Be41  1  0.66666667  0.33333333  0.92987033  1
  Be  Be42  1  0.50000000  0.50000000  0.00000000  1
  Be  Be43  1  0.33333333  0.16666667  0.66666667  1
  Be  Be44  1  0.83333333  0.66666667  0.66666667  1
  Be  Be45  1  0.95335867  0.62002533  0.83333333  1
  Be  Be46  1  0.66666667  0.04664133  0.83333333  1
  Be  Be47  1  0.37997467  0.33333333  0.83333333  1
  Be  Be48  1  0.37997467  0.04664133  0.83333333  1
  Be  Be49  1  0.66666667  0.62002533  0.83333333  1
  Be  Be50  1  0.95335867  0.33333333  0.83333333  1
  Be  Be51  1  0.49921933  0.99843867  0.65787767  1
  Be  Be52  1  0.49921933  0.50078067  0.65787767  1
  Be  Be53  1  0.00156133  0.50078067  0.65787767  1
  Be  Be54  1  0.33177200  0.16588600  0.00878900  1
  Be  Be55  1  0.83411400  0.66822800  0.00878900  1
  Be  Be56  1  0.83411400  0.16588600  0.00878900  1
