# generated using pymatgen
data_Tl(ZnSb)2
_symmetry_space_group_name_H-M   'P 1'
_cell_length_a   8.52431800
_cell_length_b   8.52431800
_cell_length_c   7.48914200
_cell_angle_alpha   90.00000000
_cell_angle_beta   90.00000000
_cell_angle_gamma   90.00000000
_symmetry_Int_Tables_number   1
_chemical_formula_structural   Tl(ZnSb)2
_chemical_formula_sum   'Tl4 Zn8 Sb8'
_cell_volume   544.19099456
_cell_formula_units_Z   4
loop_
 _symmetry_equiv_pos_site_id
 _symmetry_equiv_pos_as_xyz
  1  'x, y, z'
loop_
 _atom_site_type_symbol
 _atom_site_label
 _atom_site_symmetry_multiplicity
 _atom_site_fract_x
 _atom_site_fract_y
 _atom_site_fract_z
 _atom_site_occupancy
  Tl  Tl0  1  0.00000000  0.00000000  0.24748500  1
  Tl  Tl1  1  0.00000000  0.00000000  0.74748500  1
  Tl  Tl2  1  0.50000000  0.50000000  0.74748500  1
  Tl  Tl3  1  0.50000000  0.50000000  0.24748500  1
  Zn  Zn4  1  0.14143600  0.35856400  0.36531300  1
  Zn  Zn5  1  0.35856400  0.85856400  0.36531300  1
  Zn  Zn6  1  0.35856400  0.14143600  0.86531300  1
  Zn  Zn7  1  0.14143600  0.64143600  0.86531300  1
  Zn  Zn8  1  0.64143600  0.85856400  0.86531300  1
  Zn  Zn9  1  0.85856400  0.35856400  0.86531300  1
  Zn  Zn10  1  0.85856400  0.64143600  0.36531300  1
  Zn  Zn11  1  0.64143600  0.14143600  0.36531300  1
  Sb  Sb12  1  0.34647400  0.15352600  0.50952300  1
  Sb  Sb13  1  0.84647400  0.34647400  0.50952300  1
  Sb  Sb14  1  0.65352600  0.15352600  0.00952300  1
  Sb  Sb15  1  0.15352600  0.34647400  0.00952300  1
  Sb  Sb16  1  0.84647400  0.65352600  0.00952300  1
  Sb  Sb17  1  0.34647400  0.84647400  0.00952300  1
  Sb  Sb18  1  0.15352600  0.65352600  0.50952300  1
  Sb  Sb19  1  0.65352600  0.84647400  0.50952300  1
