# generated using pymatgen
data_RbMnP3HO10
_symmetry_space_group_name_H-M   'P 1'
_cell_length_a   12.40915600
_cell_length_b   8.48190600
_cell_length_c   9.26692556
_cell_angle_alpha   90.00000000
_cell_angle_beta   109.48451933
_cell_angle_gamma   90.00000000
_symmetry_Int_Tables_number   1
_chemical_formula_structural   RbMnP3HO10
_chemical_formula_sum   'Rb4 Mn4 P12 H4 O40'
_cell_volume   919.51635951
_cell_formula_units_Z   4
loop_
 _symmetry_equiv_pos_site_id
 _symmetry_equiv_pos_as_xyz
  1  'x, y, z'
loop_
 _atom_site_type_symbol
 _atom_site_label
 _atom_site_symmetry_multiplicity
 _atom_site_fract_x
 _atom_site_fract_y
 _atom_site_fract_z
 _atom_site_occupancy
  Rb  Rb0  1  0.50000000  0.06151800  0.75000000  1
  Rb  Rb1  1  0.50000000  0.93848200  0.25000000  1
  Rb  Rb2  1  0.00000000  0.56151800  0.75000000  1
  Rb  Rb3  1  0.00000000  0.43848200  0.25000000  1
  Mn  Mn4  1  0.75000000  0.25000000  0.50000000  1
  Mn  Mn5  1  0.75000000  0.75000000  0.00000000  1
  Mn  Mn6  1  0.25000000  0.75000000  0.50000000  1
  Mn  Mn7  1  0.25000000  0.25000000  0.00000000  1
  P  P8  1  0.50000000  0.62996300  0.75000000  1
  P  P9  1  0.50000000  0.37003700  0.25000000  1
  P  P10  1  0.79369800  0.93806400  0.70605100  1
  P  P11  1  0.20630200  0.93806400  0.79394900  1
  P  P12  1  0.20630200  0.06193600  0.29394900  1
  P  P13  1  0.79369800  0.06193600  0.20605100  1
  P  P14  1  0.00000000  0.12996300  0.75000000  1
  P  P15  1  0.00000000  0.87003700  0.25000000  1
  P  P16  1  0.29369800  0.43806400  0.70605100  1
  P  P17  1  0.70630200  0.43806400  0.79394900  1
  P  P18  1  0.70630200  0.56193600  0.29394900  1
  P  P19  1  0.29369800  0.56193600  0.20605100  1
  H  H20  1  0.75000000  0.25000000  0.00000000  1
  H  H21  1  0.75000000  0.75000000  0.50000000  1
  H  H22  1  0.25000000  0.75000000  0.00000000  1
  H  H23  1  0.25000000  0.25000000  0.50000000  1
  O  O24  1  0.43332000  0.72080500  0.60913900  1
  O  O25  1  0.56668000  0.72080500  0.89086100  1
  O  O26  1  0.56668000  0.27919500  0.39086100  1
  O  O27  1  0.43332000  0.27919500  0.10913900  1
  O  O28  1  0.74022650  0.89061450  0.82526600  1
  O  O29  1  0.25977350  0.89061450  0.67473400  1
  O  O30  1  0.25977350  0.10938550  0.17473400  1
  O  O31  1  0.74022650  0.10938550  0.32526600  1
  O  O32  1  0.91698950  0.98736150  0.30119700  1
  O  O33  1  0.08301050  0.98736150  0.19880300  1
  O  O34  1  0.08301050  0.01263850  0.69880300  1
  O  O35  1  0.91698950  0.01263850  0.80119700  1
  O  O36  1  0.71683600  0.93288100  0.10588400  1
  O  O37  1  0.28316400  0.93288100  0.39411600  1
  O  O38  1  0.28316400  0.06711900  0.89411600  1
  O  O39  1  0.71683600  0.06711900  0.60588400  1
  O  O40  1  0.31986150  0.69835150  0.11444500  1
  O  O41  1  0.68013850  0.69835150  0.38555500  1
  O  O42  1  0.68013850  0.30164850  0.88555500  1
  O  O43  1  0.31986150  0.30164850  0.61444500  1
  O  O44  1  0.93332000  0.22080500  0.60913900  1
  O  O45  1  0.06668000  0.22080500  0.89086100  1
  O  O46  1  0.06668000  0.77919500  0.39086100  1
  O  O47  1  0.93332000  0.77919500  0.10913900  1
  O  O48  1  0.24022650  0.39061450  0.82526600  1
  O  O49  1  0.75977350  0.39061450  0.67473400  1
  O  O50  1  0.75977350  0.60938550  0.17473400  1
  O  O51  1  0.24022650  0.60938550  0.32526600  1
  O  O52  1  0.41698950  0.48736150  0.30119700  1
  O  O53  1  0.58301050  0.48736150  0.19880300  1
  O  O54  1  0.58301050  0.51263850  0.69880300  1
  O  O55  1  0.41698950  0.51263850  0.80119700  1
  O  O56  1  0.21683600  0.43288100  0.10588400  1
  O  O57  1  0.78316400  0.43288100  0.39411600  1
  O  O58  1  0.78316400  0.56711900  0.89411600  1
  O  O59  1  0.21683600  0.56711900  0.60588400  1
  O  O60  1  0.81986150  0.19835150  0.11444500  1
  O  O61  1  0.18013850  0.19835150  0.38555500  1
  O  O62  1  0.18013850  0.80164850  0.88555500  1
  O  O63  1  0.81986150  0.80164850  0.61444500  1
