# generated using pymatgen
data_CsTbF5
_symmetry_space_group_name_H-M   'P 1'
_cell_length_a   8.51451000
_cell_length_b   14.69118600
_cell_length_c   8.51891400
_cell_angle_alpha   90.00000000
_cell_angle_beta   90.00000000
_cell_angle_gamma   90.00000000
_symmetry_Int_Tables_number   1
_chemical_formula_structural   CsTbF5
_chemical_formula_sum   'Cs8 Tb8 F40'
_cell_volume   1065.61604509
_cell_formula_units_Z   8
loop_
 _symmetry_equiv_pos_site_id
 _symmetry_equiv_pos_as_xyz
  1  'x, y, z'
loop_
 _atom_site_type_symbol
 _atom_site_label
 _atom_site_symmetry_multiplicity
 _atom_site_fract_x
 _atom_site_fract_y
 _atom_site_fract_z
 _atom_site_occupancy
  Cs  Cs0  1  0.50000000  0.20371700  0.50000000  1
  Cs  Cs1  1  0.50000000  0.70371700  0.00000000  1
  Cs  Cs2  1  0.50000000  0.79628300  0.50000000  1
  Cs  Cs3  1  0.50000000  0.29628300  0.00000000  1
  Cs  Cs4  1  0.00000000  0.70371700  0.50000000  1
  Cs  Cs5  1  0.00000000  0.20371700  0.00000000  1
  Cs  Cs6  1  0.00000000  0.29628300  0.50000000  1
  Cs  Cs7  1  0.00000000  0.79628300  0.00000000  1
  Tb  Tb8  1  0.33998500  0.00000000  0.84027000  1
  Tb  Tb9  1  0.66001500  0.00000000  0.15973000  1
  Tb  Tb10  1  0.16001500  0.00000000  0.34027000  1
  Tb  Tb11  1  0.83998500  0.00000000  0.65973000  1
  Tb  Tb12  1  0.83998500  0.50000000  0.84027000  1
  Tb  Tb13  1  0.16001500  0.50000000  0.15973000  1
  Tb  Tb14  1  0.66001500  0.50000000  0.34027000  1
  Tb  Tb15  1  0.33998500  0.50000000  0.65973000  1
  F  F16  1  0.29163900  0.00000000  0.57357500  1
  F  F17  1  0.70836100  0.00000000  0.42642500  1
  F  F18  1  0.20836100  0.00000000  0.07357500  1
  F  F19  1  0.79163900  0.00000000  0.92642500  1
  F  F20  1  0.07307200  0.00000000  0.79177600  1
  F  F21  1  0.92692800  0.00000000  0.20822400  1
  F  F22  1  0.42692800  0.00000000  0.29177600  1
  F  F23  1  0.57307200  0.00000000  0.70822400  1
  F  F24  1  0.50000000  0.09269100  0.00000000  1
  F  F25  1  0.50000000  0.59269100  0.50000000  1
  F  F26  1  0.50000000  0.90730900  0.00000000  1
  F  F27  1  0.50000000  0.40730900  0.50000000  1
  F  F28  1  0.29403300  0.14847300  0.79790300  1
  F  F29  1  0.70596700  0.14847300  0.20209700  1
  F  F30  1  0.20596700  0.14847300  0.29790300  1
  F  F31  1  0.79403300  0.14847300  0.70209700  1
  F  F32  1  0.70596700  0.85152700  0.20209700  1
  F  F33  1  0.29403300  0.85152700  0.79790300  1
  F  F34  1  0.79403300  0.85152700  0.70209700  1
  F  F35  1  0.20596700  0.85152700  0.29790300  1
  F  F36  1  0.79163900  0.50000000  0.57357500  1
  F  F37  1  0.20836100  0.50000000  0.42642500  1
  F  F38  1  0.70836100  0.50000000  0.07357500  1
  F  F39  1  0.29163900  0.50000000  0.92642500  1
  F  F40  1  0.57307200  0.50000000  0.79177600  1
  F  F41  1  0.42692800  0.50000000  0.20822400  1
  F  F42  1  0.92692800  0.50000000  0.29177600  1
  F  F43  1  0.07307200  0.50000000  0.70822400  1
  F  F44  1  0.00000000  0.59269100  0.00000000  1
  F  F45  1  0.00000000  0.09269100  0.50000000  1
  F  F46  1  0.00000000  0.40730900  0.00000000  1
  F  F47  1  0.00000000  0.90730900  0.50000000  1
  F  F48  1  0.79403300  0.64847300  0.79790300  1
  F  F49  1  0.20596700  0.64847300  0.20209700  1
  F  F50  1  0.70596700  0.64847300  0.29790300  1
  F  F51  1  0.29403300  0.64847300  0.70209700  1
  F  F52  1  0.20596700  0.35152700  0.20209700  1
  F  F53  1  0.79403300  0.35152700  0.79790300  1
  F  F54  1  0.29403300  0.35152700  0.70209700  1
  F  F55  1  0.70596700  0.35152700  0.29790300  1
