# generated using pymatgen
data_Rb2O3
_symmetry_space_group_name_H-M   'P 1'
_cell_length_a   9.38315800
_cell_length_b   9.38315800
_cell_length_c   9.38315800
_cell_angle_alpha   90.00000000
_cell_angle_beta   90.00000000
_cell_angle_gamma   90.00000000
_symmetry_Int_Tables_number   1
_chemical_formula_structural   Rb2O3
_chemical_formula_sum   'Rb16 O24'
_cell_volume   826.12751688
_cell_formula_units_Z   8
loop_
 _symmetry_equiv_pos_site_id
 _symmetry_equiv_pos_as_xyz
  1  'x, y, z'
loop_
 _atom_site_type_symbol
 _atom_site_label
 _atom_site_symmetry_multiplicity
 _atom_site_fract_x
 _atom_site_fract_y
 _atom_site_fract_z
 _atom_site_occupancy
  Rb  Rb0  1  0.80117100  0.30117100  0.19882900  1
  Rb  Rb1  1  0.94882900  0.05117100  0.55117100  1
  Rb  Rb2  1  0.55117100  0.94882900  0.05117100  1
  Rb  Rb3  1  0.44882900  0.44882900  0.44882900  1
  Rb  Rb4  1  0.30117100  0.19882900  0.80117100  1
  Rb  Rb5  1  0.19882900  0.19882900  0.19882900  1
  Rb  Rb6  1  0.19882900  0.80117100  0.30117100  1
  Rb  Rb7  1  0.05117100  0.55117100  0.94882900  1
  Rb  Rb8  1  0.30117100  0.80117100  0.69882900  1
  Rb  Rb9  1  0.44882900  0.55117100  0.05117100  1
  Rb  Rb10  1  0.05117100  0.44882900  0.55117100  1
  Rb  Rb11  1  0.94882900  0.94882900  0.94882900  1
  Rb  Rb12  1  0.80117100  0.69882900  0.30117100  1
  Rb  Rb13  1  0.69882900  0.69882900  0.69882900  1
  Rb  Rb14  1  0.69882900  0.30117100  0.80117100  1
  Rb  Rb15  1  0.55117100  0.05117100  0.44882900  1
  O  O16  1  0.25000000  0.05003200  0.50000000  1
  O  O17  1  0.19996800  0.50000000  0.25000000  1
  O  O18  1  0.30003200  0.50000000  0.75000000  1
  O  O19  1  0.50000000  0.25000000  0.19996800  1
  O  O20  1  0.50000000  0.75000000  0.30003200  1
  O  O21  1  0.25000000  0.19996800  0.50000000  1
  O  O22  1  0.50000000  0.25000000  0.05003200  1
  O  O23  1  0.44996800  0.50000000  0.75000000  1
  O  O24  1  0.50000000  0.75000000  0.44996800  1
  O  O25  1  0.05003200  0.50000000  0.25000000  1
  O  O26  1  0.75000000  0.44996800  0.50000000  1
  O  O27  1  0.75000000  0.30003200  0.50000000  1
  O  O28  1  0.75000000  0.55003200  0.00000000  1
  O  O29  1  0.69996800  0.00000000  0.75000000  1
  O  O30  1  0.80003200  0.00000000  0.25000000  1
  O  O31  1  0.00000000  0.75000000  0.69996800  1
  O  O32  1  0.00000000  0.25000000  0.80003200  1
  O  O33  1  0.75000000  0.69996800  0.00000000  1
  O  O34  1  0.00000000  0.75000000  0.55003200  1
  O  O35  1  0.94996800  0.00000000  0.25000000  1
  O  O36  1  0.00000000  0.25000000  0.94996800  1
  O  O37  1  0.55003200  0.00000000  0.75000000  1
  O  O38  1  0.25000000  0.94996800  0.00000000  1
  O  O39  1  0.25000000  0.80003200  0.00000000  1
