# generated using pymatgen
data_Yb(Mo3S4)2
_symmetry_space_group_name_H-M   'P 1'
_cell_length_a   9.19390574
_cell_length_b   9.19390574
_cell_length_c   11.42895989
_cell_angle_alpha   90.00000000
_cell_angle_beta   90.00000000
_cell_angle_gamma   120.00000000
_symmetry_Int_Tables_number   1
_chemical_formula_structural   Yb(Mo3S4)2
_chemical_formula_sum   'Yb3 Mo18 S24'
_cell_volume   836.63770612
_cell_formula_units_Z   3
loop_
 _symmetry_equiv_pos_site_id
 _symmetry_equiv_pos_as_xyz
  1  'x, y, z'
loop_
 _atom_site_type_symbol
 _atom_site_label
 _atom_site_symmetry_multiplicity
 _atom_site_fract_x
 _atom_site_fract_y
 _atom_site_fract_z
 _atom_site_occupancy
  Yb  Yb0  1  0.00000000  0.00000000  0.00000000  1
  Yb  Yb1  1  0.66666667  0.33333333  0.33333333  1
  Yb  Yb2  1  0.33333333  0.66666667  0.66666667  1
  Mo  Mo3  1  0.31553600  0.48971000  0.26628500  1
  Mo  Mo4  1  0.49249267  0.64886933  0.06704833  1
  Mo  Mo5  1  0.15637667  0.50750733  0.06704833  1
  Mo  Mo6  1  0.51029000  0.82582600  0.26628500  1
  Mo  Mo7  1  0.17417400  0.68446400  0.26628500  1
  Mo  Mo8  1  0.35113067  0.84362333  0.06704833  1
  Mo  Mo9  1  0.98220267  0.82304333  0.59961833  1
  Mo  Mo10  1  0.15915933  0.98220267  0.40038167  1
  Mo  Mo11  1  0.82304333  0.84084067  0.40038167  1
  Mo  Mo12  1  0.17695667  0.15915933  0.59961833  1
  Mo  Mo13  1  0.84084067  0.01779733  0.59961833  1
  Mo  Mo14  1  0.01779733  0.17695667  0.40038167  1
  Mo  Mo15  1  0.64886933  0.15637667  0.93295167  1
  Mo  Mo16  1  0.82582600  0.31553600  0.73371500  1
  Mo  Mo17  1  0.48971000  0.17417400  0.73371500  1
  Mo  Mo18  1  0.84362333  0.49249267  0.93295167  1
  Mo  Mo19  1  0.50750733  0.35113067  0.93295167  1
  Mo  Mo20  1  0.68446400  0.51029000  0.73371500  1
  S  S21  1  0.33333333  0.66666667  0.90562667  1
  S  S22  1  0.66251567  0.95571933  0.08341033  1
  S  S23  1  0.29320367  0.33748433  0.08341033  1
  S  S24  1  0.04428067  0.70679633  0.08341033  1
  S  S25  1  0.00415100  0.37761400  0.24992300  1
  S  S26  1  0.37346300  0.99584900  0.24992300  1
  S  S27  1  0.33333333  0.66666667  0.42770667  1
  S  S28  1  0.62238600  0.62653700  0.24992300  1
  S  S29  1  0.00000000  0.00000000  0.23896000  1
  S  S30  1  0.32918233  0.28905267  0.41674367  1
  S  S31  1  0.95987033  0.67081767  0.41674367  1
  S  S32  1  0.71094733  0.04012967  0.41674367  1
  S  S33  1  0.67081767  0.71094733  0.58325633  1
  S  S34  1  0.04012967  0.32918233  0.58325633  1
  S  S35  1  0.00000000  0.00000000  0.76104000  1
  S  S36  1  0.28905267  0.95987033  0.58325633  1
  S  S37  1  0.66666667  0.33333333  0.57229333  1
  S  S38  1  0.99584900  0.62238600  0.75007700  1
  S  S39  1  0.62653700  0.00415100  0.75007700  1
  S  S40  1  0.37761400  0.37346300  0.75007700  1
  S  S41  1  0.33748433  0.04428067  0.91658967  1
  S  S42  1  0.70679633  0.66251567  0.91658967  1
  S  S43  1  0.66666667  0.33333333  0.09437333  1
  S  S44  1  0.95571933  0.29320367  0.91658967  1
