# generated using pymatgen
data_LaIn4Ni
_symmetry_space_group_name_H-M   'P 1'
_cell_length_a   4.56350900
_cell_length_b   17.10388200
_cell_length_c   7.27815500
_cell_angle_alpha   90.00000000
_cell_angle_beta   90.00000000
_cell_angle_gamma   90.00000000
_symmetry_Int_Tables_number   1
_chemical_formula_structural   LaIn4Ni
_chemical_formula_sum   'La4 In16 Ni4'
_cell_volume   568.08706842
_cell_formula_units_Z   4
loop_
 _symmetry_equiv_pos_site_id
 _symmetry_equiv_pos_as_xyz
  1  'x, y, z'
loop_
 _atom_site_type_symbol
 _atom_site_label
 _atom_site_symmetry_multiplicity
 _atom_site_fract_x
 _atom_site_fract_y
 _atom_site_fract_z
 _atom_site_occupancy
  La  La0  1  0.50000000  0.61767600  0.75000000  1
  La  La1  1  0.00000000  0.88232400  0.25000000  1
  La  La2  1  0.00000000  0.11767600  0.75000000  1
  La  La3  1  0.50000000  0.38232400  0.25000000  1
  In  In4  1  0.50000000  0.00000000  0.00000000  1
  In  In5  1  0.50000000  0.00000000  0.50000000  1
  In  In6  1  0.00000000  0.92370800  0.75000000  1
  In  In7  1  0.50000000  0.57629200  0.25000000  1
  In  In8  1  0.50000000  0.81133500  0.95347700  1
  In  In9  1  0.00000000  0.68866500  0.04652300  1
  In  In10  1  0.50000000  0.81133500  0.54652300  1
  In  In11  1  0.00000000  0.68866500  0.45347700  1
  In  In12  1  0.00000000  0.50000000  0.00000000  1
  In  In13  1  0.00000000  0.50000000  0.50000000  1
  In  In14  1  0.50000000  0.42370800  0.75000000  1
  In  In15  1  0.00000000  0.07629200  0.25000000  1
  In  In16  1  0.00000000  0.31133500  0.95347700  1
  In  In17  1  0.50000000  0.18866500  0.04652300  1
  In  In18  1  0.00000000  0.31133500  0.54652300  1
  In  In19  1  0.50000000  0.18866500  0.45347700  1
  Ni  Ni20  1  0.00000000  0.77484500  0.75000000  1
  Ni  Ni21  1  0.50000000  0.72515500  0.25000000  1
  Ni  Ni22  1  0.50000000  0.27484500  0.75000000  1
  Ni  Ni23  1  0.00000000  0.22515500  0.25000000  1
