# generated using pymatgen
data_U3Co4Ge7
_symmetry_space_group_name_H-M   'P 1'
_cell_length_a   4.13810200
_cell_length_b   4.13810200
_cell_length_c   27.15593000
_cell_angle_alpha   90.00000000
_cell_angle_beta   90.00000000
_cell_angle_gamma   90.00000000
_symmetry_Int_Tables_number   1
_chemical_formula_structural   U3Co4Ge7
_chemical_formula_sum   'U6 Co8 Ge14'
_cell_volume   465.01510827
_cell_formula_units_Z   2
loop_
 _symmetry_equiv_pos_site_id
 _symmetry_equiv_pos_as_xyz
  1  'x, y, z'
loop_
 _atom_site_type_symbol
 _atom_site_label
 _atom_site_symmetry_multiplicity
 _atom_site_fract_x
 _atom_site_fract_y
 _atom_site_fract_z
 _atom_site_occupancy
  U  U0  1  0.50000000  0.50000000  0.17342000  1
  U  U1  1  0.00000000  0.00000000  0.32658000  1
  U  U2  1  0.00000000  0.00000000  0.00000000  1
  U  U3  1  0.00000000  0.00000000  0.67342000  1
  U  U4  1  0.50000000  0.50000000  0.82658000  1
  U  U5  1  0.50000000  0.50000000  0.50000000  1
  Co  Co6  1  0.50000000  0.00000000  0.25000000  1
  Co  Co7  1  0.00000000  0.50000000  0.25000000  1
  Co  Co8  1  0.50000000  0.50000000  0.38231100  1
  Co  Co9  1  0.00000000  0.00000000  0.11768900  1
  Co  Co10  1  0.00000000  0.50000000  0.75000000  1
  Co  Co11  1  0.50000000  0.00000000  0.75000000  1
  Co  Co12  1  0.00000000  0.00000000  0.88231100  1
  Co  Co13  1  0.50000000  0.50000000  0.61768900  1
  Ge  Ge14  1  0.50000000  0.00000000  0.08076200  1
  Ge  Ge15  1  0.50000000  0.50000000  0.29676200  1
  Ge  Ge16  1  0.00000000  0.00000000  0.20323800  1
  Ge  Ge17  1  0.50000000  0.50000000  0.00000000  1
  Ge  Ge18  1  0.50000000  0.00000000  0.41923800  1
  Ge  Ge19  1  0.00000000  0.50000000  0.41923800  1
  Ge  Ge20  1  0.00000000  0.50000000  0.08076200  1
  Ge  Ge21  1  0.00000000  0.50000000  0.58076200  1
  Ge  Ge22  1  0.00000000  0.00000000  0.79676200  1
  Ge  Ge23  1  0.50000000  0.50000000  0.70323800  1
  Ge  Ge24  1  0.00000000  0.00000000  0.50000000  1
  Ge  Ge25  1  0.00000000  0.50000000  0.91923800  1
  Ge  Ge26  1  0.50000000  0.00000000  0.91923800  1
  Ge  Ge27  1  0.50000000  0.00000000  0.58076200  1
