# generated using pymatgen
data_La4Bi3
_symmetry_space_group_name_H-M   'P 1'
_cell_length_a   9.89851200
_cell_length_b   9.89851200
_cell_length_c   9.89851200
_cell_angle_alpha   90.00000000
_cell_angle_beta   90.00000000
_cell_angle_gamma   90.00000000
_symmetry_Int_Tables_number   1
_chemical_formula_structural   La4Bi3
_chemical_formula_sum   'La16 Bi12'
_cell_volume   969.86154912
_cell_formula_units_Z   4
loop_
 _symmetry_equiv_pos_site_id
 _symmetry_equiv_pos_as_xyz
  1  'x, y, z'
loop_
 _atom_site_type_symbol
 _atom_site_label
 _atom_site_symmetry_multiplicity
 _atom_site_fract_x
 _atom_site_fract_y
 _atom_site_fract_z
 _atom_site_occupancy
  La  La0  1  0.17660100  0.82339900  0.32339900  1
  La  La1  1  0.17660100  0.17660100  0.17660100  1
  La  La2  1  0.92660100  0.07339900  0.57339900  1
  La  La3  1  0.07339900  0.57339900  0.92660100  1
  La  La4  1  0.82339900  0.32339900  0.17660100  1
  La  La5  1  0.57339900  0.92660100  0.07339900  1
  La  La6  1  0.42660100  0.42660100  0.42660100  1
  La  La7  1  0.32339900  0.17660100  0.82339900  1
  La  La8  1  0.67660100  0.32339900  0.82339900  1
  La  La9  1  0.67660100  0.67660100  0.67660100  1
  La  La10  1  0.42660100  0.57339900  0.07339900  1
  La  La11  1  0.57339900  0.07339900  0.42660100  1
  La  La12  1  0.32339900  0.82339900  0.67660100  1
  La  La13  1  0.07339900  0.42660100  0.57339900  1
  La  La14  1  0.92660100  0.92660100  0.92660100  1
  La  La15  1  0.82339900  0.67660100  0.32339900  1
  Bi  Bi16  1  0.37500000  0.50000000  0.75000000  1
  Bi  Bi17  1  0.50000000  0.75000000  0.37500000  1
  Bi  Bi18  1  0.12500000  0.50000000  0.25000000  1
  Bi  Bi19  1  0.75000000  0.37500000  0.50000000  1
  Bi  Bi20  1  0.25000000  0.12500000  0.50000000  1
  Bi  Bi21  1  0.50000000  0.25000000  0.12500000  1
  Bi  Bi22  1  0.87500000  0.00000000  0.25000000  1
  Bi  Bi23  1  0.00000000  0.25000000  0.87500000  1
  Bi  Bi24  1  0.62500000  0.00000000  0.75000000  1
  Bi  Bi25  1  0.25000000  0.87500000  0.00000000  1
  Bi  Bi26  1  0.75000000  0.62500000  0.00000000  1
  Bi  Bi27  1  0.00000000  0.75000000  0.62500000  1
