# generated using pymatgen
data_Li2MnPCO7
_symmetry_space_group_name_H-M   'P 1'
_cell_length_a   5.17738728
_cell_length_b   6.29571500
_cell_length_c   8.58113163
_cell_angle_alpha   90.00000000
_cell_angle_beta   92.26041055
_cell_angle_gamma   90.00000000
_symmetry_Int_Tables_number   1
_chemical_formula_structural   Li2MnPCO7
_chemical_formula_sum   'Li4 Mn2 P2 C2 O14'
_cell_volume   279.48738707
_cell_formula_units_Z   2
loop_
 _symmetry_equiv_pos_site_id
 _symmetry_equiv_pos_as_xyz
  1  'x, y, z'
loop_
 _atom_site_type_symbol
 _atom_site_label
 _atom_site_symmetry_multiplicity
 _atom_site_fract_x
 _atom_site_fract_y
 _atom_site_fract_z
 _atom_site_occupancy
  Li  Li0  1  0.28063350  0.02070100  0.21336700  1
  Li  Li1  1  0.71936650  0.97929900  0.78663300  1
  Li  Li2  1  0.71936650  0.52070100  0.78663300  1
  Li  Li3  1  0.28063350  0.47929900  0.21336700  1
  Mn  Mn4  1  0.27341850  0.75000000  0.64822700  1
  Mn  Mn5  1  0.72658150  0.25000000  0.35177300  1
  P  P6  1  0.20773350  0.25000000  0.56796800  1
  P  P7  1  0.79226650  0.75000000  0.43203200  1
  C  C8  1  0.21918050  0.75000000  0.94510200  1
  C  C9  1  0.78081950  0.25000000  0.05489800  1
  O  O10  1  0.00787850  0.75000000  0.85926900  1
  O  O11  1  0.99212150  0.25000000  0.14073100  1
  O  O12  1  0.43528950  0.75000000  0.86474700  1
  O  O13  1  0.56471050  0.25000000  0.13525300  1
  O  O14  1  0.68961050  0.75000000  0.59848100  1
  O  O15  1  0.31038950  0.25000000  0.40151900  1
  O  O16  1  0.90424150  0.25000000  0.55503050  1
  O  O17  1  0.09575850  0.75000000  0.44496950  1
  O  O18  1  0.23248650  0.75000000  0.09276500  1
  O  O19  1  0.76751350  0.25000000  0.90723500  1
  O  O20  1  0.69541950  0.94337850  0.33550550  1
  O  O21  1  0.69541950  0.55662150  0.33550550  1
  O  O22  1  0.30458050  0.44337850  0.66449450  1
  O  O23  1  0.30458050  0.05662150  0.66449450  1
