# generated using pymatgen
data_Ca2Os2O7
_symmetry_space_group_name_H-M   'P 1'
_cell_length_a   7.25692400
_cell_length_b   7.48694000
_cell_length_c   10.23870200
_cell_angle_alpha   90.00000000
_cell_angle_beta   90.00000000
_cell_angle_gamma   90.00000000
_symmetry_Int_Tables_number   1
_chemical_formula_structural   Ca2Os2O7
_chemical_formula_sum   'Ca8 Os8 O28'
_cell_volume   556.29073969
_cell_formula_units_Z   4
loop_
 _symmetry_equiv_pos_site_id
 _symmetry_equiv_pos_as_xyz
  1  'x, y, z'
loop_
 _atom_site_type_symbol
 _atom_site_label
 _atom_site_symmetry_multiplicity
 _atom_site_fract_x
 _atom_site_fract_y
 _atom_site_fract_z
 _atom_site_occupancy
  Ca  Ca0  1  0.00000000  0.00000000  0.50000000  1
  Ca  Ca1  1  0.00000000  0.00000000  0.00000000  1
  Ca  Ca2  1  0.25000000  0.75000000  0.25000000  1
  Ca  Ca3  1  0.75000000  0.75000000  0.25000000  1
  Ca  Ca4  1  0.50000000  0.50000000  0.00000000  1
  Ca  Ca5  1  0.50000000  0.50000000  0.50000000  1
  Ca  Ca6  1  0.75000000  0.25000000  0.75000000  1
  Ca  Ca7  1  0.25000000  0.25000000  0.75000000  1
  Os  Os8  1  0.25000000  0.25000000  0.25000000  1
  Os  Os9  1  0.75000000  0.25000000  0.25000000  1
  Os  Os10  1  0.50000000  0.00000000  0.00000000  1
  Os  Os11  1  0.50000000  0.00000000  0.50000000  1
  Os  Os12  1  0.75000000  0.75000000  0.75000000  1
  Os  Os13  1  0.25000000  0.75000000  0.75000000  1
  Os  Os14  1  0.00000000  0.50000000  0.50000000  1
  Os  Os15  1  0.00000000  0.50000000  0.00000000  1
  O  O16  1  0.70186250  0.93250250  0.88322050  1
  O  O17  1  0.70186250  0.06749750  0.11677950  1
  O  O18  1  0.29813750  0.93250250  0.61677950  1
  O  O19  1  0.29813750  0.06749750  0.38322050  1
  O  O20  1  0.29813750  0.06749750  0.11677950  1
  O  O21  1  0.29813750  0.93250250  0.88322050  1
  O  O22  1  0.70186250  0.06749750  0.38322050  1
  O  O23  1  0.70186250  0.93250250  0.61677950  1
  O  O24  1  0.00000000  0.16405800  0.25000000  1
  O  O25  1  0.00000000  0.83594200  0.75000000  1
  O  O26  1  0.50000000  0.23116500  0.59662400  1
  O  O27  1  0.50000000  0.76883500  0.40337600  1
  O  O28  1  0.00000000  0.73116500  0.40337600  1
  O  O29  1  0.00000000  0.26883500  0.59662400  1
  O  O30  1  0.20186250  0.43250250  0.38322050  1
  O  O31  1  0.20186250  0.56749750  0.61677950  1
  O  O32  1  0.79813750  0.43250250  0.11677950  1
  O  O33  1  0.79813750  0.56749750  0.88322050  1
  O  O34  1  0.79813750  0.56749750  0.61677950  1
  O  O35  1  0.79813750  0.43250250  0.38322050  1
  O  O36  1  0.20186250  0.56749750  0.88322050  1
  O  O37  1  0.20186250  0.43250250  0.11677950  1
  O  O38  1  0.50000000  0.66405800  0.75000000  1
  O  O39  1  0.50000000  0.33594200  0.25000000  1
  O  O40  1  0.00000000  0.73116500  0.09662400  1
  O  O41  1  0.00000000  0.26883500  0.90337600  1
  O  O42  1  0.50000000  0.23116500  0.90337600  1
  O  O43  1  0.50000000  0.76883500  0.09662400  1
