# generated using pymatgen
data_Sr2Cu3(BrO2)2
_symmetry_space_group_name_H-M   'P 1'
_cell_length_a   5.51879000
_cell_length_b   5.51879000
_cell_length_c   13.69813200
_cell_angle_alpha   90.00000000
_cell_angle_beta   90.00000000
_cell_angle_gamma   90.00000000
_symmetry_Int_Tables_number   1
_chemical_formula_structural   Sr2Cu3(BrO2)2
_chemical_formula_sum   'Sr4 Cu6 Br4 O8'
_cell_volume   417.20459622
_cell_formula_units_Z   2
loop_
 _symmetry_equiv_pos_site_id
 _symmetry_equiv_pos_as_xyz
  1  'x, y, z'
loop_
 _atom_site_type_symbol
 _atom_site_label
 _atom_site_symmetry_multiplicity
 _atom_site_fract_x
 _atom_site_fract_y
 _atom_site_fract_z
 _atom_site_occupancy
  Sr  Sr0  1  0.00000000  0.00000000  0.36939100  1
  Sr  Sr1  1  0.50000000  0.50000000  0.13060900  1
  Sr  Sr2  1  0.50000000  0.50000000  0.86939100  1
  Sr  Sr3  1  0.00000000  0.00000000  0.63060900  1
  Cu  Cu4  1  0.00000000  0.50000000  0.00000000  1
  Cu  Cu5  1  0.00000000  0.00000000  0.00000000  1
  Cu  Cu6  1  0.50000000  0.00000000  0.00000000  1
  Cu  Cu7  1  0.50000000  0.00000000  0.50000000  1
  Cu  Cu8  1  0.50000000  0.50000000  0.50000000  1
  Cu  Cu9  1  0.00000000  0.50000000  0.50000000  1
  Br  Br10  1  0.00000000  0.50000000  0.25000000  1
  Br  Br11  1  0.50000000  0.00000000  0.25000000  1
  Br  Br12  1  0.50000000  0.00000000  0.75000000  1
  Br  Br13  1  0.00000000  0.50000000  0.75000000  1
  O  O14  1  0.75017150  0.75017150  0.00000000  1
  O  O15  1  0.74982850  0.74982850  0.50000000  1
  O  O16  1  0.75017150  0.24982850  0.00000000  1
  O  O17  1  0.24982850  0.75017150  0.00000000  1
  O  O18  1  0.25017150  0.25017150  0.50000000  1
  O  O19  1  0.24982850  0.24982850  0.00000000  1
  O  O20  1  0.25017150  0.74982850  0.50000000  1
  O  O21  1  0.74982850  0.25017150  0.50000000  1
