# generated using pymatgen
data_Fe4P3(HO5)3
_symmetry_space_group_name_H-M   'P 1'
_cell_length_a   19.87836600
_cell_length_b   7.50498800
_cell_length_c   7.56410368
_cell_angle_alpha   90.00000000
_cell_angle_beta   102.46433087
_cell_angle_gamma   90.00000000
_symmetry_Int_Tables_number   1
_chemical_formula_structural   Fe4P3(HO5)3
_chemical_formula_sum   'Fe16 P12 H12 O60'
_cell_volume   1101.86787550
_cell_formula_units_Z   4
loop_
 _symmetry_equiv_pos_site_id
 _symmetry_equiv_pos_as_xyz
  1  'x, y, z'
loop_
 _atom_site_type_symbol
 _atom_site_label
 _atom_site_symmetry_multiplicity
 _atom_site_fract_x
 _atom_site_fract_y
 _atom_site_fract_z
 _atom_site_occupancy
  Fe  Fe0  1  0.16897500  0.98943900  0.35183000  1
  Fe  Fe1  1  0.33102500  0.48943900  0.14817000  1
  Fe  Fe2  1  0.33102500  0.51056100  0.64817000  1
  Fe  Fe3  1  0.16897500  0.01056100  0.85183000  1
  Fe  Fe4  1  0.42399650  0.77576650  0.34428700  1
  Fe  Fe5  1  0.07600350  0.27576650  0.15571300  1
  Fe  Fe6  1  0.07600350  0.72423350  0.65571300  1
  Fe  Fe7  1  0.42399650  0.22423350  0.84428700  1
  Fe  Fe8  1  0.66897500  0.48943900  0.35183000  1
  Fe  Fe9  1  0.83102500  0.98943900  0.14817000  1
  Fe  Fe10  1  0.83102500  0.01056100  0.64817000  1
  Fe  Fe11  1  0.66897500  0.51056100  0.85183000  1
  Fe  Fe12  1  0.92399650  0.27576650  0.34428700  1
  Fe  Fe13  1  0.57600350  0.77576650  0.15571300  1
  Fe  Fe14  1  0.57600350  0.22423350  0.65571300  1
  Fe  Fe15  1  0.92399650  0.72423350  0.84428700  1
  P  P16  1  0.00000000  0.11317700  0.75000000  1
  P  P17  1  0.00000000  0.88682300  0.25000000  1
  P  P18  1  0.33116400  0.86410700  0.91346800  1
  P  P19  1  0.16883600  0.36410700  0.58653200  1
  P  P20  1  0.16883600  0.63589300  0.08653200  1
  P  P21  1  0.33116400  0.13589300  0.41346800  1
  P  P22  1  0.50000000  0.61317700  0.75000000  1
  P  P23  1  0.50000000  0.38682300  0.25000000  1
  P  P24  1  0.83116400  0.36410700  0.91346800  1
  P  P25  1  0.66883600  0.86410700  0.58653200  1
  P  P26  1  0.66883600  0.13589300  0.08653200  1
  P  P27  1  0.83116400  0.63589300  0.41346800  1
  H  H28  1  0.00000000  0.50823100  0.25000000  1
  H  H29  1  0.00000000  0.49176900  0.75000000  1
  H  H30  1  0.20353400  0.79184100  0.62372100  1
  H  H31  1  0.29646600  0.29184100  0.87627900  1
  H  H32  1  0.29646600  0.70815900  0.37627900  1
  H  H33  1  0.20353400  0.20815900  0.12372100  1
  H  H34  1  0.50000000  0.00823100  0.25000000  1
  H  H35  1  0.50000000  0.99176900  0.75000000  1
  H  H36  1  0.70353400  0.29184100  0.62372100  1
  H  H37  1  0.79646600  0.79184100  0.87627900  1
  H  H38  1  0.79646600  0.20815900  0.37627900  1
  H  H39  1  0.70353400  0.70815900  0.12372100  1
  O  O40  1  0.26578050  0.03684350  0.43635500  1
  O  O41  1  0.23421950  0.53684350  0.06364500  1
  O  O42  1  0.23421950  0.46315650  0.56364500  1
  O  O43  1  0.26578050  0.96315650  0.93635500  1
  O  O44  1  0.06268850  0.00956950  0.23977200  1
  O  O45  1  0.43731150  0.50956950  0.26022800  1
  O  O46  1  0.43731150  0.49043050  0.76022800  1
  O  O47  1  0.06268850  0.99043050  0.73977200  1
  O  O48  1  0.00000000  0.62243200  0.75000000  1
  O  O49  1  0.00000000  0.37756800  0.25000000  1
  O  O50  1  0.16334800  0.87220800  0.59920600  1
  O  O51  1  0.33665200  0.37220800  0.90079400  1
  O  O52  1  0.33665200  0.62779200  0.40079400  1
  O  O53  1  0.16334800  0.12779200  0.09920600  1
  O  O54  1  0.48027400  0.73279600  0.58346700  1
  O  O55  1  0.01972600  0.23279600  0.91653300  1
  O  O56  1  0.01972600  0.76720400  0.41653300  1
  O  O57  1  0.48027400  0.26720400  0.08346700  1
  O  O58  1  0.38717950  0.99806950  0.89499100  1
  O  O59  1  0.11282050  0.49806950  0.60500900  1
  O  O60  1  0.11282050  0.50193050  0.10500900  1
  O  O61  1  0.38717950  0.00193050  0.39499100  1
  O  O62  1  0.18622650  0.24021550  0.75330000  1
  O  O63  1  0.31377350  0.74021550  0.74670000  1
  O  O64  1  0.31377350  0.25978450  0.24670000  1
  O  O65  1  0.18622650  0.75978450  0.25330000  1
  O  O66  1  0.35809200  0.25438200  0.58505100  1
  O  O67  1  0.14190800  0.75438200  0.91494900  1
  O  O68  1  0.14190800  0.24561800  0.41494900  1
  O  O69  1  0.35809200  0.74561800  0.08505100  1
  O  O70  1  0.76578050  0.53684350  0.43635500  1
  O  O71  1  0.73421950  0.03684350  0.06364500  1
  O  O72  1  0.73421950  0.96315650  0.56364500  1
  O  O73  1  0.76578050  0.46315650  0.93635500  1
  O  O74  1  0.56268850  0.50956950  0.23977200  1
  O  O75  1  0.93731150  0.00956950  0.26022800  1
  O  O76  1  0.93731150  0.99043050  0.76022800  1
  O  O77  1  0.56268850  0.49043050  0.73977200  1
  O  O78  1  0.50000000  0.12243200  0.75000000  1
  O  O79  1  0.50000000  0.87756800  0.25000000  1
  O  O80  1  0.66334800  0.37220800  0.59920600  1
  O  O81  1  0.83665200  0.87220800  0.90079400  1
  O  O82  1  0.83665200  0.12779200  0.40079400  1
  O  O83  1  0.66334800  0.62779200  0.09920600  1
  O  O84  1  0.98027400  0.23279600  0.58346700  1
  O  O85  1  0.51972600  0.73279600  0.91653300  1
  O  O86  1  0.51972600  0.26720400  0.41653300  1
  O  O87  1  0.98027400  0.76720400  0.08346700  1
  O  O88  1  0.88717950  0.49806950  0.89499100  1
  O  O89  1  0.61282050  0.99806950  0.60500900  1
  O  O90  1  0.61282050  0.00193050  0.10500900  1
  O  O91  1  0.88717950  0.50193050  0.39499100  1
  O  O92  1  0.68622650  0.74021550  0.75330000  1
  O  O93  1  0.81377350  0.24021550  0.74670000  1
  O  O94  1  0.81377350  0.75978450  0.24670000  1
  O  O95  1  0.68622650  0.25978450  0.25330000  1
  O  O96  1  0.85809200  0.75438200  0.58505100  1
  O  O97  1  0.64190800  0.25438200  0.91494900  1
  O  O98  1  0.64190800  0.74561800  0.41494900  1
  O  O99  1  0.85809200  0.24561800  0.08505100  1
