# generated using pymatgen
data_Sm3Co6Sn5
_symmetry_space_group_name_H-M   'P 1'
_cell_length_a   4.33428400
_cell_length_b   9.78810600
_cell_length_c   12.47978400
_cell_angle_alpha   90.00000000
_cell_angle_beta   90.00000000
_cell_angle_gamma   90.00000000
_symmetry_Int_Tables_number   1
_chemical_formula_structural   Sm3Co6Sn5
_chemical_formula_sum   'Sm6 Co12 Sn10'
_cell_volume   529.44773802
_cell_formula_units_Z   2
loop_
 _symmetry_equiv_pos_site_id
 _symmetry_equiv_pos_as_xyz
  1  'x, y, z'
loop_
 _atom_site_type_symbol
 _atom_site_label
 _atom_site_symmetry_multiplicity
 _atom_site_fract_x
 _atom_site_fract_y
 _atom_site_fract_z
 _atom_site_occupancy
  Sm  Sm0  1  0.50000000  0.50000000  0.81677700  1
  Sm  Sm1  1  0.50000000  0.50000000  0.18322300  1
  Sm  Sm2  1  0.00000000  0.00000000  0.00000000  1
  Sm  Sm3  1  0.00000000  0.00000000  0.31677700  1
  Sm  Sm4  1  0.00000000  0.00000000  0.68322300  1
  Sm  Sm5  1  0.50000000  0.50000000  0.50000000  1
  Co  Co6  1  0.00000000  0.27442750  0.10656250  1
  Co  Co7  1  0.00000000  0.72557250  0.89343750  1
  Co  Co8  1  0.00000000  0.72557250  0.10656250  1
  Co  Co9  1  0.50000000  0.70068700  0.00000000  1
  Co  Co10  1  0.50000000  0.29931300  0.00000000  1
  Co  Co11  1  0.00000000  0.27442750  0.89343750  1
  Co  Co12  1  0.50000000  0.77442750  0.60656250  1
  Co  Co13  1  0.50000000  0.22557250  0.39343750  1
  Co  Co14  1  0.50000000  0.22557250  0.60656250  1
  Co  Co15  1  0.00000000  0.20068700  0.50000000  1
  Co  Co16  1  0.00000000  0.79931300  0.50000000  1
  Co  Co17  1  0.50000000  0.77442750  0.39343750  1
  Sn  Sn18  1  0.00000000  0.66075700  0.32303600  1
  Sn  Sn19  1  0.00000000  0.66075700  0.67696400  1
  Sn  Sn20  1  0.00000000  0.33924300  0.32303600  1
  Sn  Sn21  1  0.00000000  0.50000000  0.00000000  1
  Sn  Sn22  1  0.00000000  0.33924300  0.67696400  1
  Sn  Sn23  1  0.50000000  0.16075700  0.82303600  1
  Sn  Sn24  1  0.50000000  0.16075700  0.17696400  1
  Sn  Sn25  1  0.50000000  0.83924300  0.82303600  1
  Sn  Sn26  1  0.50000000  0.00000000  0.50000000  1
  Sn  Sn27  1  0.50000000  0.83924300  0.17696400  1
