# generated using pymatgen
data_YCoO3
_symmetry_space_group_name_H-M   'P 1'
_cell_length_a   5.29659903
_cell_length_b   5.67528104
_cell_length_c   7.47779002
_cell_angle_alpha   90.00000000
_cell_angle_beta   90.00000000
_cell_angle_gamma   90.00000000
_symmetry_Int_Tables_number   1
_chemical_formula_structural   YCoO3
_chemical_formula_sum   'Y4 Co4 O12'
_cell_volume   224.78003572
_cell_formula_units_Z   4
loop_
 _symmetry_equiv_pos_site_id
 _symmetry_equiv_pos_as_xyz
  1  'x, y, z'
loop_
 _atom_site_type_symbol
 _atom_site_label
 _atom_site_symmetry_multiplicity
 _atom_site_fract_x
 _atom_site_fract_y
 _atom_site_fract_z
 _atom_site_occupancy
  Y  Y0  1  0.02119400  0.42248300  0.25000000  1
  Y  Y1  1  0.47880600  0.92248300  0.25000000  1
  Y  Y2  1  0.52119400  0.07751700  0.75000000  1
  Y  Y3  1  0.97880600  0.57751700  0.75000000  1
  Co  Co4  1  0.00000000  0.00000000  0.00000000  1
  Co  Co5  1  0.50000000  0.50000000  0.50000000  1
  Co  Co6  1  0.50000000  0.50000000  0.00000000  1
  Co  Co7  1  0.00000000  0.00000000  0.50000000  1
  O  O8  1  0.60984400  0.53162400  0.25000000  1
  O  O9  1  0.10984400  0.96837600  0.75000000  1
  O  O10  1  0.39015600  0.46837600  0.75000000  1
  O  O11  1  0.89015600  0.03162400  0.25000000  1
  O  O12  1  0.80560500  0.30894300  0.55365500  1
  O  O13  1  0.30560500  0.19105700  0.44634500  1
  O  O14  1  0.30560500  0.19105700  0.05365500  1
  O  O15  1  0.80560500  0.30894300  0.94634500  1
  O  O16  1  0.19439500  0.69105700  0.05365500  1
  O  O17  1  0.69439500  0.80894300  0.94634500  1
  O  O18  1  0.69439500  0.80894300  0.55365500  1
  O  O19  1  0.19439500  0.69105700  0.44634500  1
