# generated using pymatgen
data_Co2SiO4
_symmetry_space_group_name_H-M   'P 1'
_cell_length_a   4.82757849
_cell_length_b   6.06437115
_cell_length_c   10.39626470
_cell_angle_alpha   90.00000000
_cell_angle_beta   90.00000000
_cell_angle_gamma   90.00000000
_symmetry_Int_Tables_number   1
_chemical_formula_structural   Co2SiO4
_chemical_formula_sum   'Co8 Si4 O16'
_cell_volume   304.36341275
_cell_formula_units_Z   4
loop_
 _symmetry_equiv_pos_site_id
 _symmetry_equiv_pos_as_xyz
  1  'x, y, z'
loop_
 _atom_site_type_symbol
 _atom_site_label
 _atom_site_symmetry_multiplicity
 _atom_site_fract_x
 _atom_site_fract_y
 _atom_site_fract_z
 _atom_site_occupancy
  Co  Co0  1  0.50000000  0.50000000  0.50000000  1
  Co  Co1  1  0.00000000  0.00000000  0.00000000  1
  Co  Co2  1  0.99560850  0.25000000  0.27487400  1
  Co  Co3  1  0.50439150  0.25000000  0.77487400  1
  Co  Co4  1  0.00439150  0.75000000  0.72512600  1
  Co  Co5  1  0.49560850  0.75000000  0.22512600  1
  Co  Co6  1  0.00000000  0.50000000  0.00000000  1
  Co  Co7  1  0.50000000  0.00000000  0.50000000  1
  Si  Si8  1  0.57344550  0.75000000  0.90676500  1
  Si  Si9  1  0.07344550  0.25000000  0.59323500  1
  Si  Si10  1  0.42655450  0.25000000  0.09323500  1
  Si  Si11  1  0.92655450  0.75000000  0.40676500  1
  O  O12  1  0.78524150  0.75000000  0.55406400  1
  O  O13  1  0.28524150  0.25000000  0.94593600  1
  O  O14  1  0.21475850  0.25000000  0.44593600  1
  O  O15  1  0.71475850  0.75000000  0.05406400  1
  O  O16  1  0.26672150  0.75000000  0.40739100  1
  O  O17  1  0.76672150  0.25000000  0.09260900  1
  O  O18  1  0.23327850  0.75000000  0.90739100  1
  O  O19  1  0.73327850  0.25000000  0.59260900  1
  O  O20  1  0.27890750  0.46566800  0.16128800  1
  O  O21  1  0.77890750  0.53433200  0.33871200  1
  O  O22  1  0.72109250  0.96566800  0.83871200  1
  O  O23  1  0.22109250  0.03433200  0.66128800  1
  O  O24  1  0.72109250  0.53433200  0.83871200  1
  O  O25  1  0.22109250  0.46566800  0.66128800  1
  O  O26  1  0.27890750  0.03433200  0.16128800  1
  O  O27  1  0.77890750  0.96566800  0.33871200  1
