# generated using pymatgen
data_Rb2MnH2OF5
_symmetry_space_group_name_H-M   'P 1'
_cell_length_a   8.22882300
_cell_length_b   9.67969054
_cell_length_c   8.53665000
_cell_angle_alpha   90.00000000
_cell_angle_beta   90.00000000
_cell_angle_gamma   90.00000000
_symmetry_Int_Tables_number   1
_chemical_formula_structural   Rb2MnH2OF5
_chemical_formula_sum   'Rb8 Mn4 H8 O4 F20'
_cell_volume   679.96517390
_cell_formula_units_Z   4
loop_
 _symmetry_equiv_pos_site_id
 _symmetry_equiv_pos_as_xyz
  1  'x, y, z'
loop_
 _atom_site_type_symbol
 _atom_site_label
 _atom_site_symmetry_multiplicity
 _atom_site_fract_x
 _atom_site_fract_y
 _atom_site_fract_z
 _atom_site_occupancy
  Rb  Rb0  1  0.71110300  0.70931650  0.75000000  1
  Rb  Rb1  1  0.28889700  0.29068350  0.25000000  1
  Rb  Rb2  1  0.71110300  0.29068350  0.75000000  1
  Rb  Rb3  1  0.28889700  0.70931650  0.25000000  1
  Rb  Rb4  1  0.21110300  0.20931650  0.75000000  1
  Rb  Rb5  1  0.78889700  0.79068350  0.25000000  1
  Rb  Rb6  1  0.21110300  0.79068350  0.75000000  1
  Rb  Rb7  1  0.78889700  0.20931650  0.25000000  1
  Mn  Mn8  1  0.00000000  0.50000000  0.00000000  1
  Mn  Mn9  1  0.00000000  0.50000000  0.50000000  1
  Mn  Mn10  1  0.50000000  0.00000000  0.00000000  1
  Mn  Mn11  1  0.50000000  0.00000000  0.50000000  1
  H  H12  1  0.36901900  0.50000000  0.84223200  1
  H  H13  1  0.63098100  0.50000000  0.34223200  1
  H  H14  1  0.36901900  0.50000000  0.65776800  1
  H  H15  1  0.63098100  0.50000000  0.15776800  1
  H  H16  1  0.86901900  0.00000000  0.84223200  1
  H  H17  1  0.13098100  0.00000000  0.34223200  1
  H  H18  1  0.86901900  0.00000000  0.65776800  1
  H  H19  1  0.13098100  0.00000000  0.15776800  1
  O  O20  1  0.44143500  0.50000000  0.75000000  1
  O  O21  1  0.55856500  0.50000000  0.25000000  1
  O  O22  1  0.94143500  0.00000000  0.75000000  1
  O  O23  1  0.05856500  0.00000000  0.25000000  1
  F  F24  1  0.01081700  0.50000000  0.25000000  1
  F  F25  1  0.98918300  0.50000000  0.75000000  1
  F  F26  1  0.50000000  0.19490350  0.00000000  1
  F  F27  1  0.50000000  0.80509650  0.50000000  1
  F  F28  1  0.50000000  0.80509650  0.00000000  1
  F  F29  1  0.50000000  0.19490350  0.50000000  1
  F  F30  1  0.23266500  0.50000000  0.99596700  1
  F  F31  1  0.76733500  0.50000000  0.49596700  1
  F  F32  1  0.23266500  0.50000000  0.50403300  1
  F  F33  1  0.76733500  0.50000000  0.00403300  1
  F  F34  1  0.51081700  0.00000000  0.25000000  1
  F  F35  1  0.48918300  0.00000000  0.75000000  1
  F  F36  1  0.00000000  0.69490350  0.00000000  1
  F  F37  1  0.00000000  0.30509650  0.50000000  1
  F  F38  1  0.00000000  0.30509650  0.00000000  1
  F  F39  1  0.00000000  0.69490350  0.50000000  1
  F  F40  1  0.73266500  0.00000000  0.99596700  1
  F  F41  1  0.26733500  0.00000000  0.49596700  1
  F  F42  1  0.73266500  0.00000000  0.50403300  1
  F  F43  1  0.26733500  0.00000000  0.00403300  1
