# generated using pymatgen
data_CaNiBP2H3O10
_symmetry_space_group_name_H-M   'P 1'
_cell_length_a   10.36770400
_cell_length_b   8.42980600
_cell_length_c   9.24140818
_cell_angle_alpha   90.00000000
_cell_angle_beta   115.68512100
_cell_angle_gamma   90.00000000
_symmetry_Int_Tables_number   1
_chemical_formula_structural   CaNiBP2H3O10
_chemical_formula_sum   'Ca4 Ni4 B4 P8 H12 O40'
_cell_volume   727.87113444
_cell_formula_units_Z   4
loop_
 _symmetry_equiv_pos_site_id
 _symmetry_equiv_pos_as_xyz
  1  'x, y, z'
loop_
 _atom_site_type_symbol
 _atom_site_label
 _atom_site_symmetry_multiplicity
 _atom_site_fract_x
 _atom_site_fract_y
 _atom_site_fract_z
 _atom_site_occupancy
  Ca  Ca0  1  0.00000000  0.87432300  0.75000000  1
  Ca  Ca1  1  0.00000000  0.12567700  0.25000000  1
  Ca  Ca2  1  0.50000000  0.37432300  0.75000000  1
  Ca  Ca3  1  0.50000000  0.62567700  0.25000000  1
  Ni  Ni4  1  0.25000000  0.75000000  0.50000000  1
  Ni  Ni5  1  0.75000000  0.75000000  0.00000000  1
  Ni  Ni6  1  0.75000000  0.25000000  0.50000000  1
  Ni  Ni7  1  0.25000000  0.25000000  0.00000000  1
  B  B8  1  0.00000000  0.47239600  0.75000000  1
  B  B9  1  0.00000000  0.52760400  0.25000000  1
  B  B10  1  0.50000000  0.97239600  0.75000000  1
  B  B11  1  0.50000000  0.02760400  0.25000000  1
  P  P12  1  0.71769600  0.56485700  0.67304800  1
  P  P13  1  0.28230400  0.56485700  0.82695200  1
  P  P14  1  0.71769600  0.43514300  0.17304800  1
  P  P15  1  0.28230400  0.43514300  0.32695200  1
  P  P16  1  0.21769600  0.06485700  0.67304800  1
  P  P17  1  0.78230400  0.06485700  0.82695200  1
  P  P18  1  0.21769600  0.93514300  0.17304800  1
  P  P19  1  0.78230400  0.93514300  0.32695200  1
  H  H20  1  0.75000000  0.75000000  0.50000000  1
  H  H21  1  0.25000000  0.75000000  0.00000000  1
  H  H22  1  0.98409100  0.32150300  0.91488000  1
  H  H23  1  0.01590900  0.32150300  0.58512000  1
  H  H24  1  0.98409100  0.67849700  0.41488000  1
  H  H25  1  0.01590900  0.67849700  0.08512000  1
  H  H26  1  0.25000000  0.25000000  0.50000000  1
  H  H27  1  0.75000000  0.25000000  0.00000000  1
  H  H28  1  0.48409100  0.82150300  0.91488000  1
  H  H29  1  0.51590900  0.82150300  0.58512000  1
  H  H30  1  0.48409100  0.17849700  0.41488000  1
  H  H31  1  0.51590900  0.17849700  0.08512000  1
  O  O32  1  0.88499550  0.58530950  0.74327400  1
  O  O33  1  0.05792650  0.38107950  0.89886800  1
  O  O34  1  0.88499550  0.41469050  0.24327400  1
  O  O35  1  0.11500450  0.41469050  0.25672600  1
  O  O36  1  0.11500450  0.58530950  0.75672600  1
  O  O37  1  0.94207350  0.38107950  0.60113200  1
  O  O38  1  0.84159350  0.18802650  0.97037100  1
  O  O39  1  0.15840650  0.18802650  0.52962900  1
  O  O40  1  0.15840650  0.81197350  0.02962900  1
  O  O41  1  0.84159350  0.81197350  0.47037100  1
  O  O42  1  0.94207350  0.61892050  0.10113200  1
  O  O43  1  0.66495650  0.60351850  0.11373600  1
  O  O44  1  0.66495650  0.39648150  0.61373600  1
  O  O45  1  0.33504350  0.39648150  0.88626400  1
  O  O46  1  0.66370800  0.39747200  0.29886500  1
  O  O47  1  0.33629200  0.39747200  0.20113500  1
  O  O48  1  0.33629200  0.60252800  0.70113500  1
  O  O49  1  0.66370800  0.60252800  0.79886500  1
  O  O50  1  0.05792650  0.61892050  0.39886800  1
  O  O51  1  0.33504350  0.60351850  0.38626400  1
  O  O52  1  0.38499550  0.08530950  0.74327400  1
  O  O53  1  0.55792650  0.88107950  0.89886800  1
  O  O54  1  0.38499550  0.91469050  0.24327400  1
  O  O55  1  0.61500450  0.91469050  0.25672600  1
  O  O56  1  0.61500450  0.08530950  0.75672600  1
  O  O57  1  0.44207350  0.88107950  0.60113200  1
  O  O58  1  0.34159350  0.68802650  0.97037100  1
  O  O59  1  0.65840650  0.68802650  0.52962900  1
  O  O60  1  0.65840650  0.31197350  0.02962900  1
  O  O61  1  0.34159350  0.31197350  0.47037100  1
  O  O62  1  0.44207350  0.11892050  0.10113200  1
  O  O63  1  0.16495650  0.10351850  0.11373600  1
  O  O64  1  0.16495650  0.89648150  0.61373600  1
  O  O65  1  0.83504350  0.89648150  0.88626400  1
  O  O66  1  0.16370800  0.89747200  0.29886500  1
  O  O67  1  0.83629200  0.89747200  0.20113500  1
  O  O68  1  0.83629200  0.10252800  0.70113500  1
  O  O69  1  0.16370800  0.10252800  0.79886500  1
  O  O70  1  0.55792650  0.11892050  0.39886800  1
  O  O71  1  0.83504350  0.10351850  0.38626400  1
