# generated using pymatgen
data_P2Pb3O8
_symmetry_space_group_name_H-M   'P 1'
_cell_length_a   5.56418556
_cell_length_b   5.56418556
_cell_length_c   20.53120528
_cell_angle_alpha   90.00000000
_cell_angle_beta   90.00000000
_cell_angle_gamma   120.00000000
_symmetry_Int_Tables_number   1
_chemical_formula_structural   P2Pb3O8
_chemical_formula_sum   'P6 Pb9 O24'
_cell_volume   550.48854475
_cell_formula_units_Z   3
loop_
 _symmetry_equiv_pos_site_id
 _symmetry_equiv_pos_as_xyz
  1  'x, y, z'
loop_
 _atom_site_type_symbol
 _atom_site_label
 _atom_site_symmetry_multiplicity
 _atom_site_fract_x
 _atom_site_fract_y
 _atom_site_fract_z
 _atom_site_occupancy
  P  P0  1  0.33333333  0.66666667  0.26332967  1
  P  P1  1  0.33333333  0.66666667  0.07000367  1
  P  P2  1  0.00000000  0.00000000  0.59666300  1
  P  P3  1  0.00000000  0.00000000  0.40333700  1
  P  P4  1  0.66666667  0.33333333  0.92999633  1
  P  P5  1  0.66666667  0.33333333  0.73667033  1
  Pb  Pb6  1  0.66666667  0.33333333  0.11996533  1
  Pb  Pb7  1  0.00000000  0.00000000  0.21336800  1
  Pb  Pb8  1  0.00000000  0.00000000  0.00000000  1
  Pb  Pb9  1  0.33333333  0.66666667  0.45329867  1
  Pb  Pb10  1  0.66666667  0.33333333  0.54670133  1
  Pb  Pb11  1  0.66666667  0.33333333  0.33333333  1
  Pb  Pb12  1  0.00000000  0.00000000  0.78663200  1
  Pb  Pb13  1  0.33333333  0.66666667  0.88003467  1
  Pb  Pb14  1  0.33333333  0.66666667  0.66666667  1
  O  O15  1  0.48608733  0.97217467  0.23765467  1
  O  O16  1  0.02782533  0.51391267  0.23765467  1
  O  O17  1  0.48608733  0.51391267  0.23765467  1
  O  O18  1  0.18057933  0.81942067  0.09567867  1
  O  O19  1  0.18057933  0.36115867  0.09567867  1
  O  O20  1  0.00000000  0.00000000  0.32789300  1
  O  O21  1  0.66666667  0.33333333  0.00544033  1
  O  O22  1  0.63884133  0.81942067  0.09567867  1
  O  O23  1  0.15275400  0.30550800  0.57098800  1
  O  O24  1  0.69449200  0.84724600  0.57098800  1
  O  O25  1  0.15275400  0.84724600  0.57098800  1
  O  O26  1  0.84724600  0.15275400  0.42901200  1
  O  O27  1  0.84724600  0.69449200  0.42901200  1
  O  O28  1  0.66666667  0.33333333  0.66122633  1
  O  O29  1  0.33333333  0.66666667  0.33877367  1
  O  O30  1  0.30550800  0.15275400  0.42901200  1
  O  O31  1  0.81942067  0.63884133  0.90432133  1
  O  O32  1  0.36115867  0.18057933  0.90432133  1
  O  O33  1  0.81942067  0.18057933  0.90432133  1
  O  O34  1  0.51391267  0.48608733  0.76234533  1
  O  O35  1  0.51391267  0.02782533  0.76234533  1
  O  O36  1  0.33333333  0.66666667  0.99455967  1
  O  O37  1  0.00000000  0.00000000  0.67210700  1
  O  O38  1  0.97217467  0.48608733  0.76234533  1
