# generated using pymatgen
data_U2Co3O8
_symmetry_space_group_name_H-M   'P 1'
_cell_length_a   5.15873548
_cell_length_b   6.14342751
_cell_length_c   10.39852682
_cell_angle_alpha   90.00000000
_cell_angle_beta   90.00000000
_cell_angle_gamma   90.00000000
_symmetry_Int_Tables_number   1
_chemical_formula_structural   U2Co3O8
_chemical_formula_sum   'U4 Co6 O16'
_cell_volume   329.55341314
_cell_formula_units_Z   2
loop_
 _symmetry_equiv_pos_site_id
 _symmetry_equiv_pos_as_xyz
  1  'x, y, z'
loop_
 _atom_site_type_symbol
 _atom_site_label
 _atom_site_symmetry_multiplicity
 _atom_site_fract_x
 _atom_site_fract_y
 _atom_site_fract_z
 _atom_site_occupancy
  U  U0  1  0.95775948  0.50000000  0.73339745  1
  U  U1  1  0.45775948  0.00000000  0.76660255  1
  U  U2  1  0.04224052  0.50000000  0.26660255  1
  U  U3  1  0.54224052  0.00000000  0.23339745  1
  Co  Co4  1  0.00000000  0.00000000  0.50000000  1
  Co  Co5  1  0.50000000  0.50000000  0.00000000  1
  Co  Co6  1  0.00000000  0.76230916  0.00000000  1
  Co  Co7  1  0.50000000  0.73769084  0.50000000  1
  Co  Co8  1  0.00000000  0.23769084  0.00000000  1
  Co  Co9  1  0.50000000  0.26230916  0.50000000  1
  O  O10  1  0.18178323  0.50000000  0.90271732  1
  O  O11  1  0.68178323  0.00000000  0.59728268  1
  O  O12  1  0.81821677  0.50000000  0.09728268  1
  O  O13  1  0.31821677  0.00000000  0.40271732  1
  O  O14  1  0.29769918  0.50000000  0.41200127  1
  O  O15  1  0.79769918  0.00000000  0.08799873  1
  O  O16  1  0.70230082  0.50000000  0.58799873  1
  O  O17  1  0.20230082  0.00000000  0.91200127  1
  O  O18  1  0.79429165  0.76716335  0.34907491  1
  O  O19  1  0.29429165  0.73283665  0.15092509  1
  O  O20  1  0.29429165  0.26716335  0.15092509  1
  O  O21  1  0.79429165  0.23283665  0.34907491  1
  O  O22  1  0.70570835  0.26716335  0.84907491  1
  O  O23  1  0.20570835  0.76716335  0.65092509  1
  O  O24  1  0.70570835  0.73283665  0.84907491  1
  O  O25  1  0.20570835  0.23283665  0.65092509  1
