# generated using pymatgen
data_KFe(SO4)2
_symmetry_space_group_name_H-M   'P 1'
_cell_length_a   8.31662877
_cell_length_b   5.22306094
_cell_length_c   8.02487990
_cell_angle_alpha   90.00000000
_cell_angle_beta   94.76300837
_cell_angle_gamma   90.00000000
_symmetry_Int_Tables_number   1
_chemical_formula_structural   KFe(SO4)2
_chemical_formula_sum   'K2 Fe2 S4 O16'
_cell_volume   347.38302715
_cell_formula_units_Z   2
loop_
 _symmetry_equiv_pos_site_id
 _symmetry_equiv_pos_as_xyz
  1  'x, y, z'
loop_
 _atom_site_type_symbol
 _atom_site_label
 _atom_site_symmetry_multiplicity
 _atom_site_fract_x
 _atom_site_fract_y
 _atom_site_fract_z
 _atom_site_occupancy
  K  K0  1  0.00000000  0.00000000  0.50000000  1
  K  K1  1  0.50000000  0.50000000  0.50000000  1
  Fe  Fe2  1  0.00000000  0.00000000  0.00000000  1
  Fe  Fe3  1  0.50000000  0.50000000  0.00000000  1
  S  S4  1  0.13179525  0.50000000  0.79771250  1
  S  S5  1  0.86820475  0.50000000  0.20228750  1
  S  S6  1  0.63179525  0.00000000  0.79771250  1
  S  S7  1  0.36820475  0.00000000  0.20228750  1
  O  O8  1  0.73546550  0.50000000  0.06588325  1
  O  O9  1  0.26453450  0.50000000  0.93411675  1
  O  O10  1  0.81302950  0.50000000  0.36989750  1
  O  O11  1  0.18697050  0.50000000  0.63010250  1
  O  O12  1  0.97132200  0.73265400  0.18050025  1
  O  O13  1  0.02867800  0.73265400  0.81949975  1
  O  O14  1  0.02867800  0.26734600  0.81949975  1
  O  O15  1  0.97132200  0.26734600  0.18050025  1
  O  O16  1  0.23546550  0.00000000  0.06588325  1
  O  O17  1  0.76453450  0.00000000  0.93411675  1
  O  O18  1  0.31302950  0.00000000  0.36989750  1
  O  O19  1  0.68697050  0.00000000  0.63010250  1
  O  O20  1  0.47132200  0.23265400  0.18050025  1
  O  O21  1  0.52867800  0.23265400  0.81949975  1
  O  O22  1  0.52867800  0.76734600  0.81949975  1
  O  O23  1  0.47132200  0.76734600  0.18050025  1
