# generated using pymatgen
data_FeMoClO4
_symmetry_space_group_name_H-M   'P 1'
_cell_length_a   6.78433500
_cell_length_b   6.78433500
_cell_length_c   5.62605900
_cell_angle_alpha   90.00000000
_cell_angle_beta   90.00000000
_cell_angle_gamma   90.00000000
_symmetry_Int_Tables_number   1
_chemical_formula_structural   FeMoClO4
_chemical_formula_sum   'Fe2 Mo2 Cl2 O8'
_cell_volume   258.95175064
_cell_formula_units_Z   2
loop_
 _symmetry_equiv_pos_site_id
 _symmetry_equiv_pos_as_xyz
  1  'x, y, z'
loop_
 _atom_site_type_symbol
 _atom_site_label
 _atom_site_symmetry_multiplicity
 _atom_site_fract_x
 _atom_site_fract_y
 _atom_site_fract_z
 _atom_site_occupancy
  Fe  Fe0  1  0.50000000  0.00000000  0.73246100  1
  Fe  Fe1  1  0.00000000  0.50000000  0.26753900  1
  Mo  Mo2  1  0.00000000  0.00000000  0.00000000  1
  Mo  Mo3  1  0.50000000  0.50000000  0.00000000  1
  Cl  Cl4  1  0.00000000  0.50000000  0.66448800  1
  Cl  Cl5  1  0.50000000  0.00000000  0.33551200  1
  O  O6  1  0.00000000  0.21512300  0.18515500  1
  O  O7  1  0.00000000  0.78487700  0.18515500  1
  O  O8  1  0.28487700  0.50000000  0.18515500  1
  O  O9  1  0.71512300  0.50000000  0.18515500  1
  O  O10  1  0.21512300  0.00000000  0.81484500  1
  O  O11  1  0.50000000  0.28487700  0.81484500  1
  O  O12  1  0.78487700  0.00000000  0.81484500  1
  O  O13  1  0.50000000  0.71512300  0.81484500  1
