# generated using pymatgen
data_LiCu4(PO4)3
_symmetry_space_group_name_H-M   'P 1'
_cell_length_a   11.97357800
_cell_length_b   12.16626800
_cell_length_c   7.24084519
_cell_angle_alpha   90.00000000
_cell_angle_beta   119.94362627
_cell_angle_gamma   90.00000000
_symmetry_Int_Tables_number   1
_chemical_formula_structural   LiCu4(PO4)3
_chemical_formula_sum   'Li4 Cu16 P12 O48'
_cell_volume   914.00305036
_cell_formula_units_Z   4
loop_
 _symmetry_equiv_pos_site_id
 _symmetry_equiv_pos_as_xyz
  1  'x, y, z'
loop_
 _atom_site_type_symbol
 _atom_site_label
 _atom_site_symmetry_multiplicity
 _atom_site_fract_x
 _atom_site_fract_y
 _atom_site_fract_z
 _atom_site_occupancy
  Li  Li0  1  0.00000000  0.00405500  0.75000000  1
  Li  Li1  1  0.00000000  0.99594500  0.25000000  1
  Li  Li2  1  0.50000000  0.50405500  0.75000000  1
  Li  Li3  1  0.50000000  0.49594500  0.25000000  1
  Cu  Cu4  1  0.72113700  0.34016900  0.64536800  1
  Cu  Cu5  1  0.72113700  0.65983100  0.14536800  1
  Cu  Cu6  1  0.00000000  0.49346450  0.75000000  1
  Cu  Cu7  1  0.00000000  0.26609150  0.25000000  1
  Cu  Cu8  1  0.00000000  0.50653550  0.25000000  1
  Cu  Cu9  1  0.27886300  0.65983100  0.35463200  1
  Cu  Cu10  1  0.00000000  0.73390850  0.75000000  1
  Cu  Cu11  1  0.27886300  0.34016900  0.85463200  1
  Cu  Cu12  1  0.22113700  0.84016900  0.64536800  1
  Cu  Cu13  1  0.22113700  0.15983100  0.14536800  1
  Cu  Cu14  1  0.50000000  0.99346450  0.75000000  1
  Cu  Cu15  1  0.50000000  0.76609150  0.25000000  1
  Cu  Cu16  1  0.50000000  0.00653550  0.25000000  1
  Cu  Cu17  1  0.77886300  0.15983100  0.35463200  1
  Cu  Cu18  1  0.50000000  0.23390850  0.75000000  1
  Cu  Cu19  1  0.77886300  0.84016900  0.85463200  1
  P  P20  1  0.00000000  0.27797150  0.75000000  1
  P  P21  1  0.72645800  0.38572200  0.11643100  1
  P  P22  1  0.27354200  0.61427800  0.88356900  1
  P  P23  1  0.00000000  0.72202850  0.25000000  1
  P  P24  1  0.27354200  0.38572200  0.38356900  1
  P  P25  1  0.72645800  0.61427800  0.61643100  1
  P  P26  1  0.50000000  0.77797150  0.75000000  1
  P  P27  1  0.22645800  0.88572200  0.11643100  1
  P  P28  1  0.77354200  0.11427800  0.88356900  1
  P  P29  1  0.50000000  0.22202850  0.25000000  1
  P  P30  1  0.77354200  0.88572200  0.38356900  1
  P  P31  1  0.22645800  0.11427800  0.61643100  1
  O  O32  1  0.27491500  0.31488700  0.20849800  1
  O  O33  1  0.90061200  0.63122800  0.24232400  1
  O  O34  1  0.33110400  0.50065300  0.38949700  1
  O  O35  1  0.12821250  0.60770150  0.83307300  1
  O  O36  1  0.12821250  0.39229850  0.33307300  1
  O  O37  1  0.27491500  0.68511300  0.70849800  1
  O  O38  1  0.09938800  0.63122800  0.25767600  1
  O  O39  1  0.66889600  0.50065300  0.11050300  1
  O  O40  1  0.85526350  0.16173650  0.11278100  1
  O  O41  1  0.90061200  0.36877200  0.74232400  1
  O  O42  1  0.33110400  0.49934700  0.88949700  1
  O  O43  1  0.04402550  0.20805350  0.94966900  1
  O  O44  1  0.72508500  0.68511300  0.79150200  1
  O  O45  1  0.95597450  0.79194650  0.05033100  1
  O  O46  1  0.95597450  0.20805350  0.55033100  1
  O  O47  1  0.14473650  0.16173650  0.38721900  1
  O  O48  1  0.85526350  0.83826350  0.61278100  1
  O  O49  1  0.09938800  0.36877200  0.75767600  1
  O  O50  1  0.72508500  0.31488700  0.29150200  1
  O  O51  1  0.87178750  0.39229850  0.16692700  1
  O  O52  1  0.04402550  0.79194650  0.44966900  1
  O  O53  1  0.87178750  0.60770150  0.66692700  1
  O  O54  1  0.14473650  0.83826350  0.88721900  1
  O  O55  1  0.66889600  0.49934700  0.61050300  1
  O  O56  1  0.77491500  0.81488700  0.20849800  1
  O  O57  1  0.40061200  0.13122800  0.24232400  1
  O  O58  1  0.83110400  0.00065300  0.38949700  1
  O  O59  1  0.62821250  0.10770150  0.83307300  1
  O  O60  1  0.62821250  0.89229850  0.33307300  1
  O  O61  1  0.77491500  0.18511300  0.70849800  1
  O  O62  1  0.59938800  0.13122800  0.25767600  1
  O  O63  1  0.16889600  0.00065300  0.11050300  1
  O  O64  1  0.35526350  0.66173650  0.11278100  1
  O  O65  1  0.40061200  0.86877200  0.74232400  1
  O  O66  1  0.83110400  0.99934700  0.88949700  1
  O  O67  1  0.54402550  0.70805350  0.94966900  1
  O  O68  1  0.22508500  0.18511300  0.79150200  1
  O  O69  1  0.45597450  0.29194650  0.05033100  1
  O  O70  1  0.45597450  0.70805350  0.55033100  1
  O  O71  1  0.64473650  0.66173650  0.38721900  1
  O  O72  1  0.35526350  0.33826350  0.61278100  1
  O  O73  1  0.59938800  0.86877200  0.75767600  1
  O  O74  1  0.22508500  0.81488700  0.29150200  1
  O  O75  1  0.37178750  0.89229850  0.16692700  1
  O  O76  1  0.54402550  0.29194650  0.44966900  1
  O  O77  1  0.37178750  0.10770150  0.66692700  1
  O  O78  1  0.64473650  0.33826350  0.88721900  1
  O  O79  1  0.16889600  0.99934700  0.61050300  1
