# generated using pymatgen
data_NaB15
_symmetry_space_group_name_H-M   'P 1'
_cell_length_a   5.84737600
_cell_length_b   8.41652600
_cell_length_c   10.30087800
_cell_angle_alpha   90.00000000
_cell_angle_beta   90.00000000
_cell_angle_gamma   90.00000000
_symmetry_Int_Tables_number   1
_chemical_formula_structural   NaB15
_chemical_formula_sum   'Na4 B60'
_cell_volume   506.95350941
_cell_formula_units_Z   4
loop_
 _symmetry_equiv_pos_site_id
 _symmetry_equiv_pos_as_xyz
  1  'x, y, z'
loop_
 _atom_site_type_symbol
 _atom_site_label
 _atom_site_symmetry_multiplicity
 _atom_site_fract_x
 _atom_site_fract_y
 _atom_site_fract_z
 _atom_site_occupancy
  Na  Na0  1  0.00000000  0.33878200  0.75000000  1
  Na  Na1  1  0.00000000  0.66121800  0.25000000  1
  Na  Na2  1  0.50000000  0.83878200  0.25000000  1
  Na  Na3  1  0.50000000  0.16121800  0.75000000  1
  B  B4  1  0.00000000  0.74699600  0.75000000  1
  B  B5  1  0.00000000  0.25300400  0.25000000  1
  B  B6  1  0.50000000  0.34700050  0.10122350  1
  B  B7  1  0.50000000  0.65299950  0.89877650  1
  B  B8  1  0.00000000  0.84700050  0.89877650  1
  B  B9  1  0.00000000  0.15299950  0.10122350  1
  B  B10  1  0.50000000  0.54629350  0.16480350  1
  B  B11  1  0.50000000  0.45370650  0.83519650  1
  B  B12  1  0.50000000  0.54629350  0.33519650  1
  B  B13  1  0.50000000  0.45370650  0.66480350  1
  B  B14  1  0.00000000  0.60617950  0.64528950  1
  B  B15  1  0.00000000  0.39382050  0.35471050  1
  B  B16  1  0.00000000  0.60617950  0.85471050  1
  B  B17  1  0.00000000  0.39382050  0.14528950  1
  B  B18  1  0.33932950  0.66538950  0.04787950  1
  B  B19  1  0.33932950  0.33461050  0.95212050  1
  B  B20  1  0.16067050  0.16538950  0.95212050  1
  B  B21  1  0.16067050  0.83461050  0.04787950  1
  B  B22  1  0.66067050  0.33461050  0.95212050  1
  B  B23  1  0.66067050  0.66538950  0.04787950  1
  B  B24  1  0.83932950  0.83461050  0.04787950  1
  B  B25  1  0.83932950  0.16538950  0.95212050  1
  B  B26  1  0.25235150  0.46329750  0.08105550  1
  B  B27  1  0.25235150  0.53670250  0.91894450  1
  B  B28  1  0.74764850  0.46329750  0.41894450  1
  B  B29  1  0.74764850  0.53670250  0.58105550  1
  B  B30  1  0.74764850  0.53670250  0.91894450  1
  B  B31  1  0.74764850  0.46329750  0.08105550  1
  B  B32  1  0.25235150  0.53670250  0.58105550  1
  B  B33  1  0.25235150  0.46329750  0.41894450  1
  B  B34  1  0.50000000  0.24699600  0.25000000  1
  B  B35  1  0.50000000  0.75300400  0.75000000  1
  B  B36  1  0.00000000  0.84700050  0.60122350  1
  B  B37  1  0.00000000  0.15299950  0.39877650  1
  B  B38  1  0.50000000  0.34700050  0.39877650  1
  B  B39  1  0.50000000  0.65299950  0.60122350  1
  B  B40  1  0.00000000  0.04629350  0.66480350  1
  B  B41  1  0.00000000  0.95370650  0.33519650  1
  B  B42  1  0.00000000  0.04629350  0.83519650  1
  B  B43  1  0.00000000  0.95370650  0.16480350  1
  B  B44  1  0.50000000  0.10617950  0.14528950  1
  B  B45  1  0.50000000  0.89382050  0.85471050  1
  B  B46  1  0.50000000  0.10617950  0.35471050  1
  B  B47  1  0.50000000  0.89382050  0.64528950  1
  B  B48  1  0.83932950  0.16538950  0.54787950  1
  B  B49  1  0.83932950  0.83461050  0.45212050  1
  B  B50  1  0.66067050  0.66538950  0.45212050  1
  B  B51  1  0.66067050  0.33461050  0.54787950  1
  B  B52  1  0.16067050  0.83461050  0.45212050  1
  B  B53  1  0.16067050  0.16538950  0.54787950  1
  B  B54  1  0.33932950  0.33461050  0.54787950  1
  B  B55  1  0.33932950  0.66538950  0.45212050  1
  B  B56  1  0.75235150  0.96329750  0.58105550  1
  B  B57  1  0.75235150  0.03670250  0.41894450  1
  B  B58  1  0.24764850  0.96329750  0.91894450  1
  B  B59  1  0.24764850  0.03670250  0.08105550  1
  B  B60  1  0.24764850  0.03670250  0.41894450  1
  B  B61  1  0.24764850  0.96329750  0.58105550  1
  B  B62  1  0.75235150  0.03670250  0.08105550  1
  B  B63  1  0.75235150  0.96329750  0.91894450  1
