# generated using pymatgen
data_Ba3CuRu2O9
_symmetry_space_group_name_H-M   'P 1'
_cell_length_a   5.76275800
_cell_length_b   10.34669000
_cell_length_c   14.40244500
_cell_angle_alpha   90.00000000
_cell_angle_beta   90.00000000
_cell_angle_gamma   90.00000000
_symmetry_Int_Tables_number   1
_chemical_formula_structural   Ba3CuRu2O9
_chemical_formula_sum   'Ba12 Cu4 Ru8 O36'
_cell_volume   858.75256050
_cell_formula_units_Z   4
loop_
 _symmetry_equiv_pos_site_id
 _symmetry_equiv_pos_as_xyz
  1  'x, y, z'
loop_
 _atom_site_type_symbol
 _atom_site_label
 _atom_site_symmetry_multiplicity
 _atom_site_fract_x
 _atom_site_fract_y
 _atom_site_fract_z
 _atom_site_occupancy
  Ba  Ba0  1  0.00000000  0.32188900  0.09452700  1
  Ba  Ba1  1  0.50000000  0.17811100  0.90547300  1
  Ba  Ba2  1  0.50000000  0.17811100  0.59452700  1
  Ba  Ba3  1  0.00000000  0.32188900  0.40547300  1
  Ba  Ba4  1  0.00000000  0.01722100  0.75000000  1
  Ba  Ba5  1  0.50000000  0.48277900  0.25000000  1
  Ba  Ba6  1  0.50000000  0.82188900  0.09452700  1
  Ba  Ba7  1  0.00000000  0.67811100  0.90547300  1
  Ba  Ba8  1  0.00000000  0.67811100  0.59452700  1
  Ba  Ba9  1  0.50000000  0.82188900  0.40547300  1
  Ba  Ba10  1  0.50000000  0.51722100  0.75000000  1
  Ba  Ba11  1  0.00000000  0.98277900  0.25000000  1
  Cu  Cu12  1  0.00000000  0.00000000  0.00000000  1
  Cu  Cu13  1  0.00000000  0.00000000  0.50000000  1
  Cu  Cu14  1  0.50000000  0.50000000  0.00000000  1
  Cu  Cu15  1  0.50000000  0.50000000  0.50000000  1
  Ru  Ru16  1  0.00000000  0.35182400  0.84785100  1
  Ru  Ru17  1  0.50000000  0.14817600  0.15214900  1
  Ru  Ru18  1  0.50000000  0.14817600  0.34785100  1
  Ru  Ru19  1  0.00000000  0.35182400  0.65214900  1
  Ru  Ru20  1  0.50000000  0.85182400  0.84785100  1
  Ru  Ru21  1  0.00000000  0.64817600  0.15214900  1
  Ru  Ru22  1  0.00000000  0.64817600  0.34785100  1
  Ru  Ru23  1  0.50000000  0.85182400  0.65214900  1
  O  O24  1  0.25373300  0.43377000  0.91063200  1
  O  O25  1  0.75373300  0.06623000  0.08936800  1
  O  O26  1  0.24626700  0.06623000  0.41063200  1
  O  O27  1  0.74626700  0.43377000  0.58936800  1
  O  O28  1  0.24626700  0.06623000  0.08936800  1
  O  O29  1  0.74626700  0.43377000  0.91063200  1
  O  O30  1  0.25373300  0.43377000  0.58936800  1
  O  O31  1  0.75373300  0.06623000  0.41063200  1
  O  O32  1  0.50000000  0.30284900  0.08116600  1
  O  O33  1  0.00000000  0.19715100  0.91883400  1
  O  O34  1  0.00000000  0.19715100  0.58116600  1
  O  O35  1  0.50000000  0.30284900  0.41883400  1
  O  O36  1  0.00000000  0.49832600  0.25000000  1
  O  O37  1  0.50000000  0.00167400  0.75000000  1
  O  O38  1  0.72527750  0.22343250  0.25000000  1
  O  O39  1  0.22527750  0.27656750  0.75000000  1
  O  O40  1  0.77472250  0.27656750  0.75000000  1
  O  O41  1  0.27472250  0.22343250  0.25000000  1
  O  O42  1  0.75373300  0.93377000  0.91063200  1
  O  O43  1  0.25373300  0.56623000  0.08936800  1
  O  O44  1  0.74626700  0.56623000  0.41063200  1
  O  O45  1  0.24626700  0.93377000  0.58936800  1
  O  O46  1  0.74626700  0.56623000  0.08936800  1
  O  O47  1  0.24626700  0.93377000  0.91063200  1
  O  O48  1  0.75373300  0.93377000  0.58936800  1
  O  O49  1  0.25373300  0.56623000  0.41063200  1
  O  O50  1  0.00000000  0.80284900  0.08116600  1
  O  O51  1  0.50000000  0.69715100  0.91883400  1
  O  O52  1  0.50000000  0.69715100  0.58116600  1
  O  O53  1  0.00000000  0.80284900  0.41883400  1
  O  O54  1  0.50000000  0.99832600  0.25000000  1
  O  O55  1  0.00000000  0.50167400  0.75000000  1
  O  O56  1  0.22527750  0.72343250  0.25000000  1
  O  O57  1  0.72527750  0.77656750  0.75000000  1
  O  O58  1  0.27472250  0.77656750  0.75000000  1
  O  O59  1  0.77472250  0.72343250  0.25000000  1
