# generated using pymatgen
data_Cr2CuTe4
_symmetry_space_group_name_H-M   'P 1'
_cell_length_a   11.19643600
_cell_length_b   11.19643600
_cell_length_c   11.19643600
_cell_angle_alpha   90.00000000
_cell_angle_beta   90.00000000
_cell_angle_gamma   90.00000000
_symmetry_Int_Tables_number   1
_chemical_formula_structural   Cr2CuTe4
_chemical_formula_sum   'Cr16 Cu8 Te32'
_cell_volume   1403.58722227
_cell_formula_units_Z   8
loop_
 _symmetry_equiv_pos_site_id
 _symmetry_equiv_pos_as_xyz
  1  'x, y, z'
loop_
 _atom_site_type_symbol
 _atom_site_label
 _atom_site_symmetry_multiplicity
 _atom_site_fract_x
 _atom_site_fract_y
 _atom_site_fract_z
 _atom_site_occupancy
  Cr  Cr0  1  0.37500000  0.62500000  0.37500000  1
  Cr  Cr1  1  0.37500000  0.87500000  0.12500000  1
  Cr  Cr2  1  0.12500000  0.87500000  0.37500000  1
  Cr  Cr3  1  0.12500000  0.62500000  0.12500000  1
  Cr  Cr4  1  0.37500000  0.12500000  0.87500000  1
  Cr  Cr5  1  0.37500000  0.37500000  0.62500000  1
  Cr  Cr6  1  0.12500000  0.37500000  0.87500000  1
  Cr  Cr7  1  0.12500000  0.12500000  0.62500000  1
  Cr  Cr8  1  0.87500000  0.62500000  0.87500000  1
  Cr  Cr9  1  0.87500000  0.87500000  0.62500000  1
  Cr  Cr10  1  0.62500000  0.87500000  0.87500000  1
  Cr  Cr11  1  0.62500000  0.62500000  0.62500000  1
  Cr  Cr12  1  0.87500000  0.12500000  0.37500000  1
  Cr  Cr13  1  0.87500000  0.37500000  0.12500000  1
  Cr  Cr14  1  0.62500000  0.37500000  0.37500000  1
  Cr  Cr15  1  0.62500000  0.12500000  0.12500000  1
  Cu  Cu16  1  0.25000000  0.25000000  0.25000000  1
  Cu  Cu17  1  0.50000000  0.00000000  0.50000000  1
  Cu  Cu18  1  0.25000000  0.75000000  0.75000000  1
  Cu  Cu19  1  0.50000000  0.50000000  0.00000000  1
  Cu  Cu20  1  0.75000000  0.25000000  0.75000000  1
  Cu  Cu21  1  0.00000000  0.00000000  0.00000000  1
  Cu  Cu22  1  0.75000000  0.75000000  0.25000000  1
  Cu  Cu23  1  0.00000000  0.50000000  0.50000000  1
  Te  Te24  1  0.13213600  0.86786400  0.13213600  1
  Te  Te25  1  0.11786400  0.11786400  0.38213600  1
  Te  Te26  1  0.38213600  0.11786400  0.11786400  1
  Te  Te27  1  0.38213600  0.38213600  0.38213600  1
  Te  Te28  1  0.86786400  0.13213600  0.13213600  1
  Te  Te29  1  0.36786400  0.86786400  0.36786400  1
  Te  Te30  1  0.63213600  0.13213600  0.36786400  1
  Te  Te31  1  0.11786400  0.38213600  0.11786400  1
  Te  Te32  1  0.13213600  0.36786400  0.63213600  1
  Te  Te33  1  0.11786400  0.61786400  0.88213600  1
  Te  Te34  1  0.38213600  0.61786400  0.61786400  1
  Te  Te35  1  0.38213600  0.88213600  0.88213600  1
  Te  Te36  1  0.86786400  0.63213600  0.63213600  1
  Te  Te37  1  0.36786400  0.36786400  0.86786400  1
  Te  Te38  1  0.63213600  0.63213600  0.86786400  1
  Te  Te39  1  0.11786400  0.88213600  0.61786400  1
  Te  Te40  1  0.63213600  0.86786400  0.63213600  1
  Te  Te41  1  0.61786400  0.11786400  0.88213600  1
  Te  Te42  1  0.88213600  0.11786400  0.61786400  1
  Te  Te43  1  0.88213600  0.38213600  0.88213600  1
  Te  Te44  1  0.36786400  0.13213600  0.63213600  1
  Te  Te45  1  0.86786400  0.86786400  0.86786400  1
  Te  Te46  1  0.13213600  0.13213600  0.86786400  1
  Te  Te47  1  0.61786400  0.38213600  0.61786400  1
  Te  Te48  1  0.63213600  0.36786400  0.13213600  1
  Te  Te49  1  0.61786400  0.61786400  0.38213600  1
  Te  Te50  1  0.88213600  0.61786400  0.11786400  1
  Te  Te51  1  0.88213600  0.88213600  0.38213600  1
  Te  Te52  1  0.36786400  0.63213600  0.13213600  1
  Te  Te53  1  0.86786400  0.36786400  0.36786400  1
  Te  Te54  1  0.13213600  0.63213600  0.36786400  1
  Te  Te55  1  0.61786400  0.88213600  0.11786400  1
