# generated using pymatgen
data_Ba2(Ni3B2)3
_symmetry_space_group_name_H-M   'P 1'
_cell_length_a   10.03969425
_cell_length_b   10.03969425
_cell_length_c   14.48778586
_cell_angle_alpha   90.00000000
_cell_angle_beta   90.00000000
_cell_angle_gamma   120.00000000
_symmetry_Int_Tables_number   1
_chemical_formula_structural   Ba2(Ni3B2)3
_chemical_formula_sum   'Ba12 Ni54 B36'
_cell_volume   1264.65953805
_cell_formula_units_Z   6
loop_
 _symmetry_equiv_pos_site_id
 _symmetry_equiv_pos_as_xyz
  1  'x, y, z'
loop_
 _atom_site_type_symbol
 _atom_site_label
 _atom_site_symmetry_multiplicity
 _atom_site_fract_x
 _atom_site_fract_y
 _atom_site_fract_z
 _atom_site_occupancy
  Ba  Ba0  1  0.33333333  0.66666667  0.28953767  1
  Ba  Ba1  1  0.33333333  0.66666667  0.54379567  1
  Ba  Ba2  1  0.33333333  0.66666667  0.04379567  1
  Ba  Ba3  1  0.33333333  0.66666667  0.78953767  1
  Ba  Ba4  1  0.00000000  0.00000000  0.62287100  1
  Ba  Ba5  1  1.00000000  0.00000000  0.87712900  1
  Ba  Ba6  1  0.00000000  0.00000000  0.37712900  1
  Ba  Ba7  1  0.00000000  0.00000000  0.12287100  1
  Ba  Ba8  1  0.66666667  0.33333333  0.95620433  1
  Ba  Ba9  1  0.66666667  0.33333333  0.21046233  1
  Ba  Ba10  1  0.66666667  0.33333333  0.71046233  1
  Ba  Ba11  1  0.66666667  0.33333333  0.45620433  1
  Ni  Ni12  1  0.68333767  0.82547533  0.24935233  1
  Ni  Ni13  1  0.19119567  0.84119133  0.91731433  1
  Ni  Ni14  1  0.14213767  0.31666233  0.24935233  1
  Ni  Ni15  1  0.15880867  0.35000433  0.91731433  1
  Ni  Ni16  1  0.49214200  0.47547100  0.08398100  1
  Ni  Ni17  1  0.98332900  0.50785800  0.08398100  1
  Ni  Ni18  1  0.52452900  0.01667100  0.08398100  1
  Ni  Ni19  1  0.47547100  0.49214200  0.41601900  1
  Ni  Ni20  1  0.01667100  0.52452900  0.41601900  1
  Ni  Ni21  1  0.50785800  0.98332900  0.41601900  1
  Ni  Ni22  1  0.20116767  0.33333333  0.08333333  1
  Ni  Ni23  1  0.66666667  0.86783433  0.08333333  1
  Ni  Ni24  1  0.13216567  0.79883233  0.08333333  1
  Ni  Ni25  1  0.46549900  0.00000000  0.25000000  1
  Ni  Ni26  1  0.00000000  0.46549900  0.25000000  1
  Ni  Ni27  1  0.53450100  0.53450100  0.25000000  1
  Ni  Ni28  1  0.64999567  0.80880433  0.91731433  1
  Ni  Ni29  1  0.17452467  0.85786233  0.24935233  1
  Ni  Ni30  1  0.35000433  0.15880867  0.58268567  1
  Ni  Ni31  1  0.85786233  0.17452467  0.25064767  1
  Ni  Ni32  1  0.80880433  0.64999567  0.58268567  1
  Ni  Ni33  1  0.82547533  0.68333767  0.25064767  1
  Ni  Ni34  1  0.15880867  0.80880433  0.41731433  1
  Ni  Ni35  1  0.64999567  0.84119133  0.41731433  1
  Ni  Ni36  1  0.19119567  0.35000433  0.41731433  1
  Ni  Ni37  1  0.14213767  0.82547533  0.74935233  1
  Ni  Ni38  1  0.68333767  0.85786233  0.74935233  1
  Ni  Ni39  1  0.17452467  0.31666233  0.74935233  1
  Ni  Ni40  1  0.86783433  0.66666667  0.41666667  1
  Ni  Ni41  1  0.33333333  0.20116767  0.41666667  1
  Ni  Ni42  1  0.79883233  0.13216567  0.41666667  1
  Ni  Ni43  1  0.13216567  0.33333333  0.58333333  1
  Ni  Ni44  1  0.66666667  0.79883233  0.58333333  1
  Ni  Ni45  1  0.20116767  0.86783433  0.58333333  1
  Ni  Ni46  1  0.31666233  0.14213767  0.25064767  1
  Ni  Ni47  1  0.84119133  0.19119567  0.58268567  1
  Ni  Ni48  1  0.01667100  0.49214200  0.91601900  1
  Ni  Ni49  1  0.52452900  0.50785800  0.58398100  1
  Ni  Ni50  1  0.47547100  0.98332900  0.91601900  1
  Ni  Ni51  1  0.49214200  0.01667100  0.58398100  1
  Ni  Ni52  1  0.82547533  0.14213767  0.75064767  1
  Ni  Ni53  1  0.31666233  0.17452467  0.75064767  1
  Ni  Ni54  1  0.85786233  0.68333767  0.75064767  1
  Ni  Ni55  1  0.80880433  0.15880867  0.08268567  1
  Ni  Ni56  1  0.35000433  0.19119567  0.08268567  1
  Ni  Ni57  1  0.84119133  0.64999567  0.08268567  1
  Ni  Ni58  1  0.53450100  0.00000000  0.75000000  1
  Ni  Ni59  1  0.00000000  0.53450100  0.75000000  1
  Ni  Ni60  1  0.46549900  0.46549900  0.75000000  1
  Ni  Ni61  1  0.79883233  0.66666667  0.91666667  1
  Ni  Ni62  1  0.33333333  0.13216567  0.91666667  1
  Ni  Ni63  1  0.86783433  0.20116767  0.91666667  1
  Ni  Ni64  1  0.98332900  0.47547100  0.58398100  1
  Ni  Ni65  1  0.50785800  0.52452900  0.91601900  1
  B  B66  1  0.99785433  0.65540367  0.18991667  1
  B  B67  1  0.34459633  0.34245067  0.18991667  1
  B  B68  1  0.65754933  0.00214567  0.18991667  1
  B  B69  1  0.34245067  0.34459633  0.31008333  1
  B  B70  1  0.66881233  0.67792967  0.14341667  1
  B  B71  1  0.32207033  0.99088267  0.14341667  1
  B  B72  1  0.00911733  0.33118767  0.14341667  1
  B  B73  1  0.32421600  0.98873700  0.02325000  1
  B  B74  1  0.01126300  0.33547900  0.02325000  1
  B  B75  1  0.66452100  0.67578400  0.02325000  1
  B  B76  1  0.65540367  0.99785433  0.31008333  1
  B  B77  1  0.00214567  0.65754933  0.31008333  1
  B  B78  1  0.66452100  0.98873700  0.52325000  1
  B  B79  1  0.01126300  0.67578400  0.52325000  1
  B  B80  1  0.32421600  0.33547900  0.52325000  1
  B  B81  1  0.00911733  0.67792967  0.64341667  1
  B  B82  1  0.33547900  0.01126300  0.47675000  1
  B  B83  1  0.98873700  0.32421600  0.47675000  1
  B  B84  1  0.67578400  0.66452100  0.47675000  1
  B  B85  1  0.99088267  0.32207033  0.35658333  1
  B  B86  1  0.67792967  0.66881233  0.35658333  1
  B  B87  1  0.33118767  0.00911733  0.35658333  1
  B  B88  1  0.32207033  0.33118767  0.64341667  1
  B  B89  1  0.66881233  0.99088267  0.64341667  1
  B  B90  1  0.33118767  0.32207033  0.85658333  1
  B  B91  1  0.67792967  0.00911733  0.85658333  1
  B  B92  1  0.99088267  0.66881233  0.85658333  1
  B  B93  1  0.67578400  0.01126300  0.97675000  1
  B  B94  1  0.00214567  0.34459633  0.81008333  1
  B  B95  1  0.65540367  0.65754933  0.81008333  1
  B  B96  1  0.34245067  0.99785433  0.81008333  1
  B  B97  1  0.65754933  0.65540367  0.68991667  1
  B  B98  1  0.34459633  0.00214567  0.68991667  1
  B  B99  1  0.99785433  0.34245067  0.68991667  1
  B  B100  1  0.98873700  0.66452100  0.97675000  1
  B  B101  1  0.33547900  0.32421600  0.97675000  1
