# generated using pymatgen
data_CrClO
_symmetry_space_group_name_H-M   'P 1'
_cell_length_a   3.24860271
_cell_length_b   3.93994211
_cell_length_c   8.50672539
_cell_angle_alpha   90.00000000
_cell_angle_beta   90.00000000
_cell_angle_gamma   90.00000000
_symmetry_Int_Tables_number   1
_chemical_formula_structural   CrClO
_chemical_formula_sum   'Cr2 Cl2 O2'
_cell_volume   108.88018656
_cell_formula_units_Z   2
loop_
 _symmetry_equiv_pos_site_id
 _symmetry_equiv_pos_as_xyz
  1  'x, y, z'
loop_
 _atom_site_type_symbol
 _atom_site_label
 _atom_site_symmetry_multiplicity
 _atom_site_fract_x
 _atom_site_fract_y
 _atom_site_fract_z
 _atom_site_occupancy
  Cr  Cr0  1  0.00000000  0.00000000  0.10101858  1
  Cr  Cr1  1  0.50000000  0.50000000  0.89898142  1
  Cl  Cl2  1  0.00000000  0.50000000  0.69724316  1
  Cl  Cl3  1  0.50000000  0.00000000  0.30275684  1
  O  O4  1  0.50000000  0.00000000  0.95117751  1
  O  O5  1  0.00000000  0.50000000  0.04882249  1
