# generated using pymatgen
data_U3Fe2Si7
_symmetry_space_group_name_H-M   'P 1'
_cell_length_a   3.99471600
_cell_length_b   24.21325000
_cell_length_c   4.02515500
_cell_angle_alpha   90.00000000
_cell_angle_beta   90.00000000
_cell_angle_gamma   90.00000000
_symmetry_Int_Tables_number   1
_chemical_formula_structural   U3Fe2Si7
_chemical_formula_sum   'U6 Fe4 Si14'
_cell_volume   389.33334756
_cell_formula_units_Z   2
loop_
 _symmetry_equiv_pos_site_id
 _symmetry_equiv_pos_as_xyz
  1  'x, y, z'
loop_
 _atom_site_type_symbol
 _atom_site_label
 _atom_site_symmetry_multiplicity
 _atom_site_fract_x
 _atom_site_fract_y
 _atom_site_fract_z
 _atom_site_occupancy
  U  U0  1  0.00000000  0.00000000  0.50000000  1
  U  U1  1  0.00000000  0.68484600  0.00000000  1
  U  U2  1  0.50000000  0.81515400  0.00000000  1
  U  U3  1  0.50000000  0.50000000  0.50000000  1
  U  U4  1  0.50000000  0.18484600  0.00000000  1
  U  U5  1  0.00000000  0.31515400  0.00000000  1
  Fe  Fe6  1  0.00000000  0.87227100  0.50000000  1
  Fe  Fe7  1  0.50000000  0.62772900  0.50000000  1
  Fe  Fe8  1  0.50000000  0.37227100  0.50000000  1
  Fe  Fe9  1  0.00000000  0.12772900  0.50000000  1
  Si  Si10  1  0.00000000  0.77816800  0.50000000  1
  Si  Si11  1  0.50000000  0.72183200  0.50000000  1
  Si  Si12  1  0.00000000  0.91343100  0.00000000  1
  Si  Si13  1  0.50000000  0.58656900  0.00000000  1
  Si  Si14  1  0.00000000  0.58600900  0.50000000  1
  Si  Si15  1  0.50000000  0.00000000  0.00000000  1
  Si  Si16  1  0.50000000  0.91399100  0.50000000  1
  Si  Si17  1  0.50000000  0.27816800  0.50000000  1
  Si  Si18  1  0.00000000  0.22183200  0.50000000  1
  Si  Si19  1  0.50000000  0.41343100  0.00000000  1
  Si  Si20  1  0.00000000  0.08656900  0.00000000  1
  Si  Si21  1  0.50000000  0.08600900  0.50000000  1
  Si  Si22  1  0.00000000  0.50000000  0.00000000  1
  Si  Si23  1  0.00000000  0.41399100  0.50000000  1
