# generated using pymatgen
data_CePt
_symmetry_space_group_name_H-M   'P 1'
_cell_length_a   3.85541400
_cell_length_b   11.09760600
_cell_length_c   4.42833900
_cell_angle_alpha   90.00000000
_cell_angle_beta   90.00000000
_cell_angle_gamma   90.00000000
_symmetry_Int_Tables_number   1
_chemical_formula_structural   CePt
_chemical_formula_sum   'Ce4 Pt4'
_cell_volume   189.47031701
_cell_formula_units_Z   4
loop_
 _symmetry_equiv_pos_site_id
 _symmetry_equiv_pos_as_xyz
  1  'x, y, z'
loop_
 _atom_site_type_symbol
 _atom_site_label
 _atom_site_symmetry_multiplicity
 _atom_site_fract_x
 _atom_site_fract_y
 _atom_site_fract_z
 _atom_site_occupancy
  Ce  Ce0  1  0.50000000  0.63638700  0.25000000  1
  Ce  Ce1  1  0.00000000  0.86361300  0.75000000  1
  Ce  Ce2  1  0.00000000  0.13638700  0.25000000  1
  Ce  Ce3  1  0.50000000  0.36361300  0.75000000  1
  Pt  Pt4  1  0.50000000  0.90529000  0.25000000  1
  Pt  Pt5  1  0.00000000  0.59471000  0.75000000  1
  Pt  Pt6  1  0.00000000  0.40529000  0.25000000  1
  Pt  Pt7  1  0.50000000  0.09471000  0.75000000  1
