# generated using pymatgen
data_Na2GaCuF7
_symmetry_space_group_name_H-M   'P 1'
_cell_length_a   12.56679600
_cell_length_b   7.42263800
_cell_length_c   13.00354172
_cell_angle_alpha   90.00000000
_cell_angle_beta   109.81608850
_cell_angle_gamma   90.00000000
_symmetry_Int_Tables_number   1
_chemical_formula_structural   Na2GaCuF7
_chemical_formula_sum   'Na16 Ga8 Cu8 F56'
_cell_volume   1141.13012243
_cell_formula_units_Z   8
loop_
 _symmetry_equiv_pos_site_id
 _symmetry_equiv_pos_as_xyz
  1  'x, y, z'
loop_
 _atom_site_type_symbol
 _atom_site_label
 _atom_site_symmetry_multiplicity
 _atom_site_fract_x
 _atom_site_fract_y
 _atom_site_fract_z
 _atom_site_occupancy
  Na  Na0  1  0.74742400  0.46666000  0.75252600  1
  Na  Na1  1  0.74742400  0.53334000  0.25252600  1
  Na  Na2  1  0.00000000  0.73066300  0.75000000  1
  Na  Na3  1  0.75257600  0.96666000  0.74747400  1
  Na  Na4  1  0.50000000  0.00000000  0.50000000  1
  Na  Na5  1  0.75257600  0.03334000  0.24747400  1
  Na  Na6  1  0.50000000  0.76933700  0.25000000  1
  Na  Na7  1  0.00000000  0.50000000  0.00000000  1
  Na  Na8  1  0.24742400  0.96666000  0.75252600  1
  Na  Na9  1  0.24742400  0.03334000  0.25252600  1
  Na  Na10  1  0.50000000  0.23066300  0.75000000  1
  Na  Na11  1  0.25257600  0.46666000  0.74747400  1
  Na  Na12  1  0.00000000  0.50000000  0.50000000  1
  Na  Na13  1  0.25257600  0.53334000  0.24747400  1
  Na  Na14  1  0.00000000  0.26933700  0.25000000  1
  Na  Na15  1  0.50000000  0.00000000  0.00000000  1
  Ga  Ga16  1  0.50000000  0.24460900  0.25000000  1
  Ga  Ga17  1  0.00000000  0.25539100  0.75000000  1
  Ga  Ga18  1  0.25000000  0.75000000  0.00000000  1
  Ga  Ga19  1  0.75000000  0.75000000  0.50000000  1
  Ga  Ga20  1  0.00000000  0.74460900  0.25000000  1
  Ga  Ga21  1  0.50000000  0.75539100  0.75000000  1
  Ga  Ga22  1  0.75000000  0.25000000  0.00000000  1
  Ga  Ga23  1  0.25000000  0.25000000  0.50000000  1
  Cu  Cu24  1  0.00000000  0.00000000  0.00000000  1
  Cu  Cu25  1  0.00000000  0.00000000  0.50000000  1
  Cu  Cu26  1  0.75000000  0.25000000  0.50000000  1
  Cu  Cu27  1  0.75000000  0.75000000  0.00000000  1
  Cu  Cu28  1  0.50000000  0.50000000  0.00000000  1
  Cu  Cu29  1  0.50000000  0.50000000  0.50000000  1
  Cu  Cu30  1  0.25000000  0.75000000  0.50000000  1
  Cu  Cu31  1  0.25000000  0.25000000  0.00000000  1
  F  F32  1  0.54807400  0.56648900  0.67519900  1
  F  F33  1  0.12524750  0.82616350  0.55073500  1
  F  F34  1  0.70946050  0.79737250  0.34358000  1
  F  F35  1  0.84219800  0.25696300  0.65455200  1
  F  F36  1  0.90937050  0.80983150  0.53479400  1
  F  F37  1  0.37475250  0.67383650  0.44926500  1
  F  F38  1  0.59062950  0.69016850  0.46520600  1
  F  F39  1  0.40937050  0.69016850  0.03479400  1
  F  F40  1  0.20946050  0.70262750  0.84358000  1
  F  F41  1  0.87475250  0.82616350  0.94926500  1
  F  F42  1  0.29053950  0.79737250  0.15642000  1
  F  F43  1  0.95192600  0.93351100  0.32480100  1
  F  F44  1  0.09062950  0.80983150  0.96520600  1
  F  F45  1  0.84219800  0.74303700  0.15455200  1
  F  F46  1  0.79562200  0.51942500  0.46815900  1
  F  F47  1  0.70437800  0.01942500  0.03184100  1
  F  F48  1  0.65780200  0.75696300  0.84544800  1
  F  F49  1  0.54614350  0.05443750  0.17407000  1
  F  F50  1  0.04614350  0.44556250  0.67407000  1
  F  F51  1  0.45192600  0.56648900  0.82480100  1
  F  F52  1  0.70437800  0.98057500  0.53184100  1
  F  F53  1  0.45385650  0.05443750  0.32593000  1
  F  F54  1  0.79053950  0.70262750  0.65642000  1
  F  F55  1  0.79562200  0.48057500  0.96815900  1
  F  F56  1  0.65780200  0.24303700  0.34544800  1
  F  F57  1  0.95385650  0.44556250  0.82593000  1
  F  F58  1  0.62524750  0.67383650  0.05073500  1
  F  F59  1  0.04807400  0.93351100  0.17519900  1
  F  F60  1  0.04807400  0.06648900  0.67519900  1
  F  F61  1  0.62524750  0.32616350  0.55073500  1
  F  F62  1  0.20946050  0.29737250  0.34358000  1
  F  F63  1  0.34219800  0.75696300  0.65455200  1
  F  F64  1  0.40937050  0.30983150  0.53479400  1
  F  F65  1  0.87475250  0.17383650  0.44926500  1
  F  F66  1  0.09062950  0.19016850  0.46520600  1
  F  F67  1  0.90937050  0.19016850  0.03479400  1
  F  F68  1  0.70946050  0.20262750  0.84358000  1
  F  F69  1  0.37475250  0.32616350  0.94926500  1
  F  F70  1  0.79053950  0.29737250  0.15642000  1
  F  F71  1  0.45192600  0.43351100  0.32480100  1
  F  F72  1  0.59062950  0.30983150  0.96520600  1
  F  F73  1  0.34219800  0.24303700  0.15455200  1
  F  F74  1  0.29562200  0.01942500  0.46815900  1
  F  F75  1  0.20437800  0.51942500  0.03184100  1
  F  F76  1  0.15780200  0.25696300  0.84544800  1
  F  F77  1  0.04614350  0.55443750  0.17407000  1
  F  F78  1  0.54614350  0.94556250  0.67407000  1
  F  F79  1  0.95192600  0.06648900  0.82480100  1
  F  F80  1  0.20437800  0.48057500  0.53184100  1
  F  F81  1  0.95385650  0.55443750  0.32593000  1
  F  F82  1  0.29053950  0.20262750  0.65642000  1
  F  F83  1  0.29562200  0.98057500  0.96815900  1
  F  F84  1  0.15780200  0.74303700  0.34544800  1
  F  F85  1  0.45385650  0.94556250  0.82593000  1
  F  F86  1  0.12524750  0.17383650  0.05073500  1
  F  F87  1  0.54807400  0.43351100  0.17519900  1
