# generated using pymatgen
data_MnVO4
_symmetry_space_group_name_H-M   'P 1'
_cell_length_a   5.67609200
_cell_length_b   8.30307400
_cell_length_c   6.45702700
_cell_angle_alpha   90.00000000
_cell_angle_beta   90.00000000
_cell_angle_gamma   90.00000000
_symmetry_Int_Tables_number   1
_chemical_formula_structural   MnVO4
_chemical_formula_sum   'Mn4 V4 O16'
_cell_volume   304.31330237
_cell_formula_units_Z   4
loop_
 _symmetry_equiv_pos_site_id
 _symmetry_equiv_pos_as_xyz
  1  'x, y, z'
loop_
 _atom_site_type_symbol
 _atom_site_label
 _atom_site_symmetry_multiplicity
 _atom_site_fract_x
 _atom_site_fract_y
 _atom_site_fract_z
 _atom_site_occupancy
  Mn  Mn0  1  0.00000000  0.00000000  0.00000000  1
  Mn  Mn1  1  0.00000000  0.00000000  0.50000000  1
  Mn  Mn2  1  0.50000000  0.50000000  0.00000000  1
  Mn  Mn3  1  0.50000000  0.50000000  0.50000000  1
  V  V4  1  0.50000000  0.14857400  0.25000000  1
  V  V5  1  0.50000000  0.85142600  0.75000000  1
  V  V6  1  0.00000000  0.64857400  0.25000000  1
  V  V7  1  0.00000000  0.35142600  0.75000000  1
  O  O8  1  0.50000000  0.72763100  0.96293900  1
  O  O9  1  0.75831700  0.97302300  0.75000000  1
  O  O10  1  0.24168300  0.97302300  0.75000000  1
  O  O11  1  0.24168300  0.02697700  0.25000000  1
  O  O12  1  0.50000000  0.72763100  0.53706100  1
  O  O13  1  0.50000000  0.27236900  0.46293900  1
  O  O14  1  0.75831700  0.02697700  0.25000000  1
  O  O15  1  0.50000000  0.27236900  0.03706100  1
  O  O16  1  0.00000000  0.22763100  0.96293900  1
  O  O17  1  0.25831700  0.47302300  0.75000000  1
  O  O18  1  0.74168300  0.47302300  0.75000000  1
  O  O19  1  0.74168300  0.52697700  0.25000000  1
  O  O20  1  0.00000000  0.22763100  0.53706100  1
  O  O21  1  0.00000000  0.77236900  0.46293900  1
  O  O22  1  0.25831700  0.52697700  0.25000000  1
  O  O23  1  0.00000000  0.77236900  0.03706100  1
