# generated using pymatgen
data_Ca3MnNiO6
_symmetry_space_group_name_H-M   'P 1'
_cell_length_a   9.22767216
_cell_length_b   9.22767216
_cell_length_c   10.66781015
_cell_angle_alpha   90.00000000
_cell_angle_beta   90.00000000
_cell_angle_gamma   120.00000000
_symmetry_Int_Tables_number   1
_chemical_formula_structural   Ca3MnNiO6
_chemical_formula_sum   'Ca18 Mn6 Ni6 O36'
_cell_volume   786.66571601
_cell_formula_units_Z   6
loop_
 _symmetry_equiv_pos_site_id
 _symmetry_equiv_pos_as_xyz
  1  'x, y, z'
loop_
 _atom_site_type_symbol
 _atom_site_label
 _atom_site_symmetry_multiplicity
 _atom_site_fract_x
 _atom_site_fract_y
 _atom_site_fract_z
 _atom_site_occupancy
  Ca  Ca0  1  0.02750267  0.33333333  0.58333333  1
  Ca  Ca1  1  0.69416933  0.02750267  0.41666667  1
  Ca  Ca2  1  0.33333333  0.30583067  0.41666667  1
  Ca  Ca3  1  0.97249733  0.66666667  0.41666667  1
  Ca  Ca4  1  0.30583067  0.97249733  0.58333333  1
  Ca  Ca5  1  0.66666667  0.69416933  0.58333333  1
  Ca  Ca6  1  0.69416933  0.66666667  0.91666667  1
  Ca  Ca7  1  0.36083600  0.36083600  0.75000000  1
  Ca  Ca8  1  0.00000000  0.63916400  0.75000000  1
  Ca  Ca9  1  0.63916400  0.00000000  0.75000000  1
  Ca  Ca10  1  0.97249733  0.30583067  0.91666667  1
  Ca  Ca11  1  0.33333333  0.02750267  0.91666667  1
  Ca  Ca12  1  0.36083600  0.00000000  0.25000000  1
  Ca  Ca13  1  0.02750267  0.69416933  0.08333333  1
  Ca  Ca14  1  0.66666667  0.97249733  0.08333333  1
  Ca  Ca15  1  0.30583067  0.33333333  0.08333333  1
  Ca  Ca16  1  0.63916400  0.63916400  0.25000000  1
  Ca  Ca17  1  0.00000000  0.36083600  0.25000000  1
  Mn  Mn18  1  0.00000000  0.00000000  0.50000000  1
  Mn  Mn19  1  0.00000000  0.00000000  0.00000000  1
  Mn  Mn20  1  0.66666667  0.33333333  0.83333333  1
  Mn  Mn21  1  0.66666667  0.33333333  0.33333333  1
  Mn  Mn22  1  0.33333333  0.66666667  0.16666667  1
  Mn  Mn23  1  0.33333333  0.66666667  0.66666667  1
  Ni  Ni24  1  0.00000000  0.00000000  0.75000000  1
  Ni  Ni25  1  0.00000000  0.00000000  0.25000000  1
  Ni  Ni26  1  0.66666667  0.33333333  0.08333333  1
  Ni  Ni27  1  0.66666667  0.33333333  0.58333333  1
  Ni  Ni28  1  0.33333333  0.66666667  0.41666667  1
  Ni  Ni29  1  0.33333333  0.66666667  0.91666667  1
  O  O30  1  0.81959400  0.84972300  0.39123600  1
  O  O31  1  0.18040600  0.15027700  0.60876400  1
  O  O32  1  0.96987100  0.81959400  0.60876400  1
  O  O33  1  0.84972300  0.03012900  0.60876400  1
  O  O34  1  0.48361033  0.84707267  0.55790267  1
  O  O35  1  0.36346233  0.51638967  0.55790267  1
  O  O36  1  0.84707267  0.36346233  0.44209733  1
  O  O37  1  0.63653767  0.48361033  0.44209733  1
  O  O38  1  0.51638967  0.15292733  0.44209733  1
  O  O39  1  0.15027700  0.96987100  0.39123600  1
  O  O40  1  0.03012900  0.18040600  0.39123600  1
  O  O41  1  0.15292733  0.63653767  0.55790267  1
  O  O42  1  0.48626067  0.18305633  0.72456933  1
  O  O43  1  0.84707267  0.48361033  0.94209733  1
  O  O44  1  0.63653767  0.15292733  0.94209733  1
  O  O45  1  0.51638967  0.36346233  0.94209733  1
  O  O46  1  0.15027700  0.18040600  0.89123600  1
  O  O47  1  0.03012900  0.84972300  0.89123600  1
  O  O48  1  0.51373933  0.69679567  0.77543067  1
  O  O49  1  0.30320433  0.81694367  0.77543067  1
  O  O50  1  0.18305633  0.48626067  0.77543067  1
  O  O51  1  0.81694367  0.30320433  0.72456933  1
  O  O52  1  0.69679567  0.51373933  0.72456933  1
  O  O53  1  0.81959400  0.96987100  0.89123600  1
  O  O54  1  0.15292733  0.51638967  0.05790267  1
  O  O55  1  0.51373933  0.81694367  0.27543067  1
  O  O56  1  0.30320433  0.48626067  0.27543067  1
  O  O57  1  0.18305633  0.69679567  0.27543067  1
  O  O58  1  0.81694367  0.51373933  0.22456933  1
  O  O59  1  0.69679567  0.18305633  0.22456933  1
  O  O60  1  0.18040600  0.03012900  0.10876400  1
  O  O61  1  0.96987100  0.15027700  0.10876400  1
  O  O62  1  0.84972300  0.81959400  0.10876400  1
  O  O63  1  0.48361033  0.63653767  0.05790267  1
  O  O64  1  0.36346233  0.84707267  0.05790267  1
  O  O65  1  0.48626067  0.30320433  0.22456933  1
