# generated using pymatgen
data_Sr4(PPd)5
_symmetry_space_group_name_H-M   'P 1'
_cell_length_a   4.22200800
_cell_length_b   31.53761400
_cell_length_c   8.70568700
_cell_angle_alpha   90.00000000
_cell_angle_beta   90.00000000
_cell_angle_gamma   90.00000000
_symmetry_Int_Tables_number   1
_chemical_formula_structural   Sr4(PPd)5
_chemical_formula_sum   'Sr16 P20 Pd20'
_cell_volume   1159.18014565
_cell_formula_units_Z   4
loop_
 _symmetry_equiv_pos_site_id
 _symmetry_equiv_pos_as_xyz
  1  'x, y, z'
loop_
 _atom_site_type_symbol
 _atom_site_label
 _atom_site_symmetry_multiplicity
 _atom_site_fract_x
 _atom_site_fract_y
 _atom_site_fract_z
 _atom_site_occupancy
  Sr  Sr0  1  0.00000000  0.80643500  0.50427700  1
  Sr  Sr1  1  0.50000000  0.69356500  0.49572300  1
  Sr  Sr2  1  0.50000000  0.69356500  0.00427700  1
  Sr  Sr3  1  0.00000000  0.80643500  0.99572300  1
  Sr  Sr4  1  0.00000000  0.57916200  0.00024400  1
  Sr  Sr5  1  0.50000000  0.92083800  0.50024400  1
  Sr  Sr6  1  0.50000000  0.92083800  0.99975600  1
  Sr  Sr7  1  0.00000000  0.57916200  0.49975600  1
  Sr  Sr8  1  0.50000000  0.30643500  0.50427700  1
  Sr  Sr9  1  0.00000000  0.19356500  0.49572300  1
  Sr  Sr10  1  0.00000000  0.19356500  0.00427700  1
  Sr  Sr11  1  0.50000000  0.30643500  0.99572300  1
  Sr  Sr12  1  0.50000000  0.07916200  0.00024400  1
  Sr  Sr13  1  0.00000000  0.42083800  0.50024400  1
  Sr  Sr14  1  0.00000000  0.42083800  0.99975600  1
  Sr  Sr15  1  0.50000000  0.07916200  0.49975600  1
  P  P16  1  0.50000000  0.77094000  0.25000000  1
  P  P17  1  0.50000000  0.54234900  0.25000000  1
  P  P18  1  0.50000000  0.54332100  0.75000000  1
  P  P19  1  0.00000000  0.95765100  0.75000000  1
  P  P20  1  0.00000000  0.95667900  0.25000000  1
  P  P21  1  0.00000000  0.65693000  0.75000000  1
  P  P22  1  0.50000000  0.84307000  0.25000000  1
  P  P23  1  0.50000000  0.84427500  0.75000000  1
  P  P24  1  0.00000000  0.72906000  0.75000000  1
  P  P25  1  0.00000000  0.65572500  0.25000000  1
  P  P26  1  0.00000000  0.27094000  0.25000000  1
  P  P27  1  0.00000000  0.04234900  0.25000000  1
  P  P28  1  0.00000000  0.04332100  0.75000000  1
  P  P29  1  0.50000000  0.45765100  0.75000000  1
  P  P30  1  0.50000000  0.45667900  0.25000000  1
  P  P31  1  0.50000000  0.15693000  0.75000000  1
  P  P32  1  0.00000000  0.34307000  0.25000000  1
  P  P33  1  0.00000000  0.34427500  0.75000000  1
  P  P34  1  0.50000000  0.22906000  0.75000000  1
  P  P35  1  0.50000000  0.15572500  0.25000000  1
  Pd  Pd36  1  0.00000000  0.73351900  0.25000000  1
  Pd  Pd37  1  0.50000000  0.76648100  0.75000000  1
  Pd  Pd38  1  0.00000000  0.00000000  0.50000000  1
  Pd  Pd39  1  0.00000000  0.87992700  0.25000000  1
  Pd  Pd40  1  0.50000000  0.62007300  0.75000000  1
  Pd  Pd41  1  0.50000000  0.61856100  0.25000000  1
  Pd  Pd42  1  0.00000000  0.88143900  0.75000000  1
  Pd  Pd43  1  0.00000000  0.50005800  0.25000000  1
  Pd  Pd44  1  0.50000000  0.99994200  0.75000000  1
  Pd  Pd45  1  0.00000000  0.00000000  0.00000000  1
  Pd  Pd46  1  0.50000000  0.23351900  0.25000000  1
  Pd  Pd47  1  0.00000000  0.26648100  0.75000000  1
  Pd  Pd48  1  0.50000000  0.50000000  0.50000000  1
  Pd  Pd49  1  0.50000000  0.37992700  0.25000000  1
  Pd  Pd50  1  0.00000000  0.12007300  0.75000000  1
  Pd  Pd51  1  0.00000000  0.11856100  0.25000000  1
  Pd  Pd52  1  0.50000000  0.38143900  0.75000000  1
  Pd  Pd53  1  0.50000000  0.00005800  0.25000000  1
  Pd  Pd54  1  0.00000000  0.49994200  0.75000000  1
  Pd  Pd55  1  0.50000000  0.50000000  0.00000000  1
