# generated using pymatgen
data_BaEr2CoO5
_symmetry_space_group_name_H-M   'P 1'
_cell_length_a   5.72195105
_cell_length_b   7.08008161
_cell_length_c   12.28913139
_cell_angle_alpha   90.00000000
_cell_angle_beta   90.00000000
_cell_angle_gamma   90.00000000
_symmetry_Int_Tables_number   1
_chemical_formula_structural   BaEr2CoO5
_chemical_formula_sum   'Ba4 Er8 Co4 O20'
_cell_volume   497.85582112
_cell_formula_units_Z   4
loop_
 _symmetry_equiv_pos_site_id
 _symmetry_equiv_pos_as_xyz
  1  'x, y, z'
loop_
 _atom_site_type_symbol
 _atom_site_label
 _atom_site_symmetry_multiplicity
 _atom_site_fract_x
 _atom_site_fract_y
 _atom_site_fract_z
 _atom_site_occupancy
  Ba  Ba0  1  0.25000000  0.57910584  0.10059505  1
  Ba  Ba1  1  0.25000000  0.92089416  0.60059505  1
  Ba  Ba2  1  0.75000000  0.07910584  0.39940495  1
  Ba  Ba3  1  0.75000000  0.42089416  0.89940495  1
  Er  Er4  1  0.75000000  0.90155374  0.07441565  1
  Er  Er5  1  0.25000000  0.11955813  0.20850575  1
  Er  Er6  1  0.25000000  0.38044187  0.70850575  1
  Er  Er7  1  0.75000000  0.61955813  0.29149425  1
  Er  Er8  1  0.25000000  0.09844626  0.92558435  1
  Er  Er9  1  0.25000000  0.40155374  0.42558435  1
  Er  Er10  1  0.75000000  0.59844626  0.57441565  1
  Er  Er11  1  0.75000000  0.88044187  0.79149425  1
  Co  Co12  1  0.75000000  0.30794065  0.15216289  1
  Co  Co13  1  0.25000000  0.69205935  0.84783711  1
  Co  Co14  1  0.25000000  0.80794065  0.34783711  1
  Co  Co15  1  0.75000000  0.19205935  0.65216289  1
  O  O16  1  0.75000000  0.92193663  0.60264183  1
  O  O17  1  0.25000000  0.07806337  0.39735817  1
  O  O18  1  0.25000000  0.42193663  0.89735817  1
  O  O19  1  0.75000000  0.57806337  0.10264183  1
  O  O20  1  0.50019035  0.36193357  0.27499012  1
  O  O21  1  0.00019035  0.63806643  0.72500988  1
  O  O22  1  0.49980965  0.86193357  0.22500988  1
  O  O23  1  0.99980965  0.13806643  0.77499012  1
  O  O24  1  0.49980965  0.63806643  0.72500988  1
  O  O25  1  0.99980965  0.36193357  0.27499012  1
  O  O26  1  0.50019035  0.13806643  0.77499012  1
  O  O27  1  0.00019035  0.86193357  0.22500988  1
  O  O28  1  0.99737148  0.16469152  0.06593985  1
  O  O29  1  0.49737148  0.83530848  0.93406015  1
  O  O30  1  0.00262852  0.66469152  0.43406015  1
  O  O31  1  0.50262852  0.33530848  0.56593985  1
  O  O32  1  0.49737148  0.66469152  0.43406015  1
  O  O33  1  0.99737148  0.33530848  0.56593985  1
  O  O34  1  0.00262852  0.83530848  0.93406015  1
  O  O35  1  0.50262852  0.16469152  0.06593985  1
