# generated using pymatgen
data_Ca4Ni3C5
_symmetry_space_group_name_H-M   'P 1'
_cell_length_a   11.11869800
_cell_length_b   3.76499800
_cell_length_c   9.79089961
_cell_angle_alpha   90.00000000
_cell_angle_beta   112.88316321
_cell_angle_gamma   90.00000000
_symmetry_Int_Tables_number   1
_chemical_formula_structural   Ca4Ni3C5
_chemical_formula_sum   'Ca8 Ni6 C10'
_cell_volume   377.60889635
_cell_formula_units_Z   2
loop_
 _symmetry_equiv_pos_site_id
 _symmetry_equiv_pos_as_xyz
  1  'x, y, z'
loop_
 _atom_site_type_symbol
 _atom_site_label
 _atom_site_symmetry_multiplicity
 _atom_site_fract_x
 _atom_site_fract_y
 _atom_site_fract_z
 _atom_site_occupancy
  Ca  Ca0  1  0.10126700  0.00000000  0.39877100  1
  Ca  Ca1  1  0.74422100  0.00000000  0.16319300  1
  Ca  Ca2  1  0.25577900  0.00000000  0.83680700  1
  Ca  Ca3  1  0.89873300  0.00000000  0.60122900  1
  Ca  Ca4  1  0.60126700  0.50000000  0.39877100  1
  Ca  Ca5  1  0.24422100  0.50000000  0.16319300  1
  Ca  Ca6  1  0.75577900  0.50000000  0.83680700  1
  Ca  Ca7  1  0.39873300  0.50000000  0.60122900  1
  Ni  Ni8  1  0.04151500  0.50000000  0.83639300  1
  Ni  Ni9  1  0.00000000  0.00000000  0.00000000  1
  Ni  Ni10  1  0.95848500  0.50000000  0.16360700  1
  Ni  Ni11  1  0.54151500  0.00000000  0.83639300  1
  Ni  Ni12  1  0.50000000  0.50000000  0.00000000  1
  Ni  Ni13  1  0.45848500  0.00000000  0.16360700  1
  C  C14  1  0.89804300  0.50000000  0.31100100  1
  C  C15  1  0.00000000  0.50000000  0.00000000  1
  C  C16  1  0.17291900  0.50000000  0.61024200  1
  C  C17  1  0.82708100  0.50000000  0.38975800  1
  C  C18  1  0.10195700  0.50000000  0.68899900  1
  C  C19  1  0.39804300  0.00000000  0.31100100  1
  C  C20  1  0.50000000  0.00000000  0.00000000  1
  C  C21  1  0.67291900  0.00000000  0.61024200  1
  C  C22  1  0.32708100  0.00000000  0.38975800  1
  C  C23  1  0.60195700  0.00000000  0.68899900  1
