# generated using pymatgen
data_Cu4(BiS2)5
_symmetry_space_group_name_H-M   'P 1'
_cell_length_a   17.58545000
_cell_length_b   3.90133600
_cell_length_c   12.91255899
_cell_angle_alpha   90.00000000
_cell_angle_beta   107.40128400
_cell_angle_gamma   90.00000000
_symmetry_Int_Tables_number   1
_chemical_formula_structural   Cu4(BiS2)5
_chemical_formula_sum   'Cu8 Bi10 S20'
_cell_volume   845.34478325
_cell_formula_units_Z   2
loop_
 _symmetry_equiv_pos_site_id
 _symmetry_equiv_pos_as_xyz
  1  'x, y, z'
loop_
 _atom_site_type_symbol
 _atom_site_label
 _atom_site_symmetry_multiplicity
 _atom_site_fract_x
 _atom_site_fract_y
 _atom_site_fract_z
 _atom_site_occupancy
  Cu  Cu0  1  0.90377900  0.00000000  0.48698300  1
  Cu  Cu1  1  0.59622100  0.50000000  0.51301700  1
  Cu  Cu2  1  0.71330900  0.00000000  0.05477500  1
  Cu  Cu3  1  0.78669100  0.50000000  0.94522500  1
  Cu  Cu4  1  0.40377900  0.50000000  0.48698300  1
  Cu  Cu5  1  0.09622100  0.00000000  0.51301700  1
  Cu  Cu6  1  0.21330900  0.50000000  0.05477500  1
  Cu  Cu7  1  0.28669100  0.00000000  0.94522500  1
  Bi  Bi8  1  0.91159100  0.50000000  0.22481500  1
  Bi  Bi9  1  0.58840900  0.00000000  0.77518500  1
  Bi  Bi10  1  0.69827600  0.50000000  0.33766700  1
  Bi  Bi11  1  0.80172400  0.00000000  0.66233300  1
  Bi  Bi12  1  0.00000000  0.00000000  0.00000000  1
  Bi  Bi13  1  0.41159100  0.00000000  0.22481500  1
  Bi  Bi14  1  0.08840900  0.50000000  0.77518500  1
  Bi  Bi15  1  0.19827600  0.00000000  0.33766700  1
  Bi  Bi16  1  0.30172400  0.50000000  0.66233300  1
  Bi  Bi17  1  0.50000000  0.50000000  0.00000000  1
  S  S18  1  0.97778300  0.00000000  0.36658800  1
  S  S19  1  0.52221700  0.50000000  0.63341200  1
  S  S20  1  0.84656400  0.00000000  0.02829100  1
  S  S21  1  0.65343600  0.50000000  0.97170900  1
  S  S22  1  0.83602500  0.50000000  0.49663100  1
  S  S23  1  0.66397500  0.00000000  0.50336900  1
  S  S24  1  0.75926700  0.00000000  0.23962400  1
  S  S25  1  0.74073300  0.50000000  0.76037600  1
  S  S26  1  0.54284700  0.00000000  0.16586600  1
  S  S27  1  0.95715300  0.50000000  0.83413400  1
  S  S28  1  0.47778300  0.50000000  0.36658800  1
  S  S29  1  0.02221700  0.00000000  0.63341200  1
  S  S30  1  0.34656400  0.50000000  0.02829100  1
  S  S31  1  0.15343600  0.00000000  0.97170900  1
  S  S32  1  0.33602500  0.00000000  0.49663100  1
  S  S33  1  0.16397500  0.50000000  0.50336900  1
  S  S34  1  0.25926700  0.50000000  0.23962400  1
  S  S35  1  0.24073300  0.00000000  0.76037600  1
  S  S36  1  0.04284700  0.50000000  0.16586600  1
  S  S37  1  0.45715300  0.00000000  0.83413400  1
