# generated using pymatgen
data_MoH8(NO2)2
_symmetry_space_group_name_H-M   'P 1'
_cell_length_a   12.10560800
_cell_length_b   7.20467400
_cell_length_c   7.95869651
_cell_angle_alpha   90.00000000
_cell_angle_beta   116.40969786
_cell_angle_gamma   90.00000000
_symmetry_Int_Tables_number   1
_chemical_formula_structural   MoH8(NO2)2
_chemical_formula_sum   'Mo4 H32 N8 O16'
_cell_volume   621.69111974
_cell_formula_units_Z   4
loop_
 _symmetry_equiv_pos_site_id
 _symmetry_equiv_pos_as_xyz
  1  'x, y, z'
loop_
 _atom_site_type_symbol
 _atom_site_label
 _atom_site_symmetry_multiplicity
 _atom_site_fract_x
 _atom_site_fract_y
 _atom_site_fract_z
 _atom_site_occupancy
  Mo  Mo0  1  0.20834600  0.00000000  0.75130200  1
  Mo  Mo1  1  0.79165400  0.00000000  0.24869800  1
  Mo  Mo2  1  0.70834600  0.50000000  0.75130200  1
  Mo  Mo3  1  0.29165400  0.50000000  0.24869800  1
  H  H4  1  0.46877400  0.00000000  0.81715200  1
  H  H5  1  0.53122600  0.00000000  0.18284800  1
  H  H6  1  0.66831400  0.00000000  0.89547500  1
  H  H7  1  0.33168600  0.00000000  0.10452500  1
  H  H8  1  0.61316000  0.88641900  0.38282700  1
  H  H9  1  0.38684000  0.88641900  0.61717300  1
  H  H10  1  0.38684000  0.11358100  0.61717300  1
  H  H11  1  0.61316000  0.11358100  0.38282700  1
  H  H12  1  0.13216200  0.00000000  0.08468400  1
  H  H13  1  0.86783800  0.00000000  0.91531600  1
  H  H14  1  0.79712250  0.88352750  0.70639100  1
  H  H15  1  0.20287750  0.88352750  0.29360900  1
  H  H16  1  0.20287750  0.11647250  0.29360900  1
  H  H17  1  0.79712250  0.11647250  0.70639100  1
  H  H18  1  0.93427500  0.00000000  0.76710500  1
  H  H19  1  0.06572500  0.00000000  0.23289500  1
  H  H20  1  0.96877400  0.50000000  0.81715200  1
  H  H21  1  0.03122600  0.50000000  0.18284800  1
  H  H22  1  0.16831400  0.50000000  0.89547500  1
  H  H23  1  0.83168600  0.50000000  0.10452500  1
  H  H24  1  0.11316000  0.38641900  0.38282700  1
  H  H25  1  0.88684000  0.38641900  0.61717300  1
  H  H26  1  0.88684000  0.61358100  0.61717300  1
  H  H27  1  0.11316000  0.61358100  0.38282700  1
  H  H28  1  0.63216200  0.50000000  0.08468400  1
  H  H29  1  0.36783800  0.50000000  0.91531600  1
  H  H30  1  0.29712250  0.38352750  0.70639100  1
  H  H31  1  0.70287750  0.38352750  0.29360900  1
  H  H32  1  0.70287750  0.61647250  0.29360900  1
  H  H33  1  0.29712250  0.61647250  0.70639100  1
  H  H34  1  0.43427500  0.50000000  0.76710500  1
  H  H35  1  0.56572500  0.50000000  0.23289500  1
  N  N36  1  0.38722100  0.00000000  0.69576400  1
  N  N37  1  0.61277900  0.00000000  0.30423600  1
  N  N38  1  0.15039100  0.00000000  0.22769900  1
  N  N39  1  0.84960900  0.00000000  0.77230100  1
  N  N40  1  0.88722100  0.50000000  0.69576400  1
  N  N41  1  0.11277900  0.50000000  0.30423600  1
  N  N42  1  0.65039100  0.50000000  0.22769900  1
  N  N43  1  0.34960900  0.50000000  0.77230100  1
  O  O44  1  0.10334200  0.00000000  0.85561900  1
  O  O45  1  0.89665800  0.00000000  0.14438100  1
  O  O46  1  0.32797800  0.29468700  0.38654600  1
  O  O47  1  0.67202200  0.29468700  0.61345400  1
  O  O48  1  0.67202200  0.70531300  0.61345400  1
  O  O49  1  0.32797800  0.70531300  0.38654600  1
  O  O50  1  0.35436200  0.00000000  0.00146400  1
  O  O51  1  0.64563800  0.00000000  0.99853600  1
  O  O52  1  0.60334200  0.50000000  0.85561900  1
  O  O53  1  0.39665800  0.50000000  0.14438100  1
  O  O54  1  0.82797800  0.79468700  0.38654600  1
  O  O55  1  0.17202200  0.79468700  0.61345400  1
  O  O56  1  0.17202200  0.20531300  0.61345400  1
  O  O57  1  0.82797800  0.20531300  0.38654600  1
  O  O58  1  0.85436200  0.50000000  0.00146400  1
  O  O59  1  0.14563800  0.50000000  0.99853600  1
