# generated using pymatgen
data_LiNiPO4
_symmetry_space_group_name_H-M   'P 1'
_cell_length_a   4.73214600
_cell_length_b   5.92667200
_cell_length_c   10.14381000
_cell_angle_alpha   90.00000000
_cell_angle_beta   90.00000000
_cell_angle_gamma   90.00000000
_symmetry_Int_Tables_number   1
_chemical_formula_structural   LiNiPO4
_chemical_formula_sum   'Li4 Ni4 P4 O16'
_cell_volume   284.49204982
_cell_formula_units_Z   4
loop_
 _symmetry_equiv_pos_site_id
 _symmetry_equiv_pos_as_xyz
  1  'x, y, z'
loop_
 _atom_site_type_symbol
 _atom_site_label
 _atom_site_symmetry_multiplicity
 _atom_site_fract_x
 _atom_site_fract_y
 _atom_site_fract_z
 _atom_site_occupancy
  Li  Li0  1  0.50000000  0.50000000  0.00000000  1
  Li  Li1  1  0.50000000  0.00000000  0.00000000  1
  Li  Li2  1  0.00000000  0.00000000  0.50000000  1
  Li  Li3  1  0.00000000  0.50000000  0.50000000  1
  Ni  Ni4  1  0.01841400  0.75000000  0.22429600  1
  Ni  Ni5  1  0.48158600  0.75000000  0.72429600  1
  Ni  Ni6  1  0.98158600  0.25000000  0.77570400  1
  Ni  Ni7  1  0.51841400  0.25000000  0.27570400  1
  P  P8  1  0.91675800  0.75000000  0.90578000  1
  P  P9  1  0.08324200  0.25000000  0.09422000  1
  P  P10  1  0.58324200  0.75000000  0.40578000  1
  P  P11  1  0.41675800  0.25000000  0.59422000  1
  O  O12  1  0.77492200  0.54171350  0.83456200  1
  O  O13  1  0.22507800  0.04171350  0.16543800  1
  O  O14  1  0.72507800  0.95828650  0.33456200  1
  O  O15  1  0.27492200  0.45828650  0.66543800  1
  O  O16  1  0.77492200  0.95828650  0.83456200  1
  O  O17  1  0.22507800  0.45828650  0.16543800  1
  O  O18  1  0.72507800  0.54171350  0.33456200  1
  O  O19  1  0.27492200  0.04171350  0.66543800  1
  O  O20  1  0.24094400  0.75000000  0.90020000  1
  O  O21  1  0.75905600  0.25000000  0.09980000  1
  O  O22  1  0.25905600  0.75000000  0.40020000  1
  O  O23  1  0.74094400  0.25000000  0.59980000  1
  O  O24  1  0.20089900  0.25000000  0.95110900  1
  O  O25  1  0.79910100  0.75000000  0.04889100  1
  O  O26  1  0.29910100  0.25000000  0.45110900  1
  O  O27  1  0.70089900  0.75000000  0.54889100  1
