# generated using pymatgen
data_VP2O7
_symmetry_space_group_name_H-M   'P 1'
_cell_length_a   4.87133500
_cell_length_b   8.01617700
_cell_length_c   6.99101337
_cell_angle_alpha   90.00000000
_cell_angle_beta   106.07367374
_cell_angle_gamma   90.00000000
_symmetry_Int_Tables_number   1
_chemical_formula_structural   VP2O7
_chemical_formula_sum   'V2 P4 O14'
_cell_volume   262.32310638
_cell_formula_units_Z   2
loop_
 _symmetry_equiv_pos_site_id
 _symmetry_equiv_pos_as_xyz
  1  'x, y, z'
loop_
 _atom_site_type_symbol
 _atom_site_label
 _atom_site_symmetry_multiplicity
 _atom_site_fract_x
 _atom_site_fract_y
 _atom_site_fract_z
 _atom_site_occupancy
  V  V0  1  0.21371300  0.99815500  0.72725100  1
  V  V1  1  0.78628700  0.49815500  0.27274900  1
  P  P2  1  0.76509000  0.76673000  0.89643900  1
  P  P3  1  0.60802100  0.18109400  0.49132400  1
  P  P4  1  0.23491000  0.26673000  0.10356100  1
  P  P5  1  0.39197900  0.68109400  0.50867600  1
  O  O6  1  0.41425100  0.17167500  0.63168900  1
  O  O7  1  0.14276500  0.16500900  0.91398400  1
  O  O8  1  0.57416700  0.91627500  0.90821700  1
  O  O9  1  0.58910700  0.63776800  0.72921900  1
  O  O10  1  0.02933400  0.82303200  0.83304100  1
  O  O11  1  0.41089300  0.13776800  0.27078100  1
  O  O12  1  0.84390100  0.05088000  0.53786900  1
  O  O13  1  0.58574900  0.67167500  0.36831100  1
  O  O14  1  0.97066600  0.32303200  0.16695900  1
  O  O15  1  0.72197200  0.35808100  0.48526800  1
  O  O16  1  0.85723500  0.66500900  0.08601600  1
  O  O17  1  0.27802800  0.85808100  0.51473200  1
  O  O18  1  0.42583300  0.41627500  0.09178300  1
  O  O19  1  0.15609900  0.55088000  0.46213100  1
