# generated using pymatgen
data_Sc7CI12
_symmetry_space_group_name_H-M   'P 1'
_cell_length_a   15.21358748
_cell_length_b   15.21358748
_cell_length_c   9.98401223
_cell_angle_alpha   90.00000000
_cell_angle_beta   90.00000000
_cell_angle_gamma   120.00000000
_symmetry_Int_Tables_number   1
_chemical_formula_structural   Sc7CI12
_chemical_formula_sum   'Sc21 C3 I36'
_cell_volume   2001.23923081
_cell_formula_units_Z   3
loop_
 _symmetry_equiv_pos_site_id
 _symmetry_equiv_pos_as_xyz
  1  'x, y, z'
loop_
 _atom_site_type_symbol
 _atom_site_label
 _atom_site_symmetry_multiplicity
 _atom_site_fract_x
 _atom_site_fract_y
 _atom_site_fract_z
 _atom_site_occupancy
  Sc  Sc0  1  0.90240400  0.03933200  0.13573800  1
  Sc  Sc1  1  0.96066800  0.86307200  0.13573800  1
  Sc  Sc2  1  0.13692800  0.09759600  0.13573800  1
  Sc  Sc3  1  0.04061567  0.14114633  0.87404033  1
  Sc  Sc4  1  0.85885367  0.89946933  0.87404033  1
  Sc  Sc5  1  0.10053067  0.95938433  0.87404033  1
  Sc  Sc6  1  0.00000000  0.00000000  0.47493000  1
  Sc  Sc7  1  0.56907067  0.37266533  0.46907133  1
  Sc  Sc8  1  0.62733467  0.19640533  0.46907133  1
  Sc  Sc9  1  0.80359467  0.43092933  0.46907133  1
  Sc  Sc10  1  0.70728233  0.47447967  0.20737367  1
  Sc  Sc11  1  0.52552033  0.23280267  0.20737367  1
  Sc  Sc12  1  0.76719733  0.29271767  0.20737367  1
  Sc  Sc13  1  0.66666667  0.33333333  0.80826333  1
  Sc  Sc14  1  0.23573733  0.70599867  0.80240467  1
  Sc  Sc15  1  0.29400133  0.52973867  0.80240467  1
  Sc  Sc16  1  0.47026133  0.76426267  0.80240467  1
  Sc  Sc17  1  0.37394900  0.80781300  0.54070700  1
  Sc  Sc18  1  0.19218700  0.56613600  0.54070700  1
  Sc  Sc19  1  0.43386400  0.62605100  0.54070700  1
  Sc  Sc20  1  0.33333333  0.66666667  0.14159667  1
  C  C21  1  0.00000000  0.00000000  0.99983800  1
  C  C22  1  0.66666667  0.33333333  0.33317133  1
  C  C23  1  0.33333333  0.66666667  0.66650467  1
  I  I24  1  0.25650900  0.88690400  0.66811700  1
  I  I25  1  0.12967767  0.94694233  0.33055633  1
  I  I26  1  0.81726467  0.87032233  0.33055633  1
  I  I27  1  0.05305767  0.18273533  0.33055633  1
  I  I28  1  0.11309600  0.36960500  0.66811700  1
  I  I29  1  0.63039500  0.74349100  0.66811700  1
  I  I30  1  0.87883533  0.04978267  0.66758367  1
  I  I31  1  0.95021733  0.82905267  0.66758367  1
  I  I32  1  0.17094733  0.12116467  0.66758367  1
  I  I33  1  0.88938200  0.62978600  0.33422500  1
  I  I34  1  0.37021400  0.25959600  0.33422500  1
  I  I35  1  0.74040400  0.11061800  0.33422500  1
  I  I36  1  0.92317567  0.22023733  0.00145033  1
  I  I37  1  0.79634433  0.28027567  0.66388967  1
  I  I38  1  0.48393133  0.20365567  0.66388967  1
  I  I39  1  0.71972433  0.51606867  0.66388967  1
  I  I40  1  0.77976267  0.70293833  0.00145033  1
  I  I41  1  0.29706167  0.07682433  0.00145033  1
  I  I42  1  0.54550200  0.38311600  0.00091700  1
  I  I43  1  0.61688400  0.16238600  0.00091700  1
  I  I44  1  0.83761400  0.45449800  0.00091700  1
  I  I45  1  0.55604867  0.96311933  0.66755833  1
  I  I46  1  0.03688067  0.59292933  0.66755833  1
  I  I47  1  0.40707067  0.44395133  0.66755833  1
  I  I48  1  0.58984233  0.55357067  0.33478367  1
  I  I49  1  0.46301100  0.61360900  0.99722300  1
  I  I50  1  0.15059800  0.53698900  0.99722300  1
  I  I51  1  0.38639100  0.84940200  0.99722300  1
  I  I52  1  0.44642933  0.03627167  0.33478367  1
  I  I53  1  0.96372833  0.41015767  0.33478367  1
  I  I54  1  0.21216867  0.71644933  0.33425033  1
  I  I55  1  0.28355067  0.49571933  0.33425033  1
  I  I56  1  0.50428067  0.78783133  0.33425033  1
  I  I57  1  0.22271533  0.29645267  0.00089167  1
  I  I58  1  0.70354733  0.92626267  0.00089167  1
  I  I59  1  0.07373733  0.77728467  0.00089167  1
