# generated using pymatgen
data_Zr3AlN
_symmetry_space_group_name_H-M   'P 1'
_cell_length_a   3.38634800
_cell_length_b   11.57076200
_cell_length_c   9.03158700
_cell_angle_alpha   90.00000000
_cell_angle_beta   90.00000000
_cell_angle_gamma   90.00000000
_symmetry_Int_Tables_number   1
_chemical_formula_structural   Zr3AlN
_chemical_formula_sum   'Zr12 Al4 N4'
_cell_volume   353.88130245
_cell_formula_units_Z   4
loop_
 _symmetry_equiv_pos_site_id
 _symmetry_equiv_pos_as_xyz
  1  'x, y, z'
loop_
 _atom_site_type_symbol
 _atom_site_label
 _atom_site_symmetry_multiplicity
 _atom_site_fract_x
 _atom_site_fract_y
 _atom_site_fract_z
 _atom_site_occupancy
  Zr  Zr0  1  0.00000000  0.04514300  0.25000000  1
  Zr  Zr1  1  0.50000000  0.45485700  0.75000000  1
  Zr  Zr2  1  0.00000000  0.37306600  0.04243700  1
  Zr  Zr3  1  0.50000000  0.12693400  0.95756300  1
  Zr  Zr4  1  0.50000000  0.12693400  0.54243700  1
  Zr  Zr5  1  0.00000000  0.37306600  0.45756300  1
  Zr  Zr6  1  0.50000000  0.54514300  0.25000000  1
  Zr  Zr7  1  0.00000000  0.95485700  0.75000000  1
  Zr  Zr8  1  0.50000000  0.87306600  0.04243700  1
  Zr  Zr9  1  0.00000000  0.62693400  0.95756300  1
  Zr  Zr10  1  0.00000000  0.62693400  0.54243700  1
  Zr  Zr11  1  0.50000000  0.87306600  0.45756300  1
  Al  Al12  1  0.00000000  0.25231400  0.75000000  1
  Al  Al13  1  0.50000000  0.24768600  0.25000000  1
  Al  Al14  1  0.50000000  0.75231400  0.75000000  1
  Al  Al15  1  0.00000000  0.74768600  0.25000000  1
  N  N16  1  0.00000000  0.00000000  0.00000000  1
  N  N17  1  0.00000000  0.00000000  0.50000000  1
  N  N18  1  0.50000000  0.50000000  0.00000000  1
  N  N19  1  0.50000000  0.50000000  0.50000000  1
