# generated using pymatgen
data_Er10Ru10C19
_symmetry_space_group_name_H-M   'P 1'
_cell_length_a   14.63918200
_cell_length_b   7.24428800
_cell_length_c   10.03641125
_cell_angle_alpha   90.00000000
_cell_angle_beta   111.40713442
_cell_angle_gamma   90.00000000
_symmetry_Int_Tables_number   1
_chemical_formula_structural   Er10Ru10C19
_chemical_formula_sum   'Er20 Ru20 C38'
_cell_volume   990.93572755
_cell_formula_units_Z   2
loop_
 _symmetry_equiv_pos_site_id
 _symmetry_equiv_pos_as_xyz
  1  'x, y, z'
loop_
 _atom_site_type_symbol
 _atom_site_label
 _atom_site_symmetry_multiplicity
 _atom_site_fract_x
 _atom_site_fract_y
 _atom_site_fract_z
 _atom_site_occupancy
  Er  Er0  1  0.49970600  0.50000000  0.01068600  1
  Er  Er1  1  0.02181800  0.50000000  0.01078500  1
  Er  Er2  1  0.17692700  0.50000000  0.38664500  1
  Er  Er3  1  0.48919800  0.00000000  0.63598300  1
  Er  Er4  1  0.48388600  0.50000000  0.61928000  1
  Er  Er5  1  0.17856000  0.00000000  0.39992600  1
  Er  Er6  1  0.37428800  0.00000000  0.26212600  1
  Er  Er7  1  0.24869400  0.00000000  0.75986400  1
  Er  Er8  1  0.35808900  0.50000000  0.23580000  1
  Er  Er9  1  0.24522400  0.50000000  0.78491700  1
  Er  Er10  1  0.99970600  0.00000000  0.01068600  1
  Er  Er11  1  0.52181800  0.00000000  0.01078500  1
  Er  Er12  1  0.67692700  0.00000000  0.38664500  1
  Er  Er13  1  0.98919800  0.50000000  0.63598300  1
  Er  Er14  1  0.98388600  0.00000000  0.61928000  1
  Er  Er15  1  0.67856000  0.50000000  0.39992600  1
  Er  Er16  1  0.87428800  0.50000000  0.26212600  1
  Er  Er17  1  0.74869400  0.50000000  0.75986400  1
  Er  Er18  1  0.85808900  0.00000000  0.23580000  1
  Er  Er19  1  0.74522400  0.00000000  0.78491700  1
  Ru  Ru20  1  0.32266800  0.21632200  0.01047200  1
  Ru  Ru21  1  0.02710400  0.75323400  0.41687300  1
  Ru  Ru22  1  0.02710400  0.24676600  0.41687300  1
  Ru  Ru23  1  0.32321000  0.25893400  0.60382700  1
  Ru  Ru24  1  0.18967950  0.78736750  0.15668100  1
  Ru  Ru25  1  0.18967950  0.21263250  0.15668100  1
  Ru  Ru26  1  0.11641700  0.21321200  0.86446400  1
  Ru  Ru27  1  0.11641700  0.78678800  0.86446400  1
  Ru  Ru28  1  0.32321000  0.74106600  0.60382700  1
  Ru  Ru29  1  0.32266800  0.78367800  0.01047200  1
  Ru  Ru30  1  0.82266800  0.71632200  0.01047200  1
  Ru  Ru31  1  0.52710400  0.25323400  0.41687300  1
  Ru  Ru32  1  0.52710400  0.74676600  0.41687300  1
  Ru  Ru33  1  0.82321000  0.75893400  0.60382700  1
  Ru  Ru34  1  0.68967950  0.28736750  0.15668100  1
  Ru  Ru35  1  0.68967950  0.71263250  0.15668100  1
  Ru  Ru36  1  0.61641700  0.71321200  0.86446400  1
  Ru  Ru37  1  0.61641700  0.28678800  0.86446400  1
  Ru  Ru38  1  0.82321000  0.24106600  0.60382700  1
  Ru  Ru39  1  0.82266800  0.28367800  0.01047200  1
  C  C40  1  0.21150900  0.00000000  0.01052400  1
  C  C41  1  0.21011150  0.39792150  0.01068600  1
  C  C42  1  0.21011150  0.60207850  0.01068600  1
  C  C43  1  0.39231550  0.25306750  0.44421300  1
  C  C44  1  0.39231550  0.74693250  0.44421300  1
  C  C45  1  0.17546450  0.73934250  0.57725900  1
  C  C46  1  0.17546450  0.26065750  0.57725900  1
  C  C47  1  0.29328750  0.24790050  0.36855400  1
  C  C48  1  0.29328750  0.75209950  0.36855400  1
  C  C49  1  0.11424600  0.24955700  0.65254800  1
  C  C50  1  0.06510050  0.75282550  0.21729500  1
  C  C51  1  0.46144950  0.25291450  0.80388100  1
  C  C52  1  0.46144950  0.74708550  0.80388100  1
  C  C53  1  0.46460000  0.24973700  0.17602100  1
  C  C54  1  0.06510050  0.24717450  0.21729500  1
  C  C55  1  0.46460000  0.75026300  0.17602100  1
  C  C56  1  0.38167200  0.24994600  0.84513800  1
  C  C57  1  0.38167200  0.75005400  0.84513800  1
  C  C58  1  0.11424600  0.75044300  0.65254800  1
  C  C59  1  0.71150900  0.50000000  0.01052400  1
  C  C60  1  0.71011150  0.89792150  0.01068600  1
  C  C61  1  0.71011150  0.10207850  0.01068600  1
  C  C62  1  0.89231550  0.75306750  0.44421300  1
  C  C63  1  0.89231550  0.24693250  0.44421300  1
  C  C64  1  0.67546450  0.23934250  0.57725900  1
  C  C65  1  0.67546450  0.76065750  0.57725900  1
  C  C66  1  0.79328750  0.74790050  0.36855400  1
  C  C67  1  0.79328750  0.25209950  0.36855400  1
  C  C68  1  0.61424600  0.74955700  0.65254800  1
  C  C69  1  0.56510050  0.25282550  0.21729500  1
  C  C70  1  0.96144950  0.75291450  0.80388100  1
  C  C71  1  0.96144950  0.24708550  0.80388100  1
  C  C72  1  0.96460000  0.74973700  0.17602100  1
  C  C73  1  0.56510050  0.74717450  0.21729500  1
  C  C74  1  0.96460000  0.25026300  0.17602100  1
  C  C75  1  0.88167200  0.74994600  0.84513800  1
  C  C76  1  0.88167200  0.25005400  0.84513800  1
  C  C77  1  0.61424600  0.25044300  0.65254800  1
