# generated using pymatgen
data_K4Cu8Te11
_symmetry_space_group_name_H-M   'P 1'
_cell_length_a   24.37394200
_cell_length_b   6.84468800
_cell_length_c   18.60876035
_cell_angle_alpha   90.00000000
_cell_angle_beta   124.40084119
_cell_angle_gamma   90.00000000
_symmetry_Int_Tables_number   1
_chemical_formula_structural   K4Cu8Te11
_chemical_formula_sum   'K16 Cu32 Te44'
_cell_volume   2561.56982675
_cell_formula_units_Z   4
loop_
 _symmetry_equiv_pos_site_id
 _symmetry_equiv_pos_as_xyz
  1  'x, y, z'
loop_
 _atom_site_type_symbol
 _atom_site_label
 _atom_site_symmetry_multiplicity
 _atom_site_fract_x
 _atom_site_fract_y
 _atom_site_fract_z
 _atom_site_occupancy
  K  K0  1  0.75004400  0.00000000  0.08799300  1
  K  K1  1  0.24995600  0.00000000  0.91200700  1
  K  K2  1  0.85412400  0.00000000  0.47281400  1
  K  K3  1  0.14587600  0.00000000  0.52718600  1
  K  K4  1  0.87444100  0.50000000  0.33201600  1
  K  K5  1  0.12555900  0.50000000  0.66798400  1
  K  K6  1  0.06375500  0.50000000  0.22250200  1
  K  K7  1  0.93624500  0.50000000  0.77749800  1
  K  K8  1  0.25004400  0.50000000  0.08799300  1
  K  K9  1  0.74995600  0.50000000  0.91200700  1
  K  K10  1  0.35412400  0.50000000  0.47281400  1
  K  K11  1  0.64587600  0.50000000  0.52718600  1
  K  K12  1  0.37444100  0.00000000  0.33201600  1
  K  K13  1  0.62555900  0.00000000  0.66798400  1
  K  K14  1  0.56375500  0.00000000  0.22250200  1
  K  K15  1  0.43624500  0.00000000  0.77749800  1
  Cu  Cu16  1  0.37194250  0.69217050  0.88218000  1
  Cu  Cu17  1  0.62805750  0.69217050  0.11782000  1
  Cu  Cu18  1  0.62805750  0.30782950  0.11782000  1
  Cu  Cu19  1  0.37194250  0.30782950  0.88218000  1
  Cu  Cu20  1  0.07873200  0.19261900  0.94242400  1
  Cu  Cu21  1  0.92126800  0.19261900  0.05757600  1
  Cu  Cu22  1  0.92126800  0.80738100  0.05757600  1
  Cu  Cu23  1  0.07873200  0.80738100  0.94242400  1
  Cu  Cu24  1  0.29592700  0.31017100  0.61228900  1
  Cu  Cu25  1  0.70407300  0.31017100  0.38771100  1
  Cu  Cu26  1  0.70407300  0.68982900  0.38771100  1
  Cu  Cu27  1  0.29592700  0.68982900  0.61228900  1
  Cu  Cu28  1  0.99281600  0.20345100  0.66353800  1
  Cu  Cu29  1  0.00718400  0.20345100  0.33646200  1
  Cu  Cu30  1  0.99281600  0.79654900  0.66353800  1
  Cu  Cu31  1  0.00718400  0.79654900  0.33646200  1
  Cu  Cu32  1  0.87194250  0.19217050  0.88218000  1
  Cu  Cu33  1  0.12805750  0.19217050  0.11782000  1
  Cu  Cu34  1  0.12805750  0.80782950  0.11782000  1
  Cu  Cu35  1  0.87194250  0.80782950  0.88218000  1
  Cu  Cu36  1  0.57873200  0.69261900  0.94242400  1
  Cu  Cu37  1  0.42126800  0.69261900  0.05757600  1
  Cu  Cu38  1  0.42126800  0.30738100  0.05757600  1
  Cu  Cu39  1  0.57873200  0.30738100  0.94242400  1
  Cu  Cu40  1  0.79592700  0.81017100  0.61228900  1
  Cu  Cu41  1  0.20407300  0.81017100  0.38771100  1
  Cu  Cu42  1  0.20407300  0.18982900  0.38771100  1
  Cu  Cu43  1  0.79592700  0.18982900  0.61228900  1
  Cu  Cu44  1  0.49281600  0.70345100  0.66353800  1
  Cu  Cu45  1  0.50718400  0.70345100  0.33646200  1
  Cu  Cu46  1  0.49281600  0.29654900  0.66353800  1
  Cu  Cu47  1  0.50718400  0.29654900  0.33646200  1
  Te  Te48  1  0.31250600  0.50000000  0.94323500  1
  Te  Te49  1  0.68749400  0.50000000  0.05676500  1
  Te  Te50  1  0.95742000  0.00000000  0.40539700  1
  Te  Te51  1  0.04258000  0.00000000  0.59460300  1
  Te  Te52  1  0.27295000  0.21018900  0.72634900  1
  Te  Te53  1  0.72705000  0.21018900  0.27365100  1
  Te  Te54  1  0.72705000  0.78981100  0.27365100  1
  Te  Te55  1  0.27295000  0.78981100  0.72634900  1
  Te  Te56  1  0.19877300  0.50000000  0.46815400  1
  Te  Te57  1  0.80122700  0.50000000  0.53184600  1
  Te  Te58  1  0.06791400  0.50000000  0.43807600  1
  Te  Te59  1  0.93208600  0.50000000  0.56192400  1
  Te  Te60  1  0.09359200  0.29103700  0.81914500  1
  Te  Te61  1  0.90640800  0.29103700  0.18085500  1
  Te  Te62  1  0.90640800  0.70896300  0.18085500  1
  Te  Te63  1  0.09359200  0.70896300  0.81914500  1
  Te  Te64  1  0.43288900  0.00000000  0.98096300  1
  Te  Te65  1  0.56711100  0.00000000  0.01903700  1
  Te  Te66  1  0.09029400  0.00000000  0.31138900  1
  Te  Te67  1  0.90970600  0.00000000  0.68861100  1
  Te  Te68  1  0.03609300  0.00000000  0.12491200  1
  Te  Te69  1  0.96390700  0.00000000  0.87508800  1
  Te  Te70  1  0.81250600  0.00000000  0.94323500  1
  Te  Te71  1  0.18749400  0.00000000  0.05676500  1
  Te  Te72  1  0.45742000  0.50000000  0.40539700  1
  Te  Te73  1  0.54258000  0.50000000  0.59460300  1
  Te  Te74  1  0.77295000  0.71018900  0.72634900  1
  Te  Te75  1  0.22705000  0.71018900  0.27365100  1
  Te  Te76  1  0.22705000  0.28981100  0.27365100  1
  Te  Te77  1  0.77295000  0.28981100  0.72634900  1
  Te  Te78  1  0.69877300  0.00000000  0.46815400  1
  Te  Te79  1  0.30122700  0.00000000  0.53184600  1
  Te  Te80  1  0.56791400  0.00000000  0.43807600  1
  Te  Te81  1  0.43208600  0.00000000  0.56192400  1
  Te  Te82  1  0.59359200  0.79103700  0.81914500  1
  Te  Te83  1  0.40640800  0.79103700  0.18085500  1
  Te  Te84  1  0.40640800  0.20896300  0.18085500  1
  Te  Te85  1  0.59359200  0.20896300  0.81914500  1
  Te  Te86  1  0.93288900  0.50000000  0.98096300  1
  Te  Te87  1  0.06711100  0.50000000  0.01903700  1
  Te  Te88  1  0.59029400  0.50000000  0.31138900  1
  Te  Te89  1  0.40970600  0.50000000  0.68861100  1
  Te  Te90  1  0.53609300  0.50000000  0.12491200  1
  Te  Te91  1  0.46390700  0.50000000  0.87508800  1
