# generated using pymatgen
data_Ho3Ni19B10
_symmetry_space_group_name_H-M   'P 1'
_cell_length_a   13.15517200
_cell_length_b   8.69236200
_cell_length_c   5.75822777
_cell_angle_alpha   90.00000000
_cell_angle_beta   91.37861017
_cell_angle_gamma   90.00000000
_symmetry_Int_Tables_number   1
_chemical_formula_structural   Ho3Ni19B10
_chemical_formula_sum   'Ho6 Ni38 B20'
_cell_volume   658.25997106
_cell_formula_units_Z   2
loop_
 _symmetry_equiv_pos_site_id
 _symmetry_equiv_pos_as_xyz
  1  'x, y, z'
loop_
 _atom_site_type_symbol
 _atom_site_label
 _atom_site_symmetry_multiplicity
 _atom_site_fract_x
 _atom_site_fract_y
 _atom_site_fract_z
 _atom_site_occupancy
  Ho  Ho0  1  0.37426800  0.00000000  0.61424100  1
  Ho  Ho1  1  0.62573200  0.00000000  0.38575900  1
  Ho  Ho2  1  0.00000000  0.00000000  0.00000000  1
  Ho  Ho3  1  0.87426800  0.50000000  0.61424100  1
  Ho  Ho4  1  0.12573200  0.50000000  0.38575900  1
  Ho  Ho5  1  0.50000000  0.50000000  0.00000000  1
  Ni  Ni6  1  0.81821400  0.00000000  0.72910000  1
  Ni  Ni7  1  0.28123600  0.23611400  0.30230100  1
  Ni  Ni8  1  0.28123600  0.76388600  0.30230100  1
  Ni  Ni9  1  0.71876400  0.76388600  0.69769900  1
  Ni  Ni10  1  0.71876400  0.23611400  0.69769900  1
  Ni  Ni11  1  0.62766450  0.25046050  0.07371300  1
  Ni  Ni12  1  0.62766450  0.74953950  0.07371300  1
  Ni  Ni13  1  0.37233550  0.74953950  0.92628700  1
  Ni  Ni14  1  0.52957850  0.75935550  0.69901700  1
  Ni  Ni15  1  0.47042150  0.75935550  0.30098300  1
  Ni  Ni16  1  0.47042150  0.24064450  0.30098300  1
  Ni  Ni17  1  0.52957850  0.24064450  0.69901700  1
  Ni  Ni18  1  0.83776700  0.00000000  0.29623500  1
  Ni  Ni19  1  0.16223300  0.00000000  0.70376500  1
  Ni  Ni20  1  0.37791500  0.00000000  0.12670300  1
  Ni  Ni21  1  0.62208500  0.00000000  0.87329700  1
  Ni  Ni22  1  0.00000000  0.00000000  0.50000000  1
  Ni  Ni23  1  0.37233550  0.25046050  0.92628700  1
  Ni  Ni24  1  0.18178600  0.00000000  0.27090000  1
  Ni  Ni25  1  0.31821400  0.50000000  0.72910000  1
  Ni  Ni26  1  0.78123600  0.73611400  0.30230100  1
  Ni  Ni27  1  0.78123600  0.26388600  0.30230100  1
  Ni  Ni28  1  0.21876400  0.26388600  0.69769900  1
  Ni  Ni29  1  0.21876400  0.73611400  0.69769900  1
  Ni  Ni30  1  0.12766450  0.75046050  0.07371300  1
  Ni  Ni31  1  0.12766450  0.24953950  0.07371300  1
  Ni  Ni32  1  0.87233550  0.24953950  0.92628700  1
  Ni  Ni33  1  0.02957850  0.25935550  0.69901700  1
  Ni  Ni34  1  0.97042150  0.25935550  0.30098300  1
  Ni  Ni35  1  0.97042150  0.74064450  0.30098300  1
  Ni  Ni36  1  0.02957850  0.74064450  0.69901700  1
  Ni  Ni37  1  0.33776700  0.50000000  0.29623500  1
  Ni  Ni38  1  0.66223300  0.50000000  0.70376500  1
  Ni  Ni39  1  0.87791500  0.50000000  0.12670300  1
  Ni  Ni40  1  0.12208500  0.50000000  0.87329700  1
  Ni  Ni41  1  0.50000000  0.50000000  0.50000000  1
  Ni  Ni42  1  0.87233550  0.75046050  0.92628700  1
  Ni  Ni43  1  0.68178600  0.50000000  0.27090000  1
  B  B44  1  0.61791300  0.31682500  0.43091900  1
  B  B45  1  0.38208700  0.31682500  0.56908100  1
  B  B46  1  0.38208700  0.68317500  0.56908100  1
  B  B47  1  0.24604200  0.89652800  0.97482900  1
  B  B48  1  0.24604200  0.10347200  0.97482900  1
  B  B49  1  0.75395800  0.10347200  0.02517100  1
  B  B50  1  0.50000000  0.88470900  0.00000000  1
  B  B51  1  0.50000000  0.11529100  0.00000000  1
  B  B52  1  0.61791300  0.68317500  0.43091900  1
  B  B53  1  0.75395800  0.89652800  0.02517100  1
  B  B54  1  0.11791300  0.81682500  0.43091900  1
  B  B55  1  0.88208700  0.81682500  0.56908100  1
  B  B56  1  0.88208700  0.18317500  0.56908100  1
  B  B57  1  0.74604200  0.39652800  0.97482900  1
  B  B58  1  0.74604200  0.60347200  0.97482900  1
  B  B59  1  0.25395800  0.60347200  0.02517100  1
  B  B60  1  0.00000000  0.38470900  0.00000000  1
  B  B61  1  0.00000000  0.61529100  0.00000000  1
  B  B62  1  0.11791300  0.18317500  0.43091900  1
  B  B63  1  0.25395800  0.39652800  0.02517100  1
