# generated using pymatgen
data_Nd2WO6
_symmetry_space_group_name_H-M   'P 1'
_cell_length_a   17.12953400
_cell_length_b   11.75431200
_cell_length_c   5.70467595
_cell_angle_alpha   90.00000000
_cell_angle_beta   108.30098158
_cell_angle_gamma   90.00000000
_symmetry_Int_Tables_number   1
_chemical_formula_structural   Nd2WO6
_chemical_formula_sum   'Nd16 W8 O48'
_cell_volume   1090.51630461
_cell_formula_units_Z   8
loop_
 _symmetry_equiv_pos_site_id
 _symmetry_equiv_pos_as_xyz
  1  'x, y, z'
loop_
 _atom_site_type_symbol
 _atom_site_label
 _atom_site_symmetry_multiplicity
 _atom_site_fract_x
 _atom_site_fract_y
 _atom_site_fract_z
 _atom_site_occupancy
  Nd  Nd0  1  0.50000000  0.39170800  0.25000000  1
  Nd  Nd1  1  0.50000000  0.60829200  0.75000000  1
  Nd  Nd2  1  0.17724550  0.11365650  0.38219100  1
  Nd  Nd3  1  0.82275450  0.11365650  0.11780900  1
  Nd  Nd4  1  0.82275450  0.88634350  0.61780900  1
  Nd  Nd5  1  0.17724550  0.88634350  0.88219100  1
  Nd  Nd6  1  0.50000000  0.87018000  0.25000000  1
  Nd  Nd7  1  0.50000000  0.12982000  0.75000000  1
  Nd  Nd8  1  0.00000000  0.89170800  0.25000000  1
  Nd  Nd9  1  0.00000000  0.10829200  0.75000000  1
  Nd  Nd10  1  0.67724550  0.61365650  0.38219100  1
  Nd  Nd11  1  0.32275450  0.61365650  0.11780900  1
  Nd  Nd12  1  0.32275450  0.38634350  0.61780900  1
  Nd  Nd13  1  0.67724550  0.38634350  0.88219100  1
  Nd  Nd14  1  0.00000000  0.37018000  0.25000000  1
  Nd  Nd15  1  0.00000000  0.62982000  0.75000000  1
  W  W16  1  0.65034000  0.14765400  0.44404300  1
  W  W17  1  0.34966000  0.14765400  0.05595700  1
  W  W18  1  0.34966000  0.85234600  0.55595700  1
  W  W19  1  0.65034000  0.85234600  0.94404300  1
  W  W20  1  0.15034000  0.64765400  0.44404300  1
  W  W21  1  0.84966000  0.64765400  0.05595700  1
  W  W22  1  0.84966000  0.35234600  0.55595700  1
  W  W23  1  0.15034000  0.35234600  0.94404300  1
  O  O24  1  0.39426600  0.78178300  0.85852600  1
  O  O25  1  0.60573400  0.78178300  0.64147400  1
  O  O26  1  0.60573400  0.21821700  0.14147400  1
  O  O27  1  0.39426600  0.21821700  0.35852600  1
  O  O28  1  0.27196300  0.79756000  0.26823600  1
  O  O29  1  0.72803700  0.79756000  0.23176400  1
  O  O30  1  0.72803700  0.20244000  0.73176400  1
  O  O31  1  0.27196300  0.20244000  0.76823600  1
  O  O32  1  0.27185800  0.94326900  0.62629700  1
  O  O33  1  0.72814200  0.94326900  0.87370300  1
  O  O34  1  0.72814200  0.05673100  0.37370300  1
  O  O35  1  0.27185800  0.05673100  0.12629700  1
  O  O36  1  0.90649100  0.01540700  0.92685600  1
  O  O37  1  0.09350900  0.01540700  0.57314400  1
  O  O38  1  0.09350900  0.98459300  0.07314400  1
  O  O39  1  0.90649100  0.98459300  0.42685600  1
  O  O40  1  0.42193100  0.25886700  0.92107100  1
  O  O41  1  0.57806900  0.25886700  0.57892900  1
  O  O42  1  0.57806900  0.74113300  0.07892900  1
  O  O43  1  0.42193100  0.74113300  0.42107100  1
  O  O44  1  0.42003500  0.03773800  0.01720300  1
  O  O45  1  0.57996500  0.03773800  0.48279700  1
  O  O46  1  0.57996500  0.96226200  0.98279700  1
  O  O47  1  0.42003500  0.96226200  0.51720300  1
  O  O48  1  0.89426600  0.28178300  0.85852600  1
  O  O49  1  0.10573400  0.28178300  0.64147400  1
  O  O50  1  0.10573400  0.71821700  0.14147400  1
  O  O51  1  0.89426600  0.71821700  0.35852600  1
  O  O52  1  0.77196300  0.29756000  0.26823600  1
  O  O53  1  0.22803700  0.29756000  0.23176400  1
  O  O54  1  0.22803700  0.70244000  0.73176400  1
  O  O55  1  0.77196300  0.70244000  0.76823600  1
  O  O56  1  0.77185800  0.44326900  0.62629700  1
  O  O57  1  0.22814200  0.44326900  0.87370300  1
  O  O58  1  0.22814200  0.55673100  0.37370300  1
  O  O59  1  0.77185800  0.55673100  0.12629700  1
  O  O60  1  0.40649100  0.51540700  0.92685600  1
  O  O61  1  0.59350900  0.51540700  0.57314400  1
  O  O62  1  0.59350900  0.48459300  0.07314400  1
  O  O63  1  0.40649100  0.48459300  0.42685600  1
  O  O64  1  0.92193100  0.75886700  0.92107100  1
  O  O65  1  0.07806900  0.75886700  0.57892900  1
  O  O66  1  0.07806900  0.24113300  0.07892900  1
  O  O67  1  0.92193100  0.24113300  0.42107100  1
  O  O68  1  0.92003500  0.53773800  0.01720300  1
  O  O69  1  0.07996500  0.53773800  0.48279700  1
  O  O70  1  0.07996500  0.46226200  0.98279700  1
  O  O71  1  0.92003500  0.46226200  0.51720300  1
