# generated using pymatgen
data_Ca2MnGaO5
_symmetry_space_group_name_H-M   'P 1'
_cell_length_a   5.40702084
_cell_length_b   5.63315408
_cell_length_c   15.02428454
_cell_angle_alpha   90.00000000
_cell_angle_beta   90.00000000
_cell_angle_gamma   90.00000000
_symmetry_Int_Tables_number   1
_chemical_formula_structural   Ca2MnGaO5
_chemical_formula_sum   'Ca8 Mn4 Ga4 O20'
_cell_volume   457.61839534
_cell_formula_units_Z   4
loop_
 _symmetry_equiv_pos_site_id
 _symmetry_equiv_pos_as_xyz
  1  'x, y, z'
loop_
 _atom_site_type_symbol
 _atom_site_label
 _atom_site_symmetry_multiplicity
 _atom_site_fract_x
 _atom_site_fract_y
 _atom_site_fract_z
 _atom_site_occupancy
  Ca  Ca0  1  0.50173000  0.02755600  0.89025500  1
  Ca  Ca1  1  0.00173000  0.47244400  0.60974500  1
  Ca  Ca2  1  0.00173000  0.47244400  0.89025500  1
  Ca  Ca3  1  0.50173000  0.02755600  0.60974500  1
  Ca  Ca4  1  0.00173000  0.52755600  0.39025500  1
  Ca  Ca5  1  0.50173000  0.97244400  0.10974500  1
  Ca  Ca6  1  0.50173000  0.97244400  0.39025500  1
  Ca  Ca7  1  0.00173000  0.52755600  0.10974500  1
  Mn  Mn8  1  0.98703700  0.00000000  0.00000000  1
  Mn  Mn9  1  0.48703700  0.50000000  0.00000000  1
  Mn  Mn10  1  0.48703700  0.50000000  0.50000000  1
  Mn  Mn11  1  0.98703700  0.00000000  0.50000000  1
  Ga  Ga12  1  0.02735600  0.93370800  0.75000000  1
  Ga  Ga13  1  0.52735600  0.56629200  0.75000000  1
  Ga  Ga14  1  0.52735600  0.43370800  0.25000000  1
  Ga  Ga15  1  0.02735600  0.06629200  0.25000000  1
  O  O16  1  0.37959900  0.87714700  0.75000000  1
  O  O17  1  0.87959900  0.62285300  0.75000000  1
  O  O18  1  0.94416250  0.07603250  0.64421150  1
  O  O19  1  0.44416250  0.42396750  0.85578850  1
  O  O20  1  0.44416250  0.42396750  0.64421150  1
  O  O21  1  0.94416250  0.07603250  0.85578850  1
  O  O22  1  0.24281300  0.75058900  0.98501200  1
  O  O23  1  0.74281300  0.74941100  0.51498800  1
  O  O24  1  0.24281300  0.75058900  0.51498800  1
  O  O25  1  0.74281300  0.74941100  0.98501200  1
  O  O26  1  0.87959900  0.37714700  0.25000000  1
  O  O27  1  0.37959900  0.12285300  0.25000000  1
  O  O28  1  0.44416250  0.57603250  0.14421150  1
  O  O29  1  0.94416250  0.92396750  0.35578850  1
  O  O30  1  0.94416250  0.92396750  0.14421150  1
  O  O31  1  0.44416250  0.57603250  0.35578850  1
  O  O32  1  0.74281300  0.25058900  0.48501200  1
  O  O33  1  0.24281300  0.24941100  0.01498800  1
  O  O34  1  0.74281300  0.25058900  0.01498800  1
  O  O35  1  0.24281300  0.24941100  0.48501200  1
