# generated using pymatgen
data_Tb(FeGe)2
_symmetry_space_group_name_H-M   'P 1'
_cell_length_a   3.95318800
_cell_length_b   3.95318800
_cell_length_c   10.70338200
_cell_angle_alpha   90.00000000
_cell_angle_beta   90.00000000
_cell_angle_gamma   90.00000000
_symmetry_Int_Tables_number   1
_chemical_formula_structural   Tb(FeGe)2
_chemical_formula_sum   'Tb2 Fe4 Ge4'
_cell_volume   167.26919325
_cell_formula_units_Z   2
loop_
 _symmetry_equiv_pos_site_id
 _symmetry_equiv_pos_as_xyz
  1  'x, y, z'
loop_
 _atom_site_type_symbol
 _atom_site_label
 _atom_site_symmetry_multiplicity
 _atom_site_fract_x
 _atom_site_fract_y
 _atom_site_fract_z
 _atom_site_occupancy
  Tb  Tb0  1  0.00000000  0.00000000  0.00000000  1
  Tb  Tb1  1  0.50000000  0.50000000  0.50000000  1
  Fe  Fe2  1  0.00000000  0.50000000  0.25000000  1
  Fe  Fe3  1  0.50000000  0.00000000  0.25000000  1
  Fe  Fe4  1  0.50000000  0.00000000  0.75000000  1
  Fe  Fe5  1  0.00000000  0.50000000  0.75000000  1
  Ge  Ge6  1  0.50000000  0.50000000  0.11814100  1
  Ge  Ge7  1  0.00000000  0.00000000  0.38185900  1
  Ge  Ge8  1  0.00000000  0.00000000  0.61814100  1
  Ge  Ge9  1  0.50000000  0.50000000  0.88185900  1
