# generated using pymatgen
data_K2(CuTe)5
_symmetry_space_group_name_H-M   'P 1'
_cell_length_a   4.13402800
_cell_length_b   16.07450400
_cell_length_c   18.84191500
_cell_angle_alpha   90.00000000
_cell_angle_beta   90.00000000
_cell_angle_gamma   90.00000000
_symmetry_Int_Tables_number   1
_chemical_formula_structural   K2(CuTe)5
_chemical_formula_sum   'K8 Cu20 Te20'
_cell_volume   1252.09140732
_cell_formula_units_Z   4
loop_
 _symmetry_equiv_pos_site_id
 _symmetry_equiv_pos_as_xyz
  1  'x, y, z'
loop_
 _atom_site_type_symbol
 _atom_site_label
 _atom_site_symmetry_multiplicity
 _atom_site_fract_x
 _atom_site_fract_y
 _atom_site_fract_z
 _atom_site_occupancy
  K  K0  1  0.00000000  0.48267200  0.61804900  1
  K  K1  1  0.50000000  0.01732800  0.38195100  1
  K  K2  1  0.50000000  0.01732800  0.11804900  1
  K  K3  1  0.00000000  0.48267200  0.88195100  1
  K  K4  1  0.50000000  0.98267200  0.61804900  1
  K  K5  1  0.00000000  0.51732800  0.38195100  1
  K  K6  1  0.00000000  0.51732800  0.11804900  1
  K  K7  1  0.50000000  0.98267200  0.88195100  1
  Cu  Cu8  1  0.00000000  0.32608600  0.25000000  1
  Cu  Cu9  1  0.50000000  0.17391400  0.75000000  1
  Cu  Cu10  1  0.00000000  0.27618200  0.45705100  1
  Cu  Cu11  1  0.50000000  0.22381800  0.54294900  1
  Cu  Cu12  1  0.50000000  0.22381800  0.95705100  1
  Cu  Cu13  1  0.00000000  0.27618200  0.04294900  1
  Cu  Cu14  1  0.00000000  0.19948700  0.85292700  1
  Cu  Cu15  1  0.50000000  0.30051300  0.14707300  1
  Cu  Cu16  1  0.50000000  0.30051300  0.35292700  1
  Cu  Cu17  1  0.00000000  0.19948700  0.64707300  1
  Cu  Cu18  1  0.50000000  0.82608600  0.25000000  1
  Cu  Cu19  1  0.00000000  0.67391400  0.75000000  1
  Cu  Cu20  1  0.50000000  0.77618200  0.45705100  1
  Cu  Cu21  1  0.00000000  0.72381800  0.54294900  1
  Cu  Cu22  1  0.00000000  0.72381800  0.95705100  1
  Cu  Cu23  1  0.50000000  0.77618200  0.04294900  1
  Cu  Cu24  1  0.50000000  0.69948700  0.85292700  1
  Cu  Cu25  1  0.00000000  0.80051300  0.14707300  1
  Cu  Cu26  1  0.00000000  0.80051300  0.35292700  1
  Cu  Cu27  1  0.50000000  0.69948700  0.64707300  1
  Te  Te28  1  0.50000000  0.42083700  0.25000000  1
  Te  Te29  1  0.00000000  0.07916300  0.75000000  1
  Te  Te30  1  0.50000000  0.30311600  0.66666100  1
  Te  Te31  1  0.00000000  0.19688400  0.33333900  1
  Te  Te32  1  0.00000000  0.19688400  0.16666100  1
  Te  Te33  1  0.50000000  0.30311600  0.83333900  1
  Te  Te34  1  0.00000000  0.12833300  0.52029600  1
  Te  Te35  1  0.50000000  0.37166700  0.47970400  1
  Te  Te36  1  0.50000000  0.37166700  0.02029600  1
  Te  Te37  1  0.00000000  0.12833300  0.97970400  1
  Te  Te38  1  0.00000000  0.92083700  0.25000000  1
  Te  Te39  1  0.50000000  0.57916300  0.75000000  1
  Te  Te40  1  0.00000000  0.80311600  0.66666100  1
  Te  Te41  1  0.50000000  0.69688400  0.33333900  1
  Te  Te42  1  0.50000000  0.69688400  0.16666100  1
  Te  Te43  1  0.00000000  0.80311600  0.83333900  1
  Te  Te44  1  0.50000000  0.62833300  0.52029600  1
  Te  Te45  1  0.00000000  0.87166700  0.47970400  1
  Te  Te46  1  0.00000000  0.87166700  0.02029600  1
  Te  Te47  1  0.50000000  0.62833300  0.97970400  1
