# generated using pymatgen
data_Mo3O8
_symmetry_space_group_name_H-M   'P 1'
_cell_length_a   6.16427796
_cell_length_b   6.16427796
_cell_length_c   14.54617975
_cell_angle_alpha   90.00000000
_cell_angle_beta   90.00000000
_cell_angle_gamma   120.00000000
_symmetry_Int_Tables_number   1
_chemical_formula_structural   Mo3O8
_chemical_formula_sum   'Mo9 O24'
_cell_volume   478.67859732
_cell_formula_units_Z   3
loop_
 _symmetry_equiv_pos_site_id
 _symmetry_equiv_pos_as_xyz
  1  'x, y, z'
loop_
 _atom_site_type_symbol
 _atom_site_label
 _atom_site_symmetry_multiplicity
 _atom_site_fract_x
 _atom_site_fract_y
 _atom_site_fract_z
 _atom_site_occupancy
  Mo  Mo0  1  0.33333333  0.16666667  0.16666667  1
  Mo  Mo1  1  0.16666667  0.33333333  0.83333333  1
  Mo  Mo2  1  0.83333333  0.16666667  0.16666667  1
  Mo  Mo3  1  0.00000000  0.50000000  0.50000000  1
  Mo  Mo4  1  0.83333333  0.66666667  0.16666667  1
  Mo  Mo5  1  0.50000000  0.50000000  0.50000000  1
  Mo  Mo6  1  0.66666667  0.83333333  0.83333333  1
  Mo  Mo7  1  0.50000000  0.00000000  0.50000000  1
  Mo  Mo8  1  0.16666667  0.83333333  0.83333333  1
  O  O9  1  0.96076467  0.48038233  0.23431433  1
  O  O10  1  0.14704900  0.29409800  0.09901900  1
  O  O11  1  0.51961767  0.03923533  0.23431433  1
  O  O12  1  0.70590200  0.85295100  0.09901900  1
  O  O13  1  0.14704900  0.85295100  0.09901900  1
  O  O14  1  0.51961767  0.48038233  0.23431433  1
  O  O15  1  0.33333333  0.66666667  0.90879567  1
  O  O16  1  0.33333333  0.66666667  0.42453767  1
  O  O17  1  0.62743133  0.81371567  0.56764767  1
  O  O18  1  0.81371567  0.62743133  0.43235233  1
  O  O19  1  0.18628433  0.37256867  0.56764767  1
  O  O20  1  0.37256867  0.18628433  0.43235233  1
  O  O21  1  0.81371567  0.18628433  0.43235233  1
  O  O22  1  0.18628433  0.81371567  0.56764767  1
  O  O23  1  0.00000000  0.00000000  0.24212900  1
  O  O24  1  0.00000000  0.00000000  0.75787100  1
  O  O25  1  0.29409800  0.14704900  0.90098100  1
  O  O26  1  0.48038233  0.96076467  0.76568567  1
  O  O27  1  0.85295100  0.70590200  0.90098100  1
  O  O28  1  0.03923533  0.51961767  0.76568567  1
  O  O29  1  0.48038233  0.51961767  0.76568567  1
  O  O30  1  0.85295100  0.14704900  0.90098100  1
  O  O31  1  0.66666667  0.33333333  0.57546233  1
  O  O32  1  0.66666667  0.33333333  0.09120433  1
