# generated using pymatgen
data_Cr2P
_symmetry_space_group_name_H-M   'P 1'
_cell_length_a   6.33367600
_cell_length_b   6.55129800
_cell_length_c   10.21244800
_cell_angle_alpha   90.00000000
_cell_angle_beta   90.00000000
_cell_angle_gamma   90.00000000
_symmetry_Int_Tables_number   1
_chemical_formula_structural   Cr2P
_chemical_formula_sum   'Cr24 P12'
_cell_volume   423.75326371
_cell_formula_units_Z   12
loop_
 _symmetry_equiv_pos_site_id
 _symmetry_equiv_pos_as_xyz
  1  'x, y, z'
loop_
 _atom_site_type_symbol
 _atom_site_label
 _atom_site_symmetry_multiplicity
 _atom_site_fract_x
 _atom_site_fract_y
 _atom_site_fract_z
 _atom_site_occupancy
  Cr  Cr0  1  0.74216000  0.79509100  0.00000000  1
  Cr  Cr1  1  0.74216000  0.20490900  0.00000000  1
  Cr  Cr2  1  0.62766350  0.20838950  0.37478450  1
  Cr  Cr3  1  0.12766350  0.29161050  0.12521550  1
  Cr  Cr4  1  0.62766350  0.79161050  0.37478450  1
  Cr  Cr5  1  0.12766350  0.70838950  0.12521550  1
  Cr  Cr6  1  0.26694850  0.00000000  0.28790550  1
  Cr  Cr7  1  0.76694850  0.50000000  0.21209450  1
  Cr  Cr8  1  0.35093200  0.50000000  0.28507700  1
  Cr  Cr9  1  0.85093200  0.00000000  0.21492300  1
  Cr  Cr10  1  0.45118500  0.50000000  0.00000000  1
  Cr  Cr11  1  0.37296600  0.00000000  0.00000000  1
  Cr  Cr12  1  0.24216000  0.29509100  0.50000000  1
  Cr  Cr13  1  0.24216000  0.70490900  0.50000000  1
  Cr  Cr14  1  0.12766350  0.70838950  0.87478450  1
  Cr  Cr15  1  0.62766350  0.79161050  0.62521550  1
  Cr  Cr16  1  0.12766350  0.29161050  0.87478450  1
  Cr  Cr17  1  0.62766350  0.20838950  0.62521550  1
  Cr  Cr18  1  0.76694850  0.50000000  0.78790550  1
  Cr  Cr19  1  0.26694850  0.00000000  0.71209450  1
  Cr  Cr20  1  0.85093200  0.00000000  0.78507700  1
  Cr  Cr21  1  0.35093200  0.50000000  0.71492300  1
  Cr  Cr22  1  0.95118500  0.00000000  0.50000000  1
  Cr  Cr23  1  0.87296600  0.50000000  0.50000000  1
  P  P24  1  0.99923400  0.72757600  0.33499900  1
  P  P25  1  0.49923400  0.77242400  0.16500100  1
  P  P26  1  0.99923400  0.27242400  0.33499900  1
  P  P27  1  0.49923400  0.22757600  0.16500100  1
  P  P28  1  0.92007700  0.50000000  0.00000000  1
  P  P29  1  0.02639900  0.00000000  0.00000000  1
  P  P30  1  0.49923400  0.22757600  0.83499900  1
  P  P31  1  0.99923400  0.27242400  0.66500100  1
  P  P32  1  0.49923400  0.77242400  0.83499900  1
  P  P33  1  0.99923400  0.72757600  0.66500100  1
  P  P34  1  0.42007700  0.00000000  0.50000000  1
  P  P35  1  0.52639900  0.50000000  0.50000000  1
