# generated using pymatgen
data_Ca2FeN2
_symmetry_space_group_name_H-M   'P 1'
_cell_length_a   10.87518800
_cell_length_b   4.96440200
_cell_length_c   6.71369931
_cell_angle_alpha   90.00000000
_cell_angle_beta   121.38334405
_cell_angle_gamma   90.00000000
_symmetry_Int_Tables_number   1
_chemical_formula_structural   Ca2FeN2
_chemical_formula_sum   'Ca8 Fe4 N8'
_cell_volume   309.43683619
_cell_formula_units_Z   4
loop_
 _symmetry_equiv_pos_site_id
 _symmetry_equiv_pos_as_xyz
  1  'x, y, z'
loop_
 _atom_site_type_symbol
 _atom_site_label
 _atom_site_symmetry_multiplicity
 _atom_site_fract_x
 _atom_site_fract_y
 _atom_site_fract_z
 _atom_site_occupancy
  Ca  Ca0  1  0.18102400  0.50000000  0.60221500  1
  Ca  Ca1  1  0.81897600  0.50000000  0.39778500  1
  Ca  Ca2  1  0.04115300  0.00000000  0.77543200  1
  Ca  Ca3  1  0.95884700  0.00000000  0.22456800  1
  Ca  Ca4  1  0.68102400  0.00000000  0.60221500  1
  Ca  Ca5  1  0.31897600  0.00000000  0.39778500  1
  Ca  Ca6  1  0.54115300  0.50000000  0.77543200  1
  Ca  Ca7  1  0.45884700  0.50000000  0.22456800  1
  Fe  Fe8  1  0.37317900  0.00000000  0.87070200  1
  Fe  Fe9  1  0.62682100  0.00000000  0.12929800  1
  Fe  Fe10  1  0.87317900  0.50000000  0.87070200  1
  Fe  Fe11  1  0.12682100  0.50000000  0.12929800  1
  N  N12  1  0.19068300  0.00000000  0.62028600  1
  N  N13  1  0.80931700  0.00000000  0.37971400  1
  N  N14  1  0.98069000  0.50000000  0.19622400  1
  N  N15  1  0.01931000  0.50000000  0.80377600  1
  N  N16  1  0.69068300  0.50000000  0.62028600  1
  N  N17  1  0.30931700  0.50000000  0.37971400  1
  N  N18  1  0.48069000  0.00000000  0.19622400  1
  N  N19  1  0.51931000  0.00000000  0.80377600  1
