# generated using pymatgen
data_Er4Ni13C4
_symmetry_space_group_name_H-M   'P 1'
_cell_length_a   11.68567200
_cell_length_b   11.94629800
_cell_length_c   3.83818500
_cell_angle_alpha   90.00000000
_cell_angle_beta   90.00000000
_cell_angle_gamma   90.00000000
_symmetry_Int_Tables_number   1
_chemical_formula_structural   Er4Ni13C4
_chemical_formula_sum   'Er8 Ni26 C8'
_cell_volume   535.81262202
_cell_formula_units_Z   2
loop_
 _symmetry_equiv_pos_site_id
 _symmetry_equiv_pos_as_xyz
  1  'x, y, z'
loop_
 _atom_site_type_symbol
 _atom_site_label
 _atom_site_symmetry_multiplicity
 _atom_site_fract_x
 _atom_site_fract_y
 _atom_site_fract_z
 _atom_site_occupancy
  Er  Er0  1  0.34837400  0.00000000  0.50000000  1
  Er  Er1  1  0.65162600  0.00000000  0.50000000  1
  Er  Er2  1  0.50000000  0.31276300  0.50000000  1
  Er  Er3  1  0.50000000  0.68723700  0.50000000  1
  Er  Er4  1  0.84837400  0.50000000  0.50000000  1
  Er  Er5  1  0.15162600  0.50000000  0.50000000  1
  Er  Er6  1  0.00000000  0.81276300  0.50000000  1
  Er  Er7  1  0.00000000  0.18723700  0.50000000  1
  Ni  Ni8  1  0.25000000  0.75000000  0.50000000  1
  Ni  Ni9  1  0.25000000  0.25000000  0.50000000  1
  Ni  Ni10  1  0.00000000  0.00000000  0.00000000  1
  Ni  Ni11  1  0.60727700  0.17710000  0.00000000  1
  Ni  Ni12  1  0.39272300  0.82290000  0.00000000  1
  Ni  Ni13  1  0.60727700  0.82290000  0.00000000  1
  Ni  Ni14  1  0.39272300  0.17710000  0.00000000  1
  Ni  Ni15  1  0.81732000  0.10826800  0.00000000  1
  Ni  Ni16  1  0.18268000  0.89173200  0.00000000  1
  Ni  Ni17  1  0.81732000  0.89173200  0.00000000  1
  Ni  Ni18  1  0.18268000  0.10826800  0.00000000  1
  Ni  Ni19  1  0.87662700  0.00000000  0.50000000  1
  Ni  Ni20  1  0.12337300  0.00000000  0.50000000  1
  Ni  Ni21  1  0.75000000  0.25000000  0.50000000  1
  Ni  Ni22  1  0.75000000  0.75000000  0.50000000  1
  Ni  Ni23  1  0.50000000  0.50000000  0.00000000  1
  Ni  Ni24  1  0.10727700  0.67710000  0.00000000  1
  Ni  Ni25  1  0.89272300  0.32290000  0.00000000  1
  Ni  Ni26  1  0.10727700  0.32290000  0.00000000  1
  Ni  Ni27  1  0.89272300  0.67710000  0.00000000  1
  Ni  Ni28  1  0.31732000  0.60826800  0.00000000  1
  Ni  Ni29  1  0.68268000  0.39173200  0.00000000  1
  Ni  Ni30  1  0.31732000  0.39173200  0.00000000  1
  Ni  Ni31  1  0.68268000  0.60826800  0.00000000  1
  Ni  Ni32  1  0.37662700  0.50000000  0.50000000  1
  Ni  Ni33  1  0.62337300  0.50000000  0.50000000  1
  C  C34  1  0.25000000  0.25000000  0.00000000  1
  C  C35  1  0.25000000  0.75000000  0.00000000  1
  C  C36  1  0.50000000  0.94297000  0.00000000  1
  C  C37  1  0.50000000  0.05703000  0.00000000  1
  C  C38  1  0.75000000  0.75000000  0.00000000  1
  C  C39  1  0.75000000  0.25000000  0.00000000  1
  C  C40  1  0.00000000  0.44297000  0.00000000  1
  C  C41  1  0.00000000  0.55703000  0.00000000  1
