# generated using pymatgen
data_MnO2
_symmetry_space_group_name_H-M   'P 1'
_cell_length_a   2.92948186
_cell_length_b   2.92948186
_cell_length_c   18.87786969
_cell_angle_alpha   90.00000000
_cell_angle_beta   90.00000000
_cell_angle_gamma   120.00000000
_symmetry_Int_Tables_number   1
_chemical_formula_structural   MnO2
_chemical_formula_sum   'Mn3 O6'
_cell_volume   140.30244542
_cell_formula_units_Z   3
loop_
 _symmetry_equiv_pos_site_id
 _symmetry_equiv_pos_as_xyz
  1  'x, y, z'
loop_
 _atom_site_type_symbol
 _atom_site_label
 _atom_site_symmetry_multiplicity
 _atom_site_fract_x
 _atom_site_fract_y
 _atom_site_fract_z
 _atom_site_occupancy
  Mn  Mn0  1  0.00000000  0.00000000  0.00000000  1
  Mn  Mn1  1  0.66666667  0.33333333  0.33333333  1
  Mn  Mn2  1  0.33333333  0.66666667  0.66666667  1
  O  O3  1  0.00000000  0.00000000  0.28258400  1
  O  O4  1  0.66666667  0.33333333  0.05074933  1
  O  O5  1  0.66666667  0.33333333  0.61591733  1
  O  O6  1  0.33333333  0.66666667  0.38408267  1
  O  O7  1  0.33333333  0.66666667  0.94925067  1
  O  O8  1  0.00000000  0.00000000  0.71741600  1
