# generated using pymatgen
data_BaLa2CoS5
_symmetry_space_group_name_H-M   'P 1'
_cell_length_a   7.98881600
_cell_length_b   7.98881600
_cell_length_c   13.51806600
_cell_angle_alpha   90.00000000
_cell_angle_beta   90.00000000
_cell_angle_gamma   90.00000000
_symmetry_Int_Tables_number   1
_chemical_formula_structural   BaLa2CoS5
_chemical_formula_sum   'Ba4 La8 Co4 S20'
_cell_volume   862.73893806
_cell_formula_units_Z   4
loop_
 _symmetry_equiv_pos_site_id
 _symmetry_equiv_pos_as_xyz
  1  'x, y, z'
loop_
 _atom_site_type_symbol
 _atom_site_label
 _atom_site_symmetry_multiplicity
 _atom_site_fract_x
 _atom_site_fract_y
 _atom_site_fract_z
 _atom_site_occupancy
  Ba  Ba0  1  0.00000000  0.00000000  0.25000000  1
  Ba  Ba1  1  0.50000000  0.50000000  0.25000000  1
  Ba  Ba2  1  0.50000000  0.50000000  0.75000000  1
  Ba  Ba3  1  0.00000000  0.00000000  0.75000000  1
  La  La4  1  0.16427400  0.33572600  0.00000000  1
  La  La5  1  0.16427400  0.66427400  0.50000000  1
  La  La6  1  0.33572600  0.83572600  0.00000000  1
  La  La7  1  0.83572600  0.66427400  0.00000000  1
  La  La8  1  0.66427400  0.83572600  0.50000000  1
  La  La9  1  0.66427400  0.16427400  0.00000000  1
  La  La10  1  0.83572600  0.33572600  0.50000000  1
  La  La11  1  0.33572600  0.16427400  0.50000000  1
  Co  Co12  1  0.00000000  0.50000000  0.25000000  1
  Co  Co13  1  0.50000000  0.00000000  0.25000000  1
  Co  Co14  1  0.50000000  0.00000000  0.75000000  1
  Co  Co15  1  0.00000000  0.50000000  0.75000000  1
  S  S16  1  0.85398700  0.35398700  0.13760500  1
  S  S17  1  0.35398700  0.85398700  0.36239500  1
  S  S18  1  0.64601300  0.14601300  0.36239500  1
  S  S19  1  0.85398700  0.64601300  0.36239500  1
  S  S20  1  0.14601300  0.35398700  0.36239500  1
  S  S21  1  0.64601300  0.85398700  0.13760500  1
  S  S22  1  0.35398700  0.14601300  0.13760500  1
  S  S23  1  0.14601300  0.64601300  0.13760500  1
  S  S24  1  0.50000000  0.50000000  0.00000000  1
  S  S25  1  0.00000000  0.00000000  0.00000000  1
  S  S26  1  0.35398700  0.85398700  0.63760500  1
  S  S27  1  0.85398700  0.35398700  0.86239500  1
  S  S28  1  0.14601300  0.64601300  0.86239500  1
  S  S29  1  0.35398700  0.14601300  0.86239500  1
  S  S30  1  0.64601300  0.85398700  0.86239500  1
  S  S31  1  0.14601300  0.35398700  0.63760500  1
  S  S32  1  0.85398700  0.64601300  0.63760500  1
  S  S33  1  0.64601300  0.14601300  0.63760500  1
  S  S34  1  0.00000000  0.00000000  0.50000000  1
  S  S35  1  0.50000000  0.50000000  0.50000000  1
