# generated using pymatgen
data_Ce3Ni2B2N3
_symmetry_space_group_name_H-M   'P 1'
_cell_length_a   3.57662800
_cell_length_b   3.57662800
_cell_length_c   20.22055800
_cell_angle_alpha   90.00000000
_cell_angle_beta   90.00000000
_cell_angle_gamma   90.00000000
_symmetry_Int_Tables_number   1
_chemical_formula_structural   Ce3Ni2B2N3
_chemical_formula_sum   'Ce6 Ni4 B4 N6'
_cell_volume   258.66679402
_cell_formula_units_Z   2
loop_
 _symmetry_equiv_pos_site_id
 _symmetry_equiv_pos_as_xyz
  1  'x, y, z'
loop_
 _atom_site_type_symbol
 _atom_site_label
 _atom_site_symmetry_multiplicity
 _atom_site_fract_x
 _atom_site_fract_y
 _atom_site_fract_z
 _atom_site_occupancy
  Ce  Ce0  1  0.50000000  0.50000000  0.12688400  1
  Ce  Ce1  1  0.00000000  0.00000000  0.37311600  1
  Ce  Ce2  1  0.00000000  0.00000000  0.00000000  1
  Ce  Ce3  1  0.00000000  0.00000000  0.62688400  1
  Ce  Ce4  1  0.50000000  0.50000000  0.87311600  1
  Ce  Ce5  1  0.50000000  0.50000000  0.50000000  1
  Ni  Ni6  1  0.00000000  0.50000000  0.25000000  1
  Ni  Ni7  1  0.50000000  0.00000000  0.25000000  1
  Ni  Ni8  1  0.50000000  0.00000000  0.75000000  1
  Ni  Ni9  1  0.00000000  0.50000000  0.75000000  1
  B  B10  1  0.50000000  0.50000000  0.30828500  1
  B  B11  1  0.00000000  0.00000000  0.19171500  1
  B  B12  1  0.00000000  0.00000000  0.80828500  1
  B  B13  1  0.50000000  0.50000000  0.69171500  1
  N  N14  1  0.50000000  0.50000000  0.38083600  1
  N  N15  1  0.50000000  0.50000000  0.00000000  1
  N  N16  1  0.00000000  0.00000000  0.11916400  1
  N  N17  1  0.00000000  0.00000000  0.88083600  1
  N  N18  1  0.00000000  0.00000000  0.50000000  1
  N  N19  1  0.50000000  0.50000000  0.61916400  1
