# generated using pymatgen
data_PuGa
_symmetry_space_group_name_H-M   'P 1'
_cell_length_a   6.40456000
_cell_length_b   6.40456000
_cell_length_c   8.53453400
_cell_angle_alpha   90.00000000
_cell_angle_beta   90.00000000
_cell_angle_gamma   90.00000000
_symmetry_Int_Tables_number   1
_chemical_formula_structural   PuGa
_chemical_formula_sum   'Pu8 Ga8'
_cell_volume   350.07283378
_cell_formula_units_Z   8
loop_
 _symmetry_equiv_pos_site_id
 _symmetry_equiv_pos_as_xyz
  1  'x, y, z'
loop_
 _atom_site_type_symbol
 _atom_site_label
 _atom_site_symmetry_multiplicity
 _atom_site_fract_x
 _atom_site_fract_y
 _atom_site_fract_z
 _atom_site_occupancy
  Pu  Pu0  1  0.50000000  0.00000000  0.25000000  1
  Pu  Pu1  1  0.00000000  0.50000000  0.25000000  1
  Pu  Pu2  1  0.00000000  0.00000000  0.70079300  1
  Pu  Pu3  1  0.00000000  0.00000000  0.29920700  1
  Pu  Pu4  1  0.00000000  0.50000000  0.75000000  1
  Pu  Pu5  1  0.50000000  0.00000000  0.75000000  1
  Pu  Pu6  1  0.50000000  0.50000000  0.20079300  1
  Pu  Pu7  1  0.50000000  0.50000000  0.79920700  1
  Ga  Ga8  1  0.21041200  0.21041200  0.00000000  1
  Ga  Ga9  1  0.28958800  0.71041200  0.50000000  1
  Ga  Ga10  1  0.71041200  0.28958800  0.50000000  1
  Ga  Ga11  1  0.28958800  0.28958800  0.50000000  1
  Ga  Ga12  1  0.71041200  0.71041200  0.50000000  1
  Ga  Ga13  1  0.78958800  0.21041200  0.00000000  1
  Ga  Ga14  1  0.21041200  0.78958800  0.00000000  1
  Ga  Ga15  1  0.78958800  0.78958800  0.00000000  1
