# generated using pymatgen
data_Bi(PO3)4
_symmetry_space_group_name_H-M   'P 1'
_cell_length_a   10.46432600
_cell_length_b   11.69244400
_cell_length_c   17.59611800
_cell_angle_alpha   90.00000000
_cell_angle_beta   90.00000000
_cell_angle_gamma   90.00000000
_symmetry_Int_Tables_number   1
_chemical_formula_structural   Bi(PO3)4
_chemical_formula_sum   'Bi8 P32 O96'
_cell_volume   2152.94742878
_cell_formula_units_Z   8
loop_
 _symmetry_equiv_pos_site_id
 _symmetry_equiv_pos_as_xyz
  1  'x, y, z'
loop_
 _atom_site_type_symbol
 _atom_site_label
 _atom_site_symmetry_multiplicity
 _atom_site_fract_x
 _atom_site_fract_y
 _atom_site_fract_z
 _atom_site_occupancy
  Bi  Bi0  1  0.78511500  0.82300100  0.14617000  1
  Bi  Bi1  1  0.78511500  0.17699900  0.85383000  1
  Bi  Bi2  1  0.21488500  0.82300100  0.35383000  1
  Bi  Bi3  1  0.21488500  0.17699900  0.64617000  1
  Bi  Bi4  1  0.28511500  0.32300100  0.14617000  1
  Bi  Bi5  1  0.28511500  0.67699900  0.85383000  1
  Bi  Bi6  1  0.71488500  0.32300100  0.35383000  1
  Bi  Bi7  1  0.71488500  0.67699900  0.64617000  1
  P  P8  1  0.45331250  0.76415250  0.51321600  1
  P  P9  1  0.38707850  0.64796250  0.65711300  1
  P  P10  1  0.54668750  0.76415250  0.98678400  1
  P  P11  1  0.69339700  0.98408700  0.69638600  1
  P  P12  1  0.38707850  0.35203750  0.34288700  1
  P  P13  1  0.45331250  0.23584750  0.48678400  1
  P  P14  1  0.61292150  0.35203750  0.15711300  1
  P  P15  1  0.54668750  0.23584750  0.01321600  1
  P  P16  1  0.30660300  0.01591300  0.19638600  1
  P  P17  1  0.50000000  0.14315400  0.75000000  1
  P  P18  1  0.61292150  0.64796250  0.84288700  1
  P  P19  1  0.35361500  0.00000000  0.50000000  1
  P  P20  1  0.64638500  0.00000000  0.00000000  1
  P  P21  1  0.69339700  0.01591300  0.30361400  1
  P  P22  1  0.50000000  0.85684600  0.25000000  1
  P  P23  1  0.30660300  0.98408700  0.80361400  1
  P  P24  1  0.95331250  0.26415250  0.51321600  1
  P  P25  1  0.88707850  0.14796250  0.65711300  1
  P  P26  1  0.04668750  0.26415250  0.98678400  1
  P  P27  1  0.19339700  0.48408700  0.69638600  1
  P  P28  1  0.88707850  0.85203750  0.34288700  1
  P  P29  1  0.95331250  0.73584750  0.48678400  1
  P  P30  1  0.11292150  0.85203750  0.15711300  1
  P  P31  1  0.04668750  0.73584750  0.01321600  1
  P  P32  1  0.80660300  0.51591300  0.19638600  1
  P  P33  1  0.00000000  0.64315400  0.75000000  1
  P  P34  1  0.11292150  0.14796250  0.84288700  1
  P  P35  1  0.85361500  0.50000000  0.50000000  1
  P  P36  1  0.14638500  0.50000000  0.00000000  1
  P  P37  1  0.19339700  0.51591300  0.30361400  1
  P  P38  1  0.00000000  0.35684600  0.25000000  1
  P  P39  1  0.80660300  0.48408700  0.80361400  1
  O  O40  1  0.51714750  0.59080650  0.65375900  1
  O  O41  1  0.65126500  0.71385800  0.77340300  1
  O  O42  1  0.48285250  0.59080650  0.84624100  1
  O  O43  1  0.61850850  0.72848450  0.05684700  1
  O  O44  1  0.48285250  0.40919350  0.15375900  1
  O  O45  1  0.34873500  0.28614200  0.27340300  1
  O  O46  1  0.51714750  0.40919350  0.34624100  1
  O  O47  1  0.38149150  0.27151550  0.55684700  1
  O  O48  1  0.36809500  0.26690100  0.41305600  1
  O  O49  1  0.41123000  0.27665600  0.02443200  1
  O  O50  1  0.40236200  0.21623200  0.70990900  1
  O  O51  1  0.21450800  0.04977400  0.86356500  1
  O  O52  1  0.33843100  0.12819700  0.15926800  1
  O  O53  1  0.25650200  0.00494300  0.27573700  1
  O  O54  1  0.58877000  0.27665600  0.47556800  1
  O  O55  1  0.27582950  0.02687350  0.56970400  1
  O  O56  1  0.25650200  0.99505700  0.72426300  1
  O  O57  1  0.58877000  0.72334400  0.52443200  1
  O  O58  1  0.21450800  0.95022600  0.13643500  1
  O  O59  1  0.65126500  0.28614200  0.22659700  1
  O  O60  1  0.63190500  0.26690100  0.08694400  1
  O  O61  1  0.27582950  0.97312650  0.43029600  1
  O  O62  1  0.45491350  0.09817550  0.48066200  1
  O  O63  1  0.59763800  0.21623200  0.79009100  1
  O  O64  1  0.43773850  0.05949550  0.81201200  1
  O  O65  1  0.54508650  0.09817550  0.01933800  1
  O  O66  1  0.56226150  0.05949550  0.68798800  1
  O  O67  1  0.66156900  0.12819700  0.34073200  1
  O  O68  1  0.33843100  0.87180300  0.84073200  1
  O  O69  1  0.43773850  0.94050450  0.18798800  1
  O  O70  1  0.45491350  0.90182450  0.51933800  1
  O  O71  1  0.56226150  0.94050450  0.31201200  1
  O  O72  1  0.40236200  0.78376800  0.29009100  1
  O  O73  1  0.54508650  0.90182450  0.98066200  1
  O  O74  1  0.72417050  0.02687350  0.93029600  1
  O  O75  1  0.36809500  0.73309900  0.58694400  1
  O  O76  1  0.34873500  0.71385800  0.72659700  1
  O  O77  1  0.78549200  0.04977400  0.63643500  1
  O  O78  1  0.38149150  0.72848450  0.44315300  1
  O  O79  1  0.74349800  0.00494300  0.22426300  1
  O  O80  1  0.72417050  0.97312650  0.06970400  1
  O  O81  1  0.41123000  0.72334400  0.97556800  1
  O  O82  1  0.74349800  0.99505700  0.77573700  1
  O  O83  1  0.66156900  0.87180300  0.65926800  1
  O  O84  1  0.78549200  0.95022600  0.36356500  1
  O  O85  1  0.59763800  0.78376800  0.20990900  1
  O  O86  1  0.63190500  0.73309900  0.91305600  1
  O  O87  1  0.61850850  0.27151550  0.94315300  1
  O  O88  1  0.01714750  0.09080650  0.65375900  1
  O  O89  1  0.15126500  0.21385800  0.77340300  1
  O  O90  1  0.98285250  0.09080650  0.84624100  1
  O  O91  1  0.11850850  0.22848450  0.05684700  1
  O  O92  1  0.98285250  0.90919350  0.15375900  1
  O  O93  1  0.84873500  0.78614200  0.27340300  1
  O  O94  1  0.01714750  0.90919350  0.34624100  1
  O  O95  1  0.88149150  0.77151550  0.55684700  1
  O  O96  1  0.86809500  0.76690100  0.41305600  1
  O  O97  1  0.91123000  0.77665600  0.02443200  1
  O  O98  1  0.90236200  0.71623200  0.70990900  1
  O  O99  1  0.71450800  0.54977400  0.86356500  1
  O  O100  1  0.83843100  0.62819700  0.15926800  1
  O  O101  1  0.75650200  0.50494300  0.27573700  1
  O  O102  1  0.08877000  0.77665600  0.47556800  1
  O  O103  1  0.77582950  0.52687350  0.56970400  1
  O  O104  1  0.75650200  0.49505700  0.72426300  1
  O  O105  1  0.08877000  0.22334400  0.52443200  1
  O  O106  1  0.71450800  0.45022600  0.13643500  1
  O  O107  1  0.15126500  0.78614200  0.22659700  1
  O  O108  1  0.13190500  0.76690100  0.08694400  1
  O  O109  1  0.77582950  0.47312650  0.43029600  1
  O  O110  1  0.95491350  0.59817550  0.48066200  1
  O  O111  1  0.09763800  0.71623200  0.79009100  1
  O  O112  1  0.93773850  0.55949550  0.81201200  1
  O  O113  1  0.04508650  0.59817550  0.01933800  1
  O  O114  1  0.06226150  0.55949550  0.68798800  1
  O  O115  1  0.16156900  0.62819700  0.34073200  1
  O  O116  1  0.83843100  0.37180300  0.84073200  1
  O  O117  1  0.93773850  0.44050450  0.18798800  1
  O  O118  1  0.95491350  0.40182450  0.51933800  1
  O  O119  1  0.06226150  0.44050450  0.31201200  1
  O  O120  1  0.90236200  0.28376800  0.29009100  1
  O  O121  1  0.04508650  0.40182450  0.98066200  1
  O  O122  1  0.22417050  0.52687350  0.93029600  1
  O  O123  1  0.86809500  0.23309900  0.58694400  1
  O  O124  1  0.84873500  0.21385800  0.72659700  1
  O  O125  1  0.28549200  0.54977400  0.63643500  1
  O  O126  1  0.88149150  0.22848450  0.44315300  1
  O  O127  1  0.24349800  0.50494300  0.22426300  1
  O  O128  1  0.22417050  0.47312650  0.06970400  1
  O  O129  1  0.91123000  0.22334400  0.97556800  1
  O  O130  1  0.24349800  0.49505700  0.77573700  1
  O  O131  1  0.16156900  0.37180300  0.65926800  1
  O  O132  1  0.28549200  0.45022600  0.36356500  1
  O  O133  1  0.09763800  0.28376800  0.20990900  1
  O  O134  1  0.13190500  0.23309900  0.91305600  1
  O  O135  1  0.11850850  0.77151550  0.94315300  1
