# generated using pymatgen
data_NiH12(ClO3)2
_symmetry_space_group_name_H-M   'P 1'
_cell_length_a   10.31898200
_cell_length_b   7.06165200
_cell_length_c   6.66276083
_cell_angle_alpha   90.00000000
_cell_angle_beta   122.33131073
_cell_angle_gamma   90.00000000
_symmetry_Int_Tables_number   1
_chemical_formula_structural   NiH12(ClO3)2
_chemical_formula_sum   'Ni2 H24 Cl4 O12'
_cell_volume   410.24049224
_cell_formula_units_Z   2
loop_
 _symmetry_equiv_pos_site_id
 _symmetry_equiv_pos_as_xyz
  1  'x, y, z'
loop_
 _atom_site_type_symbol
 _atom_site_label
 _atom_site_symmetry_multiplicity
 _atom_site_fract_x
 _atom_site_fract_y
 _atom_site_fract_z
 _atom_site_occupancy
  Ni  Ni0  1  0.00000000  0.00000000  0.00000000  1
  Ni  Ni1  1  0.50000000  0.50000000  0.00000000  1
  H  H2  1  0.23526200  0.50000000  0.16734200  1
  H  H3  1  0.76473800  0.50000000  0.83265800  1
  H  H4  1  0.31604200  0.50000000  0.44903200  1
  H  H5  1  0.68395800  0.50000000  0.55096800  1
  H  H6  1  0.94207650  0.26911750  0.22339900  1
  H  H7  1  0.05792350  0.26911750  0.77660100  1
  H  H8  1  0.05792350  0.73088250  0.77660100  1
  H  H9  1  0.94207650  0.73088250  0.22339900  1
  H  H10  1  0.10784550  0.69312550  0.27534300  1
  H  H11  1  0.10784550  0.30687450  0.27534300  1
  H  H12  1  0.89215450  0.69312550  0.72465700  1
  H  H13  1  0.89215450  0.30687450  0.72465700  1
  H  H14  1  0.73526200  0.00000000  0.16734200  1
  H  H15  1  0.26473800  0.00000000  0.83265800  1
  H  H16  1  0.81604200  0.00000000  0.44903200  1
  H  H17  1  0.18395800  0.00000000  0.55096800  1
  H  H18  1  0.44207650  0.76911750  0.22339900  1
  H  H19  1  0.55792350  0.76911750  0.77660100  1
  H  H20  1  0.55792350  0.23088250  0.77660100  1
  H  H21  1  0.44207650  0.23088250  0.22339900  1
  H  H22  1  0.60784550  0.19312550  0.27534300  1
  H  H23  1  0.60784550  0.80687450  0.27534300  1
  H  H24  1  0.39215450  0.19312550  0.72465700  1
  H  H25  1  0.39215450  0.80687450  0.72465700  1
  Cl  Cl26  1  0.22531200  0.50000000  0.84185400  1
  Cl  Cl27  1  0.77468800  0.50000000  0.15814600  1
  Cl  Cl28  1  0.72531200  0.00000000  0.84185400  1
  Cl  Cl29  1  0.27468800  0.00000000  0.15814600  1
  O  O30  1  0.21588500  0.50000000  0.29836600  1
  O  O31  1  0.78411500  0.50000000  0.70163400  1
  O  O32  1  0.03507200  0.79698100  0.25288500  1
  O  O33  1  0.96492800  0.79698100  0.74711500  1
  O  O34  1  0.03507200  0.20301900  0.25288500  1
  O  O35  1  0.96492800  0.20301900  0.74711500  1
  O  O36  1  0.71588500  0.00000000  0.29836600  1
  O  O37  1  0.28411500  0.00000000  0.70163400  1
  O  O38  1  0.53507200  0.29698100  0.25288500  1
  O  O39  1  0.46492800  0.29698100  0.74711500  1
  O  O40  1  0.53507200  0.70301900  0.25288500  1
  O  O41  1  0.46492800  0.70301900  0.74711500  1
