# generated using pymatgen
data_AgMo3(PO7)2
_symmetry_space_group_name_H-M   'P 1'
_cell_length_a   8.34042651
_cell_length_b   6.50796281
_cell_length_c   10.71220435
_cell_angle_alpha   90.00000000
_cell_angle_beta   109.39716052
_cell_angle_gamma   90.00000000
_symmetry_Int_Tables_number   1
_chemical_formula_structural   AgMo3(PO7)2
_chemical_formula_sum   'Ag2 Mo6 P4 O28'
_cell_volume   548.44612837
_cell_formula_units_Z   2
loop_
 _symmetry_equiv_pos_site_id
 _symmetry_equiv_pos_as_xyz
  1  'x, y, z'
loop_
 _atom_site_type_symbol
 _atom_site_label
 _atom_site_symmetry_multiplicity
 _atom_site_fract_x
 _atom_site_fract_y
 _atom_site_fract_z
 _atom_site_occupancy
  Ag  Ag0  1  0.53185344  0.25000000  0.27921847  1
  Ag  Ag1  1  0.46814656  0.75000000  0.72078153  1
  Mo  Mo2  1  0.23916926  0.75000000  0.99814344  1
  Mo  Mo3  1  0.76083074  0.25000000  0.00185656  1
  Mo  Mo4  1  0.25840685  0.75000000  0.32099681  1
  Mo  Mo5  1  0.83223625  0.75000000  0.37992846  1
  Mo  Mo6  1  0.74159315  0.25000000  0.67900319  1
  Mo  Mo7  1  0.16776375  0.25000000  0.62007154  1
  P  P8  1  0.15252209  0.25000000  0.93456325  1
  P  P9  1  0.84747791  0.75000000  0.06543675  1
  P  P10  1  0.87622727  0.75000000  0.70119841  1
  P  P11  1  0.12377273  0.25000000  0.29880159  1
  O  O12  1  0.05832284  0.25000000  0.41846290  1
  O  O13  1  0.94167716  0.75000000  0.58153710  1
  O  O14  1  0.21832879  0.25000000  0.81591528  1
  O  O15  1  0.78167121  0.75000000  0.18408472  1
  O  O16  1  0.71068240  0.53126861  0.37457911  1
  O  O17  1  0.28931760  0.03126861  0.62542089  1
  O  O18  1  0.28931760  0.46873139  0.62542089  1
  O  O19  1  0.71068240  0.96873139  0.37457911  1
  O  O20  1  0.24047598  0.06156382  0.30526224  1
  O  O21  1  0.75952402  0.56156382  0.69473776  1
  O  O22  1  0.75952402  0.93843618  0.69473776  1
  O  O23  1  0.24047598  0.43843618  0.30526224  1
  O  O24  1  0.39377776  0.75000000  0.92469596  1
  O  O25  1  0.60622224  0.25000000  0.07530404  1
  O  O26  1  0.02945633  0.75000000  0.82856714  1
  O  O27  1  0.97054367  0.25000000  0.17143286  1
  O  O28  1  0.22423196  0.44001899  0.02100755  1
  O  O29  1  0.77576804  0.94001899  0.97899245  1
  O  O30  1  0.77576804  0.55998101  0.97899245  1
  O  O31  1  0.22423196  0.05998101  0.02100755  1
  O  O32  1  0.93052999  0.25000000  0.61710810  1
  O  O33  1  0.63301099  0.25000000  0.80708695  1
  O  O34  1  0.04423313  0.75000000  0.11287995  1
  O  O35  1  0.95576687  0.25000000  0.88712005  1
  O  O36  1  0.42860962  0.75000000  0.46448416  1
  O  O37  1  0.57139038  0.25000000  0.53551584  1
  O  O38  1  0.06947001  0.75000000  0.38289190  1
  O  O39  1  0.36698901  0.75000000  0.19291305  1
