# generated using pymatgen
data_LaNiGe2
_symmetry_space_group_name_H-M   'P 1'
_cell_length_a   4.32244800
_cell_length_b   16.97161200
_cell_length_c   4.27044600
_cell_angle_alpha   90.00000000
_cell_angle_beta   90.00000000
_cell_angle_gamma   90.00000000
_symmetry_Int_Tables_number   1
_chemical_formula_structural   LaNiGe2
_chemical_formula_sum   'La4 Ni4 Ge8'
_cell_volume   313.27526525
_cell_formula_units_Z   4
loop_
 _symmetry_equiv_pos_site_id
 _symmetry_equiv_pos_as_xyz
  1  'x, y, z'
loop_
 _atom_site_type_symbol
 _atom_site_label
 _atom_site_symmetry_multiplicity
 _atom_site_fract_x
 _atom_site_fract_y
 _atom_site_fract_z
 _atom_site_occupancy
  La  La0  1  0.50000000  0.10905200  0.75000000  1
  La  La1  1  0.00000000  0.39094800  0.25000000  1
  La  La2  1  0.00000000  0.60905200  0.75000000  1
  La  La3  1  0.50000000  0.89094800  0.25000000  1
  Ni  Ni4  1  0.00000000  0.18203800  0.25000000  1
  Ni  Ni5  1  0.50000000  0.31796200  0.75000000  1
  Ni  Ni6  1  0.50000000  0.68203800  0.25000000  1
  Ni  Ni7  1  0.00000000  0.81796200  0.75000000  1
  Ge  Ge8  1  0.00000000  0.24978200  0.75000000  1
  Ge  Ge9  1  0.50000000  0.25021800  0.25000000  1
  Ge  Ge10  1  0.00000000  0.04297600  0.25000000  1
  Ge  Ge11  1  0.50000000  0.45702400  0.75000000  1
  Ge  Ge12  1  0.50000000  0.74978200  0.75000000  1
  Ge  Ge13  1  0.00000000  0.75021800  0.25000000  1
  Ge  Ge14  1  0.50000000  0.54297600  0.25000000  1
  Ge  Ge15  1  0.00000000  0.95702400  0.75000000  1
