# generated using pymatgen
data_SrCoAs2O7
_symmetry_space_group_name_H-M   'P 1'
_cell_length_a   5.61013779
_cell_length_b   8.50276371
_cell_length_c   14.36653283
_cell_angle_alpha   90.00000000
_cell_angle_beta   111.82964345
_cell_angle_gamma   90.00000000
_symmetry_Int_Tables_number   1
_chemical_formula_structural   SrCoAs2O7
_chemical_formula_sum   'Sr4 Co4 As8 O28'
_cell_volume   636.16672331
_cell_formula_units_Z   4
loop_
 _symmetry_equiv_pos_site_id
 _symmetry_equiv_pos_as_xyz
  1  'x, y, z'
loop_
 _atom_site_type_symbol
 _atom_site_label
 _atom_site_symmetry_multiplicity
 _atom_site_fract_x
 _atom_site_fract_y
 _atom_site_fract_z
 _atom_site_occupancy
  Sr  Sr0  1  0.98849494  0.17366902  0.77975911  1
  Sr  Sr1  1  0.01150506  0.67366902  0.72024089  1
  Sr  Sr2  1  0.01150506  0.82633098  0.22024089  1
  Sr  Sr3  1  0.98849494  0.32633098  0.27975911  1
  Co  Co4  1  0.27536201  0.35800879  0.60717021  1
  Co  Co5  1  0.72463799  0.85800879  0.89282979  1
  Co  Co6  1  0.72463799  0.64199121  0.39282979  1
  Co  Co7  1  0.27536201  0.14199121  0.10717021  1
  As  As8  1  0.33894677  0.80388978  0.01501569  1
  As  As9  1  0.66105323  0.30388978  0.48498431  1
  As  As10  1  0.33894677  0.69611022  0.51501569  1
  As  As11  1  0.66105323  0.19611022  0.98498431  1
  As  As12  1  0.41921737  0.52257941  0.16494841  1
  As  As13  1  0.58078263  0.47742059  0.83505159  1
  As  As14  1  0.58078263  0.02257941  0.33505159  1
  As  As15  1  0.41921737  0.97742059  0.66494841  1
  O  O16  1  0.90517101  0.32288235  0.59892624  1
  O  O17  1  0.09482899  0.82288235  0.90107376  1
  O  O18  1  0.09482899  0.67711765  0.40107376  1
  O  O19  1  0.90517101  0.17711765  0.09892624  1
  O  O20  1  0.35242954  0.15641209  0.97467323  1
  O  O21  1  0.64757046  0.65641209  0.52532677  1
  O  O22  1  0.64757046  0.84358791  0.02532677  1
  O  O23  1  0.35242954  0.34358791  0.47467323  1
  O  O24  1  0.82430773  0.45434558  0.79386611  1
  O  O25  1  0.17569227  0.95434558  0.70613389  1
  O  O26  1  0.17569227  0.54565442  0.20613389  1
  O  O27  1  0.82430773  0.04565442  0.29386611  1
  O  O28  1  0.68370981  0.40110018  0.96002176  1
  O  O29  1  0.31629019  0.90110018  0.53997824  1
  O  O30  1  0.31629019  0.59889982  0.03997824  1
  O  O31  1  0.68370981  0.09889982  0.46002176  1
  O  O32  1  0.50141441  0.33199842  0.15479655  1
  O  O33  1  0.49858559  0.83199842  0.34520345  1
  O  O34  1  0.49858559  0.66800158  0.84520345  1
  O  O35  1  0.50141441  0.16800158  0.65479655  1
  O  O36  1  0.72752623  0.40255006  0.39267132  1
  O  O37  1  0.27247377  0.90255006  0.10732868  1
  O  O38  1  0.30254317  0.38448301  0.76317391  1
  O  O39  1  0.72752623  0.09744994  0.89267132  1
  O  O40  1  0.30254317  0.11551699  0.26317391  1
  O  O41  1  0.69745683  0.61551699  0.23682609  1
  O  O42  1  0.69745683  0.88448301  0.73682609  1
  O  O43  1  0.27247377  0.59744994  0.60732868  1
