# generated using pymatgen
data_Tl(CuO)2
_symmetry_space_group_name_H-M   'P 1'
_cell_length_a   5.58185200
_cell_length_b   6.18934800
_cell_length_c   9.05571400
_cell_angle_alpha   90.00000000
_cell_angle_beta   90.00000000
_cell_angle_gamma   90.00000000
_symmetry_Int_Tables_number   1
_chemical_formula_structural   Tl(CuO)2
_chemical_formula_sum   'Tl4 Cu8 O8'
_cell_volume   312.85702925
_cell_formula_units_Z   4
loop_
 _symmetry_equiv_pos_site_id
 _symmetry_equiv_pos_as_xyz
  1  'x, y, z'
loop_
 _atom_site_type_symbol
 _atom_site_label
 _atom_site_symmetry_multiplicity
 _atom_site_fract_x
 _atom_site_fract_y
 _atom_site_fract_z
 _atom_site_occupancy
  Tl  Tl0  1  0.00000000  0.75000000  0.89394500  1
  Tl  Tl1  1  0.00000000  0.25000000  0.10605500  1
  Tl  Tl2  1  0.50000000  0.25000000  0.39394500  1
  Tl  Tl3  1  0.50000000  0.75000000  0.60605500  1
  Cu  Cu4  1  0.25000000  0.25000000  0.75000000  1
  Cu  Cu5  1  0.75000000  0.25000000  0.75000000  1
  Cu  Cu6  1  0.50000000  0.00000000  0.00000000  1
  Cu  Cu7  1  0.50000000  0.50000000  0.00000000  1
  Cu  Cu8  1  0.75000000  0.75000000  0.25000000  1
  Cu  Cu9  1  0.25000000  0.75000000  0.25000000  1
  Cu  Cu10  1  0.00000000  0.50000000  0.50000000  1
  Cu  Cu11  1  0.00000000  0.00000000  0.50000000  1
  O  O12  1  0.00000000  0.96480200  0.29889900  1
  O  O13  1  0.00000000  0.03519800  0.70110100  1
  O  O14  1  0.50000000  0.96480200  0.20110100  1
  O  O15  1  0.50000000  0.03519800  0.79889900  1
  O  O16  1  0.50000000  0.46480200  0.79889900  1
  O  O17  1  0.50000000  0.53519800  0.20110100  1
  O  O18  1  0.00000000  0.46480200  0.70110100  1
  O  O19  1  0.00000000  0.53519800  0.29889900  1
