# generated using pymatgen
data_BaLu2CoO5
_symmetry_space_group_name_H-M   'P 1'
_cell_length_a   5.67057317
_cell_length_b   7.00706263
_cell_length_c   12.16111186
_cell_angle_alpha   90.00000000
_cell_angle_beta   90.00000000
_cell_angle_gamma   90.00000000
_symmetry_Int_Tables_number   1
_chemical_formula_structural   BaLu2CoO5
_chemical_formula_sum   'Ba4 Lu8 Co4 O20'
_cell_volume   483.21036473
_cell_formula_units_Z   4
loop_
 _symmetry_equiv_pos_site_id
 _symmetry_equiv_pos_as_xyz
  1  'x, y, z'
loop_
 _atom_site_type_symbol
 _atom_site_label
 _atom_site_symmetry_multiplicity
 _atom_site_fract_x
 _atom_site_fract_y
 _atom_site_fract_z
 _atom_site_occupancy
  Ba  Ba0  1  0.25000000  0.58047240  0.10104596  1
  Ba  Ba1  1  0.25000000  0.91952760  0.60104596  1
  Ba  Ba2  1  0.75000000  0.08047240  0.39895404  1
  Ba  Ba3  1  0.75000000  0.41952760  0.89895404  1
  Lu  Lu4  1  0.75000000  0.90237581  0.07434889  1
  Lu  Lu5  1  0.25000000  0.12050756  0.20848533  1
  Lu  Lu6  1  0.25000000  0.37949244  0.70848533  1
  Lu  Lu7  1  0.75000000  0.62050756  0.29151467  1
  Lu  Lu8  1  0.25000000  0.09762419  0.92565111  1
  Lu  Lu9  1  0.25000000  0.40237582  0.42565111  1
  Lu  Lu10  1  0.75000000  0.59762419  0.57434889  1
  Lu  Lu11  1  0.75000000  0.87949244  0.79151467  1
  Co  Co12  1  0.75000000  0.30856763  0.15217070  1
  Co  Co13  1  0.25000000  0.69143237  0.84782930  1
  Co  Co14  1  0.25000000  0.80856763  0.34782930  1
  Co  Co15  1  0.75000000  0.19143237  0.65217070  1
  O  O16  1  0.75000000  0.91809048  0.60388862  1
  O  O17  1  0.25000000  0.08190952  0.39611138  1
  O  O18  1  0.25000000  0.41809048  0.89611138  1
  O  O19  1  0.75000000  0.58190952  0.10388862  1
  O  O20  1  0.49860910  0.36505528  0.27523634  1
  O  O21  1  0.99860910  0.63494472  0.72476366  1
  O  O22  1  0.50139090  0.86505528  0.22476366  1
  O  O23  1  0.00139090  0.13494472  0.77523634  1
  O  O24  1  0.50139090  0.63494472  0.72476366  1
  O  O25  1  0.00139090  0.36505528  0.27523634  1
  O  O26  1  0.49860910  0.13494472  0.77523634  1
  O  O27  1  0.99860910  0.86505528  0.22476366  1
  O  O28  1  0.99939409  0.16321520  0.06585574  1
  O  O29  1  0.49939409  0.83678480  0.93414426  1
  O  O30  1  0.00060591  0.66321520  0.43414426  1
  O  O31  1  0.50060591  0.33678480  0.56585574  1
  O  O32  1  0.49939409  0.66321520  0.43414426  1
  O  O33  1  0.99939409  0.33678480  0.56585574  1
  O  O34  1  0.00060591  0.83678480  0.93414426  1
  O  O35  1  0.50060591  0.16321520  0.06585574  1
