# generated using pymatgen
data_Mg6Ni16As7
_symmetry_space_group_name_H-M   'P 1'
_cell_length_a   11.54203200
_cell_length_b   11.54203200
_cell_length_c   11.54203200
_cell_angle_alpha   90.00000000
_cell_angle_beta   90.00000000
_cell_angle_gamma   90.00000000
_symmetry_Int_Tables_number   1
_chemical_formula_structural   Mg6Ni16As7
_chemical_formula_sum   'Mg24 Ni64 As28'
_cell_volume   1537.61222103
_cell_formula_units_Z   4
loop_
 _symmetry_equiv_pos_site_id
 _symmetry_equiv_pos_as_xyz
  1  'x, y, z'
loop_
 _atom_site_type_symbol
 _atom_site_label
 _atom_site_symmetry_multiplicity
 _atom_site_fract_x
 _atom_site_fract_y
 _atom_site_fract_z
 _atom_site_occupancy
  Mg  Mg0  1  0.50000000  0.00000000  0.69912400  1
  Mg  Mg1  1  0.80087600  0.00000000  0.00000000  1
  Mg  Mg2  1  0.19912400  0.00000000  0.00000000  1
  Mg  Mg3  1  0.50000000  0.69912400  0.00000000  1
  Mg  Mg4  1  0.50000000  0.30087600  0.00000000  1
  Mg  Mg5  1  0.00000000  0.00000000  0.80087600  1
  Mg  Mg6  1  0.50000000  0.50000000  0.19912400  1
  Mg  Mg7  1  0.80087600  0.50000000  0.50000000  1
  Mg  Mg8  1  0.19912400  0.50000000  0.50000000  1
  Mg  Mg9  1  0.50000000  0.19912400  0.50000000  1
  Mg  Mg10  1  0.50000000  0.80087600  0.50000000  1
  Mg  Mg11  1  0.00000000  0.50000000  0.30087600  1
  Mg  Mg12  1  0.00000000  0.00000000  0.19912400  1
  Mg  Mg13  1  0.30087600  0.00000000  0.50000000  1
  Mg  Mg14  1  0.69912400  0.00000000  0.50000000  1
  Mg  Mg15  1  0.00000000  0.69912400  0.50000000  1
  Mg  Mg16  1  0.00000000  0.30087600  0.50000000  1
  Mg  Mg17  1  0.50000000  0.00000000  0.30087600  1
  Mg  Mg18  1  0.00000000  0.50000000  0.69912400  1
  Mg  Mg19  1  0.30087600  0.50000000  0.00000000  1
  Mg  Mg20  1  0.69912400  0.50000000  0.00000000  1
  Mg  Mg21  1  0.00000000  0.19912400  0.00000000  1
  Mg  Mg22  1  0.00000000  0.80087600  0.00000000  1
  Mg  Mg23  1  0.50000000  0.50000000  0.80087600  1
  Ni  Ni24  1  0.16717133  0.33282867  0.66717133  1
  Ni  Ni25  1  0.33282867  0.83282867  0.66717133  1
  Ni  Ni26  1  0.16717133  0.83282867  0.83282867  1
  Ni  Ni27  1  0.16717133  0.66717133  0.66717133  1
  Ni  Ni28  1  0.33282867  0.16717133  0.66717133  1
  Ni  Ni29  1  0.33282867  0.33282867  0.83282867  1
  Ni  Ni30  1  0.16717133  0.16717133  0.83282867  1
  Ni  Ni31  1  0.33282867  0.66717133  0.83282867  1
  Ni  Ni32  1  0.38191167  0.11808833  0.88191167  1
  Ni  Ni33  1  0.61808833  0.11808833  0.88191167  1
  Ni  Ni34  1  0.88191167  0.11808833  0.61808833  1
  Ni  Ni35  1  0.38191167  0.88191167  0.88191167  1
  Ni  Ni36  1  0.61808833  0.88191167  0.88191167  1
  Ni  Ni37  1  0.11808833  0.11808833  0.61808833  1
  Ni  Ni38  1  0.88191167  0.88191167  0.61808833  1
  Ni  Ni39  1  0.11808833  0.88191167  0.61808833  1
  Ni  Ni40  1  0.16717133  0.83282867  0.16717133  1
  Ni  Ni41  1  0.33282867  0.33282867  0.16717133  1
  Ni  Ni42  1  0.16717133  0.33282867  0.33282867  1
  Ni  Ni43  1  0.16717133  0.16717133  0.16717133  1
  Ni  Ni44  1  0.33282867  0.66717133  0.16717133  1
  Ni  Ni45  1  0.33282867  0.83282867  0.33282867  1
  Ni  Ni46  1  0.16717133  0.66717133  0.33282867  1
  Ni  Ni47  1  0.33282867  0.16717133  0.33282867  1
  Ni  Ni48  1  0.38191167  0.61808833  0.38191167  1
  Ni  Ni49  1  0.61808833  0.61808833  0.38191167  1
  Ni  Ni50  1  0.88191167  0.61808833  0.11808833  1
  Ni  Ni51  1  0.38191167  0.38191167  0.38191167  1
  Ni  Ni52  1  0.61808833  0.38191167  0.38191167  1
  Ni  Ni53  1  0.11808833  0.61808833  0.11808833  1
  Ni  Ni54  1  0.88191167  0.38191167  0.11808833  1
  Ni  Ni55  1  0.11808833  0.38191167  0.11808833  1
  Ni  Ni56  1  0.66717133  0.33282867  0.16717133  1
  Ni  Ni57  1  0.83282867  0.83282867  0.16717133  1
  Ni  Ni58  1  0.66717133  0.83282867  0.33282867  1
  Ni  Ni59  1  0.66717133  0.66717133  0.16717133  1
  Ni  Ni60  1  0.83282867  0.16717133  0.16717133  1
  Ni  Ni61  1  0.83282867  0.33282867  0.33282867  1
  Ni  Ni62  1  0.66717133  0.16717133  0.33282867  1
  Ni  Ni63  1  0.83282867  0.66717133  0.33282867  1
  Ni  Ni64  1  0.88191167  0.11808833  0.38191167  1
  Ni  Ni65  1  0.11808833  0.11808833  0.38191167  1
  Ni  Ni66  1  0.38191167  0.11808833  0.11808833  1
  Ni  Ni67  1  0.88191167  0.88191167  0.38191167  1
  Ni  Ni68  1  0.11808833  0.88191167  0.38191167  1
  Ni  Ni69  1  0.61808833  0.11808833  0.11808833  1
  Ni  Ni70  1  0.38191167  0.88191167  0.11808833  1
  Ni  Ni71  1  0.61808833  0.88191167  0.11808833  1
  Ni  Ni72  1  0.66717133  0.83282867  0.66717133  1
  Ni  Ni73  1  0.83282867  0.33282867  0.66717133  1
  Ni  Ni74  1  0.66717133  0.33282867  0.83282867  1
  Ni  Ni75  1  0.66717133  0.16717133  0.66717133  1
  Ni  Ni76  1  0.83282867  0.66717133  0.66717133  1
  Ni  Ni77  1  0.83282867  0.83282867  0.83282867  1
  Ni  Ni78  1  0.66717133  0.66717133  0.83282867  1
  Ni  Ni79  1  0.83282867  0.16717133  0.83282867  1
  Ni  Ni80  1  0.88191167  0.61808833  0.88191167  1
  Ni  Ni81  1  0.11808833  0.61808833  0.88191167  1
  Ni  Ni82  1  0.38191167  0.61808833  0.61808833  1
  Ni  Ni83  1  0.88191167  0.38191167  0.88191167  1
  Ni  Ni84  1  0.11808833  0.38191167  0.88191167  1
  Ni  Ni85  1  0.61808833  0.61808833  0.61808833  1
  Ni  Ni86  1  0.38191167  0.38191167  0.61808833  1
  Ni  Ni87  1  0.61808833  0.38191167  0.61808833  1
  As  As88  1  0.50000000  0.00000000  0.00000000  1
  As  As89  1  0.25000000  0.75000000  0.00000000  1
  As  As90  1  0.00000000  0.25000000  0.75000000  1
  As  As91  1  0.00000000  0.75000000  0.75000000  1
  As  As92  1  0.25000000  0.25000000  0.00000000  1
  As  As93  1  0.75000000  0.00000000  0.75000000  1
  As  As94  1  0.25000000  0.00000000  0.75000000  1
  As  As95  1  0.50000000  0.50000000  0.50000000  1
  As  As96  1  0.25000000  0.25000000  0.50000000  1
  As  As97  1  0.00000000  0.75000000  0.25000000  1
  As  As98  1  0.00000000  0.25000000  0.25000000  1
  As  As99  1  0.25000000  0.75000000  0.50000000  1
  As  As100  1  0.75000000  0.50000000  0.25000000  1
  As  As101  1  0.25000000  0.50000000  0.25000000  1
  As  As102  1  0.00000000  0.00000000  0.50000000  1
  As  As103  1  0.75000000  0.75000000  0.50000000  1
  As  As104  1  0.50000000  0.25000000  0.25000000  1
  As  As105  1  0.50000000  0.75000000  0.25000000  1
  As  As106  1  0.75000000  0.25000000  0.50000000  1
  As  As107  1  0.25000000  0.00000000  0.25000000  1
  As  As108  1  0.75000000  0.00000000  0.25000000  1
  As  As109  1  0.00000000  0.50000000  0.00000000  1
  As  As110  1  0.75000000  0.25000000  0.00000000  1
  As  As111  1  0.50000000  0.75000000  0.75000000  1
  As  As112  1  0.50000000  0.25000000  0.75000000  1
  As  As113  1  0.75000000  0.75000000  0.00000000  1
  As  As114  1  0.25000000  0.50000000  0.75000000  1
  As  As115  1  0.75000000  0.50000000  0.75000000  1
