# generated using pymatgen
data_Sm3(SiIr)2
_symmetry_space_group_name_H-M   'P 1'
_cell_length_a   4.13290800
_cell_length_b   10.65394000
_cell_length_c   13.41343100
_cell_angle_alpha   90.00000000
_cell_angle_beta   90.00000000
_cell_angle_gamma   90.00000000
_symmetry_Int_Tables_number   1
_chemical_formula_structural   Sm3(SiIr)2
_chemical_formula_sum   'Sm12 Si8 Ir8'
_cell_volume   590.61689218
_cell_formula_units_Z   4
loop_
 _symmetry_equiv_pos_site_id
 _symmetry_equiv_pos_as_xyz
  1  'x, y, z'
loop_
 _atom_site_type_symbol
 _atom_site_label
 _atom_site_symmetry_multiplicity
 _atom_site_fract_x
 _atom_site_fract_y
 _atom_site_fract_z
 _atom_site_occupancy
  Sm  Sm0  1  0.00000000  0.22702700  0.10386900  1
  Sm  Sm1  1  0.00000000  0.48265700  0.75000000  1
  Sm  Sm2  1  0.50000000  0.27297300  0.89613100  1
  Sm  Sm3  1  0.00000000  0.22702700  0.39613100  1
  Sm  Sm4  1  0.50000000  0.01734300  0.25000000  1
  Sm  Sm5  1  0.50000000  0.27297300  0.60386900  1
  Sm  Sm6  1  0.50000000  0.72702700  0.10386900  1
  Sm  Sm7  1  0.50000000  0.98265700  0.75000000  1
  Sm  Sm8  1  0.00000000  0.77297300  0.89613100  1
  Sm  Sm9  1  0.50000000  0.72702700  0.39613100  1
  Sm  Sm10  1  0.00000000  0.51734300  0.25000000  1
  Sm  Sm11  1  0.00000000  0.77297300  0.60386900  1
  Si  Si12  1  0.50000000  0.43934900  0.08863800  1
  Si  Si13  1  0.50000000  0.43934900  0.41136200  1
  Si  Si14  1  0.00000000  0.06065100  0.91136200  1
  Si  Si15  1  0.00000000  0.06065100  0.58863800  1
  Si  Si16  1  0.00000000  0.93934900  0.08863800  1
  Si  Si17  1  0.00000000  0.93934900  0.41136200  1
  Si  Si18  1  0.50000000  0.56065100  0.91136200  1
  Si  Si19  1  0.50000000  0.56065100  0.58863800  1
  Ir  Ir20  1  0.00000000  0.18517100  0.75000000  1
  Ir  Ir21  1  0.50000000  0.31482900  0.25000000  1
  Ir  Ir22  1  0.50000000  0.00000000  0.50000000  1
  Ir  Ir23  1  0.50000000  0.00000000  0.00000000  1
  Ir  Ir24  1  0.50000000  0.68517100  0.75000000  1
  Ir  Ir25  1  0.00000000  0.81482900  0.25000000  1
  Ir  Ir26  1  0.00000000  0.50000000  0.50000000  1
  Ir  Ir27  1  0.00000000  0.50000000  0.00000000  1
