# generated using pymatgen
data_Fe(SiO3)2
_symmetry_space_group_name_H-M   'P 1'
_cell_length_a   9.74643000
_cell_length_b   8.77946600
_cell_length_c   5.36254406
_cell_angle_alpha   90.00000000
_cell_angle_beta   109.15960486
_cell_angle_gamma   90.00000000
_symmetry_Int_Tables_number   1
_chemical_formula_structural   Fe(SiO3)2
_chemical_formula_sum   'Fe4 Si8 O24'
_cell_volume   433.44715870
_cell_formula_units_Z   4
loop_
 _symmetry_equiv_pos_site_id
 _symmetry_equiv_pos_as_xyz
  1  'x, y, z'
loop_
 _atom_site_type_symbol
 _atom_site_label
 _atom_site_symmetry_multiplicity
 _atom_site_fract_x
 _atom_site_fract_y
 _atom_site_fract_z
 _atom_site_occupancy
  Fe  Fe0  1  0.00000000  0.89944600  0.75000000  1
  Fe  Fe1  1  0.00000000  0.10055400  0.25000000  1
  Fe  Fe2  1  0.50000000  0.39944600  0.75000000  1
  Fe  Fe3  1  0.50000000  0.60055400  0.25000000  1
  Si  Si4  1  0.20366600  0.41425900  0.25862000  1
  Si  Si5  1  0.20366600  0.58574100  0.75862000  1
  Si  Si6  1  0.79633400  0.58574100  0.74138000  1
  Si  Si7  1  0.79633400  0.41425900  0.24138000  1
  Si  Si8  1  0.70366600  0.91425900  0.25862000  1
  Si  Si9  1  0.70366600  0.08574100  0.75862000  1
  Si  Si10  1  0.29633400  0.08574100  0.74138000  1
  Si  Si11  1  0.29633400  0.91425900  0.24138000  1
  O  O12  1  0.61608000  0.57296800  0.63514700  1
  O  O13  1  0.85596750  0.24031050  0.28232500  1
  O  O14  1  0.61608000  0.42703200  0.13514700  1
  O  O15  1  0.14382150  0.50066250  0.47246600  1
  O  O16  1  0.14403250  0.24031050  0.21767500  1
  O  O17  1  0.38392000  0.57296800  0.86485300  1
  O  O18  1  0.14403250  0.75968950  0.71767500  1
  O  O19  1  0.85596750  0.75968950  0.78232500  1
  O  O20  1  0.14382150  0.49933750  0.97246600  1
  O  O21  1  0.85617850  0.50066250  0.02753400  1
  O  O22  1  0.38392000  0.42703200  0.36485300  1
  O  O23  1  0.85617850  0.49933750  0.52753400  1
  O  O24  1  0.11608000  0.07296800  0.63514700  1
  O  O25  1  0.35596750  0.74031050  0.28232500  1
  O  O26  1  0.11608000  0.92703200  0.13514700  1
  O  O27  1  0.64382150  0.00066250  0.47246600  1
  O  O28  1  0.64403250  0.74031050  0.21767500  1
  O  O29  1  0.88392000  0.07296800  0.86485300  1
  O  O30  1  0.64403250  0.25968950  0.71767500  1
  O  O31  1  0.35596750  0.25968950  0.78232500  1
  O  O32  1  0.64382150  0.99933750  0.97246600  1
  O  O33  1  0.35617850  0.00066250  0.02753400  1
  O  O34  1  0.88392000  0.92703200  0.36485300  1
  O  O35  1  0.35617850  0.99933750  0.52753400  1
