# generated using pymatgen
data_Ca11(ReO6)4
_symmetry_space_group_name_H-M   'P 1'
_cell_length_a   11.11161600
_cell_length_b   11.11161600
_cell_length_c   16.68712600
_cell_angle_alpha   90.00000000
_cell_angle_beta   90.00000000
_cell_angle_gamma   90.00000000
_symmetry_Int_Tables_number   1
_chemical_formula_structural   Ca11(ReO6)4
_chemical_formula_sum   'Ca44 Re16 O96'
_cell_volume   2060.32624203
_cell_formula_units_Z   4
loop_
 _symmetry_equiv_pos_site_id
 _symmetry_equiv_pos_as_xyz
  1  'x, y, z'
loop_
 _atom_site_type_symbol
 _atom_site_label
 _atom_site_symmetry_multiplicity
 _atom_site_fract_x
 _atom_site_fract_y
 _atom_site_fract_z
 _atom_site_occupancy
  Ca  Ca0  1  0.50000000  0.00000000  0.11618550  1
  Ca  Ca1  1  0.50000000  0.50000000  0.86618550  1
  Ca  Ca2  1  0.00000000  0.50000000  0.13246850  1
  Ca  Ca3  1  0.00000000  0.00000000  0.88246850  1
  Ca  Ca4  1  0.00000000  0.50000000  0.92329050  1
  Ca  Ca5  1  0.50000000  0.50000000  0.17329050  1
  Ca  Ca6  1  0.21580400  0.98272700  0.20112600  1
  Ca  Ca7  1  0.51727300  0.21580400  0.95112600  1
  Ca  Ca8  1  0.48272700  0.78419600  0.95112600  1
  Ca  Ca9  1  0.78419600  0.01727300  0.20112600  1
  Ca  Ca10  1  0.71870800  0.98285900  0.79811000  1
  Ca  Ca11  1  0.01714100  0.21870800  0.04811000  1
  Ca  Ca12  1  0.98285900  0.78129200  0.04811000  1
  Ca  Ca13  1  0.28129200  0.01714100  0.79811000  1
  Ca  Ca14  1  0.76731000  0.69961600  0.86391600  1
  Ca  Ca15  1  0.30038400  0.26731000  0.11391600  1
  Ca  Ca16  1  0.69961600  0.73269000  0.11391600  1
  Ca  Ca17  1  0.23269000  0.30038400  0.86391600  1
  Ca  Ca18  1  0.79709500  0.26808300  0.88171500  1
  Ca  Ca19  1  0.73191700  0.29709500  0.13171500  1
  Ca  Ca20  1  0.26808300  0.70290500  0.13171500  1
  Ca  Ca21  1  0.20290500  0.73191700  0.88171500  1
  Ca  Ca22  1  0.00000000  0.50000000  0.61618550  1
  Ca  Ca23  1  0.00000000  0.00000000  0.36618550  1
  Ca  Ca24  1  0.50000000  0.00000000  0.63246850  1
  Ca  Ca25  1  0.50000000  0.50000000  0.38246850  1
  Ca  Ca26  1  0.50000000  0.00000000  0.42329050  1
  Ca  Ca27  1  0.00000000  0.00000000  0.67329050  1
  Ca  Ca28  1  0.71580400  0.48272700  0.70112600  1
  Ca  Ca29  1  0.01727300  0.71580400  0.45112600  1
  Ca  Ca30  1  0.98272700  0.28419600  0.45112600  1
  Ca  Ca31  1  0.28419600  0.51727300  0.70112600  1
  Ca  Ca32  1  0.21870800  0.48285900  0.29811000  1
  Ca  Ca33  1  0.51714100  0.71870800  0.54811000  1
  Ca  Ca34  1  0.48285900  0.28129200  0.54811000  1
  Ca  Ca35  1  0.78129200  0.51714100  0.29811000  1
  Ca  Ca36  1  0.26731000  0.19961600  0.36391600  1
  Ca  Ca37  1  0.80038400  0.76731000  0.61391600  1
  Ca  Ca38  1  0.19961600  0.23269000  0.61391600  1
  Ca  Ca39  1  0.73269000  0.80038400  0.36391600  1
  Ca  Ca40  1  0.29709500  0.76808300  0.38171500  1
  Ca  Ca41  1  0.23191700  0.79709500  0.63171500  1
  Ca  Ca42  1  0.76808300  0.20290500  0.63171500  1
  Ca  Ca43  1  0.70290500  0.23191700  0.38171500  1
  Re  Re44  1  0.75115500  0.99943200  0.99950000  1
  Re  Re45  1  0.00056800  0.25115500  0.24950000  1
  Re  Re46  1  0.99943200  0.74884500  0.24950000  1
  Re  Re47  1  0.24884500  0.00056800  0.99950000  1
  Re  Re48  1  0.49937600  0.24073300  0.24945100  1
  Re  Re49  1  0.25926700  0.49937600  0.99945100  1
  Re  Re50  1  0.74073300  0.50062400  0.99945100  1
  Re  Re51  1  0.50062400  0.75926700  0.24945100  1
  Re  Re52  1  0.25115500  0.49943200  0.49950000  1
  Re  Re53  1  0.50056800  0.75115500  0.74950000  1
  Re  Re54  1  0.49943200  0.24884500  0.74950000  1
  Re  Re55  1  0.74884500  0.50056800  0.49950000  1
  Re  Re56  1  0.99937600  0.74073300  0.74945100  1
  Re  Re57  1  0.75926700  0.99937600  0.49945100  1
  Re  Re58  1  0.24073300  0.00062400  0.49945100  1
  Re  Re59  1  0.00062400  0.25926700  0.74945100  1
  O  O60  1  0.39661150  0.68376950  0.82790250  1
  O  O61  1  0.31623050  0.89661150  0.07790250  1
  O  O62  1  0.68376950  0.10338850  0.07790250  1
  O  O63  1  0.60338850  0.31623050  0.82790250  1
  O  O64  1  0.89314450  0.38424150  0.22885550  1
  O  O65  1  0.11575850  0.89314450  0.97885550  1
  O  O66  1  0.88424150  0.10685550  0.97885550  1
  O  O67  1  0.10685550  0.61575850  0.22885550  1
  O  O68  1  0.91468500  0.17000100  0.16556200  1
  O  O69  1  0.32999900  0.91468500  0.91556200  1
  O  O70  1  0.67000100  0.08531500  0.91556200  1
  O  O71  1  0.08531500  0.82999900  0.16556200  1
  O  O72  1  0.61611100  0.89307800  0.02040500  1
  O  O73  1  0.60692200  0.61611100  0.77040500  1
  O  O74  1  0.39307800  0.38388900  0.77040500  1
  O  O75  1  0.38388900  0.10692200  0.02040500  1
  O  O76  1  0.83130450  0.91263950  0.08353950  1
  O  O77  1  0.58736050  0.83130450  0.83353950  1
  O  O78  1  0.41263950  0.16869550  0.83353950  1
  O  O79  1  0.16869550  0.08736050  0.08353950  1
  O  O80  1  0.81775500  0.89289700  0.92245900  1
  O  O81  1  0.10710300  0.31775500  0.17245900  1
  O  O82  1  0.89289700  0.68224500  0.17245900  1
  O  O83  1  0.18224500  0.10710300  0.92245900  1
  O  O84  1  0.79565950  0.48622650  0.88867550  1
  O  O85  1  0.51377350  0.29565950  0.13867550  1
  O  O86  1  0.48622650  0.70434050  0.13867550  1
  O  O87  1  0.20434050  0.51377350  0.88867550  1
  O  O88  1  0.35399350  0.83773850  0.23925050  1
  O  O89  1  0.66226150  0.35399350  0.98925050  1
  O  O90  1  0.01284100  0.30990200  0.85963900  1
  O  O91  1  0.69009800  0.51284100  0.10963900  1
  O  O92  1  0.30990200  0.48715900  0.10963900  1
  O  O93  1  0.98715900  0.69009800  0.85963900  1
  O  O94  1  0.11520350  0.60174850  0.03414050  1
  O  O95  1  0.89825150  0.11520350  0.78414050  1
  O  O96  1  0.10174850  0.88479650  0.78414050  1
  O  O97  1  0.88479650  0.39825150  0.03414050  1
  O  O98  1  0.60824950  0.88318450  0.21189450  1
  O  O99  1  0.61681550  0.60824950  0.96189450  1
  O  O100  1  0.38318450  0.39175050  0.96189450  1
  O  O101  1  0.39175050  0.11681550  0.21189450  1
  O  O102  1  0.13632000  0.15650200  0.75962600  1
  O  O103  1  0.84349800  0.63632000  0.00962600  1
  O  O104  1  0.15650200  0.36368000  0.00962600  1
  O  O105  1  0.86368000  0.84349800  0.75962600  1
  O  O106  1  0.64600650  0.16226150  0.23925050  1
  O  O107  1  0.33773850  0.64600650  0.98925050  1
  O  O108  1  0.89661150  0.18376950  0.32790250  1
  O  O109  1  0.81623050  0.39661150  0.57790250  1
  O  O110  1  0.18376950  0.60338850  0.57790250  1
  O  O111  1  0.10338850  0.81623050  0.32790250  1
  O  O112  1  0.39314450  0.88424150  0.72885550  1
  O  O113  1  0.61575850  0.39314450  0.47885550  1
  O  O114  1  0.38424150  0.60685550  0.47885550  1
  O  O115  1  0.60685550  0.11575850  0.72885550  1
  O  O116  1  0.41468500  0.67000100  0.66556200  1
  O  O117  1  0.82999900  0.41468500  0.41556200  1
  O  O118  1  0.17000100  0.58531500  0.41556200  1
  O  O119  1  0.58531500  0.32999900  0.66556200  1
  O  O120  1  0.11611100  0.39307800  0.52040500  1
  O  O121  1  0.10692200  0.11611100  0.27040500  1
  O  O122  1  0.89307800  0.88388900  0.27040500  1
  O  O123  1  0.88388900  0.60692200  0.52040500  1
  O  O124  1  0.33130450  0.41263950  0.58353950  1
  O  O125  1  0.08736050  0.33130450  0.33353950  1
  O  O126  1  0.91263950  0.66869550  0.33353950  1
  O  O127  1  0.66869550  0.58736050  0.58353950  1
  O  O128  1  0.31775500  0.39289700  0.42245900  1
  O  O129  1  0.60710300  0.81775500  0.67245900  1
  O  O130  1  0.39289700  0.18224500  0.67245900  1
  O  O131  1  0.68224500  0.60710300  0.42245900  1
  O  O132  1  0.29565950  0.98622650  0.38867550  1
  O  O133  1  0.01377350  0.79565950  0.63867550  1
  O  O134  1  0.98622650  0.20434050  0.63867550  1
  O  O135  1  0.70434050  0.01377350  0.38867550  1
  O  O136  1  0.85399350  0.33773850  0.73925050  1
  O  O137  1  0.16226150  0.85399350  0.48925050  1
  O  O138  1  0.51284100  0.80990200  0.35963900  1
  O  O139  1  0.19009800  0.01284100  0.60963900  1
  O  O140  1  0.80990200  0.98715900  0.60963900  1
  O  O141  1  0.48715900  0.19009800  0.35963900  1
  O  O142  1  0.61520350  0.10174850  0.53414050  1
  O  O143  1  0.39825150  0.61520350  0.28414050  1
  O  O144  1  0.60174850  0.38479650  0.28414050  1
  O  O145  1  0.38479650  0.89825150  0.53414050  1
  O  O146  1  0.10824950  0.38318450  0.71189450  1
  O  O147  1  0.11681550  0.10824950  0.46189450  1
  O  O148  1  0.88318450  0.89175050  0.46189450  1
  O  O149  1  0.89175050  0.61681550  0.71189450  1
  O  O150  1  0.63632000  0.65650200  0.25962600  1
  O  O151  1  0.34349800  0.13632000  0.50962600  1
  O  O152  1  0.65650200  0.86368000  0.50962600  1
  O  O153  1  0.36368000  0.34349800  0.25962600  1
  O  O154  1  0.14600650  0.66226150  0.73925050  1
  O  O155  1  0.83773850  0.14600650  0.48925050  1
