# generated using pymatgen
data_U(Mo3S4)2
_symmetry_space_group_name_H-M   'P 1'
_cell_length_a   9.06255713
_cell_length_b   9.06255713
_cell_length_c   11.44148584
_cell_angle_alpha   90.00000000
_cell_angle_beta   90.00000000
_cell_angle_gamma   120.00000000
_symmetry_Int_Tables_number   1
_chemical_formula_structural   U(Mo3S4)2
_chemical_formula_sum   'U3 Mo18 S24'
_cell_volume   813.79416839
_cell_formula_units_Z   3
loop_
 _symmetry_equiv_pos_site_id
 _symmetry_equiv_pos_as_xyz
  1  'x, y, z'
loop_
 _atom_site_type_symbol
 _atom_site_label
 _atom_site_symmetry_multiplicity
 _atom_site_fract_x
 _atom_site_fract_y
 _atom_site_fract_z
 _atom_site_occupancy
  U  U0  1  0.00000000  0.00000000  0.00000000  1
  U  U1  1  0.66666667  0.33333333  0.33333333  1
  U  U2  1  0.33333333  0.66666667  0.66666667  1
  Mo  Mo3  1  0.17291067  0.48688633  0.26503333  1
  Mo  Mo4  1  0.51311367  0.68602433  0.26503333  1
  Mo  Mo5  1  0.31397567  0.82708933  0.26503333  1
  Mo  Mo6  1  0.49375600  0.84644700  0.06830000  1
  Mo  Mo7  1  0.15355300  0.64730900  0.06830000  1
  Mo  Mo8  1  0.35269100  0.50624400  0.06830000  1
  Mo  Mo9  1  0.83957733  0.82021967  0.59836667  1
  Mo  Mo10  1  0.17978033  0.01935767  0.59836667  1
  Mo  Mo11  1  0.98064233  0.16042267  0.59836667  1
  Mo  Mo12  1  0.16042267  0.17978033  0.40163333  1
  Mo  Mo13  1  0.82021967  0.98064233  0.40163333  1
  Mo  Mo14  1  0.01935767  0.83957733  0.40163333  1
  Mo  Mo15  1  0.50624400  0.15355300  0.93170000  1
  Mo  Mo16  1  0.84644700  0.35269100  0.93170000  1
  Mo  Mo17  1  0.64730900  0.49375600  0.93170000  1
  Mo  Mo18  1  0.82708933  0.51311367  0.73496667  1
  Mo  Mo19  1  0.48688633  0.31397567  0.73496667  1
  Mo  Mo20  1  0.68602433  0.17291067  0.73496667  1
  S  S21  1  0.33333333  0.66666667  0.42711267  1
  S  S22  1  0.33333333  0.66666667  0.90622067  1
  S  S23  1  0.99318967  0.61613133  0.24935833  1
  S  S24  1  0.38386867  0.37705833  0.24935833  1
  S  S25  1  0.62294167  0.00681033  0.24935833  1
  S  S26  1  0.67347700  0.71720200  0.08397500  1
  S  S27  1  0.28279800  0.95627500  0.08397500  1
  S  S28  1  0.04372500  0.32652300  0.08397500  1
  S  S29  1  0.00000000  0.00000000  0.76044600  1
  S  S30  1  0.00000000  0.00000000  0.23955400  1
  S  S31  1  0.65985633  0.94946467  0.58269167  1
  S  S32  1  0.05053533  0.71039167  0.58269167  1
  S  S33  1  0.28960833  0.34014367  0.58269167  1
  S  S34  1  0.34014367  0.05053533  0.41730833  1
  S  S35  1  0.94946467  0.28960833  0.41730833  1
  S  S36  1  0.71039167  0.65985633  0.41730833  1
  S  S37  1  0.66666667  0.33333333  0.09377933  1
  S  S38  1  0.66666667  0.33333333  0.57288733  1
  S  S39  1  0.32652300  0.28279800  0.91602500  1
  S  S40  1  0.71720200  0.04372500  0.91602500  1
  S  S41  1  0.95627500  0.67347700  0.91602500  1
  S  S42  1  0.00681033  0.38386867  0.75064167  1
  S  S43  1  0.61613133  0.62294167  0.75064167  1
  S  S44  1  0.37705833  0.99318967  0.75064167  1
