# generated using pymatgen
data_Th2AlH4
_symmetry_space_group_name_H-M   'P 1'
_cell_length_a   7.63610600
_cell_length_b   7.63610600
_cell_length_c   6.51432000
_cell_angle_alpha   90.00000000
_cell_angle_beta   90.00000000
_cell_angle_gamma   90.00000000
_symmetry_Int_Tables_number   1
_chemical_formula_structural   Th2AlH4
_chemical_formula_sum   'Th8 Al4 H16'
_cell_volume   379.85074733
_cell_formula_units_Z   4
loop_
 _symmetry_equiv_pos_site_id
 _symmetry_equiv_pos_as_xyz
  1  'x, y, z'
loop_
 _atom_site_type_symbol
 _atom_site_label
 _atom_site_symmetry_multiplicity
 _atom_site_fract_x
 _atom_site_fract_y
 _atom_site_fract_z
 _atom_site_occupancy
  Th  Th0  1  0.33558900  0.16441100  0.50000000  1
  Th  Th1  1  0.66441100  0.16441100  0.00000000  1
  Th  Th2  1  0.16441100  0.33558900  0.00000000  1
  Th  Th3  1  0.83558900  0.33558900  0.50000000  1
  Th  Th4  1  0.83558900  0.66441100  0.00000000  1
  Th  Th5  1  0.16441100  0.66441100  0.50000000  1
  Th  Th6  1  0.66441100  0.83558900  0.50000000  1
  Th  Th7  1  0.33558900  0.83558900  0.00000000  1
  Al  Al8  1  0.00000000  0.00000000  0.75000000  1
  Al  Al9  1  0.00000000  0.00000000  0.25000000  1
  Al  Al10  1  0.50000000  0.50000000  0.25000000  1
  Al  Al11  1  0.50000000  0.50000000  0.75000000  1
  H  H12  1  0.87020500  0.62979500  0.35118600  1
  H  H13  1  0.12979500  0.37020500  0.35118600  1
  H  H14  1  0.37020500  0.87020500  0.35118600  1
  H  H15  1  0.62979500  0.12979500  0.35118600  1
  H  H16  1  0.12979500  0.62979500  0.14881400  1
  H  H17  1  0.37020500  0.12979500  0.14881400  1
  H  H18  1  0.87020500  0.37020500  0.14881400  1
  H  H19  1  0.62979500  0.87020500  0.14881400  1
  H  H20  1  0.37020500  0.12979500  0.85118600  1
  H  H21  1  0.62979500  0.87020500  0.85118600  1
  H  H22  1  0.87020500  0.37020500  0.85118600  1
  H  H23  1  0.12979500  0.62979500  0.85118600  1
  H  H24  1  0.62979500  0.12979500  0.64881400  1
  H  H25  1  0.87020500  0.62979500  0.64881400  1
  H  H26  1  0.37020500  0.87020500  0.64881400  1
  H  H27  1  0.12979500  0.37020500  0.64881400  1
