# generated using pymatgen
data_Sm3S4
_symmetry_space_group_name_H-M   'P 1'
_cell_length_a   8.47815000
_cell_length_b   8.47815000
_cell_length_c   8.47815000
_cell_angle_alpha   90.00000000
_cell_angle_beta   90.00000000
_cell_angle_gamma   90.00000000
_symmetry_Int_Tables_number   1
_chemical_formula_structural   Sm3S4
_chemical_formula_sum   'Sm12 S16'
_cell_volume   609.40117634
_cell_formula_units_Z   4
loop_
 _symmetry_equiv_pos_site_id
 _symmetry_equiv_pos_as_xyz
  1  'x, y, z'
loop_
 _atom_site_type_symbol
 _atom_site_label
 _atom_site_symmetry_multiplicity
 _atom_site_fract_x
 _atom_site_fract_y
 _atom_site_fract_z
 _atom_site_occupancy
  Sm  Sm0  1  0.00000000  0.75000000  0.12500000  1
  Sm  Sm1  1  0.25000000  0.37500000  0.00000000  1
  Sm  Sm2  1  0.75000000  0.12500000  0.00000000  1
  Sm  Sm3  1  0.12500000  0.00000000  0.75000000  1
  Sm  Sm4  1  0.37500000  0.00000000  0.25000000  1
  Sm  Sm5  1  0.00000000  0.25000000  0.37500000  1
  Sm  Sm6  1  0.50000000  0.25000000  0.62500000  1
  Sm  Sm7  1  0.75000000  0.87500000  0.50000000  1
  Sm  Sm8  1  0.25000000  0.62500000  0.50000000  1
  Sm  Sm9  1  0.62500000  0.50000000  0.25000000  1
  Sm  Sm10  1  0.87500000  0.50000000  0.75000000  1
  Sm  Sm11  1  0.50000000  0.75000000  0.87500000  1
  S  S12  1  0.32355100  0.32355100  0.32355100  1
  S  S13  1  0.92644900  0.42644900  0.07355100  1
  S  S14  1  0.42644900  0.07355100  0.92644900  1
  S  S15  1  0.07355100  0.92644900  0.42644900  1
  S  S16  1  0.67644900  0.82355100  0.17644900  1
  S  S17  1  0.82355100  0.17644900  0.67644900  1
  S  S18  1  0.07355100  0.07355100  0.07355100  1
  S  S19  1  0.17644900  0.67644900  0.82355100  1
  S  S20  1  0.82355100  0.82355100  0.82355100  1
  S  S21  1  0.42644900  0.92644900  0.57355100  1
  S  S22  1  0.92644900  0.57355100  0.42644900  1
  S  S23  1  0.57355100  0.42644900  0.92644900  1
  S  S24  1  0.17644900  0.32355100  0.67644900  1
  S  S25  1  0.32355100  0.67644900  0.17644900  1
  S  S26  1  0.57355100  0.57355100  0.57355100  1
  S  S27  1  0.67644900  0.17644900  0.32355100  1
