# generated using pymatgen
data_V2(SO4)3
_symmetry_space_group_name_H-M   'P 1'
_cell_length_a   13.02736400
_cell_length_b   8.27376800
_cell_length_c   8.66907844
_cell_angle_alpha   90.00000000
_cell_angle_beta   114.21295697
_cell_angle_gamma   90.00000000
_symmetry_Int_Tables_number   1
_chemical_formula_structural   V2(SO4)3
_chemical_formula_sum   'V8 S12 O48'
_cell_volume   852.19837490
_cell_formula_units_Z   4
loop_
 _symmetry_equiv_pos_site_id
 _symmetry_equiv_pos_as_xyz
  1  'x, y, z'
loop_
 _atom_site_type_symbol
 _atom_site_label
 _atom_site_symmetry_multiplicity
 _atom_site_fract_x
 _atom_site_fract_y
 _atom_site_fract_z
 _atom_site_occupancy
  V  V0  1  0.62619300  0.24593600  0.51998100  1
  V  V1  1  0.62619300  0.75406400  0.01998100  1
  V  V2  1  0.37380700  0.24593600  0.98001900  1
  V  V3  1  0.37380700  0.75406400  0.48001900  1
  V  V4  1  0.12619300  0.74593600  0.51998100  1
  V  V5  1  0.12619300  0.25406400  0.01998100  1
  V  V6  1  0.87380700  0.74593600  0.98001900  1
  V  V7  1  0.87380700  0.25406400  0.48001900  1
  S  S8  1  0.64260200  0.87969900  0.66795600  1
  S  S9  1  0.64260200  0.12030100  0.16795600  1
  S  S10  1  0.50000000  0.44616100  0.75000000  1
  S  S11  1  0.50000000  0.55383900  0.25000000  1
  S  S12  1  0.35739800  0.87969900  0.83204400  1
  S  S13  1  0.35739800  0.12030100  0.33204400  1
  S  S14  1  0.14260200  0.37969900  0.66795600  1
  S  S15  1  0.14260200  0.62030100  0.16795600  1
  S  S16  1  0.00000000  0.94616100  0.75000000  1
  S  S17  1  0.00000000  0.05383900  0.25000000  1
  S  S18  1  0.85739800  0.37969900  0.83204400  1
  S  S19  1  0.85739800  0.62030100  0.33204400  1
  O  O20  1  0.91756650  0.04812050  0.61437400  1
  O  O21  1  0.91756650  0.95187950  0.11437400  1
  O  O22  1  0.68457400  0.77592700  0.57619800  1
  O  O23  1  0.67633850  0.05324250  0.66938900  1
  O  O24  1  0.69919650  0.83266050  0.86198600  1
  O  O25  1  0.68457400  0.22407300  0.07619800  1
  O  O26  1  0.56313150  0.34400550  0.68008200  1
  O  O27  1  0.51996650  0.87198750  0.61802400  1
  O  O28  1  0.67633850  0.94675750  0.16938900  1
  O  O29  1  0.69919650  0.16733950  0.36198600  1
  O  O30  1  0.56313150  0.65599450  0.18008200  1
  O  O31  1  0.48003350  0.87198750  0.88197600  1
  O  O32  1  0.51996650  0.12801250  0.11802400  1
  O  O33  1  0.43686850  0.34400550  0.81991800  1
  O  O34  1  0.30080350  0.83266050  0.63801400  1
  O  O35  1  0.32366150  0.05324250  0.83061100  1
  O  O36  1  0.48003350  0.12801250  0.38197600  1
  O  O37  1  0.43686850  0.65599450  0.31991800  1
  O  O38  1  0.31542600  0.77592700  0.92380200  1
  O  O39  1  0.30080350  0.16733950  0.13801400  1
  O  O40  1  0.32366150  0.94675750  0.33061100  1
  O  O41  1  0.31542600  0.22407300  0.42380200  1
  O  O42  1  0.08243350  0.04812050  0.88562600  1
  O  O43  1  0.08243350  0.95187950  0.38562600  1
  O  O44  1  0.41756650  0.54812050  0.61437400  1
  O  O45  1  0.41756650  0.45187950  0.11437400  1
  O  O46  1  0.18457400  0.27592700  0.57619800  1
  O  O47  1  0.17633850  0.55324250  0.66938900  1
  O  O48  1  0.19919650  0.33266050  0.86198600  1
  O  O49  1  0.18457400  0.72407300  0.07619800  1
  O  O50  1  0.06313150  0.84400550  0.68008200  1
  O  O51  1  0.01996650  0.37198750  0.61802400  1
  O  O52  1  0.17633850  0.44675750  0.16938900  1
  O  O53  1  0.19919650  0.66733950  0.36198600  1
  O  O54  1  0.06313150  0.15599450  0.18008200  1
  O  O55  1  0.98003350  0.37198750  0.88197600  1
  O  O56  1  0.01996650  0.62801250  0.11802400  1
  O  O57  1  0.93686850  0.84400550  0.81991800  1
  O  O58  1  0.80080350  0.33266050  0.63801400  1
  O  O59  1  0.82366150  0.55324250  0.83061100  1
  O  O60  1  0.98003350  0.62801250  0.38197600  1
  O  O61  1  0.93686850  0.15599450  0.31991800  1
  O  O62  1  0.81542600  0.27592700  0.92380200  1
  O  O63  1  0.80080350  0.66733950  0.13801400  1
  O  O64  1  0.82366150  0.44675750  0.33061100  1
  O  O65  1  0.81542600  0.72407300  0.42380200  1
  O  O66  1  0.58243350  0.54812050  0.88562600  1
  O  O67  1  0.58243350  0.45187950  0.38562600  1
