# generated using pymatgen
data_FePO4
_symmetry_space_group_name_H-M   'P 1'
_cell_length_a   5.27450500
_cell_length_b   7.92685400
_cell_length_c   6.45011300
_cell_angle_alpha   90.00000000
_cell_angle_beta   90.00000000
_cell_angle_gamma   90.00000000
_symmetry_Int_Tables_number   1
_chemical_formula_structural   FePO4
_chemical_formula_sum   'Fe4 P4 O16'
_cell_volume   269.68071488
_cell_formula_units_Z   4
loop_
 _symmetry_equiv_pos_site_id
 _symmetry_equiv_pos_as_xyz
  1  'x, y, z'
loop_
 _atom_site_type_symbol
 _atom_site_label
 _atom_site_symmetry_multiplicity
 _atom_site_fract_x
 _atom_site_fract_y
 _atom_site_fract_z
 _atom_site_occupancy
  Fe  Fe0  1  0.00000000  0.00000000  0.00000000  1
  Fe  Fe1  1  0.00000000  0.00000000  0.50000000  1
  Fe  Fe2  1  0.50000000  0.50000000  0.00000000  1
  Fe  Fe3  1  0.50000000  0.50000000  0.50000000  1
  P  P4  1  0.50000000  0.15345300  0.75000000  1
  P  P5  1  0.50000000  0.84654700  0.25000000  1
  P  P6  1  0.00000000  0.65345300  0.75000000  1
  P  P7  1  0.00000000  0.34654700  0.25000000  1
  O  O8  1  0.50000000  0.25997300  0.94729300  1
  O  O9  1  0.25734800  0.03686200  0.75000000  1
  O  O10  1  0.74265200  0.03686200  0.75000000  1
  O  O11  1  0.50000000  0.25997300  0.55270700  1
  O  O12  1  0.50000000  0.74002700  0.44729300  1
  O  O13  1  0.74265200  0.96313800  0.25000000  1
  O  O14  1  0.25734800  0.96313800  0.25000000  1
  O  O15  1  0.50000000  0.74002700  0.05270700  1
  O  O16  1  0.00000000  0.75997300  0.94729300  1
  O  O17  1  0.75734800  0.53686200  0.75000000  1
  O  O18  1  0.24265200  0.53686200  0.75000000  1
  O  O19  1  0.00000000  0.75997300  0.55270700  1
  O  O20  1  0.00000000  0.24002700  0.44729300  1
  O  O21  1  0.24265200  0.46313800  0.25000000  1
  O  O22  1  0.75734800  0.46313800  0.25000000  1
  O  O23  1  0.00000000  0.24002700  0.05270700  1
