# generated using pymatgen
data_CuO2
_symmetry_space_group_name_H-M   'P 1'
_cell_length_a   2.94466805
_cell_length_b   2.94466805
_cell_length_c   13.68503597
_cell_angle_alpha   90.00000000
_cell_angle_beta   90.00000000
_cell_angle_gamma   120.00000000
_symmetry_Int_Tables_number   1
_chemical_formula_structural   CuO2
_chemical_formula_sum   'Cu3 O6'
_cell_volume   102.76595489
_cell_formula_units_Z   3
loop_
 _symmetry_equiv_pos_site_id
 _symmetry_equiv_pos_as_xyz
  1  'x, y, z'
loop_
 _atom_site_type_symbol
 _atom_site_label
 _atom_site_symmetry_multiplicity
 _atom_site_fract_x
 _atom_site_fract_y
 _atom_site_fract_z
 _atom_site_occupancy
  Cu  Cu0  1  0.00000000  0.00000000  0.00000000  1
  Cu  Cu1  1  0.66666667  0.33333333  0.33333333  1
  Cu  Cu2  1  0.33333333  0.66666667  0.66666667  1
  O  O3  1  0.66666667  0.33333333  0.06820133  1
  O  O4  1  0.00000000  0.00000000  0.26513200  1
  O  O5  1  0.33333333  0.66666667  0.40153467  1
  O  O6  1  0.66666667  0.33333333  0.59846533  1
  O  O7  1  0.00000000  0.00000000  0.73486800  1
  O  O8  1  0.33333333  0.66666667  0.93179867  1
