# generated using pymatgen
data_CeCoGe3
_symmetry_space_group_name_H-M   'P 1'
_cell_length_a   4.30983400
_cell_length_b   4.30983400
_cell_length_c   9.79368400
_cell_angle_alpha   90.00000000
_cell_angle_beta   90.00000000
_cell_angle_gamma   90.00000000
_symmetry_Int_Tables_number   1
_chemical_formula_structural   CeCoGe3
_chemical_formula_sum   'Ce2 Co2 Ge6'
_cell_volume   181.91443964
_cell_formula_units_Z   2
loop_
 _symmetry_equiv_pos_site_id
 _symmetry_equiv_pos_as_xyz
  1  'x, y, z'
loop_
 _atom_site_type_symbol
 _atom_site_label
 _atom_site_symmetry_multiplicity
 _atom_site_fract_x
 _atom_site_fract_y
 _atom_site_fract_z
 _atom_site_occupancy
  Ce  Ce0  1  0.50000000  0.50000000  0.16621800  1
  Ce  Ce1  1  0.00000000  0.00000000  0.66621800  1
  Co  Co2  1  0.50000000  0.50000000  0.49508500  1
  Co  Co3  1  0.00000000  0.00000000  0.99508500  1
  Ge  Ge4  1  0.50000000  0.00000000  0.40410200  1
  Ge  Ge5  1  0.00000000  0.00000000  0.22839200  1
  Ge  Ge6  1  0.00000000  0.50000000  0.40410200  1
  Ge  Ge7  1  0.00000000  0.50000000  0.90410200  1
  Ge  Ge8  1  0.50000000  0.50000000  0.72839200  1
  Ge  Ge9  1  0.50000000  0.00000000  0.90410200  1
