# generated using pymatgen
data_U6Cu2S13
_symmetry_space_group_name_H-M   'P 1'
_cell_length_a   10.29862000
_cell_length_b   12.32290800
_cell_length_c   14.23101230
_cell_angle_alpha   90.00000000
_cell_angle_beta   103.72193712
_cell_angle_gamma   90.00000000
_symmetry_Int_Tables_number   1
_chemical_formula_structural   U6Cu2S13
_chemical_formula_sum   'U24 Cu8 S52'
_cell_volume   1754.49537626
_cell_formula_units_Z   4
loop_
 _symmetry_equiv_pos_site_id
 _symmetry_equiv_pos_as_xyz
  1  'x, y, z'
loop_
 _atom_site_type_symbol
 _atom_site_label
 _atom_site_symmetry_multiplicity
 _atom_site_fract_x
 _atom_site_fract_y
 _atom_site_fract_z
 _atom_site_occupancy
  U  U0  1  0.17072800  0.99393700  0.35759300  1
  U  U1  1  0.82927200  0.99393700  0.14240700  1
  U  U2  1  0.82927200  0.00606300  0.64240700  1
  U  U3  1  0.17072800  0.00606300  0.85759300  1
  U  U4  1  0.67631150  0.16681250  0.35650700  1
  U  U5  1  0.32368850  0.16681250  0.14349300  1
  U  U6  1  0.32368850  0.83318750  0.64349300  1
  U  U7  1  0.67631150  0.83318750  0.85650700  1
  U  U8  1  0.65896800  0.32669500  0.11019100  1
  U  U9  1  0.34103200  0.32669500  0.38980900  1
  U  U10  1  0.34103200  0.67330500  0.88980900  1
  U  U11  1  0.65896800  0.67330500  0.61019100  1
  U  U12  1  0.67072800  0.49393700  0.35759300  1
  U  U13  1  0.32927200  0.49393700  0.14240700  1
  U  U14  1  0.32927200  0.50606300  0.64240700  1
  U  U15  1  0.67072800  0.50606300  0.85759300  1
  U  U16  1  0.17631150  0.66681250  0.35650700  1
  U  U17  1  0.82368850  0.66681250  0.14349300  1
  U  U18  1  0.82368850  0.33318750  0.64349300  1
  U  U19  1  0.17631150  0.33318750  0.85650700  1
  U  U20  1  0.15896800  0.82669500  0.11019100  1
  U  U21  1  0.84103200  0.82669500  0.38980900  1
  U  U22  1  0.84103200  0.17330500  0.88980900  1
  U  U23  1  0.15896800  0.17330500  0.61019100  1
  Cu  Cu24  1  0.47040700  0.85661500  0.12923700  1
  Cu  Cu25  1  0.52959300  0.85661500  0.37076300  1
  Cu  Cu26  1  0.52959300  0.14338500  0.87076300  1
  Cu  Cu27  1  0.47040700  0.14338500  0.62923700  1
  Cu  Cu28  1  0.97040700  0.35661500  0.12923700  1
  Cu  Cu29  1  0.02959300  0.35661500  0.37076300  1
  Cu  Cu30  1  0.02959300  0.64338500  0.87076300  1
  Cu  Cu31  1  0.97040700  0.64338500  0.62923700  1
  S  S32  1  0.50000000  0.32786400  0.25000000  1
  S  S33  1  0.50000000  0.67213600  0.75000000  1
  S  S34  1  0.61395800  0.32447600  0.47419100  1
  S  S35  1  0.38604200  0.32447600  0.02580900  1
  S  S36  1  0.38604200  0.67552400  0.52580900  1
  S  S37  1  0.61395800  0.67552400  0.97419100  1
  S  S38  1  0.36812450  0.69792750  0.08576200  1
  S  S39  1  0.63187550  0.69792750  0.41423800  1
  S  S40  1  0.63187550  0.30207250  0.91423800  1
  S  S41  1  0.36812450  0.30207250  0.58576200  1
  S  S42  1  0.31990550  0.83371950  0.29706900  1
  S  S43  1  0.68009450  0.83371950  0.20293100  1
  S  S44  1  0.68009450  0.16628050  0.70293100  1
  S  S45  1  0.31990550  0.16628050  0.79706900  1
  S  S46  1  0.60535400  0.11666600  0.16509100  1
  S  S47  1  0.39464600  0.11666600  0.33490900  1
  S  S48  1  0.33180200  0.02017900  0.54702100  1
  S  S49  1  0.66819800  0.02017900  0.95297900  1
  S  S50  1  0.66819800  0.97982100  0.45297900  1
  S  S51  1  0.33180200  0.97982100  0.04702100  1
  S  S52  1  0.89384000  0.96272100  0.83266000  1
  S  S53  1  0.10616000  0.96272100  0.66734000  1
  S  S54  1  0.10616000  0.03727900  0.16734000  1
  S  S55  1  0.89384000  0.03727900  0.33266000  1
  S  S56  1  0.60535400  0.88333400  0.66509100  1
  S  S57  1  0.39464600  0.88333400  0.83490900  1
  S  S58  1  0.00000000  0.82786400  0.25000000  1
  S  S59  1  0.00000000  0.17213600  0.75000000  1
  S  S60  1  0.11395800  0.82447600  0.47419100  1
  S  S61  1  0.88604200  0.82447600  0.02580900  1
  S  S62  1  0.88604200  0.17552400  0.52580900  1
  S  S63  1  0.11395800  0.17552400  0.97419100  1
  S  S64  1  0.86812450  0.19792750  0.08576200  1
  S  S65  1  0.13187550  0.19792750  0.41423800  1
  S  S66  1  0.13187550  0.80207250  0.91423800  1
  S  S67  1  0.86812450  0.80207250  0.58576200  1
  S  S68  1  0.81990550  0.33371950  0.29706900  1
  S  S69  1  0.18009450  0.33371950  0.20293100  1
  S  S70  1  0.18009450  0.66628050  0.70293100  1
  S  S71  1  0.81990550  0.66628050  0.79706900  1
  S  S72  1  0.10535400  0.61666600  0.16509100  1
  S  S73  1  0.89464600  0.61666600  0.33490900  1
  S  S74  1  0.83180200  0.52017900  0.54702100  1
  S  S75  1  0.16819800  0.52017900  0.95297900  1
  S  S76  1  0.16819800  0.47982100  0.45297900  1
  S  S77  1  0.83180200  0.47982100  0.04702100  1
  S  S78  1  0.39384000  0.46272100  0.83266000  1
  S  S79  1  0.60616000  0.46272100  0.66734000  1
  S  S80  1  0.60616000  0.53727900  0.16734000  1
  S  S81  1  0.39384000  0.53727900  0.33266000  1
  S  S82  1  0.10535400  0.38333400  0.66509100  1
  S  S83  1  0.89464600  0.38333400  0.83490900  1
