# generated using pymatgen
data_AgBiO3
_symmetry_space_group_name_H-M   'P 1'
_cell_length_a   5.77807621
_cell_length_b   5.77807621
_cell_length_c   16.04419930
_cell_angle_alpha   90.00000000
_cell_angle_beta   90.00000000
_cell_angle_gamma   120.00000000
_symmetry_Int_Tables_number   1
_chemical_formula_structural   AgBiO3
_chemical_formula_sum   'Ag6 Bi6 O18'
_cell_volume   463.89021486
_cell_formula_units_Z   6
loop_
 _symmetry_equiv_pos_site_id
 _symmetry_equiv_pos_as_xyz
  1  'x, y, z'
loop_
 _atom_site_type_symbol
 _atom_site_label
 _atom_site_symmetry_multiplicity
 _atom_site_fract_x
 _atom_site_fract_y
 _atom_site_fract_z
 _atom_site_occupancy
  Ag  Ag0  1  0.66666667  0.33333333  0.20172333  1
  Ag  Ag1  1  0.00000000  0.00000000  0.13161000  1
  Ag  Ag2  1  0.33333333  0.66666667  0.53505667  1
  Ag  Ag3  1  0.66666667  0.33333333  0.46494333  1
  Ag  Ag4  1  0.00000000  0.00000000  0.86839000  1
  Ag  Ag5  1  0.33333333  0.66666667  0.79827667  1
  Bi  Bi6  1  0.33333333  0.66666667  0.32467467  1
  Bi  Bi7  1  0.33333333  0.66666667  0.00865867  1
  Bi  Bi8  1  0.00000000  0.00000000  0.65800800  1
  Bi  Bi9  1  0.00000000  0.00000000  0.34199200  1
  Bi  Bi10  1  0.66666667  0.33333333  0.99134133  1
  Bi  Bi11  1  0.66666667  0.33333333  0.67532533  1
  O  O12  1  0.68210433  0.71597667  0.25786267  1
  O  O13  1  0.98456233  0.61735667  0.07547067  1
  O  O14  1  0.38264333  0.36720567  0.07547067  1
  O  O15  1  0.63279433  0.01543767  0.07547067  1
  O  O16  1  0.03387233  0.31789567  0.25786267  1
  O  O17  1  0.28402333  0.96612767  0.25786267  1
  O  O18  1  0.34877100  0.04931000  0.59119600  1
  O  O19  1  0.65122900  0.95069000  0.40880400  1
  O  O20  1  0.04931000  0.70053900  0.40880400  1
  O  O21  1  0.29946100  0.34877100  0.40880400  1
  O  O22  1  0.70053900  0.65122900  0.59119600  1
  O  O23  1  0.95069000  0.29946100  0.59119600  1
  O  O24  1  0.01543767  0.38264333  0.92452933  1
  O  O25  1  0.31789567  0.28402333  0.74213733  1
  O  O26  1  0.71597667  0.03387233  0.74213733  1
  O  O27  1  0.96612767  0.68210433  0.74213733  1
  O  O28  1  0.36720567  0.98456233  0.92452933  1
  O  O29  1  0.61735667  0.63279433  0.92452933  1
