# generated using pymatgen
data_Sr2Co(ClO)2
_symmetry_space_group_name_H-M   'P 1'
_cell_length_a   4.08435420
_cell_length_b   4.08435420
_cell_length_c   15.47415214
_cell_angle_alpha   90.00000000
_cell_angle_beta   90.00000000
_cell_angle_gamma   90.00000000
_symmetry_Int_Tables_number   1
_chemical_formula_structural   Sr2Co(ClO)2
_chemical_formula_sum   'Sr4 Co2 Cl4 O4'
_cell_volume   258.13902087
_cell_formula_units_Z   2
loop_
 _symmetry_equiv_pos_site_id
 _symmetry_equiv_pos_as_xyz
  1  'x, y, z'
loop_
 _atom_site_type_symbol
 _atom_site_label
 _atom_site_symmetry_multiplicity
 _atom_site_fract_x
 _atom_site_fract_y
 _atom_site_fract_z
 _atom_site_occupancy
  Sr  Sr0  1  0.00000000  0.00000000  0.39320425  1
  Sr  Sr1  1  0.50000000  0.50000000  0.10679575  1
  Sr  Sr2  1  0.50000000  0.50000000  0.89320425  1
  Sr  Sr3  1  0.00000000  0.00000000  0.60679575  1
  Co  Co4  1  0.50000000  0.50000000  0.50000000  1
  Co  Co5  1  0.00000000  0.00000000  0.00000000  1
  Cl  Cl6  1  0.50000000  0.50000000  0.32097550  1
  Cl  Cl7  1  0.00000000  0.00000000  0.17902450  1
  Cl  Cl8  1  0.00000000  0.00000000  0.82097550  1
  Cl  Cl9  1  0.50000000  0.50000000  0.67902450  1
  O  O10  1  0.00000000  0.50000000  0.50000000  1
  O  O11  1  0.00000000  0.50000000  0.00000000  1
  O  O12  1  0.50000000  0.00000000  0.00000000  1
  O  O13  1  0.50000000  0.00000000  0.50000000  1
