# generated using pymatgen
data_CoH2SeO5
_symmetry_space_group_name_H-M   'P 1'
_cell_length_a   7.11730402
_cell_length_b   8.16552396
_cell_length_c   7.69871409
_cell_angle_alpha   90.00000000
_cell_angle_beta   115.86218824
_cell_angle_gamma   90.00000000
_symmetry_Int_Tables_number   1
_chemical_formula_structural   CoH2SeO5
_chemical_formula_sum   'Co4 H8 Se4 O20'
_cell_volume   402.61122834
_cell_formula_units_Z   4
loop_
 _symmetry_equiv_pos_site_id
 _symmetry_equiv_pos_as_xyz
  1  'x, y, z'
loop_
 _atom_site_type_symbol
 _atom_site_label
 _atom_site_symmetry_multiplicity
 _atom_site_fract_x
 _atom_site_fract_y
 _atom_site_fract_z
 _atom_site_occupancy
  Co  Co0  1  0.25000000  0.25000000  0.00000000  1
  Co  Co1  1  0.75000000  0.25000000  0.50000000  1
  Co  Co2  1  0.75000000  0.75000000  0.00000000  1
  Co  Co3  1  0.25000000  0.75000000  0.50000000  1
  H  H4  1  0.41907700  0.54900200  0.79773200  1
  H  H5  1  0.08092300  0.04900200  0.70226800  1
  H  H6  1  0.08092300  0.95099800  0.20226800  1
  H  H7  1  0.41907700  0.45099800  0.29773200  1
  H  H8  1  0.91907700  0.04900200  0.79773200  1
  H  H9  1  0.58092300  0.54900200  0.70226800  1
  H  H10  1  0.58092300  0.45099800  0.20226800  1
  H  H11  1  0.91907700  0.95099800  0.29773200  1
  Se  Se12  1  0.00000000  0.41488400  0.25000000  1
  Se  Se13  1  0.50000000  0.08511600  0.75000000  1
  Se  Se14  1  0.50000000  0.91488400  0.25000000  1
  Se  Se15  1  0.00000000  0.58511600  0.75000000  1
  O  O16  1  0.50000000  0.37870200  0.25000000  1
  O  O17  1  0.00000000  0.12129800  0.75000000  1
  O  O18  1  0.98466600  0.29773200  0.42078700  1
  O  O19  1  0.01533400  0.29773200  0.07921300  1
  O  O20  1  0.51533400  0.20226800  0.57921300  1
  O  O21  1  0.48466600  0.20226800  0.92078700  1
  O  O22  1  0.28259300  0.03181700  0.14993200  1
  O  O23  1  0.21740700  0.53181700  0.35006800  1
  O  O24  1  0.21740700  0.46818300  0.85006800  1
  O  O25  1  0.28259300  0.96818300  0.64993200  1
  O  O26  1  0.00000000  0.87870200  0.25000000  1
  O  O27  1  0.50000000  0.62129800  0.75000000  1
  O  O28  1  0.48466600  0.79773200  0.42078700  1
  O  O29  1  0.51533400  0.79773200  0.07921300  1
  O  O30  1  0.01533400  0.70226800  0.57921300  1
  O  O31  1  0.98466600  0.70226800  0.92078700  1
  O  O32  1  0.78259300  0.53181700  0.14993200  1
  O  O33  1  0.71740700  0.03181700  0.35006800  1
  O  O34  1  0.71740700  0.96818300  0.85006800  1
  O  O35  1  0.78259300  0.46818300  0.64993200  1
