# generated using pymatgen
data_LiNiO2
_symmetry_space_group_name_H-M   'P 1'
_cell_length_a   20.19560000
_cell_length_b   2.84223200
_cell_length_c   5.22675718
_cell_angle_alpha   90.00000000
_cell_angle_beta   99.17607931
_cell_angle_gamma   90.00000000
_symmetry_Int_Tables_number   1
_chemical_formula_structural   LiNiO2
_chemical_formula_sum   'Li8 Ni8 O16'
_cell_volume   296.17953371
_cell_formula_units_Z   8
loop_
 _symmetry_equiv_pos_site_id
 _symmetry_equiv_pos_as_xyz
  1  'x, y, z'
loop_
 _atom_site_type_symbol
 _atom_site_label
 _atom_site_symmetry_multiplicity
 _atom_site_fract_x
 _atom_site_fract_y
 _atom_site_fract_z
 _atom_site_occupancy
  Li  Li0  1  0.14119900  0.50000000  0.37041300  1
  Li  Li1  1  0.35880100  0.00000000  0.62958700  1
  Li  Li2  1  0.38984900  0.00000000  0.12090700  1
  Li  Li3  1  0.11015100  0.50000000  0.87909300  1
  Li  Li4  1  0.64119900  0.00000000  0.37041300  1
  Li  Li5  1  0.85880100  0.50000000  0.62958700  1
  Li  Li6  1  0.88984900  0.50000000  0.12090700  1
  Li  Li7  1  0.61015100  0.00000000  0.87909300  1
  Ni  Ni8  1  0.24764900  0.50000000  0.75082800  1
  Ni  Ni9  1  0.00000000  0.00000000  0.00000000  1
  Ni  Ni10  1  0.00000000  0.50000000  0.50000000  1
  Ni  Ni11  1  0.25235100  0.00000000  0.24917200  1
  Ni  Ni12  1  0.74764900  0.00000000  0.75082800  1
  Ni  Ni13  1  0.50000000  0.50000000  0.00000000  1
  Ni  Ni14  1  0.50000000  0.00000000  0.50000000  1
  Ni  Ni15  1  0.75235100  0.50000000  0.24917200  1
  O  O16  1  0.30472600  0.50000000  0.43144200  1
  O  O17  1  0.44852300  0.00000000  0.82701100  1
  O  O18  1  0.19891300  0.50000000  0.08383000  1
  O  O19  1  0.05147700  0.50000000  0.17298900  1
  O  O20  1  0.30108700  0.00000000  0.91617000  1
  O  O21  1  0.05327300  0.00000000  0.72912700  1
  O  O22  1  0.44672700  0.50000000  0.27087300  1
  O  O23  1  0.19527400  0.00000000  0.56855800  1
  O  O24  1  0.80472600  0.00000000  0.43144200  1
  O  O25  1  0.94852300  0.50000000  0.82701100  1
  O  O26  1  0.69891300  0.00000000  0.08383000  1
  O  O27  1  0.55147700  0.00000000  0.17298900  1
  O  O28  1  0.80108700  0.50000000  0.91617000  1
  O  O29  1  0.55327300  0.50000000  0.72912700  1
  O  O30  1  0.94672700  0.00000000  0.27087300  1
  O  O31  1  0.69527400  0.50000000  0.56855800  1
