# generated using pymatgen
data_Rh3S4
_symmetry_space_group_name_H-M   'P 1'
_cell_length_a   10.48563800
_cell_length_b   10.90154400
_cell_length_c   6.31925100
_cell_angle_alpha   90.00000000
_cell_angle_beta   107.90453909
_cell_angle_gamma   90.00000000
_symmetry_Int_Tables_number   1
_chemical_formula_structural   Rh3S4
_chemical_formula_sum   'Rh18 S24'
_cell_volume   687.36789455
_cell_formula_units_Z   6
loop_
 _symmetry_equiv_pos_site_id
 _symmetry_equiv_pos_as_xyz
  1  'x, y, z'
loop_
 _atom_site_type_symbol
 _atom_site_label
 _atom_site_symmetry_multiplicity
 _atom_site_fract_x
 _atom_site_fract_y
 _atom_site_fract_z
 _atom_site_occupancy
  Rh  Rh0  1  0.50000000  0.33914800  0.00000000  1
  Rh  Rh1  1  0.50000000  0.66085200  0.00000000  1
  Rh  Rh2  1  0.00000000  0.00000000  0.50000000  1
  Rh  Rh3  1  0.65005000  0.00000000  0.94763700  1
  Rh  Rh4  1  0.34995000  0.00000000  0.05236300  1
  Rh  Rh5  1  0.36210450  0.85365450  0.45064500  1
  Rh  Rh6  1  0.63789550  0.85365450  0.54935500  1
  Rh  Rh7  1  0.63789550  0.14634550  0.54935500  1
  Rh  Rh8  1  0.36210450  0.14634550  0.45064500  1
  Rh  Rh9  1  0.00000000  0.83914800  0.00000000  1
  Rh  Rh10  1  0.00000000  0.16085200  0.00000000  1
  Rh  Rh11  1  0.50000000  0.50000000  0.50000000  1
  Rh  Rh12  1  0.15005000  0.50000000  0.94763700  1
  Rh  Rh13  1  0.84995000  0.50000000  0.05236300  1
  Rh  Rh14  1  0.86210450  0.35365450  0.45064500  1
  Rh  Rh15  1  0.13789550  0.35365450  0.54935500  1
  Rh  Rh16  1  0.13789550  0.64634550  0.54935500  1
  Rh  Rh17  1  0.86210450  0.64634550  0.45064500  1
  S  S18  1  0.35028250  0.79088750  0.10076200  1
  S  S19  1  0.64971750  0.79088750  0.89923800  1
  S  S20  1  0.64971750  0.20911250  0.89923800  1
  S  S21  1  0.35028250  0.20911250  0.10076200  1
  S  S22  1  0.88274200  0.00000000  0.11167100  1
  S  S23  1  0.11725800  0.00000000  0.88832900  1
  S  S24  1  0.62544150  0.34160650  0.38566500  1
  S  S25  1  0.37455850  0.34160650  0.61433500  1
  S  S26  1  0.37455850  0.65839350  0.61433500  1
  S  S27  1  0.41587200  0.00000000  0.72645300  1
  S  S28  1  0.58412800  0.00000000  0.27354700  1
  S  S29  1  0.62544150  0.65839350  0.38566500  1
  S  S30  1  0.85028250  0.29088750  0.10076200  1
  S  S31  1  0.14971750  0.29088750  0.89923800  1
  S  S32  1  0.14971750  0.70911250  0.89923800  1
  S  S33  1  0.85028250  0.70911250  0.10076200  1
  S  S34  1  0.38274200  0.50000000  0.11167100  1
  S  S35  1  0.61725800  0.50000000  0.88832900  1
  S  S36  1  0.12544150  0.84160650  0.38566500  1
  S  S37  1  0.87455850  0.84160650  0.61433500  1
  S  S38  1  0.87455850  0.15839350  0.61433500  1
  S  S39  1  0.91587200  0.50000000  0.72645300  1
  S  S40  1  0.08412800  0.50000000  0.27354700  1
  S  S41  1  0.12544150  0.15839350  0.38566500  1
