# generated using pymatgen
data_Cs2Cu5Se4
_symmetry_space_group_name_H-M   'P 1'
_cell_length_a   4.01409000
_cell_length_b   19.60945200
_cell_length_c   13.29051100
_cell_angle_alpha   90.00000000
_cell_angle_beta   90.00000000
_cell_angle_gamma   90.00000000
_symmetry_Int_Tables_number   1
_chemical_formula_structural   Cs2Cu5Se4
_chemical_formula_sum   'Cs8 Cu20 Se16'
_cell_volume   1046.15068073
_cell_formula_units_Z   4
loop_
 _symmetry_equiv_pos_site_id
 _symmetry_equiv_pos_as_xyz
  1  'x, y, z'
loop_
 _atom_site_type_symbol
 _atom_site_label
 _atom_site_symmetry_multiplicity
 _atom_site_fract_x
 _atom_site_fract_y
 _atom_site_fract_z
 _atom_site_occupancy
  Cs  Cs0  1  0.00000000  0.14190700  0.75000000  1
  Cs  Cs1  1  0.50000000  0.35809300  0.25000000  1
  Cs  Cs2  1  0.00000000  0.00000000  0.00000000  1
  Cs  Cs3  1  0.00000000  0.00000000  0.50000000  1
  Cs  Cs4  1  0.50000000  0.64190700  0.75000000  1
  Cs  Cs5  1  0.00000000  0.85809300  0.25000000  1
  Cs  Cs6  1  0.50000000  0.50000000  0.00000000  1
  Cs  Cs7  1  0.50000000  0.50000000  0.50000000  1
  Cu  Cu8  1  0.50000000  0.28478600  0.54122100  1
  Cu  Cu9  1  0.00000000  0.21521400  0.04122100  1
  Cu  Cu10  1  0.50000000  0.28478600  0.95877900  1
  Cu  Cu11  1  0.00000000  0.21521400  0.45877900  1
  Cu  Cu12  1  0.00000000  0.08396000  0.25000000  1
  Cu  Cu13  1  0.50000000  0.41604000  0.75000000  1
  Cu  Cu14  1  0.50000000  0.14815600  0.15756500  1
  Cu  Cu15  1  0.00000000  0.35184400  0.84243500  1
  Cu  Cu16  1  0.00000000  0.35184400  0.65756500  1
  Cu  Cu17  1  0.50000000  0.14815600  0.34243500  1
  Cu  Cu18  1  0.00000000  0.78478600  0.54122100  1
  Cu  Cu19  1  0.50000000  0.71521400  0.04122100  1
  Cu  Cu20  1  0.00000000  0.78478600  0.95877900  1
  Cu  Cu21  1  0.50000000  0.71521400  0.45877900  1
  Cu  Cu22  1  0.50000000  0.58396000  0.25000000  1
  Cu  Cu23  1  0.00000000  0.91604000  0.75000000  1
  Cu  Cu24  1  0.00000000  0.64815600  0.15756500  1
  Cu  Cu25  1  0.50000000  0.85184400  0.84243500  1
  Cu  Cu26  1  0.50000000  0.85184400  0.65756500  1
  Cu  Cu27  1  0.00000000  0.64815600  0.34243500  1
  Se  Se28  1  0.00000000  0.34254700  0.47914100  1
  Se  Se29  1  0.00000000  0.34254700  0.02085900  1
  Se  Se30  1  0.50000000  0.15745300  0.52085900  1
  Se  Se31  1  0.50000000  0.15745300  0.97914100  1
  Se  Se32  1  0.00000000  0.20662100  0.25000000  1
  Se  Se33  1  0.50000000  0.29337900  0.75000000  1
  Se  Se34  1  0.50000000  0.01889700  0.25000000  1
  Se  Se35  1  0.00000000  0.48110300  0.75000000  1
  Se  Se36  1  0.50000000  0.84254700  0.47914100  1
  Se  Se37  1  0.50000000  0.84254700  0.02085900  1
  Se  Se38  1  0.00000000  0.65745300  0.52085900  1
  Se  Se39  1  0.00000000  0.65745300  0.97914100  1
  Se  Se40  1  0.50000000  0.70662100  0.25000000  1
  Se  Se41  1  0.00000000  0.79337900  0.75000000  1
  Se  Se42  1  0.00000000  0.51889700  0.25000000  1
  Se  Se43  1  0.50000000  0.98110300  0.75000000  1
