# generated using pymatgen
data_CaIn4Pd
_symmetry_space_group_name_H-M   'P 1'
_cell_length_a   4.51981800
_cell_length_b   16.91600000
_cell_length_c   7.64444700
_cell_angle_alpha   90.00000000
_cell_angle_beta   90.00000000
_cell_angle_gamma   90.00000000
_symmetry_Int_Tables_number   1
_chemical_formula_structural   CaIn4Pd
_chemical_formula_sum   'Ca4 In16 Pd4'
_cell_volume   584.47332879
_cell_formula_units_Z   4
loop_
 _symmetry_equiv_pos_site_id
 _symmetry_equiv_pos_as_xyz
  1  'x, y, z'
loop_
 _atom_site_type_symbol
 _atom_site_label
 _atom_site_symmetry_multiplicity
 _atom_site_fract_x
 _atom_site_fract_y
 _atom_site_fract_z
 _atom_site_occupancy
  Ca  Ca0  1  0.00000000  0.87245800  0.75000000  1
  Ca  Ca1  1  0.50000000  0.62754200  0.25000000  1
  Ca  Ca2  1  0.50000000  0.37245800  0.75000000  1
  Ca  Ca3  1  0.00000000  0.12754200  0.25000000  1
  In  In4  1  0.00000000  0.68271500  0.95030200  1
  In  In5  1  0.50000000  0.81728500  0.04969800  1
  In  In6  1  0.50000000  0.81728500  0.45030200  1
  In  In7  1  0.00000000  0.68271500  0.54969800  1
  In  In8  1  0.50000000  0.56575600  0.75000000  1
  In  In9  1  0.00000000  0.93424400  0.25000000  1
  In  In10  1  0.50000000  0.00000000  0.00000000  1
  In  In11  1  0.50000000  0.00000000  0.50000000  1
  In  In12  1  0.50000000  0.18271500  0.95030200  1
  In  In13  1  0.00000000  0.31728500  0.04969800  1
  In  In14  1  0.00000000  0.31728500  0.45030200  1
  In  In15  1  0.50000000  0.18271500  0.54969800  1
  In  In16  1  0.00000000  0.06575600  0.75000000  1
  In  In17  1  0.50000000  0.43424400  0.25000000  1
  In  In18  1  0.00000000  0.50000000  0.00000000  1
  In  In19  1  0.00000000  0.50000000  0.50000000  1
  Pd  Pd20  1  0.50000000  0.72746200  0.75000000  1
  Pd  Pd21  1  0.00000000  0.77253800  0.25000000  1
  Pd  Pd22  1  0.00000000  0.22746200  0.75000000  1
  Pd  Pd23  1  0.50000000  0.27253800  0.25000000  1
