# generated using pymatgen
data_Li2FePO4F
_symmetry_space_group_name_H-M   'P 1'
_cell_length_a   5.37448807
_cell_length_b   5.44576390
_cell_length_c   7.53486711
_cell_angle_alpha   107.73494568
_cell_angle_beta   108.45814376
_cell_angle_gamma   95.00030777
_symmetry_Int_Tables_number   1
_chemical_formula_structural   Li2FePO4F
_chemical_formula_sum   'Li4 Fe2 P2 O8 F2'
_cell_volume   195.08762476
_cell_formula_units_Z   2
loop_
 _symmetry_equiv_pos_site_id
 _symmetry_equiv_pos_as_xyz
  1  'x, y, z'
loop_
 _atom_site_type_symbol
 _atom_site_label
 _atom_site_symmetry_multiplicity
 _atom_site_fract_x
 _atom_site_fract_y
 _atom_site_fract_z
 _atom_site_occupancy
  Li  Li0  1  0.15784700  0.54518700  0.11832400  1
  Li  Li1  1  0.51533750  0.16553800  0.86254850  1
  Li  Li2  1  0.48990700  0.94237000  0.47840200  1
  Li  Li3  1  0.77214800  0.44796900  0.70569650  1
  Fe  Fe4  1  0.00794300  0.99854000  0.01776000  1
  Fe  Fe5  1  0.99283400  0.99874000  0.50329000  1
  P  P6  1  0.66010550  0.37375100  0.26067550  1
  P  P7  1  0.34460700  0.63334400  0.76885950  1
  O  O8  1  0.27964750  0.80241200  0.63288500  1
  O  O9  1  0.72243350  0.23531100  0.41787600  1
  O  O10  1  0.32726750  0.33587600  0.65593550  1
  O  O11  1  0.14512700  0.65372900  0.88168150  1
  O  O12  1  0.85133700  0.33140400  0.14132050  1
  O  O13  1  0.37037850  0.25672300  0.09886600  1
  O  O14  1  0.67522250  0.66906100  0.36891800  1
  O  O15  1  0.64208450  0.73902200  0.90804950  1
  F  F16  1  0.82000450  0.11058200  0.74672550  1
  F  F17  1  0.15365100  0.89207300  0.27359350  1
