# generated using pymatgen
data_NiH12(N3O2)2
_symmetry_space_group_name_H-M   'P 1'
_cell_length_a   13.17738200
_cell_length_b   5.73280400
_cell_length_c   6.78431025
_cell_angle_alpha   90.00000000
_cell_angle_beta   114.24960059
_cell_angle_gamma   90.00000000
_symmetry_Int_Tables_number   1
_chemical_formula_structural   NiH12(N3O2)2
_chemical_formula_sum   'Ni2 H24 N12 O8'
_cell_volume   467.28818703
_cell_formula_units_Z   2
loop_
 _symmetry_equiv_pos_site_id
 _symmetry_equiv_pos_as_xyz
  1  'x, y, z'
loop_
 _atom_site_type_symbol
 _atom_site_label
 _atom_site_symmetry_multiplicity
 _atom_site_fract_x
 _atom_site_fract_y
 _atom_site_fract_z
 _atom_site_occupancy
  Ni  Ni0  1  0.00000000  0.00000000  0.00000000  1
  Ni  Ni1  1  0.50000000  0.50000000  0.00000000  1
  H  H2  1  0.06866100  0.63446100  0.71970800  1
  H  H3  1  0.43133900  0.13446100  0.28029200  1
  H  H4  1  0.43133900  0.86553900  0.28029200  1
  H  H5  1  0.06866100  0.36553900  0.71970800  1
  H  H6  1  0.27741800  0.13399000  0.80956300  1
  H  H7  1  0.22258200  0.63399000  0.19043700  1
  H  H8  1  0.22258200  0.36601000  0.19043700  1
  H  H9  1  0.27741800  0.86601000  0.80956300  1
  H  H10  1  0.37678150  0.32071950  0.59850400  1
  H  H11  1  0.12321850  0.82071950  0.40149600  1
  H  H12  1  0.12321850  0.17928050  0.40149600  1
  H  H13  1  0.37678150  0.67928050  0.59850400  1
  H  H14  1  0.56866100  0.13446100  0.71970800  1
  H  H15  1  0.93133900  0.63446100  0.28029200  1
  H  H16  1  0.93133900  0.36553900  0.28029200  1
  H  H17  1  0.56866100  0.86553900  0.71970800  1
  H  H18  1  0.77741800  0.63399000  0.80956300  1
  H  H19  1  0.72258200  0.13399000  0.19043700  1
  H  H20  1  0.72258200  0.86601000  0.19043700  1
  H  H21  1  0.77741800  0.36601000  0.80956300  1
  H  H22  1  0.87678150  0.82071950  0.59850400  1
  H  H23  1  0.62321850  0.32071950  0.40149600  1
  H  H24  1  0.62321850  0.67928050  0.40149600  1
  H  H25  1  0.87678150  0.17928050  0.59850400  1
  N  N26  1  0.04304900  0.88782500  0.32040600  1
  N  N27  1  0.36478700  0.50000000  0.94241100  1
  N  N28  1  0.13521300  0.00000000  0.05758900  1
  N  N29  1  0.45695100  0.61217500  0.67959400  1
  N  N30  1  0.45695100  0.38782500  0.67959400  1
  N  N31  1  0.04304900  0.11217500  0.32040600  1
  N  N32  1  0.54304900  0.38782500  0.32040600  1
  N  N33  1  0.86478700  0.00000000  0.94241100  1
  N  N34  1  0.63521300  0.50000000  0.05758900  1
  N  N35  1  0.95695100  0.11217500  0.67959400  1
  N  N36  1  0.95695100  0.88782500  0.67959400  1
  N  N37  1  0.54304900  0.61217500  0.32040600  1
  O  O38  1  0.27199000  0.00000000  0.71626100  1
  O  O39  1  0.11457900  0.50000000  0.71864200  1
  O  O40  1  0.38542100  0.00000000  0.28135800  1
  O  O41  1  0.22801000  0.50000000  0.28373900  1
  O  O42  1  0.77199000  0.50000000  0.71626100  1
  O  O43  1  0.61457900  0.00000000  0.71864200  1
  O  O44  1  0.88542100  0.50000000  0.28135800  1
  O  O45  1  0.72801000  0.00000000  0.28373900  1
