# generated using pymatgen
data_U2N3
_symmetry_space_group_name_H-M   'P 1'
_cell_length_a   10.66336800
_cell_length_b   10.66336800
_cell_length_c   10.66336800
_cell_angle_alpha   90.00000000
_cell_angle_beta   90.00000000
_cell_angle_gamma   90.00000000
_symmetry_Int_Tables_number   1
_chemical_formula_structural   U2N3
_chemical_formula_sum   'U32 N48'
_cell_volume   1212.50403290
_cell_formula_units_Z   16
loop_
 _symmetry_equiv_pos_site_id
 _symmetry_equiv_pos_as_xyz
  1  'x, y, z'
loop_
 _atom_site_type_symbol
 _atom_site_label
 _atom_site_symmetry_multiplicity
 _atom_site_fract_x
 _atom_site_fract_y
 _atom_site_fract_z
 _atom_site_occupancy
  U  U0  1  0.25000000  0.25000000  0.25000000  1
  U  U1  1  0.25000000  0.75000000  0.25000000  1
  U  U2  1  0.25000000  0.25000000  0.75000000  1
  U  U3  1  0.75000000  0.25000000  0.25000000  1
  U  U4  1  0.50000000  0.75000000  0.47859500  1
  U  U5  1  0.25000000  0.02140500  0.50000000  1
  U  U6  1  0.02140500  0.50000000  0.25000000  1
  U  U7  1  0.75000000  0.47859500  0.50000000  1
  U  U8  1  0.47859500  0.50000000  0.75000000  1
  U  U9  1  0.50000000  0.25000000  0.02140500  1
  U  U10  1  0.00000000  0.75000000  0.02140500  1
  U  U11  1  0.25000000  0.47859500  0.00000000  1
  U  U12  1  0.47859500  0.00000000  0.25000000  1
  U  U13  1  0.75000000  0.02140500  0.00000000  1
  U  U14  1  0.02140500  0.00000000  0.75000000  1
  U  U15  1  0.00000000  0.25000000  0.47859500  1
  U  U16  1  0.75000000  0.75000000  0.75000000  1
  U  U17  1  0.75000000  0.25000000  0.75000000  1
  U  U18  1  0.75000000  0.75000000  0.25000000  1
  U  U19  1  0.25000000  0.75000000  0.75000000  1
  U  U20  1  0.00000000  0.25000000  0.97859500  1
  U  U21  1  0.75000000  0.52140500  0.00000000  1
  U  U22  1  0.52140500  0.00000000  0.75000000  1
  U  U23  1  0.25000000  0.97859500  0.00000000  1
  U  U24  1  0.97859500  0.00000000  0.25000000  1
  U  U25  1  0.00000000  0.75000000  0.52140500  1
  U  U26  1  0.50000000  0.25000000  0.52140500  1
  U  U27  1  0.75000000  0.97859500  0.50000000  1
  U  U28  1  0.97859500  0.50000000  0.75000000  1
  U  U29  1  0.25000000  0.52140500  0.50000000  1
  U  U30  1  0.52140500  0.50000000  0.25000000  1
  U  U31  1  0.50000000  0.75000000  0.97859500  1
  N  N32  1  0.14572250  0.37955550  0.38306850  1
  N  N33  1  0.37955550  0.61693150  0.35427750  1
  N  N34  1  0.11693150  0.14572250  0.62044450  1
  N  N35  1  0.62044450  0.88306850  0.35427750  1
  N  N36  1  0.61693150  0.35427750  0.37955550  1
  N  N37  1  0.62044450  0.11693150  0.14572250  1
  N  N38  1  0.88306850  0.35427750  0.62044450  1
  N  N39  1  0.38306850  0.14572250  0.37955550  1
  N  N40  1  0.37955550  0.38306850  0.14572250  1
  N  N41  1  0.35427750  0.37955550  0.61693150  1
  N  N42  1  0.14572250  0.62044450  0.11693150  1
  N  N43  1  0.35427750  0.62044450  0.88306850  1
  N  N44  1  0.35427750  0.12044450  0.11693150  1
  N  N45  1  0.12044450  0.88306850  0.14572250  1
  N  N46  1  0.38306850  0.35427750  0.87955550  1
  N  N47  1  0.87955550  0.61693150  0.14572250  1
  N  N48  1  0.88306850  0.14572250  0.12044450  1
  N  N49  1  0.87955550  0.38306850  0.35427750  1
  N  N50  1  0.61693150  0.14572250  0.87955550  1
  N  N51  1  0.11693150  0.35427750  0.12044450  1
  N  N52  1  0.12044450  0.11693150  0.35427750  1
  N  N53  1  0.14572250  0.12044450  0.88306850  1
  N  N54  1  0.35427750  0.87955550  0.38306850  1
  N  N55  1  0.14572250  0.87955550  0.61693150  1
  N  N56  1  0.64572250  0.87955550  0.88306850  1
  N  N57  1  0.87955550  0.11693150  0.85427750  1
  N  N58  1  0.61693150  0.64572250  0.12044450  1
  N  N59  1  0.12044450  0.38306850  0.85427750  1
  N  N60  1  0.11693150  0.85427750  0.87955550  1
  N  N61  1  0.12044450  0.61693150  0.64572250  1
  N  N62  1  0.38306850  0.85427750  0.12044450  1
  N  N63  1  0.88306850  0.64572250  0.87955550  1
  N  N64  1  0.87955550  0.88306850  0.64572250  1
  N  N65  1  0.85427750  0.87955550  0.11693150  1
  N  N66  1  0.64572250  0.12044450  0.61693150  1
  N  N67  1  0.85427750  0.12044450  0.38306850  1
  N  N68  1  0.85427750  0.62044450  0.61693150  1
  N  N69  1  0.62044450  0.38306850  0.64572250  1
  N  N70  1  0.88306850  0.85427750  0.37955550  1
  N  N71  1  0.37955550  0.11693150  0.64572250  1
  N  N72  1  0.38306850  0.64572250  0.62044450  1
  N  N73  1  0.37955550  0.88306850  0.85427750  1
  N  N74  1  0.11693150  0.64572250  0.37955550  1
  N  N75  1  0.61693150  0.85427750  0.62044450  1
  N  N76  1  0.62044450  0.61693150  0.85427750  1
  N  N77  1  0.64572250  0.62044450  0.38306850  1
  N  N78  1  0.85427750  0.37955550  0.88306850  1
  N  N79  1  0.64572250  0.37955550  0.11693150  1
