# generated using pymatgen
data_FeBiO3
_symmetry_space_group_name_H-M   'P 1'
_cell_length_a   5.66253796
_cell_length_b   5.66253796
_cell_length_c   7.21981350
_cell_angle_alpha   90.00000000
_cell_angle_beta   90.00000000
_cell_angle_gamma   120.00000000
_symmetry_Int_Tables_number   1
_chemical_formula_structural   FeBiO3
_chemical_formula_sum   'Fe3 Bi3 O9'
_cell_volume   200.48360556
_cell_formula_units_Z   3
loop_
 _symmetry_equiv_pos_site_id
 _symmetry_equiv_pos_as_xyz
  1  'x, y, z'
loop_
 _atom_site_type_symbol
 _atom_site_label
 _atom_site_symmetry_multiplicity
 _atom_site_fract_x
 _atom_site_fract_y
 _atom_site_fract_z
 _atom_site_occupancy
  Fe  Fe0  1  0.33333333  0.66666667  0.71591317  1
  Fe  Fe1  1  0.00000000  0.00000000  0.04924650  1
  Fe  Fe2  1  0.66666667  0.33333333  0.38257983  1
  Bi  Bi3  1  0.33333333  0.66666667  0.13747317  1
  Bi  Bi4  1  0.00000000  0.00000000  0.47080650  1
  Bi  Bi5  1  0.66666667  0.33333333  0.80413983  1
  O  O6  1  0.17506333  0.35012667  0.91760417  1
  O  O7  1  0.64987333  0.82493667  0.91760417  1
  O  O8  1  0.17506333  0.82493667  0.91760417  1
  O  O9  1  0.84173000  0.68346000  0.25093750  1
  O  O10  1  0.31654000  0.15827000  0.25093750  1
  O  O11  1  0.84173000  0.15827000  0.25093750  1
  O  O12  1  0.50839667  0.01679333  0.58427083  1
  O  O13  1  0.98320667  0.49160333  0.58427083  1
  O  O14  1  0.50839667  0.49160333  0.58427083  1
