# generated using pymatgen
data_NaAl6Fe3Si6B3O30F
_symmetry_space_group_name_H-M   'P 1'
_cell_length_a   16.02286609
_cell_length_b   16.02286609
_cell_length_c   7.31846735
_cell_angle_alpha   90.00000000
_cell_angle_beta   90.00000000
_cell_angle_gamma   120.00000000
_symmetry_Int_Tables_number   1
_chemical_formula_structural   NaAl6Fe3Si6B3O30F
_chemical_formula_sum   'Na3 Al18 Fe9 Si18 B9 O90 F3'
_cell_volume   1627.16343895
_cell_formula_units_Z   3
loop_
 _symmetry_equiv_pos_site_id
 _symmetry_equiv_pos_as_xyz
  1  'x, y, z'
loop_
 _atom_site_type_symbol
 _atom_site_label
 _atom_site_symmetry_multiplicity
 _atom_site_fract_x
 _atom_site_fract_y
 _atom_site_fract_z
 _atom_site_occupancy
  Na  Na0  1  0.00000000  0.00000000  0.78164300  1
  Na  Na1  1  0.66666667  0.33333333  0.11497633  1
  Na  Na2  1  0.33333333  0.66666667  0.44830967  1
  Al  Al3  1  0.36681600  0.29240000  0.72867000  1
  Al  Al4  1  0.37426667  0.40774933  0.06200333  1
  Al  Al5  1  0.25891733  0.95906667  0.39533667  1
  Al  Al6  1  0.36681600  0.07441600  0.72867000  1
  Al  Al7  1  0.25891733  0.29985067  0.39533667  1
  Al  Al8  1  0.37426667  0.96651733  0.06200333  1
  Al  Al9  1  0.03348267  0.62573333  0.06200333  1
  Al  Al10  1  0.04093333  0.74108267  0.39533667  1
  Al  Al11  1  0.92558400  0.29240000  0.72867000  1
  Al  Al12  1  0.03348267  0.40774933  0.06200333  1
  Al  Al13  1  0.92558400  0.63318400  0.72867000  1
  Al  Al14  1  0.04093333  0.29985067  0.39533667  1
  Al  Al15  1  0.70014933  0.95906667  0.39533667  1
  Al  Al16  1  0.70760000  0.07441600  0.72867000  1
  Al  Al17  1  0.59225067  0.62573333  0.06200333  1
  Al  Al18  1  0.70014933  0.74108267  0.39533667  1
  Al  Al19  1  0.59225067  0.96651733  0.06200333  1
  Al  Al20  1  0.70760000  0.63318400  0.72867000  1
  Fe  Fe21  1  0.52952333  0.26476167  0.71569467  1
  Fe  Fe22  1  0.06857167  0.13714333  0.38236133  1
  Fe  Fe23  1  0.06857167  0.93142833  0.38236133  1
  Fe  Fe24  1  0.19619000  0.59809500  0.04902800  1
  Fe  Fe25  1  0.73523833  0.47047667  0.71569467  1
  Fe  Fe26  1  0.73523833  0.26476167  0.71569467  1
  Fe  Fe27  1  0.86285667  0.93142833  0.38236133  1
  Fe  Fe28  1  0.40190500  0.80381000  0.04902800  1
  Fe  Fe29  1  0.40190500  0.59809500  0.04902800  1
  Si  Si30  1  0.33404800  0.47539200  0.66938700  1
  Si  Si31  1  0.19127467  0.19198933  0.00272033  1
  Si  Si32  1  0.19127467  0.99928533  0.00272033  1
  Si  Si33  1  0.47467733  0.14205867  0.33605367  1
  Si  Si34  1  0.33404800  0.85865600  0.66938700  1
  Si  Si35  1  0.47467733  0.33261867  0.33605367  1
  Si  Si36  1  0.00071467  0.80872533  0.00272033  1
  Si  Si37  1  0.85794133  0.52532267  0.33605367  1
  Si  Si38  1  0.85794133  0.33261867  0.33605367  1
  Si  Si39  1  0.14134400  0.47539200  0.66938700  1
  Si  Si40  1  0.00071467  0.19198933  0.00272033  1
  Si  Si41  1  0.14134400  0.66595200  0.66938700  1
  Si  Si42  1  0.66738133  0.14205867  0.33605367  1
  Si  Si43  1  0.52460800  0.85865600  0.66938700  1
  Si  Si44  1  0.52460800  0.66595200  0.66938700  1
  Si  Si45  1  0.80801067  0.80872533  0.00272033  1
  Si  Si46  1  0.66738133  0.52532267  0.33605367  1
  Si  Si47  1  0.80801067  0.99928533  0.00272033  1
  B  B48  1  0.22247733  0.77752267  0.21261367  1
  B  B49  1  0.22171200  0.11085600  0.54594700  1
  B  B50  1  0.22247733  0.44495467  0.21261367  1
  B  B51  1  0.88914400  0.11085600  0.54594700  1
  B  B52  1  0.88837867  0.44418933  0.87928033  1
  B  B53  1  0.88914400  0.77828800  0.54594700  1
  B  B54  1  0.55581067  0.44418933  0.87928033  1
  B  B55  1  0.55504533  0.77752267  0.21261367  1
  B  B56  1  0.55581067  0.11162133  0.87928033  1
  O  O57  1  0.27006900  0.20985800  0.55903300  1
  O  O58  1  0.27312233  0.39659767  0.22569967  1
  O  O59  1  0.45680867  0.39354433  0.89236633  1
  O  O60  1  0.27006900  0.06021100  0.55903300  1
  O  O61  1  0.45680867  0.06326433  0.89236633  1
  O  O62  1  0.27312233  0.87652467  0.22569967  1
  O  O63  1  0.28650967  0.28624833  0.92499633  1
  O  O64  1  0.33307200  0.38015700  0.59166300  1
  O  O65  1  0.38041833  0.33359467  0.25832967  1
  O  O66  1  0.28650967  0.00026133  0.92499633  1
  O  O67  1  0.38041833  0.04682367  0.25832967  1
  O  O68  1  0.33307200  0.95291500  0.59166300  1
  O  O69  1  0.18955700  0.19425200  0.22522800  1
  O  O70  1  0.33802833  0.47710967  0.89189467  1
  O  O71  1  0.47241467  0.32863833  0.55856133  1
  O  O72  1  0.18955700  0.99530500  0.22522800  1
  O  O73  1  0.47241467  0.14377633  0.55856133  1
  O  O74  1  0.27223533  0.72776467  0.18209067  1
  O  O75  1  0.27223533  0.54447067  0.18209067  1
  O  O76  1  0.12219600  0.06109800  0.51542400  1
  O  O77  1  0.13331433  0.26662867  0.47473967  1
  O  O78  1  0.40003800  0.20001900  0.80807300  1
  O  O79  1  0.13331433  0.86668567  0.47473967  1
  O  O80  1  0.24009033  0.75990967  0.59347467  1
  O  O81  1  0.24009033  0.48018067  0.59347467  1
  O  O82  1  0.18648600  0.09324300  0.92680800  1
  O  O83  1  0.09127867  0.18255733  0.92109233  1
  O  O84  1  0.48410933  0.24205467  0.25442567  1
  O  O85  1  0.09127867  0.90872133  0.92109233  1
  O  O86  1  0.33802833  0.86091867  0.89189467  1
  O  O87  1  0.93673567  0.54319133  0.89236633  1
  O  O88  1  0.93978900  0.72993100  0.55903300  1
  O  O89  1  0.12347533  0.72687767  0.22569967  1
  O  O90  1  0.93673567  0.39354433  0.89236633  1
  O  O91  1  0.12347533  0.39659767  0.22569967  1
  O  O92  1  0.93978900  0.20985800  0.55903300  1
  O  O93  1  0.95317633  0.61958167  0.25832967  1
  O  O94  1  0.99973867  0.71349033  0.92499633  1
  O  O95  1  0.04708500  0.66692800  0.59166300  1
  O  O96  1  0.95317633  0.33359467  0.25832967  1
  O  O97  1  0.04708500  0.38015700  0.59166300  1
  O  O98  1  0.99973867  0.28624833  0.92499633  1
  O  O99  1  0.85622367  0.52758533  0.55856133  1
  O  O100  1  0.00469500  0.81044300  0.22522800  1
  O  O101  1  0.13908133  0.66197167  0.89189467  1
  O  O102  1  0.85622367  0.32863833  0.55856133  1
  O  O103  1  0.13908133  0.47710967  0.89189467  1
  O  O104  1  0.93890200  0.06109800  0.51542400  1
  O  O105  1  0.93890200  0.87780400  0.51542400  1
  O  O106  1  0.78886267  0.39443133  0.84875733  1
  O  O107  1  0.79998100  0.59996200  0.80807300  1
  O  O108  1  0.06670467  0.53335233  0.14140633  1
  O  O109  1  0.79998100  0.20001900  0.80807300  1
  O  O110  1  0.90675700  0.09324300  0.92680800  1
  O  O111  1  0.90675700  0.81351400  0.92680800  1
  O  O112  1  0.85315267  0.42657633  0.26014133  1
  O  O113  1  0.75794533  0.51589067  0.25442567  1
  O  O114  1  0.15077600  0.57538800  0.58775900  1
  O  O115  1  0.75794533  0.24205467  0.25442567  1
  O  O116  1  0.00469500  0.19425200  0.22522800  1
  O  O117  1  0.60340233  0.87652467  0.22569967  1
  O  O118  1  0.60645567  0.06326433  0.89236633  1
  O  O119  1  0.79014200  0.06021100  0.55903300  1
  O  O120  1  0.60340233  0.72687767  0.22569967  1
  O  O121  1  0.79014200  0.72993100  0.55903300  1
  O  O122  1  0.60645567  0.54319133  0.89236633  1
  O  O123  1  0.61984300  0.95291500  0.59166300  1
  O  O124  1  0.66640533  0.04682367  0.25832967  1
  O  O125  1  0.71375167  0.00026133  0.92499633  1
  O  O126  1  0.61984300  0.66692800  0.59166300  1
  O  O127  1  0.71375167  0.71349033  0.92499633  1
  O  O128  1  0.66640533  0.61958167  0.25832967  1
  O  O129  1  0.52289033  0.86091867  0.89189467  1
  O  O130  1  0.67136167  0.14377633  0.55856133  1
  O  O131  1  0.80574800  0.99530500  0.22522800  1
  O  O132  1  0.52289033  0.66197167  0.89189467  1
  O  O133  1  0.80574800  0.81044300  0.22522800  1
  O  O134  1  0.60556867  0.39443133  0.84875733  1
  O  O135  1  0.60556867  0.21113733  0.84875733  1
  O  O136  1  0.45552933  0.72776467  0.18209067  1
  O  O137  1  0.46664767  0.93329533  0.14140633  1
  O  O138  1  0.73337133  0.86668567  0.47473967  1
  O  O139  1  0.46664767  0.53335233  0.14140633  1
  O  O140  1  0.57342367  0.42657633  0.26014133  1
  O  O141  1  0.57342367  0.14684733  0.26014133  1
  O  O142  1  0.51981933  0.75990967  0.59347467  1
  O  O143  1  0.42461200  0.84922400  0.58775900  1
  O  O144  1  0.81744267  0.90872133  0.92109233  1
  O  O145  1  0.42461200  0.57538800  0.58775900  1
  O  O146  1  0.67136167  0.52758533  0.55856133  1
  F  F147  1  0.00000000  0.00000000  0.23028200  1
  F  F148  1  0.66666667  0.33333333  0.56361533  1
  F  F149  1  0.33333333  0.66666667  0.89694867  1
