# generated using pymatgen
data_Pr4As3
_symmetry_space_group_name_H-M   'P 1'
_cell_length_a   9.12614400
_cell_length_b   9.12614400
_cell_length_c   9.12614400
_cell_angle_alpha   90.00000000
_cell_angle_beta   90.00000000
_cell_angle_gamma   90.00000000
_symmetry_Int_Tables_number   1
_chemical_formula_structural   Pr4As3
_chemical_formula_sum   'Pr16 As12'
_cell_volume   760.08463158
_cell_formula_units_Z   4
loop_
 _symmetry_equiv_pos_site_id
 _symmetry_equiv_pos_as_xyz
  1  'x, y, z'
loop_
 _atom_site_type_symbol
 _atom_site_label
 _atom_site_symmetry_multiplicity
 _atom_site_fract_x
 _atom_site_fract_y
 _atom_site_fract_z
 _atom_site_occupancy
  Pr  Pr0  1  0.06617750  0.06617750  0.06617750  1
  Pr  Pr1  1  0.18382250  0.68382250  0.81617750  1
  Pr  Pr2  1  0.81617750  0.18382250  0.68382250  1
  Pr  Pr3  1  0.68382250  0.81617750  0.18382250  1
  Pr  Pr4  1  0.06617750  0.93382250  0.43382250  1
  Pr  Pr5  1  0.43382250  0.06617750  0.93382250  1
  Pr  Pr6  1  0.93382250  0.43382250  0.06617750  1
  Pr  Pr7  1  0.31617750  0.31617750  0.31617750  1
  Pr  Pr8  1  0.56617750  0.56617750  0.56617750  1
  Pr  Pr9  1  0.68382250  0.18382250  0.31617750  1
  Pr  Pr10  1  0.31617750  0.68382250  0.18382250  1
  Pr  Pr11  1  0.18382250  0.31617750  0.68382250  1
  Pr  Pr12  1  0.56617750  0.43382250  0.93382250  1
  Pr  Pr13  1  0.93382250  0.56617750  0.43382250  1
  Pr  Pr14  1  0.43382250  0.93382250  0.56617750  1
  Pr  Pr15  1  0.81617750  0.81617750  0.81617750  1
  As  As16  1  0.00000000  0.25000000  0.37500000  1
  As  As17  1  0.37500000  0.00000000  0.25000000  1
  As  As18  1  0.12500000  0.00000000  0.75000000  1
  As  As19  1  0.75000000  0.12500000  0.00000000  1
  As  As20  1  0.25000000  0.37500000  0.00000000  1
  As  As21  1  0.00000000  0.75000000  0.12500000  1
  As  As22  1  0.50000000  0.75000000  0.87500000  1
  As  As23  1  0.87500000  0.50000000  0.75000000  1
  As  As24  1  0.62500000  0.50000000  0.25000000  1
  As  As25  1  0.25000000  0.62500000  0.50000000  1
  As  As26  1  0.75000000  0.87500000  0.50000000  1
  As  As27  1  0.50000000  0.25000000  0.62500000  1
