# generated using pymatgen
data_V(PO3)3
_symmetry_space_group_name_H-M   'P 1'
_cell_length_a   13.45105400
_cell_length_b   6.55893600
_cell_length_c   9.62300523
_cell_angle_alpha   90.00000000
_cell_angle_beta   126.85736439
_cell_angle_gamma   90.00000000
_symmetry_Int_Tables_number   1
_chemical_formula_structural   V(PO3)3
_chemical_formula_sum   'V4 P12 O36'
_cell_volume   679.30005906
_cell_formula_units_Z   4
loop_
 _symmetry_equiv_pos_site_id
 _symmetry_equiv_pos_as_xyz
  1  'x, y, z'
loop_
 _atom_site_type_symbol
 _atom_site_label
 _atom_site_symmetry_multiplicity
 _atom_site_fract_x
 _atom_site_fract_y
 _atom_site_fract_z
 _atom_site_occupancy
  V  V0  1  0.24709750  0.25871050  0.39498000  1
  V  V1  1  0.74709750  0.24128950  0.89498000  1
  V  V2  1  0.74709750  0.75871050  0.39498000  1
  V  V3  1  0.24709750  0.74128950  0.89498000  1
  P  P4  1  0.10862500  0.60136600  0.07001800  1
  P  P5  1  0.60862500  0.89863400  0.57001800  1
  P  P6  1  0.50263350  0.44377450  0.15801500  1
  P  P7  1  0.50263350  0.55622550  0.65801500  1
  P  P8  1  0.38697050  0.08636150  0.22027300  1
  P  P9  1  0.38697050  0.91363850  0.72027300  1
  P  P10  1  0.60862500  0.10136600  0.07001800  1
  P  P11  1  0.10862500  0.39863400  0.57001800  1
  P  P12  1  0.00263350  0.94377450  0.15801500  1
  P  P13  1  0.00263350  0.05622550  0.65801500  1
  P  P14  1  0.88697050  0.58636150  0.22027300  1
  P  P15  1  0.88697050  0.41363850  0.72027300  1
  O  O16  1  0.12720300  0.45934600  0.20595300  1
  O  O17  1  0.62720300  0.04065400  0.70595300  1
  O  O18  1  0.48345900  0.04997000  0.88454500  1
  O  O19  1  0.48345900  0.95003000  0.38454500  1
  O  O20  1  0.57413000  0.67842100  0.59907800  1
  O  O21  1  0.07413000  0.82157900  0.09907800  1
  O  O22  1  0.35186450  0.97296250  0.06083100  1
  O  O23  1  0.35186450  0.02703750  0.56083100  1
  O  O24  1  0.46978700  0.71945000  0.74871700  1
  O  O25  1  0.46978700  0.28055000  0.24871700  1
  O  O26  1  0.88787350  0.03410050  0.99802600  1
  O  O27  1  0.38787350  0.46589950  0.49802600  1
  O  O28  1  0.59532600  0.58367800  0.30137300  1
  O  O29  1  0.59532600  0.41632200  0.80137300  1
  O  O30  1  0.28449400  0.15017100  0.23043800  1
  O  O31  1  0.78449400  0.34982900  0.73043800  1
  O  O32  1  0.71553700  0.87574300  0.56075400  1
  O  O33  1  0.21553700  0.62425700  0.06075400  1
  O  O34  1  0.62720300  0.95934600  0.20595300  1
  O  O35  1  0.12720300  0.54065400  0.70595300  1
  O  O36  1  0.98345900  0.54997000  0.88454500  1
  O  O37  1  0.98345900  0.45003000  0.38454500  1
  O  O38  1  0.07413000  0.17842100  0.59907800  1
  O  O39  1  0.57413000  0.32157900  0.09907800  1
  O  O40  1  0.85186450  0.47296250  0.06083100  1
  O  O41  1  0.85186450  0.52703750  0.56083100  1
  O  O42  1  0.96978700  0.21945000  0.74871700  1
  O  O43  1  0.96978700  0.78055000  0.24871700  1
  O  O44  1  0.38787350  0.53410050  0.99802600  1
  O  O45  1  0.88787350  0.96589950  0.49802600  1
  O  O46  1  0.09532600  0.08367800  0.30137300  1
  O  O47  1  0.09532600  0.91632200  0.80137300  1
  O  O48  1  0.78449400  0.65017100  0.23043800  1
  O  O49  1  0.28449400  0.84982900  0.73043800  1
  O  O50  1  0.21553700  0.37574300  0.56075400  1
  O  O51  1  0.71553700  0.12425700  0.06075400  1
