# generated using pymatgen
data_Na15Pb4
_symmetry_space_group_name_H-M   'P 1'
_cell_length_a   13.33208400
_cell_length_b   13.33208400
_cell_length_c   13.33208400
_cell_angle_alpha   90.00000000
_cell_angle_beta   90.00000000
_cell_angle_gamma   90.00000000
_symmetry_Int_Tables_number   1
_chemical_formula_structural   Na15Pb4
_chemical_formula_sum   'Na60 Pb16'
_cell_volume   2369.70412169
_cell_formula_units_Z   4
loop_
 _symmetry_equiv_pos_site_id
 _symmetry_equiv_pos_as_xyz
  1  'x, y, z'
loop_
 _atom_site_type_symbol
 _atom_site_label
 _atom_site_symmetry_multiplicity
 _atom_site_fract_x
 _atom_site_fract_y
 _atom_site_fract_z
 _atom_site_occupancy
  Na  Na0  1  0.00000000  0.25000000  0.37500000  1
  Na  Na1  1  0.37500000  0.00000000  0.25000000  1
  Na  Na2  1  0.12500000  0.00000000  0.75000000  1
  Na  Na3  1  0.75000000  0.12500000  0.00000000  1
  Na  Na4  1  0.25000000  0.37500000  0.00000000  1
  Na  Na5  1  0.00000000  0.75000000  0.12500000  1
  Na  Na6  1  0.15495500  0.96179700  0.12195100  1
  Na  Na7  1  0.12804900  0.78820300  0.90495500  1
  Na  Na8  1  0.87195100  0.28820300  0.59504500  1
  Na  Na9  1  0.59504500  0.87195100  0.28820300  1
  Na  Na10  1  0.59504500  0.12804900  0.21179700  1
  Na  Na11  1  0.21179700  0.59504500  0.12804900  1
  Na  Na12  1  0.78820300  0.90495500  0.12804900  1
  Na  Na13  1  0.46179700  0.37804900  0.84504500  1
  Na  Na14  1  0.37804900  0.15495500  0.03820300  1
  Na  Na15  1  0.03820300  0.62195100  0.34504500  1
  Na  Na16  1  0.37804900  0.84504500  0.46179700  1
  Na  Na17  1  0.03820300  0.37804900  0.15495500  1
  Na  Na18  1  0.62195100  0.34504500  0.03820300  1
  Na  Na19  1  0.12195100  0.15495500  0.96179700  1
  Na  Na20  1  0.96179700  0.12195100  0.15495500  1
  Na  Na21  1  0.84504500  0.46179700  0.37804900  1
  Na  Na22  1  0.15495500  0.03820300  0.37804900  1
  Na  Na23  1  0.34504500  0.03820300  0.62195100  1
  Na  Na24  1  0.37195100  0.21179700  0.40495500  1
  Na  Na25  1  0.40495500  0.37195100  0.21179700  1
  Na  Na26  1  0.21179700  0.40495500  0.37195100  1
  Na  Na27  1  0.12804900  0.21179700  0.59504500  1
  Na  Na28  1  0.90495500  0.12804900  0.78820300  1
  Na  Na29  1  0.28820300  0.59504500  0.87195100  1
  Na  Na30  1  0.50000000  0.75000000  0.87500000  1
  Na  Na31  1  0.87500000  0.50000000  0.75000000  1
  Na  Na32  1  0.62500000  0.50000000  0.25000000  1
  Na  Na33  1  0.25000000  0.62500000  0.50000000  1
  Na  Na34  1  0.75000000  0.87500000  0.50000000  1
  Na  Na35  1  0.50000000  0.25000000  0.62500000  1
  Na  Na36  1  0.65495500  0.46179700  0.62195100  1
  Na  Na37  1  0.62804900  0.28820300  0.40495500  1
  Na  Na38  1  0.37195100  0.78820300  0.09504500  1
  Na  Na39  1  0.09504500  0.37195100  0.78820300  1
  Na  Na40  1  0.09504500  0.62804900  0.71179700  1
  Na  Na41  1  0.71179700  0.09504500  0.62804900  1
  Na  Na42  1  0.28820300  0.40495500  0.62804900  1
  Na  Na43  1  0.96179700  0.87804900  0.34504500  1
  Na  Na44  1  0.87804900  0.65495500  0.53820300  1
  Na  Na45  1  0.53820300  0.12195100  0.84504500  1
  Na  Na46  1  0.87804900  0.34504500  0.96179700  1
  Na  Na47  1  0.53820300  0.87804900  0.65495500  1
  Na  Na48  1  0.12195100  0.84504500  0.53820300  1
  Na  Na49  1  0.62195100  0.65495500  0.46179700  1
  Na  Na50  1  0.46179700  0.62195100  0.65495500  1
  Na  Na51  1  0.34504500  0.96179700  0.87804900  1
  Na  Na52  1  0.65495500  0.53820300  0.87804900  1
  Na  Na53  1  0.84504500  0.53820300  0.12195100  1
  Na  Na54  1  0.87195100  0.71179700  0.90495500  1
  Na  Na55  1  0.90495500  0.87195100  0.71179700  1
  Na  Na56  1  0.71179700  0.90495500  0.87195100  1
  Na  Na57  1  0.62804900  0.71179700  0.09504500  1
  Na  Na58  1  0.40495500  0.62804900  0.28820300  1
  Na  Na59  1  0.78820300  0.09504500  0.37195100  1
  Pb  Pb60  1  0.20871200  0.20871200  0.20871200  1
  Pb  Pb61  1  0.04128800  0.54128800  0.95871200  1
  Pb  Pb62  1  0.95871200  0.04128800  0.54128800  1
  Pb  Pb63  1  0.54128800  0.95871200  0.04128800  1
  Pb  Pb64  1  0.20871200  0.79128800  0.29128800  1
  Pb  Pb65  1  0.29128800  0.20871200  0.79128800  1
  Pb  Pb66  1  0.79128800  0.29128800  0.20871200  1
  Pb  Pb67  1  0.45871200  0.45871200  0.45871200  1
  Pb  Pb68  1  0.70871200  0.70871200  0.70871200  1
  Pb  Pb69  1  0.54128800  0.04128800  0.45871200  1
  Pb  Pb70  1  0.45871200  0.54128800  0.04128800  1
  Pb  Pb71  1  0.04128800  0.45871200  0.54128800  1
  Pb  Pb72  1  0.70871200  0.29128800  0.79128800  1
  Pb  Pb73  1  0.79128800  0.70871200  0.29128800  1
  Pb  Pb74  1  0.29128800  0.79128800  0.70871200  1
  Pb  Pb75  1  0.95871200  0.95871200  0.95871200  1
