# generated using pymatgen
data_LaIn2
_symmetry_space_group_name_H-M   'P 1'
_cell_length_a   4.87265400
_cell_length_b   7.67324400
_cell_length_c   9.23341200
_cell_angle_alpha   90.00000000
_cell_angle_beta   90.00000000
_cell_angle_gamma   90.00000000
_symmetry_Int_Tables_number   1
_chemical_formula_structural   LaIn2
_chemical_formula_sum   'La4 In8'
_cell_volume   345.22862362
_cell_formula_units_Z   4
loop_
 _symmetry_equiv_pos_site_id
 _symmetry_equiv_pos_as_xyz
  1  'x, y, z'
loop_
 _atom_site_type_symbol
 _atom_site_label
 _atom_site_symmetry_multiplicity
 _atom_site_fract_x
 _atom_site_fract_y
 _atom_site_fract_z
 _atom_site_occupancy
  La  La0  1  0.50000000  0.25000000  0.94955900  1
  La  La1  1  0.50000000  0.75000000  0.05044100  1
  La  La2  1  0.00000000  0.75000000  0.44955900  1
  La  La3  1  0.00000000  0.25000000  0.55044100  1
  In  In4  1  0.00000000  0.04630250  0.16134250  1
  In  In5  1  0.00000000  0.95369750  0.83865750  1
  In  In6  1  0.50000000  0.95369750  0.66134250  1
  In  In7  1  0.50000000  0.04630250  0.33865750  1
  In  In8  1  0.50000000  0.54630250  0.66134250  1
  In  In9  1  0.50000000  0.45369750  0.33865750  1
  In  In10  1  0.00000000  0.45369750  0.16134250  1
  In  In11  1  0.00000000  0.54630250  0.83865750  1
