# generated using pymatgen
data_SrFeP2O7
_symmetry_space_group_name_H-M   'P 1'
_cell_length_a   5.42514218
_cell_length_b   8.39130478
_cell_length_c   13.99108945
_cell_angle_alpha   90.00000000
_cell_angle_beta   112.60093260
_cell_angle_gamma   90.00000000
_symmetry_Int_Tables_number   1
_chemical_formula_structural   SrFeP2O7
_chemical_formula_sum   'Sr4 Fe4 P8 O28'
_cell_volume   588.01690638
_cell_formula_units_Z   4
loop_
 _symmetry_equiv_pos_site_id
 _symmetry_equiv_pos_as_xyz
  1  'x, y, z'
loop_
 _atom_site_type_symbol
 _atom_site_label
 _atom_site_symmetry_multiplicity
 _atom_site_fract_x
 _atom_site_fract_y
 _atom_site_fract_z
 _atom_site_occupancy
  Sr  Sr0  1  0.56438153  0.83684557  0.27775563  1
  Sr  Sr1  1  0.43561847  0.33684557  0.22224437  1
  Sr  Sr2  1  0.43561847  0.16315443  0.72224437  1
  Sr  Sr3  1  0.56438153  0.66315443  0.77775563  1
  Fe  Fe4  1  0.92387668  0.84915655  0.60519512  1
  Fe  Fe5  1  0.07612332  0.15084345  0.39480488  1
  Fe  Fe6  1  0.07612332  0.34915655  0.89480488  1
  Fe  Fe7  1  0.92387668  0.65084345  0.10519512  1
  P  P8  1  0.29144670  0.70006830  0.98025471  1
  P  P9  1  0.70855330  0.20006830  0.51974529  1
  P  P10  1  0.70855330  0.29993170  0.01974529  1
  P  P11  1  0.29144670  0.79993170  0.48025471  1
  P  P12  1  0.08461617  0.53724846  0.33398440  1
  P  P13  1  0.08461617  0.96275154  0.83398440  1
  P  P14  1  0.91538383  0.46275154  0.66601560  1
  P  P15  1  0.91538383  0.03724846  0.16601560  1
  O  O16  1  0.21500235  0.61973149  0.26663450  1
  O  O17  1  0.78499765  0.11973149  0.23336550  1
  O  O18  1  0.78499765  0.38026851  0.73336550  1
  O  O19  1  0.21500235  0.88026851  0.76663450  1
  O  O20  1  0.56017258  0.67016165  0.97056306  1
  O  O21  1  0.43982742  0.17016165  0.52943694  1
  O  O22  1  0.43982742  0.32983835  0.02943694  1
  O  O23  1  0.56017258  0.82983835  0.47056306  1
  O  O24  1  0.20827398  0.88429466  0.94848434  1
  O  O25  1  0.79172602  0.38429466  0.55151566  1
  O  O26  1  0.79172602  0.11570534  0.05151566  1
  O  O27  1  0.20827398  0.61570534  0.44848434  1
  O  O28  1  0.29722431  0.68779227  0.09050187  1
  O  O29  1  0.70277569  0.18779227  0.40949813  1
  O  O30  1  0.70277569  0.31220773  0.90949813  1
  O  O31  1  0.29722431  0.81220773  0.59050187  1
  O  O32  1  0.82740623  0.63743837  0.65157291  1
  O  O33  1  0.17259377  0.13743837  0.84842709  1
  O  O34  1  0.17259377  0.36256163  0.34842709  1
  O  O35  1  0.82740623  0.86256163  0.15157291  1
  O  O36  1  0.93299974  0.09658924  0.59723047  1
  O  O37  1  0.06700026  0.59658924  0.90276953  1
  O  O38  1  0.78261239  0.55964816  0.29229605  1
  O  O39  1  0.93299974  0.40341076  0.09723047  1
  O  O40  1  0.78261239  0.94035184  0.79229605  1
  O  O41  1  0.21738761  0.44035184  0.70770395  1
  O  O42  1  0.21738761  0.05964816  0.20770395  1
  O  O43  1  0.06700026  0.90341076  0.40276953  1
