# generated using pymatgen
data_Li2FePCO7
_symmetry_space_group_name_H-M   'P 1'
_cell_length_a   5.09404801
_cell_length_b   6.40158850
_cell_length_c   8.55337786
_cell_angle_alpha   90.00000000
_cell_angle_beta   93.71993603
_cell_angle_gamma   90.00000000
_symmetry_Int_Tables_number   1
_chemical_formula_structural   Li2FePCO7
_chemical_formula_sum   'Li4 Fe2 P2 C2 O14'
_cell_volume   278.33797736
_cell_formula_units_Z   2
loop_
 _symmetry_equiv_pos_site_id
 _symmetry_equiv_pos_as_xyz
  1  'x, y, z'
loop_
 _atom_site_type_symbol
 _atom_site_label
 _atom_site_symmetry_multiplicity
 _atom_site_fract_x
 _atom_site_fract_y
 _atom_site_fract_z
 _atom_site_occupancy
  Li  Li0  1  0.78515250  0.01257400  0.21210375  1
  Li  Li1  1  0.21484750  0.98742600  0.78789625  1
  Li  Li2  1  0.21484750  0.51257400  0.78789625  1
  Li  Li3  1  0.78515250  0.48742600  0.21210375  1
  Fe  Fe4  1  0.78617250  0.75000000  0.64684475  1
  Fe  Fe5  1  0.21382750  0.25000000  0.35315525  1
  P  P6  1  0.72738500  0.25000000  0.57573625  1
  P  P7  1  0.27261500  0.75000000  0.42426375  1
  C  C8  1  0.74289700  0.75000000  0.94021375  1
  C  C9  1  0.25710300  0.25000000  0.05978625  1
  O  O10  1  0.97386800  0.75000000  0.88017375  1
  O  O11  1  0.02613200  0.25000000  0.11982625  1
  O  O12  1  0.45790150  0.25000000  0.16604825  1
  O  O13  1  0.54209850  0.75000000  0.83395175  1
  O  O14  1  0.16908250  0.75000000  0.59197375  1
  O  O15  1  0.83091750  0.25000000  0.40802625  1
  O  O16  1  0.42063200  0.25000000  0.55535475  1
  O  O17  1  0.57936800  0.75000000  0.44464525  1
  O  O18  1  0.71389850  0.75000000  0.08593875  1
  O  O19  1  0.28610150  0.25000000  0.91406125  1
  O  O20  1  0.17199550  0.94296300  0.33099575  1
  O  O21  1  0.17199550  0.55703700  0.33099575  1
  O  O22  1  0.82800450  0.44296300  0.66900425  1
  O  O23  1  0.82800450  0.05703700  0.66900425  1
