# generated using pymatgen
data_Hg2Os2O7
_symmetry_space_group_name_H-M   'P 1'
_cell_length_a   10.40067600
_cell_length_b   10.40067600
_cell_length_c   10.40067600
_cell_angle_alpha   90.00000000
_cell_angle_beta   90.00000000
_cell_angle_gamma   90.00000000
_symmetry_Int_Tables_number   1
_chemical_formula_structural   Hg2Os2O7
_chemical_formula_sum   'Hg16 Os16 O56'
_cell_volume   1125.08336274
_cell_formula_units_Z   8
loop_
 _symmetry_equiv_pos_site_id
 _symmetry_equiv_pos_as_xyz
  1  'x, y, z'
loop_
 _atom_site_type_symbol
 _atom_site_label
 _atom_site_symmetry_multiplicity
 _atom_site_fract_x
 _atom_site_fract_y
 _atom_site_fract_z
 _atom_site_occupancy
  Hg  Hg0  1  0.12500000  0.62500000  0.12500000  1
  Hg  Hg1  1  0.12500000  0.87500000  0.37500000  1
  Hg  Hg2  1  0.37500000  0.87500000  0.12500000  1
  Hg  Hg3  1  0.37500000  0.62500000  0.37500000  1
  Hg  Hg4  1  0.12500000  0.12500000  0.62500000  1
  Hg  Hg5  1  0.12500000  0.37500000  0.87500000  1
  Hg  Hg6  1  0.37500000  0.37500000  0.62500000  1
  Hg  Hg7  1  0.37500000  0.12500000  0.87500000  1
  Hg  Hg8  1  0.62500000  0.62500000  0.62500000  1
  Hg  Hg9  1  0.62500000  0.87500000  0.87500000  1
  Hg  Hg10  1  0.87500000  0.87500000  0.62500000  1
  Hg  Hg11  1  0.87500000  0.62500000  0.87500000  1
  Hg  Hg12  1  0.62500000  0.12500000  0.12500000  1
  Hg  Hg13  1  0.62500000  0.37500000  0.37500000  1
  Hg  Hg14  1  0.87500000  0.37500000  0.12500000  1
  Hg  Hg15  1  0.87500000  0.12500000  0.37500000  1
  Os  Os16  1  0.12500000  0.12500000  0.12500000  1
  Os  Os17  1  0.62500000  0.87500000  0.37500000  1
  Os  Os18  1  0.87500000  0.87500000  0.12500000  1
  Os  Os19  1  0.37500000  0.12500000  0.37500000  1
  Os  Os20  1  0.12500000  0.62500000  0.62500000  1
  Os  Os21  1  0.62500000  0.37500000  0.87500000  1
  Os  Os22  1  0.87500000  0.37500000  0.62500000  1
  Os  Os23  1  0.37500000  0.62500000  0.87500000  1
  Os  Os24  1  0.62500000  0.12500000  0.62500000  1
  Os  Os25  1  0.12500000  0.87500000  0.87500000  1
  Os  Os26  1  0.37500000  0.87500000  0.62500000  1
  Os  Os27  1  0.87500000  0.12500000  0.87500000  1
  Os  Os28  1  0.62500000  0.62500000  0.12500000  1
  Os  Os29  1  0.12500000  0.37500000  0.37500000  1
  Os  Os30  1  0.37500000  0.37500000  0.12500000  1
  Os  Os31  1  0.87500000  0.62500000  0.37500000  1
  O  O32  1  0.00000000  0.00000000  0.50000000  1
  O  O33  1  0.25000000  0.75000000  0.25000000  1
  O  O34  1  0.50000000  0.00000000  0.31158800  1
  O  O35  1  0.25000000  0.25000000  0.06158800  1
  O  O36  1  0.50000000  0.18841200  0.50000000  1
  O  O37  1  0.31158800  0.00000000  0.50000000  1
  O  O38  1  0.68841200  0.00000000  0.50000000  1
  O  O39  1  0.50000000  0.81158800  0.50000000  1
  O  O40  1  0.00000000  0.00000000  0.18841200  1
  O  O41  1  0.06158800  0.25000000  0.25000000  1
  O  O42  1  0.43841200  0.25000000  0.25000000  1
  O  O43  1  0.25000000  0.25000000  0.43841200  1
  O  O44  1  0.25000000  0.43841200  0.25000000  1
  O  O45  1  0.25000000  0.06158800  0.25000000  1
  O  O46  1  0.00000000  0.50000000  0.00000000  1
  O  O47  1  0.25000000  0.25000000  0.75000000  1
  O  O48  1  0.50000000  0.50000000  0.81158800  1
  O  O49  1  0.25000000  0.75000000  0.56158800  1
  O  O50  1  0.50000000  0.68841200  0.00000000  1
  O  O51  1  0.31158800  0.50000000  0.00000000  1
  O  O52  1  0.68841200  0.50000000  0.00000000  1
  O  O53  1  0.50000000  0.31158800  0.00000000  1
  O  O54  1  0.00000000  0.50000000  0.68841200  1
  O  O55  1  0.06158800  0.75000000  0.75000000  1
  O  O56  1  0.43841200  0.75000000  0.75000000  1
  O  O57  1  0.25000000  0.75000000  0.93841200  1
  O  O58  1  0.25000000  0.93841200  0.75000000  1
  O  O59  1  0.25000000  0.56158800  0.75000000  1
  O  O60  1  0.50000000  0.00000000  0.00000000  1
  O  O61  1  0.75000000  0.75000000  0.75000000  1
  O  O62  1  0.00000000  0.00000000  0.81158800  1
  O  O63  1  0.75000000  0.25000000  0.56158800  1
  O  O64  1  0.00000000  0.18841200  0.00000000  1
  O  O65  1  0.81158800  0.00000000  0.00000000  1
  O  O66  1  0.18841200  0.00000000  0.00000000  1
  O  O67  1  0.00000000  0.81158800  0.00000000  1
  O  O68  1  0.50000000  0.00000000  0.68841200  1
  O  O69  1  0.56158800  0.25000000  0.75000000  1
  O  O70  1  0.93841200  0.25000000  0.75000000  1
  O  O71  1  0.75000000  0.25000000  0.93841200  1
  O  O72  1  0.75000000  0.43841200  0.75000000  1
  O  O73  1  0.75000000  0.06158800  0.75000000  1
  O  O74  1  0.50000000  0.50000000  0.50000000  1
  O  O75  1  0.75000000  0.25000000  0.25000000  1
  O  O76  1  0.00000000  0.50000000  0.31158800  1
  O  O77  1  0.75000000  0.75000000  0.06158800  1
  O  O78  1  0.00000000  0.68841200  0.50000000  1
  O  O79  1  0.81158800  0.50000000  0.50000000  1
  O  O80  1  0.18841200  0.50000000  0.50000000  1
  O  O81  1  0.00000000  0.31158800  0.50000000  1
  O  O82  1  0.50000000  0.50000000  0.18841200  1
  O  O83  1  0.56158800  0.75000000  0.25000000  1
  O  O84  1  0.93841200  0.75000000  0.25000000  1
  O  O85  1  0.75000000  0.75000000  0.43841200  1
  O  O86  1  0.75000000  0.93841200  0.25000000  1
  O  O87  1  0.75000000  0.56158800  0.25000000  1
