# generated using pymatgen
data_Ga8BIr4
_symmetry_space_group_name_H-M   'P 1'
_cell_length_a   8.62469200
_cell_length_b   8.62469200
_cell_length_c   21.28303800
_cell_angle_alpha   90.00000000
_cell_angle_beta   90.00000000
_cell_angle_gamma   90.00000000
_symmetry_Int_Tables_number   1
_chemical_formula_structural   Ga8BIr4
_chemical_formula_sum   'Ga64 B8 Ir32'
_cell_volume   1583.14542396
_cell_formula_units_Z   8
loop_
 _symmetry_equiv_pos_site_id
 _symmetry_equiv_pos_as_xyz
  1  'x, y, z'
loop_
 _atom_site_type_symbol
 _atom_site_label
 _atom_site_symmetry_multiplicity
 _atom_site_fract_x
 _atom_site_fract_y
 _atom_site_fract_z
 _atom_site_occupancy
  Ga  Ga0  1  0.43843600  0.71433200  0.43695100  1
  Ga  Ga1  1  0.71433200  0.43843600  0.06304900  1
  Ga  Ga2  1  0.28566800  0.56156400  0.06304900  1
  Ga  Ga3  1  0.43843600  0.78566800  0.31304900  1
  Ga  Ga4  1  0.56156400  0.21433200  0.31304900  1
  Ga  Ga5  1  0.78566800  0.43843600  0.18695100  1
  Ga  Ga6  1  0.21433200  0.56156400  0.18695100  1
  Ga  Ga7  1  0.56156400  0.28566800  0.43695100  1
  Ga  Ga8  1  0.06156400  0.28566800  0.31304900  1
  Ga  Ga9  1  0.28566800  0.06156400  0.18695100  1
  Ga  Ga10  1  0.71433200  0.93843600  0.18695100  1
  Ga  Ga11  1  0.06156400  0.21433200  0.43695100  1
  Ga  Ga12  1  0.71594400  0.93530100  0.31588000  1
  Ga  Ga13  1  0.56469900  0.71594400  0.06588000  1
  Ga  Ga14  1  0.43530100  0.28405600  0.06588000  1
  Ga  Ga15  1  0.71594400  0.56469900  0.43412000  1
  Ga  Ga16  1  0.28405600  0.43530100  0.43412000  1
  Ga  Ga17  1  0.93530100  0.71594400  0.18412000  1
  Ga  Ga18  1  0.06469900  0.28405600  0.18412000  1
  Ga  Ga19  1  0.28405600  0.06469900  0.31588000  1
  Ga  Ga20  1  0.78405600  0.06469900  0.43412000  1
  Ga  Ga21  1  0.43530100  0.78405600  0.18412000  1
  Ga  Ga22  1  0.56469900  0.21594400  0.18412000  1
  Ga  Ga23  1  0.78405600  0.43530100  0.31588000  1
  Ga  Ga24  1  0.21594400  0.56469900  0.31588000  1
  Ga  Ga25  1  0.06469900  0.78405600  0.06588000  1
  Ga  Ga26  1  0.93530100  0.21594400  0.06588000  1
  Ga  Ga27  1  0.21594400  0.93530100  0.43412000  1
  Ga  Ga28  1  0.93843600  0.71433200  0.31304900  1
  Ga  Ga29  1  0.78566800  0.93843600  0.06304900  1
  Ga  Ga30  1  0.21433200  0.06156400  0.06304900  1
  Ga  Ga31  1  0.93843600  0.78566800  0.43695100  1
  Ga  Ga32  1  0.93843600  0.21433200  0.93695100  1
  Ga  Ga33  1  0.21433200  0.93843600  0.56304900  1
  Ga  Ga34  1  0.78566800  0.06156400  0.56304900  1
  Ga  Ga35  1  0.93843600  0.28566800  0.81304900  1
  Ga  Ga36  1  0.06156400  0.71433200  0.81304900  1
  Ga  Ga37  1  0.28566800  0.93843600  0.68695100  1
  Ga  Ga38  1  0.71433200  0.06156400  0.68695100  1
  Ga  Ga39  1  0.06156400  0.78566800  0.93695100  1
  Ga  Ga40  1  0.56156400  0.78566800  0.81304900  1
  Ga  Ga41  1  0.78566800  0.56156400  0.68695100  1
  Ga  Ga42  1  0.21433200  0.43843600  0.68695100  1
  Ga  Ga43  1  0.56156400  0.71433200  0.93695100  1
  Ga  Ga44  1  0.21594400  0.43530100  0.81588000  1
  Ga  Ga45  1  0.06469900  0.21594400  0.56588000  1
  Ga  Ga46  1  0.93530100  0.78405600  0.56588000  1
  Ga  Ga47  1  0.21594400  0.06469900  0.93412000  1
  Ga  Ga48  1  0.78405600  0.93530100  0.93412000  1
  Ga  Ga49  1  0.43530100  0.21594400  0.68412000  1
  Ga  Ga50  1  0.56469900  0.78405600  0.68412000  1
  Ga  Ga51  1  0.78405600  0.56469900  0.81588000  1
  Ga  Ga52  1  0.28405600  0.56469900  0.93412000  1
  Ga  Ga53  1  0.93530100  0.28405600  0.68412000  1
  Ga  Ga54  1  0.06469900  0.71594400  0.68412000  1
  Ga  Ga55  1  0.28405600  0.93530100  0.81588000  1
  Ga  Ga56  1  0.71594400  0.06469900  0.81588000  1
  Ga  Ga57  1  0.56469900  0.28405600  0.56588000  1
  Ga  Ga58  1  0.43530100  0.71594400  0.56588000  1
  Ga  Ga59  1  0.71594400  0.43530100  0.93412000  1
  Ga  Ga60  1  0.43843600  0.21433200  0.81304900  1
  Ga  Ga61  1  0.28566800  0.43843600  0.56304900  1
  Ga  Ga62  1  0.71433200  0.56156400  0.56304900  1
  Ga  Ga63  1  0.43843600  0.28566800  0.93695100  1
  B  B64  1  0.00000000  0.50000000  0.00000000  1
  B  B65  1  0.50000000  0.50000000  0.25000000  1
  B  B66  1  0.00000000  0.00000000  0.25000000  1
  B  B67  1  0.50000000  0.00000000  0.00000000  1
  B  B68  1  0.50000000  0.00000000  0.50000000  1
  B  B69  1  0.00000000  0.00000000  0.75000000  1
  B  B70  1  0.50000000  0.50000000  0.75000000  1
  B  B71  1  0.00000000  0.50000000  0.50000000  1
  Ir  Ir72  1  0.50000000  0.50000000  0.14798800  1
  Ir  Ir73  1  0.50000000  0.00000000  0.39798800  1
  Ir  Ir74  1  0.00000000  0.50000000  0.10201200  1
  Ir  Ir75  1  0.50000000  0.50000000  0.35201200  1
  Ir  Ir76  1  0.50000000  0.00000000  0.10201200  1
  Ir  Ir77  1  0.00000000  0.00000000  0.35201200  1
  Ir  Ir78  1  0.00000000  0.00000000  0.14798800  1
  Ir  Ir79  1  0.00000000  0.50000000  0.39798800  1
  Ir  Ir80  1  0.17572000  0.82428000  0.25000000  1
  Ir  Ir81  1  0.17572000  0.67572000  0.50000000  1
  Ir  Ir82  1  0.32428000  0.82428000  0.00000000  1
  Ir  Ir83  1  0.82428000  0.17572000  0.25000000  1
  Ir  Ir84  1  0.82428000  0.67572000  0.00000000  1
  Ir  Ir85  1  0.32428000  0.32428000  0.25000000  1
  Ir  Ir86  1  0.67572000  0.67572000  0.25000000  1
  Ir  Ir87  1  0.17572000  0.32428000  0.00000000  1
  Ir  Ir88  1  0.00000000  0.00000000  0.64798800  1
  Ir  Ir89  1  0.00000000  0.50000000  0.89798800  1
  Ir  Ir90  1  0.50000000  0.00000000  0.60201200  1
  Ir  Ir91  1  0.00000000  0.00000000  0.85201200  1
  Ir  Ir92  1  0.00000000  0.50000000  0.60201200  1
  Ir  Ir93  1  0.50000000  0.50000000  0.85201200  1
  Ir  Ir94  1  0.50000000  0.50000000  0.64798800  1
  Ir  Ir95  1  0.50000000  0.00000000  0.89798800  1
  Ir  Ir96  1  0.67572000  0.32428000  0.75000000  1
  Ir  Ir97  1  0.67572000  0.17572000  0.00000000  1
  Ir  Ir98  1  0.82428000  0.32428000  0.50000000  1
  Ir  Ir99  1  0.32428000  0.67572000  0.75000000  1
  Ir  Ir100  1  0.32428000  0.17572000  0.50000000  1
  Ir  Ir101  1  0.82428000  0.82428000  0.75000000  1
  Ir  Ir102  1  0.17572000  0.17572000  0.75000000  1
  Ir  Ir103  1  0.67572000  0.82428000  0.50000000  1
