# generated using pymatgen
data_CoH4(ClO)2
_symmetry_space_group_name_H-M   'P 1'
_cell_length_a   7.50077700
_cell_length_b   8.54773865
_cell_length_c   3.60349420
_cell_angle_alpha   90.00000000
_cell_angle_beta   100.50801853
_cell_angle_gamma   90.00000000
_symmetry_Int_Tables_number   1
_chemical_formula_structural   CoH4(ClO)2
_chemical_formula_sum   'Co2 H8 Cl4 O4'
_cell_volume   227.16225416
_cell_formula_units_Z   2
loop_
 _symmetry_equiv_pos_site_id
 _symmetry_equiv_pos_as_xyz
  1  'x, y, z'
loop_
 _atom_site_type_symbol
 _atom_site_label
 _atom_site_symmetry_multiplicity
 _atom_site_fract_x
 _atom_site_fract_y
 _atom_site_fract_z
 _atom_site_occupancy
  Co  Co0  1  0.00000000  0.00000000  0.00000000  1
  Co  Co1  1  0.50000000  0.50000000  0.00000000  1
  H  H2  1  0.40940131  0.80664590  0.84516230  1
  H  H3  1  0.59059869  0.80664590  0.15483770  1
  H  H4  1  0.40940131  0.19335410  0.84516230  1
  H  H5  1  0.59059869  0.19335410  0.15483770  1
  H  H6  1  0.90940131  0.30664590  0.84516230  1
  H  H7  1  0.09059869  0.30664590  0.15483770  1
  H  H8  1  0.90940131  0.69335410  0.84516230  1
  H  H9  1  0.09059869  0.69335410  0.15483770  1
  Cl  Cl10  1  0.23516354  0.00000000  0.58319049  1
  Cl  Cl11  1  0.76483646  0.00000000  0.41680951  1
  Cl  Cl12  1  0.73516354  0.50000000  0.58319049  1
  Cl  Cl13  1  0.26483646  0.50000000  0.41680951  1
  O  O14  1  0.50000000  0.26139067  0.00000000  1
  O  O15  1  0.50000000  0.73860933  0.00000000  1
  O  O16  1  0.00000000  0.76139066  0.00000000  1
  O  O17  1  0.00000000  0.23860933  0.00000000  1
