# generated using pymatgen
data_Mo6PbSe8
_symmetry_space_group_name_H-M   'P 1'
_cell_length_a   9.68486200
_cell_length_b   9.68486200
_cell_length_c   12.12486033
_cell_angle_alpha   90.00000000
_cell_angle_beta   90.00000000
_cell_angle_gamma   120.00000000
_symmetry_Int_Tables_number   1
_chemical_formula_structural   Mo6PbSe8
_chemical_formula_sum   'Mo18 Pb3 Se24'
_cell_volume   984.90478989
_cell_formula_units_Z   3
loop_
 _symmetry_equiv_pos_site_id
 _symmetry_equiv_pos_as_xyz
  1  'x, y, z'
loop_
 _atom_site_type_symbol
 _atom_site_label
 _atom_site_symmetry_multiplicity
 _atom_site_fract_x
 _atom_site_fract_y
 _atom_site_fract_z
 _atom_site_occupancy
  Mo  Mo0  1  0.31890467  0.49938133  0.25902433  1
  Mo  Mo1  1  0.50061867  0.81952333  0.25902433  1
  Mo  Mo2  1  0.18047667  0.68109533  0.25902433  1
  Mo  Mo3  1  0.34776200  0.83395200  0.07430900  1
  Mo  Mo4  1  0.16604800  0.51381000  0.07430900  1
  Mo  Mo5  1  0.48619000  0.65223800  0.07430900  1
  Mo  Mo6  1  0.98557133  0.83271467  0.59235767  1
  Mo  Mo7  1  0.16728533  0.15285667  0.59235767  1
  Mo  Mo8  1  0.84714333  0.01442867  0.59235767  1
  Mo  Mo9  1  0.01442867  0.16728533  0.40764233  1
  Mo  Mo10  1  0.83271467  0.84714333  0.40764233  1
  Mo  Mo11  1  0.15285667  0.98557133  0.40764233  1
  Mo  Mo12  1  0.65223800  0.16604800  0.92569100  1
  Mo  Mo13  1  0.83395200  0.48619000  0.92569100  1
  Mo  Mo14  1  0.51381000  0.34776200  0.92569100  1
  Mo  Mo15  1  0.68109533  0.50061867  0.74097567  1
  Mo  Mo16  1  0.49938133  0.18047667  0.74097567  1
  Mo  Mo17  1  0.81952333  0.31890467  0.74097567  1
  Pb  Pb18  1  0.00000000  0.00000000  0.00000000  1
  Pb  Pb19  1  0.66666667  0.33333333  0.33333333  1
  Pb  Pb20  1  0.33333333  0.66666667  0.66666667  1
  Se  Se21  1  0.33333333  0.66666667  0.42344467  1
  Se  Se22  1  0.33333333  0.66666667  0.90988867  1
  Se  Se23  1  0.36839833  0.99605467  0.25021367  1
  Se  Se24  1  0.00394533  0.37234367  0.25021367  1
  Se  Se25  1  0.62765633  0.63160167  0.25021367  1
  Se  Se26  1  0.29826833  0.33727867  0.08311967  1
  Se  Se27  1  0.66272133  0.96098967  0.08311967  1
  Se  Se28  1  0.03901033  0.70173167  0.08311967  1
  Se  Se29  1  0.00000000  0.00000000  0.75677800  1
  Se  Se30  1  0.00000000  0.00000000  0.24322200  1
  Se  Se31  1  0.03506500  0.32938800  0.58354700  1
  Se  Se32  1  0.67061200  0.70567700  0.58354700  1
  Se  Se33  1  0.29432300  0.96493500  0.58354700  1
  Se  Se34  1  0.96493500  0.67061200  0.41645300  1
  Se  Se35  1  0.32938800  0.29432300  0.41645300  1
  Se  Se36  1  0.70567700  0.03506500  0.41645300  1
  Se  Se37  1  0.66666667  0.33333333  0.09011133  1
  Se  Se38  1  0.66666667  0.33333333  0.57655533  1
  Se  Se39  1  0.70173167  0.66272133  0.91688033  1
  Se  Se40  1  0.33727867  0.03901033  0.91688033  1
  Se  Se41  1  0.96098967  0.29826833  0.91688033  1
  Se  Se42  1  0.63160167  0.00394533  0.74978633  1
  Se  Se43  1  0.99605467  0.62765633  0.74978633  1
  Se  Se44  1  0.37234367  0.36839833  0.74978633  1
