# generated using pymatgen
data_Co2P2O7
_symmetry_space_group_name_H-M   'P 1'
_cell_length_a   6.59277219
_cell_length_b   8.42015045
_cell_length_c   4.53687421
_cell_angle_alpha   90.00000000
_cell_angle_beta   103.26330972
_cell_angle_gamma   90.00000000
_symmetry_Int_Tables_number   1
_chemical_formula_structural   Co2P2O7
_chemical_formula_sum   'Co4 P4 O14'
_cell_volume   245.13367666
_cell_formula_units_Z   2
loop_
 _symmetry_equiv_pos_site_id
 _symmetry_equiv_pos_as_xyz
  1  'x, y, z'
loop_
 _atom_site_type_symbol
 _atom_site_label
 _atom_site_symmetry_multiplicity
 _atom_site_fract_x
 _atom_site_fract_y
 _atom_site_fract_z
 _atom_site_occupancy
  Co  Co0  1  0.00000000  0.31190050  0.00000000  1
  Co  Co1  1  0.00000000  0.68809950  0.00000000  1
  Co  Co2  1  0.50000000  0.81190050  0.00000000  1
  Co  Co3  1  0.50000000  0.18809950  0.00000000  1
  P  P4  1  0.71702875  0.50000000  0.40466400  1
  P  P5  1  0.28297125  0.50000000  0.59533600  1
  P  P6  1  0.21702875  0.00000000  0.40466400  1
  P  P7  1  0.78297125  0.00000000  0.59533600  1
  O  O8  1  0.50000000  0.50000000  0.50000000  1
  O  O9  1  0.12272650  0.50000000  0.28687000  1
  O  O10  1  0.87727350  0.50000000  0.71313000  1
  O  O11  1  0.27520225  0.34799525  0.77720200  1
  O  O12  1  0.72479775  0.34799525  0.22279800  1
  O  O13  1  0.72479775  0.65200475  0.22279800  1
  O  O14  1  0.27520225  0.65200475  0.77720200  1
  O  O15  1  0.00000000  0.00000000  0.50000000  1
  O  O16  1  0.62272650  0.00000000  0.28687000  1
  O  O17  1  0.37727350  0.00000000  0.71313000  1
  O  O18  1  0.77520225  0.84799525  0.77720200  1
  O  O19  1  0.22479775  0.84799525  0.22279800  1
  O  O20  1  0.22479775  0.15200475  0.22279800  1
  O  O21  1  0.77520225  0.15200475  0.77720200  1
