# generated using pymatgen
data_Mn(SbO3)2
_symmetry_space_group_name_H-M   'P 1'
_cell_length_a   8.94908796
_cell_length_b   8.94908796
_cell_length_c   4.80620450
_cell_angle_alpha   90.00000000
_cell_angle_beta   90.00000000
_cell_angle_gamma   120.00000000
_symmetry_Int_Tables_number   1
_chemical_formula_structural   Mn(SbO3)2
_chemical_formula_sum   'Mn3 Sb6 O18'
_cell_volume   333.34230236
_cell_formula_units_Z   3
loop_
 _symmetry_equiv_pos_site_id
 _symmetry_equiv_pos_as_xyz
  1  'x, y, z'
loop_
 _atom_site_type_symbol
 _atom_site_label
 _atom_site_symmetry_multiplicity
 _atom_site_fract_x
 _atom_site_fract_y
 _atom_site_fract_z
 _atom_site_occupancy
  Mn  Mn0  1  0.36687600  0.00000000  0.50000000  1
  Mn  Mn1  1  0.63312400  0.63312400  0.50000000  1
  Mn  Mn2  1  0.00000000  0.36687600  0.50000000  1
  Sb  Sb3  1  0.00000000  0.00000000  0.50000000  1
  Sb  Sb4  1  0.33333333  0.66666667  0.99091900  1
  Sb  Sb5  1  0.66666667  0.33333333  0.00908100  1
  Sb  Sb6  1  0.69497825  0.00000000  0.00000000  1
  Sb  Sb7  1  0.00000000  0.69497825  0.00000000  1
  Sb  Sb8  1  0.30502175  0.30502175  0.00000000  1
  O  O9  1  0.55439250  0.77903950  0.21720100  1
  O  O10  1  0.22096050  0.77535300  0.21720100  1
  O  O11  1  0.22464700  0.44560750  0.21720100  1
  O  O12  1  0.77903950  0.55439250  0.78279900  1
  O  O13  1  0.77535300  0.22096050  0.78279900  1
  O  O14  1  0.44560750  0.22464700  0.78279900  1
  O  O15  1  0.11711350  0.58910500  0.76926700  1
  O  O16  1  0.41089500  0.52800850  0.76926700  1
  O  O17  1  0.47199150  0.88288650  0.76926700  1
  O  O18  1  0.58910500  0.11711350  0.23073300  1
  O  O19  1  0.88288650  0.47199150  0.23073300  1
  O  O20  1  0.52800850  0.41089500  0.23073300  1
  O  O21  1  0.21352150  0.10333000  0.26384300  1
  O  O22  1  0.89667000  0.11019150  0.26384300  1
  O  O23  1  0.88980850  0.78647850  0.26384300  1
  O  O24  1  0.10333000  0.21352150  0.73615700  1
  O  O25  1  0.78647850  0.88980850  0.73615700  1
  O  O26  1  0.11019150  0.89667000  0.73615700  1
