# generated using pymatgen
data_SmIn2Ir
_symmetry_space_group_name_H-M   'P 1'
_cell_length_a   4.38791000
_cell_length_b   10.31981800
_cell_length_c   8.09340000
_cell_angle_alpha   90.00000000
_cell_angle_beta   90.00000000
_cell_angle_gamma   90.00000000
_symmetry_Int_Tables_number   1
_chemical_formula_structural   SmIn2Ir
_chemical_formula_sum   'Sm4 In8 Ir4'
_cell_volume   366.48884001
_cell_formula_units_Z   4
loop_
 _symmetry_equiv_pos_site_id
 _symmetry_equiv_pos_as_xyz
  1  'x, y, z'
loop_
 _atom_site_type_symbol
 _atom_site_label
 _atom_site_symmetry_multiplicity
 _atom_site_fract_x
 _atom_site_fract_y
 _atom_site_fract_z
 _atom_site_occupancy
  Sm  Sm0  1  0.00000000  0.07052700  0.25000000  1
  Sm  Sm1  1  0.50000000  0.42947300  0.75000000  1
  Sm  Sm2  1  0.50000000  0.57052700  0.25000000  1
  Sm  Sm3  1  0.00000000  0.92947300  0.75000000  1
  In  In4  1  0.00000000  0.35551100  0.05129100  1
  In  In5  1  0.50000000  0.14448900  0.94870900  1
  In  In6  1  0.00000000  0.35551100  0.44870900  1
  In  In7  1  0.50000000  0.14448900  0.55129100  1
  In  In8  1  0.50000000  0.85551100  0.05129100  1
  In  In9  1  0.00000000  0.64448900  0.94870900  1
  In  In10  1  0.50000000  0.85551100  0.44870900  1
  In  In11  1  0.00000000  0.64448900  0.55129100  1
  Ir  Ir12  1  0.00000000  0.22010600  0.75000000  1
  Ir  Ir13  1  0.50000000  0.27989400  0.25000000  1
  Ir  Ir14  1  0.50000000  0.72010600  0.75000000  1
  Ir  Ir15  1  0.00000000  0.77989400  0.25000000  1
