# generated using pymatgen
data_Sr2InPt2
_symmetry_space_group_name_H-M   'P 1'
_cell_length_a   10.49351600
_cell_length_b   6.05847800
_cell_length_c   8.35545542
_cell_angle_alpha   90.00000000
_cell_angle_beta   103.27704907
_cell_angle_gamma   90.00000000
_symmetry_Int_Tables_number   1
_chemical_formula_structural   Sr2InPt2
_chemical_formula_sum   'Sr8 In4 Pt8'
_cell_volume   516.99750788
_cell_formula_units_Z   4
loop_
 _symmetry_equiv_pos_site_id
 _symmetry_equiv_pos_as_xyz
  1  'x, y, z'
loop_
 _atom_site_type_symbol
 _atom_site_label
 _atom_site_symmetry_multiplicity
 _atom_site_fract_x
 _atom_site_fract_y
 _atom_site_fract_z
 _atom_site_occupancy
  Sr  Sr0  1  0.35208500  0.14197400  0.35291100  1
  Sr  Sr1  1  0.64791500  0.14197400  0.14708900  1
  Sr  Sr2  1  0.64791500  0.85802600  0.64708900  1
  Sr  Sr3  1  0.35208500  0.85802600  0.85291100  1
  Sr  Sr4  1  0.85208500  0.64197400  0.35291100  1
  Sr  Sr5  1  0.14791500  0.64197400  0.14708900  1
  Sr  Sr6  1  0.14791500  0.35802600  0.64708900  1
  Sr  Sr7  1  0.85208500  0.35802600  0.85291100  1
  In  In8  1  0.50000000  0.63271100  0.25000000  1
  In  In9  1  0.50000000  0.36728900  0.75000000  1
  In  In10  1  0.00000000  0.13271100  0.25000000  1
  In  In11  1  0.00000000  0.86728900  0.75000000  1
  Pt  Pt12  1  0.36142350  0.36073950  0.99752900  1
  Pt  Pt13  1  0.63857650  0.36073950  0.50247100  1
  Pt  Pt14  1  0.63857650  0.63926050  0.00247100  1
  Pt  Pt15  1  0.36142350  0.63926050  0.49752900  1
  Pt  Pt16  1  0.86142350  0.86073950  0.99752900  1
  Pt  Pt17  1  0.13857650  0.86073950  0.50247100  1
  Pt  Pt18  1  0.13857650  0.13926050  0.00247100  1
  Pt  Pt19  1  0.86142350  0.13926050  0.49752900  1
