# generated using pymatgen
data_U3Se4
_symmetry_space_group_name_H-M   'P 1'
_cell_length_a   8.67063200
_cell_length_b   8.67063200
_cell_length_c   8.67063200
_cell_angle_alpha   90.00000000
_cell_angle_beta   90.00000000
_cell_angle_gamma   90.00000000
_symmetry_Int_Tables_number   1
_chemical_formula_structural   U3Se4
_chemical_formula_sum   'U12 Se16'
_cell_volume   651.85689362
_cell_formula_units_Z   4
loop_
 _symmetry_equiv_pos_site_id
 _symmetry_equiv_pos_as_xyz
  1  'x, y, z'
loop_
 _atom_site_type_symbol
 _atom_site_label
 _atom_site_symmetry_multiplicity
 _atom_site_fract_x
 _atom_site_fract_y
 _atom_site_fract_z
 _atom_site_occupancy
  U  U0  1  0.75000000  0.37500000  0.50000000  1
  U  U1  1  0.50000000  0.75000000  0.37500000  1
  U  U2  1  0.50000000  0.25000000  0.12500000  1
  U  U3  1  0.37500000  0.50000000  0.75000000  1
  U  U4  1  0.12500000  0.50000000  0.25000000  1
  U  U5  1  0.25000000  0.12500000  0.50000000  1
  U  U6  1  0.25000000  0.87500000  0.00000000  1
  U  U7  1  0.00000000  0.25000000  0.87500000  1
  U  U8  1  0.00000000  0.75000000  0.62500000  1
  U  U9  1  0.87500000  0.00000000  0.25000000  1
  U  U10  1  0.62500000  0.00000000  0.75000000  1
  U  U11  1  0.75000000  0.62500000  0.00000000  1
  Se  Se12  1  0.07620900  0.57620900  0.92379100  1
  Se  Se13  1  0.17379100  0.82620900  0.32620900  1
  Se  Se14  1  0.17379100  0.17379100  0.17379100  1
  Se  Se15  1  0.32620900  0.17379100  0.82620900  1
  Se  Se16  1  0.42379100  0.42379100  0.42379100  1
  Se  Se17  1  0.57620900  0.92379100  0.07620900  1
  Se  Se18  1  0.82620900  0.32620900  0.17379100  1
  Se  Se19  1  0.92379100  0.07620900  0.57620900  1
  Se  Se20  1  0.57620900  0.07620900  0.42379100  1
  Se  Se21  1  0.67379100  0.32620900  0.82620900  1
  Se  Se22  1  0.67379100  0.67379100  0.67379100  1
  Se  Se23  1  0.82620900  0.67379100  0.32620900  1
  Se  Se24  1  0.92379100  0.92379100  0.92379100  1
  Se  Se25  1  0.07620900  0.42379100  0.57620900  1
  Se  Se26  1  0.32620900  0.82620900  0.67379100  1
  Se  Se27  1  0.42379100  0.57620900  0.07620900  1
