# generated using pymatgen
data_In5Bi3
_symmetry_space_group_name_H-M   'P 1'
_cell_length_a   8.42503200
_cell_length_b   8.42503200
_cell_length_c   13.47341600
_cell_angle_alpha   90.00000000
_cell_angle_beta   90.00000000
_cell_angle_gamma   90.00000000
_symmetry_Int_Tables_number   1
_chemical_formula_structural   In5Bi3
_chemical_formula_sum   'In20 Bi12'
_cell_volume   956.35875344
_cell_formula_units_Z   4
loop_
 _symmetry_equiv_pos_site_id
 _symmetry_equiv_pos_as_xyz
  1  'x, y, z'
loop_
 _atom_site_type_symbol
 _atom_site_label
 _atom_site_symmetry_multiplicity
 _atom_site_fract_x
 _atom_site_fract_y
 _atom_site_fract_z
 _atom_site_occupancy
  In  In0  1  0.50000000  0.50000000  0.00000000  1
  In  In1  1  0.00000000  0.00000000  0.00000000  1
  In  In2  1  0.64620150  0.14620150  0.16577350  1
  In  In3  1  0.85379850  0.64620150  0.16577350  1
  In  In4  1  0.14620150  0.35379850  0.16577350  1
  In  In5  1  0.64620150  0.85379850  0.33422650  1
  In  In6  1  0.35379850  0.14620150  0.33422650  1
  In  In7  1  0.14620150  0.64620150  0.33422650  1
  In  In8  1  0.85379850  0.35379850  0.33422650  1
  In  In9  1  0.35379850  0.85379850  0.16577350  1
  In  In10  1  0.00000000  0.00000000  0.50000000  1
  In  In11  1  0.50000000  0.50000000  0.50000000  1
  In  In12  1  0.14620150  0.64620150  0.66577350  1
  In  In13  1  0.35379850  0.14620150  0.66577350  1
  In  In14  1  0.64620150  0.85379850  0.66577350  1
  In  In15  1  0.14620150  0.35379850  0.83422650  1
  In  In16  1  0.85379850  0.64620150  0.83422650  1
  In  In17  1  0.64620150  0.14620150  0.83422650  1
  In  In18  1  0.35379850  0.85379850  0.83422650  1
  In  In19  1  0.85379850  0.35379850  0.66577350  1
  Bi  Bi20  1  0.50000000  0.50000000  0.25000000  1
  Bi  Bi21  1  0.00000000  0.00000000  0.25000000  1
  Bi  Bi22  1  0.85078100  0.35078100  0.00000000  1
  Bi  Bi23  1  0.64921900  0.85078100  0.00000000  1
  Bi  Bi24  1  0.35078100  0.14921900  0.00000000  1
  Bi  Bi25  1  0.14921900  0.64921900  0.00000000  1
  Bi  Bi26  1  0.00000000  0.00000000  0.75000000  1
  Bi  Bi27  1  0.50000000  0.50000000  0.75000000  1
  Bi  Bi28  1  0.35078100  0.85078100  0.50000000  1
  Bi  Bi29  1  0.14921900  0.35078100  0.50000000  1
  Bi  Bi30  1  0.85078100  0.64921900  0.50000000  1
  Bi  Bi31  1  0.64921900  0.14921900  0.50000000  1
