# generated using pymatgen
data_La3(ReO5)2
_symmetry_space_group_name_H-M   'P 1'
_cell_length_a   7.94323600
_cell_length_b   7.87407600
_cell_length_c   7.22979082
_cell_angle_alpha   90.00000000
_cell_angle_beta   114.77085535
_cell_angle_gamma   90.00000000
_symmetry_Int_Tables_number   1
_chemical_formula_structural   La3(ReO5)2
_chemical_formula_sum   'La6 Re4 O20'
_cell_volume   410.58607100
_cell_formula_units_Z   2
loop_
 _symmetry_equiv_pos_site_id
 _symmetry_equiv_pos_as_xyz
  1  'x, y, z'
loop_
 _atom_site_type_symbol
 _atom_site_label
 _atom_site_symmetry_multiplicity
 _atom_site_fract_x
 _atom_site_fract_y
 _atom_site_fract_z
 _atom_site_occupancy
  La  La0  1  0.00000000  0.74307600  0.50000000  1
  La  La1  1  0.00000000  0.25692400  0.50000000  1
  La  La2  1  0.00000000  0.00000000  0.00000000  1
  La  La3  1  0.50000000  0.24307600  0.50000000  1
  La  La4  1  0.50000000  0.75692400  0.50000000  1
  La  La5  1  0.50000000  0.50000000  0.00000000  1
  Re  Re6  1  0.86667800  0.50000000  0.82533500  1
  Re  Re7  1  0.13332200  0.50000000  0.17466500  1
  Re  Re8  1  0.36667800  0.00000000  0.82533500  1
  Re  Re9  1  0.63332200  0.00000000  0.17466500  1
  O  O10  1  0.83347400  0.50000000  0.53121300  1
  O  O11  1  0.16652600  0.50000000  0.46878700  1
  O  O12  1  0.13281850  0.73772650  0.21252800  1
  O  O13  1  0.86718150  0.73772650  0.78747200  1
  O  O14  1  0.86718150  0.26227350  0.78747200  1
  O  O15  1  0.14895200  0.50000000  0.90735500  1
  O  O16  1  0.85104800  0.50000000  0.09264500  1
  O  O17  1  0.40483600  0.50000000  0.28158700  1
  O  O18  1  0.59516400  0.50000000  0.71841300  1
  O  O19  1  0.13281850  0.26227350  0.21252800  1
  O  O20  1  0.33347400  0.00000000  0.53121300  1
  O  O21  1  0.66652600  0.00000000  0.46878700  1
  O  O22  1  0.63281850  0.23772650  0.21252800  1
  O  O23  1  0.36718150  0.23772650  0.78747200  1
  O  O24  1  0.36718150  0.76227350  0.78747200  1
  O  O25  1  0.64895200  0.00000000  0.90735500  1
  O  O26  1  0.35104800  0.00000000  0.09264500  1
  O  O27  1  0.90483600  0.00000000  0.28158700  1
  O  O28  1  0.09516400  0.00000000  0.71841300  1
  O  O29  1  0.63281850  0.76227350  0.21252800  1
