# generated using pymatgen
data_Nd2(WO4)3
_symmetry_space_group_name_H-M   'P 1'
_cell_length_a   7.95426600
_cell_length_b   11.77624400
_cell_length_c   11.70481039
_cell_angle_alpha   90.00000000
_cell_angle_beta   109.49831234
_cell_angle_gamma   90.00000000
_symmetry_Int_Tables_number   1
_chemical_formula_structural   Nd2(WO4)3
_chemical_formula_sum   'Nd8 W12 O48'
_cell_volume   1033.52829289
_cell_formula_units_Z   4
loop_
 _symmetry_equiv_pos_site_id
 _symmetry_equiv_pos_as_xyz
  1  'x, y, z'
loop_
 _atom_site_type_symbol
 _atom_site_label
 _atom_site_symmetry_multiplicity
 _atom_site_fract_x
 _atom_site_fract_y
 _atom_site_fract_z
 _atom_site_occupancy
  Nd  Nd0  1  0.33616900  0.12331000  0.40580800  1
  Nd  Nd1  1  0.66383100  0.12331000  0.09419200  1
  Nd  Nd2  1  0.66383100  0.87669000  0.59419200  1
  Nd  Nd3  1  0.33616900  0.87669000  0.90580800  1
  Nd  Nd4  1  0.83616900  0.62331000  0.40580800  1
  Nd  Nd5  1  0.16383100  0.62331000  0.09419200  1
  Nd  Nd6  1  0.16383100  0.37669000  0.59419200  1
  Nd  Nd7  1  0.83616900  0.37669000  0.90580800  1
  W  W8  1  0.14352250  0.89593050  0.54703200  1
  W  W9  1  0.85647750  0.89593050  0.95296800  1
  W  W10  1  0.14352250  0.10406950  0.04703200  1
  W  W11  1  0.85647750  0.10406950  0.45296800  1
  W  W12  1  0.50000000  0.13413600  0.75000000  1
  W  W13  1  0.50000000  0.86586400  0.25000000  1
  W  W14  1  0.64352250  0.39593050  0.54703200  1
  W  W15  1  0.35647750  0.39593050  0.95296800  1
  W  W16  1  0.64352250  0.60406950  0.04703200  1
  W  W17  1  0.35647750  0.60406950  0.45296800  1
  W  W18  1  0.00000000  0.63413600  0.75000000  1
  W  W19  1  0.00000000  0.36586400  0.25000000  1
  O  O20  1  0.06531550  0.03750750  0.42797300  1
  O  O21  1  0.93468450  0.03750750  0.07202700  1
  O  O22  1  0.93468450  0.96249250  0.57202700  1
  O  O23  1  0.06531550  0.96249250  0.92797300  1
  O  O24  1  0.55353200  0.28478700  0.44043300  1
  O  O25  1  0.44646800  0.28478700  0.05956700  1
  O  O26  1  0.44646800  0.71521300  0.55956700  1
  O  O27  1  0.55353200  0.71521300  0.94043300  1
  O  O28  1  0.78308050  0.17321250  0.30436000  1
  O  O29  1  0.21691950  0.17321250  0.19564000  1
  O  O30  1  0.37092400  0.20985200  0.60965000  1
  O  O31  1  0.62907600  0.20985200  0.89035000  1
  O  O32  1  0.62907600  0.79014800  0.39035000  1
  O  O33  1  0.37092400  0.79014800  0.10965000  1
  O  O34  1  0.36258100  0.94864000  0.53912200  1
  O  O35  1  0.63741900  0.94864000  0.96087800  1
  O  O36  1  0.63741900  0.05136000  0.46087800  1
  O  O37  1  0.36258100  0.05136000  0.03912200  1
  O  O38  1  0.66134950  0.04455050  0.71773000  1
  O  O39  1  0.33865050  0.04455050  0.78227000  1
  O  O40  1  0.33865050  0.95544950  0.28227000  1
  O  O41  1  0.66134950  0.95544950  0.21773000  1
  O  O42  1  0.78308050  0.82678750  0.80436000  1
  O  O43  1  0.21691950  0.82678750  0.69564000  1
  O  O44  1  0.56531550  0.53750750  0.42797300  1
  O  O45  1  0.43468450  0.53750750  0.07202700  1
  O  O46  1  0.43468450  0.46249250  0.57202700  1
  O  O47  1  0.56531550  0.46249250  0.92797300  1
  O  O48  1  0.05353200  0.78478700  0.44043300  1
  O  O49  1  0.94646800  0.78478700  0.05956700  1
  O  O50  1  0.94646800  0.21521300  0.55956700  1
  O  O51  1  0.05353200  0.21521300  0.94043300  1
  O  O52  1  0.28308050  0.67321250  0.30436000  1
  O  O53  1  0.71691950  0.67321250  0.19564000  1
  O  O54  1  0.87092400  0.70985200  0.60965000  1
  O  O55  1  0.12907600  0.70985200  0.89035000  1
  O  O56  1  0.12907600  0.29014800  0.39035000  1
  O  O57  1  0.87092400  0.29014800  0.10965000  1
  O  O58  1  0.86258100  0.44864000  0.53912200  1
  O  O59  1  0.13741900  0.44864000  0.96087800  1
  O  O60  1  0.13741900  0.55136000  0.46087800  1
  O  O61  1  0.86258100  0.55136000  0.03912200  1
  O  O62  1  0.16134950  0.54455050  0.71773000  1
  O  O63  1  0.83865050  0.54455050  0.78227000  1
  O  O64  1  0.83865050  0.45544950  0.28227000  1
  O  O65  1  0.16134950  0.45544950  0.21773000  1
  O  O66  1  0.28308050  0.32678750  0.80436000  1
  O  O67  1  0.71691950  0.32678750  0.69564000  1
