# generated using pymatgen
data_KTh2V3O12
_symmetry_space_group_name_H-M   'P 1'
_cell_length_a   18.76177000
_cell_length_b   7.20950200
_cell_length_c   8.25308799
_cell_angle_alpha   90.00000000
_cell_angle_beta   100.95671071
_cell_angle_gamma   90.00000000
_symmetry_Int_Tables_number   1
_chemical_formula_structural   KTh2V3O12
_chemical_formula_sum   'K4 Th8 V12 O48'
_cell_volume   1095.98794870
_cell_formula_units_Z   4
loop_
 _symmetry_equiv_pos_site_id
 _symmetry_equiv_pos_as_xyz
  1  'x, y, z'
loop_
 _atom_site_type_symbol
 _atom_site_label
 _atom_site_symmetry_multiplicity
 _atom_site_fract_x
 _atom_site_fract_y
 _atom_site_fract_z
 _atom_site_occupancy
  K  K0  1  0.00000000  0.38458500  0.25000000  1
  K  K1  1  0.00000000  0.61541500  0.75000000  1
  K  K2  1  0.50000000  0.88458500  0.25000000  1
  K  K3  1  0.50000000  0.11541500  0.75000000  1
  Th  Th4  1  0.84598850  0.09537450  0.46318700  1
  Th  Th5  1  0.65401150  0.59537450  0.03681300  1
  Th  Th6  1  0.65401150  0.40462550  0.53681300  1
  Th  Th7  1  0.84598850  0.90462550  0.96318700  1
  Th  Th8  1  0.34598850  0.59537450  0.46318700  1
  Th  Th9  1  0.15401150  0.09537450  0.03681300  1
  Th  Th10  1  0.15401150  0.90462550  0.53681300  1
  Th  Th11  1  0.34598850  0.40462550  0.96318700  1
  V  V12  1  0.00000000  0.89386900  0.25000000  1
  V  V13  1  0.00000000  0.10613100  0.75000000  1
  V  V14  1  0.80955650  0.58526250  0.31687800  1
  V  V15  1  0.69044350  0.08526250  0.18312200  1
  V  V16  1  0.69044350  0.91473750  0.68312200  1
  V  V17  1  0.80955650  0.41473750  0.81687800  1
  V  V18  1  0.50000000  0.39386900  0.25000000  1
  V  V19  1  0.50000000  0.60613100  0.75000000  1
  V  V20  1  0.30955650  0.08526250  0.31687800  1
  V  V21  1  0.19044350  0.58526250  0.18312200  1
  V  V22  1  0.19044350  0.41473750  0.68312200  1
  V  V23  1  0.30955650  0.91473750  0.81687800  1
  O  O24  1  0.96594150  0.76540050  0.07547400  1
  O  O25  1  0.53405850  0.26540050  0.42452600  1
  O  O26  1  0.53405850  0.73459950  0.92452600  1
  O  O27  1  0.96594150  0.23459950  0.57547400  1
  O  O28  1  0.92428600  0.03173600  0.25970900  1
  O  O29  1  0.57571400  0.53173600  0.24029100  1
  O  O30  1  0.57571400  0.46826400  0.74029100  1
  O  O31  1  0.92428600  0.96826400  0.75970900  1
  O  O32  1  0.86041600  0.38470200  0.33698100  1
  O  O33  1  0.63958400  0.88470200  0.16301900  1
  O  O34  1  0.63958400  0.11529800  0.66301900  1
  O  O35  1  0.86041600  0.61529800  0.83698100  1
  O  O36  1  0.84915600  0.23101700  0.93625100  1
  O  O37  1  0.65084400  0.73101700  0.56374900  1
  O  O38  1  0.65084400  0.26898300  0.06374900  1
  O  O39  1  0.84915600  0.76898300  0.43625100  1
  O  O40  1  0.71802800  0.46037200  0.82420900  1
  O  O41  1  0.78197200  0.96037200  0.67579100  1
  O  O42  1  0.78197200  0.03962800  0.17579100  1
  O  O43  1  0.71802800  0.53962800  0.32420900  1
  O  O44  1  0.79461850  0.34879650  0.60929900  1
  O  O45  1  0.70538150  0.84879650  0.89070100  1
  O  O46  1  0.70538150  0.15120350  0.39070100  1
  O  O47  1  0.79461850  0.65120350  0.10929900  1
  O  O48  1  0.46594150  0.26540050  0.07547400  1
  O  O49  1  0.03405850  0.76540050  0.42452600  1
  O  O50  1  0.03405850  0.23459950  0.92452600  1
  O  O51  1  0.46594150  0.73459950  0.57547400  1
  O  O52  1  0.42428600  0.53173600  0.25970900  1
  O  O53  1  0.07571400  0.03173600  0.24029100  1
  O  O54  1  0.07571400  0.96826400  0.74029100  1
  O  O55  1  0.42428600  0.46826400  0.75970900  1
  O  O56  1  0.36041600  0.88470200  0.33698100  1
  O  O57  1  0.13958400  0.38470200  0.16301900  1
  O  O58  1  0.13958400  0.61529800  0.66301900  1
  O  O59  1  0.36041600  0.11529800  0.83698100  1
  O  O60  1  0.34915600  0.73101700  0.93625100  1
  O  O61  1  0.15084400  0.23101700  0.56374900  1
  O  O62  1  0.15084400  0.76898300  0.06374900  1
  O  O63  1  0.34915600  0.26898300  0.43625100  1
  O  O64  1  0.21802800  0.96037200  0.82420900  1
  O  O65  1  0.28197200  0.46037200  0.67579100  1
  O  O66  1  0.28197200  0.53962800  0.17579100  1
  O  O67  1  0.21802800  0.03962800  0.32420900  1
  O  O68  1  0.29461850  0.84879650  0.60929900  1
  O  O69  1  0.20538150  0.34879650  0.89070100  1
  O  O70  1  0.20538150  0.65120350  0.39070100  1
  O  O71  1  0.29461850  0.15120350  0.10929900  1
