# generated using pymatgen
data_La(MnGe)2
_symmetry_space_group_name_H-M   'P 1'
_cell_length_a   4.05702000
_cell_length_b   4.05702000
_cell_length_c   11.13123800
_cell_angle_alpha   90.00000000
_cell_angle_beta   90.00000000
_cell_angle_gamma   90.00000000
_symmetry_Int_Tables_number   1
_chemical_formula_structural   La(MnGe)2
_chemical_formula_sum   'La2 Mn4 Ge4'
_cell_volume   183.21362430
_cell_formula_units_Z   2
loop_
 _symmetry_equiv_pos_site_id
 _symmetry_equiv_pos_as_xyz
  1  'x, y, z'
loop_
 _atom_site_type_symbol
 _atom_site_label
 _atom_site_symmetry_multiplicity
 _atom_site_fract_x
 _atom_site_fract_y
 _atom_site_fract_z
 _atom_site_occupancy
  La  La0  1  0.00000000  0.00000000  0.00000000  1
  La  La1  1  0.50000000  0.50000000  0.50000000  1
  Mn  Mn2  1  0.00000000  0.50000000  0.25000000  1
  Mn  Mn3  1  0.50000000  0.00000000  0.25000000  1
  Mn  Mn4  1  0.50000000  0.00000000  0.75000000  1
  Mn  Mn5  1  0.00000000  0.50000000  0.75000000  1
  Ge  Ge6  1  0.50000000  0.50000000  0.12664100  1
  Ge  Ge7  1  0.00000000  0.00000000  0.37335900  1
  Ge  Ge8  1  0.00000000  0.00000000  0.62664100  1
  Ge  Ge9  1  0.50000000  0.50000000  0.87335900  1
