# generated using pymatgen
data_UNb2O7
_symmetry_space_group_name_H-M   'P 1'
_cell_length_a   3.81768200
_cell_length_b   21.29667800
_cell_length_c   6.54308300
_cell_angle_alpha   90.00000000
_cell_angle_beta   90.00000000
_cell_angle_gamma   90.00000000
_symmetry_Int_Tables_number   1
_chemical_formula_structural   UNb2O7
_chemical_formula_sum   'U4 Nb8 O28'
_cell_volume   531.97845552
_cell_formula_units_Z   4
loop_
 _symmetry_equiv_pos_site_id
 _symmetry_equiv_pos_as_xyz
  1  'x, y, z'
loop_
 _atom_site_type_symbol
 _atom_site_label
 _atom_site_symmetry_multiplicity
 _atom_site_fract_x
 _atom_site_fract_y
 _atom_site_fract_z
 _atom_site_occupancy
  U  U0  1  0.00000000  0.85636900  0.25000000  1
  U  U1  1  0.50000000  0.64363100  0.75000000  1
  U  U2  1  0.50000000  0.35636900  0.25000000  1
  U  U3  1  0.00000000  0.14363100  0.75000000  1
  Nb  Nb4  1  0.50000000  0.83559600  0.75000000  1
  Nb  Nb5  1  0.00000000  0.66440400  0.25000000  1
  Nb  Nb6  1  0.00000000  0.97605900  0.75000000  1
  Nb  Nb7  1  0.50000000  0.52394100  0.25000000  1
  Nb  Nb8  1  0.00000000  0.33559600  0.75000000  1
  Nb  Nb9  1  0.50000000  0.16440400  0.25000000  1
  Nb  Nb10  1  0.50000000  0.47605900  0.75000000  1
  Nb  Nb11  1  0.00000000  0.02394100  0.25000000  1
  O  O12  1  0.50000000  0.84713000  0.05577400  1
  O  O13  1  0.00000000  0.65287000  0.94422600  1
  O  O14  1  0.00000000  0.65287000  0.55577400  1
  O  O15  1  0.50000000  0.84713000  0.44422600  1
  O  O16  1  0.50000000  0.74899500  0.75000000  1
  O  O17  1  0.00000000  0.75100500  0.25000000  1
  O  O18  1  0.00000000  0.54939500  0.25000000  1
  O  O19  1  0.50000000  0.95060500  0.75000000  1
  O  O20  1  0.50000000  0.63664100  0.25000000  1
  O  O21  1  0.00000000  0.86335900  0.75000000  1
  O  O22  1  0.00000000  0.94809300  0.43444100  1
  O  O23  1  0.50000000  0.55190700  0.56555900  1
  O  O24  1  0.50000000  0.55190700  0.93444100  1
  O  O25  1  0.00000000  0.94809300  0.06555900  1
  O  O26  1  0.00000000  0.34713000  0.05577400  1
  O  O27  1  0.50000000  0.15287000  0.94422600  1
  O  O28  1  0.50000000  0.15287000  0.55577400  1
  O  O29  1  0.00000000  0.34713000  0.44422600  1
  O  O30  1  0.00000000  0.24899500  0.75000000  1
  O  O31  1  0.50000000  0.25100500  0.25000000  1
  O  O32  1  0.50000000  0.04939500  0.25000000  1
  O  O33  1  0.00000000  0.45060500  0.75000000  1
  O  O34  1  0.00000000  0.13664100  0.25000000  1
  O  O35  1  0.50000000  0.36335900  0.75000000  1
  O  O36  1  0.50000000  0.44809300  0.43444100  1
  O  O37  1  0.00000000  0.05190700  0.56555900  1
  O  O38  1  0.00000000  0.05190700  0.93444100  1
  O  O39  1  0.50000000  0.44809300  0.06555900  1
