# generated using pymatgen
data_Ti3Cu3O
_symmetry_space_group_name_H-M   'P 1'
_cell_length_a   11.23900200
_cell_length_b   11.23900200
_cell_length_c   11.23900200
_cell_angle_alpha   90.00000000
_cell_angle_beta   90.00000000
_cell_angle_gamma   90.00000000
_symmetry_Int_Tables_number   1
_chemical_formula_structural   Ti3Cu3O
_chemical_formula_sum   'Ti48 Cu48 O16'
_cell_volume   1419.65640281
_cell_formula_units_Z   16
loop_
 _symmetry_equiv_pos_site_id
 _symmetry_equiv_pos_as_xyz
  1  'x, y, z'
loop_
 _atom_site_type_symbol
 _atom_site_label
 _atom_site_symmetry_multiplicity
 _atom_site_fract_x
 _atom_site_fract_y
 _atom_site_fract_z
 _atom_site_occupancy
  Ti  Ti0  1  0.06422100  0.25000000  0.25000000  1
  Ti  Ti1  1  0.50000000  0.18577900  0.50000000  1
  Ti  Ti2  1  0.25000000  0.43577900  0.25000000  1
  Ti  Ti3  1  0.43577900  0.25000000  0.25000000  1
  Ti  Ti4  1  0.50000000  0.81422100  0.50000000  1
  Ti  Ti5  1  0.25000000  0.06422100  0.25000000  1
  Ti  Ti6  1  0.00000000  0.00000000  0.18577900  1
  Ti  Ti7  1  0.25000000  0.25000000  0.43577900  1
  Ti  Ti8  1  0.50000000  0.00000000  0.31422100  1
  Ti  Ti9  1  0.31422100  0.00000000  0.50000000  1
  Ti  Ti10  1  0.25000000  0.25000000  0.06422100  1
  Ti  Ti11  1  0.68577900  0.00000000  0.50000000  1
  Ti  Ti12  1  0.06422100  0.75000000  0.75000000  1
  Ti  Ti13  1  0.50000000  0.68577900  0.00000000  1
  Ti  Ti14  1  0.25000000  0.93577900  0.75000000  1
  Ti  Ti15  1  0.43577900  0.75000000  0.75000000  1
  Ti  Ti16  1  0.50000000  0.31422100  0.00000000  1
  Ti  Ti17  1  0.25000000  0.56422100  0.75000000  1
  Ti  Ti18  1  0.00000000  0.50000000  0.68577900  1
  Ti  Ti19  1  0.25000000  0.75000000  0.93577900  1
  Ti  Ti20  1  0.50000000  0.50000000  0.81422100  1
  Ti  Ti21  1  0.31422100  0.50000000  0.00000000  1
  Ti  Ti22  1  0.25000000  0.75000000  0.56422100  1
  Ti  Ti23  1  0.68577900  0.50000000  0.00000000  1
  Ti  Ti24  1  0.56422100  0.25000000  0.75000000  1
  Ti  Ti25  1  0.00000000  0.18577900  0.00000000  1
  Ti  Ti26  1  0.75000000  0.43577900  0.75000000  1
  Ti  Ti27  1  0.93577900  0.25000000  0.75000000  1
  Ti  Ti28  1  0.00000000  0.81422100  0.00000000  1
  Ti  Ti29  1  0.75000000  0.06422100  0.75000000  1
  Ti  Ti30  1  0.50000000  0.00000000  0.68577900  1
  Ti  Ti31  1  0.75000000  0.25000000  0.93577900  1
  Ti  Ti32  1  0.00000000  0.00000000  0.81422100  1
  Ti  Ti33  1  0.81422100  0.00000000  0.00000000  1
  Ti  Ti34  1  0.75000000  0.25000000  0.56422100  1
  Ti  Ti35  1  0.18577900  0.00000000  0.00000000  1
  Ti  Ti36  1  0.56422100  0.75000000  0.25000000  1
  Ti  Ti37  1  0.00000000  0.68577900  0.50000000  1
  Ti  Ti38  1  0.75000000  0.93577900  0.25000000  1
  Ti  Ti39  1  0.93577900  0.75000000  0.25000000  1
  Ti  Ti40  1  0.00000000  0.31422100  0.50000000  1
  Ti  Ti41  1  0.75000000  0.56422100  0.25000000  1
  Ti  Ti42  1  0.50000000  0.50000000  0.18577900  1
  Ti  Ti43  1  0.75000000  0.75000000  0.43577900  1
  Ti  Ti44  1  0.00000000  0.50000000  0.31422100  1
  Ti  Ti45  1  0.81422100  0.50000000  0.50000000  1
  Ti  Ti46  1  0.75000000  0.75000000  0.06422100  1
  Ti  Ti47  1  0.18577900  0.50000000  0.50000000  1
  Cu  Cu48  1  0.41530800  0.08469200  0.08469200  1
  Cu  Cu49  1  0.33469200  0.83469200  0.33469200  1
  Cu  Cu50  1  0.66530800  0.16530800  0.33469200  1
  Cu  Cu51  1  0.08469200  0.41530800  0.08469200  1
  Cu  Cu52  1  0.41530800  0.41530800  0.41530800  1
  Cu  Cu53  1  0.83469200  0.16530800  0.16530800  1
  Cu  Cu54  1  0.08469200  0.08469200  0.41530800  1
  Cu  Cu55  1  0.16530800  0.83469200  0.16530800  1
  Cu  Cu56  1  0.37500000  0.62500000  0.37500000  1
  Cu  Cu57  1  0.37500000  0.87500000  0.12500000  1
  Cu  Cu58  1  0.12500000  0.87500000  0.37500000  1
  Cu  Cu59  1  0.12500000  0.62500000  0.12500000  1
  Cu  Cu60  1  0.41530800  0.58469200  0.58469200  1
  Cu  Cu61  1  0.33469200  0.33469200  0.83469200  1
  Cu  Cu62  1  0.66530800  0.66530800  0.83469200  1
  Cu  Cu63  1  0.08469200  0.91530800  0.58469200  1
  Cu  Cu64  1  0.41530800  0.91530800  0.91530800  1
  Cu  Cu65  1  0.83469200  0.66530800  0.66530800  1
  Cu  Cu66  1  0.08469200  0.58469200  0.91530800  1
  Cu  Cu67  1  0.16530800  0.33469200  0.66530800  1
  Cu  Cu68  1  0.37500000  0.12500000  0.87500000  1
  Cu  Cu69  1  0.37500000  0.37500000  0.62500000  1
  Cu  Cu70  1  0.12500000  0.37500000  0.87500000  1
  Cu  Cu71  1  0.12500000  0.12500000  0.62500000  1
  Cu  Cu72  1  0.91530800  0.08469200  0.58469200  1
  Cu  Cu73  1  0.83469200  0.83469200  0.83469200  1
  Cu  Cu74  1  0.16530800  0.16530800  0.83469200  1
  Cu  Cu75  1  0.58469200  0.41530800  0.58469200  1
  Cu  Cu76  1  0.91530800  0.41530800  0.91530800  1
  Cu  Cu77  1  0.33469200  0.16530800  0.66530800  1
  Cu  Cu78  1  0.58469200  0.08469200  0.91530800  1
  Cu  Cu79  1  0.66530800  0.83469200  0.66530800  1
  Cu  Cu80  1  0.87500000  0.62500000  0.87500000  1
  Cu  Cu81  1  0.87500000  0.87500000  0.62500000  1
  Cu  Cu82  1  0.62500000  0.87500000  0.87500000  1
  Cu  Cu83  1  0.62500000  0.62500000  0.62500000  1
  Cu  Cu84  1  0.91530800  0.58469200  0.08469200  1
  Cu  Cu85  1  0.83469200  0.33469200  0.33469200  1
  Cu  Cu86  1  0.16530800  0.66530800  0.33469200  1
  Cu  Cu87  1  0.58469200  0.91530800  0.08469200  1
  Cu  Cu88  1  0.91530800  0.91530800  0.41530800  1
  Cu  Cu89  1  0.33469200  0.66530800  0.16530800  1
  Cu  Cu90  1  0.58469200  0.58469200  0.41530800  1
  Cu  Cu91  1  0.66530800  0.33469200  0.16530800  1
  Cu  Cu92  1  0.87500000  0.12500000  0.37500000  1
  Cu  Cu93  1  0.87500000  0.37500000  0.12500000  1
  Cu  Cu94  1  0.62500000  0.37500000  0.37500000  1
  Cu  Cu95  1  0.62500000  0.12500000  0.12500000  1
  O  O96  1  0.37500000  0.12500000  0.37500000  1
  O  O97  1  0.87500000  0.87500000  0.12500000  1
  O  O98  1  0.62500000  0.87500000  0.37500000  1
  O  O99  1  0.12500000  0.12500000  0.12500000  1
  O  O100  1  0.37500000  0.62500000  0.87500000  1
  O  O101  1  0.87500000  0.37500000  0.62500000  1
  O  O102  1  0.62500000  0.37500000  0.87500000  1
  O  O103  1  0.12500000  0.62500000  0.62500000  1
  O  O104  1  0.87500000  0.12500000  0.87500000  1
  O  O105  1  0.37500000  0.87500000  0.62500000  1
  O  O106  1  0.12500000  0.87500000  0.87500000  1
  O  O107  1  0.62500000  0.12500000  0.62500000  1
  O  O108  1  0.87500000  0.62500000  0.37500000  1
  O  O109  1  0.37500000  0.37500000  0.12500000  1
  O  O110  1  0.12500000  0.37500000  0.37500000  1
  O  O111  1  0.62500000  0.62500000  0.12500000  1
