# generated using pymatgen
data_MnPH2O5
_symmetry_space_group_name_H-M   'P 1'
_cell_length_a   6.88692391
_cell_length_b   7.73381438
_cell_length_c   7.52784528
_cell_angle_alpha   90.00000000
_cell_angle_beta   111.56684153
_cell_angle_gamma   90.00000000
_symmetry_Int_Tables_number   1
_chemical_formula_structural   MnPH2O5
_chemical_formula_sum   'Mn4 P4 H8 O20'
_cell_volume   372.87880624
_cell_formula_units_Z   4
loop_
 _symmetry_equiv_pos_site_id
 _symmetry_equiv_pos_as_xyz
  1  'x, y, z'
loop_
 _atom_site_type_symbol
 _atom_site_label
 _atom_site_symmetry_multiplicity
 _atom_site_fract_x
 _atom_site_fract_y
 _atom_site_fract_z
 _atom_site_occupancy
  Mn  Mn0  1  0.75000000  0.75000000  0.50000000  1
  Mn  Mn1  1  0.75000000  0.25000000  0.00000000  1
  Mn  Mn2  1  0.25000000  0.25000000  0.50000000  1
  Mn  Mn3  1  0.25000000  0.75000000  0.00000000  1
  P  P4  1  0.50000000  0.92592550  0.75000000  1
  P  P5  1  0.50000000  0.07407450  0.25000000  1
  P  P6  1  0.00000000  0.42592550  0.75000000  1
  P  P7  1  0.00000000  0.57407450  0.25000000  1
  H  H8  1  0.09127850  0.97311150  0.70542275  1
  H  H9  1  0.90872150  0.97311150  0.79457725  1
  H  H10  1  0.90872150  0.02688850  0.29457725  1
  H  H11  1  0.09127850  0.02688850  0.20542275  1
  H  H12  1  0.59127850  0.47311150  0.70542275  1
  H  H13  1  0.40872150  0.47311150  0.79457725  1
  H  H14  1  0.40872150  0.52688850  0.29457725  1
  H  H15  1  0.59127850  0.52688850  0.20542275  1
  O  O16  1  0.50000000  0.60246300  0.25000000  1
  O  O17  1  0.50000000  0.39753700  0.75000000  1
  O  O18  1  0.46227325  0.81071025  0.90135525  1
  O  O19  1  0.53772675  0.81071025  0.59864475  1
  O  O20  1  0.53772675  0.18928975  0.09864475  1
  O  O21  1  0.46227325  0.18928975  0.40135525  1
  O  O22  1  0.30206150  0.04082800  0.65688725  1
  O  O23  1  0.69793850  0.04082800  0.84311275  1
  O  O24  1  0.69793850  0.95917200  0.34311275  1
  O  O25  1  0.30206150  0.95917200  0.15688725  1
  O  O26  1  0.00000000  0.10246300  0.25000000  1
  O  O27  1  0.00000000  0.89753700  0.75000000  1
  O  O28  1  0.96227325  0.31071025  0.90135525  1
  O  O29  1  0.03772675  0.31071025  0.59864475  1
  O  O30  1  0.03772675  0.68928975  0.09864475  1
  O  O31  1  0.96227325  0.68928975  0.40135525  1
  O  O32  1  0.80206150  0.54082800  0.65688725  1
  O  O33  1  0.19793850  0.54082800  0.84311275  1
  O  O34  1  0.19793850  0.45917200  0.34311275  1
  O  O35  1  0.80206150  0.45917200  0.15688725  1
