# generated using pymatgen
data_Cs2Mo3SeO12
_symmetry_space_group_name_H-M   'P 1'
_cell_length_a   7.41850868
_cell_length_b   7.41850868
_cell_length_c   12.96140552
_cell_angle_alpha   90.00000000
_cell_angle_beta   90.00000000
_cell_angle_gamma   120.00000000
_symmetry_Int_Tables_number   1
_chemical_formula_structural   Cs2Mo3SeO12
_chemical_formula_sum   'Cs4 Mo6 Se2 O24'
_cell_volume   617.75454361
_cell_formula_units_Z   2
loop_
 _symmetry_equiv_pos_site_id
 _symmetry_equiv_pos_as_xyz
  1  'x, y, z'
loop_
 _atom_site_type_symbol
 _atom_site_label
 _atom_site_symmetry_multiplicity
 _atom_site_fract_x
 _atom_site_fract_y
 _atom_site_fract_z
 _atom_site_occupancy
  Cs  Cs0  1  0.66666667  0.33333333  0.22897430  1
  Cs  Cs1  1  0.33333333  0.66666667  0.72897430  1
  Cs  Cs2  1  0.66666667  0.33333333  0.60173281  1
  Cs  Cs3  1  0.33333333  0.66666667  0.10173281  1
  Mo  Mo4  1  0.80321187  0.66127850  0.89776616  1
  Mo  Mo5  1  0.66127850  0.85806663  0.39776616  1
  Mo  Mo6  1  0.85806663  0.19678813  0.89776616  1
  Mo  Mo7  1  0.14193337  0.80321187  0.39776616  1
  Mo  Mo8  1  0.33872150  0.14193337  0.89776616  1
  Mo  Mo9  1  0.19678813  0.33872150  0.39776616  1
  Se  Se10  1  0.00000000  0.00000000  0.17859453  1
  Se  Se11  1  0.00000000  0.00000000  0.67859453  1
  O  O12  1  0.75279796  0.87080855  0.23380859  1
  O  O13  1  0.88198941  0.75279796  0.73380859  1
  O  O14  1  0.87080855  0.11801059  0.73380859  1
  O  O15  1  0.12919145  0.88198941  0.23380859  1
  O  O16  1  0.11801059  0.24720204  0.23380859  1
  O  O17  1  0.24720204  0.12919145  0.73380859  1
  O  O18  1  0.45334726  0.91180167  0.35603178  1
  O  O19  1  0.54154559  0.45334726  0.85603178  1
  O  O20  1  0.91180167  0.45845441  0.85603178  1
  O  O21  1  0.08819833  0.54154559  0.35603178  1
  O  O22  1  0.45845441  0.54665274  0.35603178  1
  O  O23  1  0.54665274  0.08819833  0.85603178  1
  O  O24  1  0.12288398  0.87245082  0.90773003  1
  O  O25  1  0.25043316  0.12288398  0.40773003  1
  O  O26  1  0.87245082  0.74956684  0.40773003  1
  O  O27  1  0.12754918  0.25043316  0.90773003  1
  O  O28  1  0.74956684  0.87711602  0.90773003  1
  O  O29  1  0.87711602  0.12754918  0.40773003  1
  O  O30  1  0.60111969  0.80134697  0.52799540  1
  O  O31  1  0.20022728  0.39888031  0.52799540  1
  O  O32  1  0.19865303  0.79977272  0.52799540  1
  O  O33  1  0.80134697  0.20022728  0.02799540  1
  O  O34  1  0.79977272  0.60111969  0.02799540  1
  O  O35  1  0.39888031  0.19865303  0.02799540  1
