# generated using pymatgen
data_Ba2Mg3Si4
_symmetry_space_group_name_H-M   'P 1'
_cell_length_a   12.14819400
_cell_length_b   4.63811800
_cell_length_c   15.69538581
_cell_angle_alpha   90.00000000
_cell_angle_beta   94.91718540
_cell_angle_gamma   90.00000000
_symmetry_Int_Tables_number   1
_chemical_formula_structural   Ba2Mg3Si4
_chemical_formula_sum   'Ba8 Mg12 Si16'
_cell_volume   881.09795935
_cell_formula_units_Z   4
loop_
 _symmetry_equiv_pos_site_id
 _symmetry_equiv_pos_as_xyz
  1  'x, y, z'
loop_
 _atom_site_type_symbol
 _atom_site_label
 _atom_site_symmetry_multiplicity
 _atom_site_fract_x
 _atom_site_fract_y
 _atom_site_fract_z
 _atom_site_occupancy
  Ba  Ba0  1  0.84219300  0.00000000  0.40985900  1
  Ba  Ba1  1  0.65780700  0.50000000  0.59014100  1
  Ba  Ba2  1  0.94110500  0.00000000  0.13460000  1
  Ba  Ba3  1  0.55889500  0.50000000  0.86540000  1
  Ba  Ba4  1  0.34219300  0.50000000  0.40985900  1
  Ba  Ba5  1  0.15780700  0.00000000  0.59014100  1
  Ba  Ba6  1  0.44110500  0.50000000  0.13460000  1
  Ba  Ba7  1  0.05889500  0.00000000  0.86540000  1
  Mg  Mg8  1  0.66226200  0.00000000  0.20544400  1
  Mg  Mg9  1  0.83773800  0.50000000  0.79455600  1
  Mg  Mg10  1  0.60656900  0.50000000  0.34582900  1
  Mg  Mg11  1  0.89343100  0.00000000  0.65417100  1
  Mg  Mg12  1  0.71951500  0.50000000  0.06882000  1
  Mg  Mg13  1  0.78048500  0.00000000  0.93118000  1
  Mg  Mg14  1  0.16226200  0.50000000  0.20544400  1
  Mg  Mg15  1  0.33773800  0.00000000  0.79455600  1
  Mg  Mg16  1  0.10656900  0.00000000  0.34582900  1
  Mg  Mg17  1  0.39343100  0.50000000  0.65417100  1
  Mg  Mg18  1  0.21951500  0.00000000  0.06882000  1
  Mg  Mg19  1  0.28048500  0.50000000  0.93118000  1
  Si  Si20  1  0.78023900  0.50000000  0.24578800  1
  Si  Si21  1  0.56043700  0.00000000  0.44279500  1
  Si  Si22  1  0.59889700  0.00000000  0.02976700  1
  Si  Si23  1  0.90110300  0.50000000  0.97023300  1
  Si  Si24  1  0.52354900  0.00000000  0.70436100  1
  Si  Si25  1  0.97645100  0.50000000  0.29563900  1
  Si  Si26  1  0.93956300  0.50000000  0.55720500  1
  Si  Si27  1  0.71976100  0.00000000  0.75421200  1
  Si  Si28  1  0.28023900  0.00000000  0.24578800  1
  Si  Si29  1  0.06043700  0.50000000  0.44279500  1
  Si  Si30  1  0.09889700  0.50000000  0.02976700  1
  Si  Si31  1  0.40110300  0.00000000  0.97023300  1
  Si  Si32  1  0.02354900  0.50000000  0.70436100  1
  Si  Si33  1  0.47645100  0.00000000  0.29563900  1
  Si  Si34  1  0.43956300  0.00000000  0.55720500  1
  Si  Si35  1  0.21976100  0.50000000  0.75421200  1
