# generated using pymatgen
data_Zr6BCl14
_symmetry_space_group_name_H-M   'P 1'
_cell_length_a   13.00208000
_cell_length_b   14.49969200
_cell_length_c   11.72198400
_cell_angle_alpha   90.00000000
_cell_angle_beta   90.00000000
_cell_angle_gamma   90.00000000
_symmetry_Int_Tables_number   1
_chemical_formula_structural   Zr6BCl14
_chemical_formula_sum   'Zr24 B4 Cl56'
_cell_volume   2209.90057670
_cell_formula_units_Z   4
loop_
 _symmetry_equiv_pos_site_id
 _symmetry_equiv_pos_as_xyz
  1  'x, y, z'
loop_
 _atom_site_type_symbol
 _atom_site_label
 _atom_site_symmetry_multiplicity
 _atom_site_fract_x
 _atom_site_fract_y
 _atom_site_fract_z
 _atom_site_occupancy
  Zr  Zr0  1  0.64832500  0.00000000  0.10784300  1
  Zr  Zr1  1  0.85167500  0.00000000  0.60784300  1
  Zr  Zr2  1  0.14832500  0.00000000  0.39215700  1
  Zr  Zr3  1  0.35167500  0.00000000  0.89215700  1
  Zr  Zr4  1  0.57023700  0.88244200  0.88326000  1
  Zr  Zr5  1  0.42976300  0.61755800  0.38326000  1
  Zr  Zr6  1  0.57023700  0.61755800  0.61674000  1
  Zr  Zr7  1  0.42976300  0.88244200  0.11674000  1
  Zr  Zr8  1  0.42976300  0.11755800  0.11674000  1
  Zr  Zr9  1  0.57023700  0.38244200  0.61674000  1
  Zr  Zr10  1  0.42976300  0.38244200  0.38326000  1
  Zr  Zr11  1  0.57023700  0.11755800  0.88326000  1
  Zr  Zr12  1  0.14832500  0.50000000  0.10784300  1
  Zr  Zr13  1  0.35167500  0.50000000  0.60784300  1
  Zr  Zr14  1  0.64832500  0.50000000  0.39215700  1
  Zr  Zr15  1  0.85167500  0.50000000  0.89215700  1
  Zr  Zr16  1  0.07023700  0.38244200  0.88326000  1
  Zr  Zr17  1  0.92976300  0.11755800  0.38326000  1
  Zr  Zr18  1  0.07023700  0.11755800  0.61674000  1
  Zr  Zr19  1  0.92976300  0.38244200  0.11674000  1
  Zr  Zr20  1  0.92976300  0.61755800  0.11674000  1
  Zr  Zr21  1  0.07023700  0.88244200  0.61674000  1
  Zr  Zr22  1  0.92976300  0.88244200  0.38326000  1
  Zr  Zr23  1  0.07023700  0.61755800  0.88326000  1
  B  B24  1  0.50000000  0.00000000  0.00000000  1
  B  B25  1  0.00000000  0.00000000  0.50000000  1
  B  B26  1  0.00000000  0.50000000  0.00000000  1
  B  B27  1  0.50000000  0.50000000  0.50000000  1
  Cl  Cl28  1  0.50000000  0.74946000  0.50000000  1
  Cl  Cl29  1  0.50000000  0.75054000  0.00000000  1
  Cl  Cl30  1  0.50000000  0.25054000  0.50000000  1
  Cl  Cl31  1  0.50000000  0.24946000  0.00000000  1
  Cl  Cl32  1  0.84227700  0.00000000  0.24123800  1
  Cl  Cl33  1  0.65772300  0.00000000  0.74123800  1
  Cl  Cl34  1  0.34227700  0.00000000  0.25876200  1
  Cl  Cl35  1  0.15772300  0.00000000  0.75876200  1
  Cl  Cl36  1  0.35253600  0.25000000  0.25000000  1
  Cl  Cl37  1  0.64746400  0.25000000  0.75000000  1
  Cl  Cl38  1  0.58566450  0.37904050  0.25162900  1
  Cl  Cl39  1  0.41433550  0.12095950  0.75162900  1
  Cl  Cl40  1  0.58566450  0.12095950  0.24837100  1
  Cl  Cl41  1  0.41433550  0.37904050  0.74837100  1
  Cl  Cl42  1  0.41433550  0.62095950  0.74837100  1
  Cl  Cl43  1  0.58566450  0.87904050  0.24837100  1
  Cl  Cl44  1  0.41433550  0.87904050  0.75162900  1
  Cl  Cl45  1  0.58566450  0.62095950  0.25162900  1
  Cl  Cl46  1  0.25954250  0.87738850  0.00850000  1
  Cl  Cl47  1  0.24045750  0.12261150  0.50850000  1
  Cl  Cl48  1  0.75954250  0.12261150  0.49150000  1
  Cl  Cl49  1  0.74045750  0.87738850  0.99150000  1
  Cl  Cl50  1  0.74045750  0.12261150  0.99150000  1
  Cl  Cl51  1  0.75954250  0.87738850  0.49150000  1
  Cl  Cl52  1  0.24045750  0.87738850  0.50850000  1
  Cl  Cl53  1  0.25954250  0.12261150  0.00850000  1
  Cl  Cl54  1  0.35253600  0.75000000  0.25000000  1
  Cl  Cl55  1  0.64746400  0.75000000  0.75000000  1
  Cl  Cl56  1  0.00000000  0.24946000  0.50000000  1
  Cl  Cl57  1  0.00000000  0.25054000  0.00000000  1
  Cl  Cl58  1  0.00000000  0.75054000  0.50000000  1
  Cl  Cl59  1  0.00000000  0.74946000  0.00000000  1
  Cl  Cl60  1  0.34227700  0.50000000  0.24123800  1
  Cl  Cl61  1  0.15772300  0.50000000  0.74123800  1
  Cl  Cl62  1  0.84227700  0.50000000  0.25876200  1
  Cl  Cl63  1  0.65772300  0.50000000  0.75876200  1
  Cl  Cl64  1  0.85253600  0.75000000  0.25000000  1
  Cl  Cl65  1  0.14746400  0.75000000  0.75000000  1
  Cl  Cl66  1  0.08566450  0.87904050  0.25162900  1
  Cl  Cl67  1  0.91433550  0.62095950  0.75162900  1
  Cl  Cl68  1  0.08566450  0.62095950  0.24837100  1
  Cl  Cl69  1  0.91433550  0.87904050  0.74837100  1
  Cl  Cl70  1  0.91433550  0.12095950  0.74837100  1
  Cl  Cl71  1  0.08566450  0.37904050  0.24837100  1
  Cl  Cl72  1  0.91433550  0.37904050  0.75162900  1
  Cl  Cl73  1  0.08566450  0.12095950  0.25162900  1
  Cl  Cl74  1  0.75954250  0.37738850  0.00850000  1
  Cl  Cl75  1  0.74045750  0.62261150  0.50850000  1
  Cl  Cl76  1  0.25954250  0.62261150  0.49150000  1
  Cl  Cl77  1  0.24045750  0.37738850  0.99150000  1
  Cl  Cl78  1  0.24045750  0.62261150  0.99150000  1
  Cl  Cl79  1  0.25954250  0.37738850  0.49150000  1
  Cl  Cl80  1  0.74045750  0.37738850  0.50850000  1
  Cl  Cl81  1  0.75954250  0.62261150  0.00850000  1
  Cl  Cl82  1  0.85253600  0.25000000  0.25000000  1
  Cl  Cl83  1  0.14746400  0.25000000  0.75000000  1
