# generated using pymatgen
data_Er7(NiTe)2
_symmetry_space_group_name_H-M   'P 1'
_cell_length_a   3.82903400
_cell_length_b   9.51540400
_cell_length_c   15.47975600
_cell_angle_alpha   90.00000000
_cell_angle_beta   90.00000000
_cell_angle_gamma   90.00000000
_symmetry_Int_Tables_number   1
_chemical_formula_structural   Er7(NiTe)2
_chemical_formula_sum   'Er14 Ni4 Te4'
_cell_volume   564.00189811
_cell_formula_units_Z   2
loop_
 _symmetry_equiv_pos_site_id
 _symmetry_equiv_pos_as_xyz
  1  'x, y, z'
loop_
 _atom_site_type_symbol
 _atom_site_label
 _atom_site_symmetry_multiplicity
 _atom_site_fract_x
 _atom_site_fract_y
 _atom_site_fract_z
 _atom_site_occupancy
  Er  Er0  1  0.50000000  0.81790300  0.00000000  1
  Er  Er1  1  0.50000000  0.43964200  0.31488850  1
  Er  Er2  1  0.50000000  0.43964200  0.68511150  1
  Er  Er3  1  0.00000000  0.58929400  0.85352350  1
  Er  Er4  1  0.00000000  0.58929400  0.14647650  1
  Er  Er5  1  0.50000000  0.23617350  0.13349900  1
  Er  Er6  1  0.50000000  0.23617350  0.86650100  1
  Er  Er7  1  0.00000000  0.31790300  0.50000000  1
  Er  Er8  1  0.00000000  0.93964200  0.81488850  1
  Er  Er9  1  0.00000000  0.93964200  0.18511150  1
  Er  Er10  1  0.50000000  0.08929400  0.35352350  1
  Er  Er11  1  0.50000000  0.08929400  0.64647650  1
  Er  Er12  1  0.00000000  0.73617350  0.63349900  1
  Er  Er13  1  0.00000000  0.73617350  0.36650100  1
  Ni  Ni14  1  0.50000000  0.74653600  0.76294550  1
  Ni  Ni15  1  0.50000000  0.74653600  0.23705450  1
  Ni  Ni16  1  0.00000000  0.24653600  0.26294550  1
  Ni  Ni17  1  0.00000000  0.24653600  0.73705450  1
  Te  Te18  1  0.00000000  0.08324500  0.00000000  1
  Te  Te19  1  0.50000000  0.48092100  0.00000000  1
  Te  Te20  1  0.50000000  0.58324500  0.50000000  1
  Te  Te21  1  0.00000000  0.98092100  0.50000000  1
