# generated using pymatgen
data_BaPb3
_symmetry_space_group_name_H-M   'P 1'
_cell_length_a   7.43996559
_cell_length_b   7.43996559
_cell_length_c   26.28647290
_cell_angle_alpha   90.00000000
_cell_angle_beta   90.00000000
_cell_angle_gamma   120.00000000
_symmetry_Int_Tables_number   1
_chemical_formula_structural   BaPb3
_chemical_formula_sum   'Ba9 Pb27'
_cell_volume   1260.09939335
_cell_formula_units_Z   9
loop_
 _symmetry_equiv_pos_site_id
 _symmetry_equiv_pos_as_xyz
  1  'x, y, z'
loop_
 _atom_site_type_symbol
 _atom_site_label
 _atom_site_symmetry_multiplicity
 _atom_site_fract_x
 _atom_site_fract_y
 _atom_site_fract_z
 _atom_site_occupancy
  Ba  Ba0  1  0.66666667  0.33333333  0.11595633  1
  Ba  Ba1  1  0.00000000  0.00000000  0.21737700  1
  Ba  Ba2  1  0.00000000  0.00000000  0.00000000  1
  Ba  Ba3  1  0.33333333  0.66666667  0.44928967  1
  Ba  Ba4  1  0.66666667  0.33333333  0.55071033  1
  Ba  Ba5  1  0.66666667  0.33333333  0.33333333  1
  Ba  Ba6  1  0.00000000  0.00000000  0.78262300  1
  Ba  Ba7  1  0.33333333  0.66666667  0.88404367  1
  Ba  Ba8  1  0.33333333  0.66666667  0.66666667  1
  Pb  Pb9  1  0.18788867  0.81211133  0.10999833  1
  Pb  Pb10  1  0.62422267  0.81211133  0.10999833  1
  Pb  Pb11  1  0.18788867  0.37577733  0.10999833  1
  Pb  Pb12  1  0.50000000  0.00000000  0.00000000  1
  Pb  Pb13  1  0.50000000  0.50000000  0.00000000  1
  Pb  Pb14  1  0.00000000  0.50000000  0.00000000  1
  Pb  Pb15  1  0.47877800  0.52122200  0.22333500  1
  Pb  Pb16  1  0.47877800  0.95755600  0.22333500  1
  Pb  Pb17  1  0.04244400  0.52122200  0.22333500  1
  Pb  Pb18  1  0.85455533  0.14544467  0.44333167  1
  Pb  Pb19  1  0.29088933  0.14544467  0.44333167  1
  Pb  Pb20  1  0.85455533  0.70911067  0.44333167  1
  Pb  Pb21  1  0.16666667  0.33333333  0.33333333  1
  Pb  Pb22  1  0.16666667  0.83333333  0.33333333  1
  Pb  Pb23  1  0.66666667  0.83333333  0.33333333  1
  Pb  Pb24  1  0.14544467  0.85455533  0.55666833  1
  Pb  Pb25  1  0.14544467  0.29088933  0.55666833  1
  Pb  Pb26  1  0.70911067  0.85455533  0.55666833  1
  Pb  Pb27  1  0.52122200  0.47877800  0.77666500  1
  Pb  Pb28  1  0.95755600  0.47877800  0.77666500  1
  Pb  Pb29  1  0.52122200  0.04244400  0.77666500  1
  Pb  Pb30  1  0.83333333  0.66666667  0.66666667  1
  Pb  Pb31  1  0.83333333  0.16666667  0.66666667  1
  Pb  Pb32  1  0.33333333  0.16666667  0.66666667  1
  Pb  Pb33  1  0.81211133  0.18788867  0.89000167  1
  Pb  Pb34  1  0.81211133  0.62422267  0.89000167  1
  Pb  Pb35  1  0.37577733  0.18788867  0.89000167  1
