# generated using pymatgen
data_Bi2WO6
_symmetry_space_group_name_H-M   'P 1'
_cell_length_a   5.54305400
_cell_length_b   17.12607800
_cell_length_c   5.50005900
_cell_angle_alpha   90.00000000
_cell_angle_beta   90.00000000
_cell_angle_gamma   90.00000000
_symmetry_Int_Tables_number   1
_chemical_formula_structural   Bi2WO6
_chemical_formula_sum   'Bi8 W4 O24'
_cell_volume   522.12486431
_cell_formula_units_Z   4
loop_
 _symmetry_equiv_pos_site_id
 _symmetry_equiv_pos_as_xyz
  1  'x, y, z'
loop_
 _atom_site_type_symbol
 _atom_site_label
 _atom_site_symmetry_multiplicity
 _atom_site_fract_x
 _atom_site_fract_y
 _atom_site_fract_z
 _atom_site_occupancy
  Bi  Bi0  1  0.54644500  0.17453300  0.02501600  1
  Bi  Bi1  1  0.04644500  0.32546700  0.97498400  1
  Bi  Bi2  1  0.04644500  0.17453300  0.47498400  1
  Bi  Bi3  1  0.54644500  0.32546700  0.52501600  1
  Bi  Bi4  1  0.04644500  0.67453300  0.02501600  1
  Bi  Bi5  1  0.54644500  0.82546700  0.97498400  1
  Bi  Bi6  1  0.54644500  0.67453300  0.47498400  1
  Bi  Bi7  1  0.04644500  0.82546700  0.52501600  1
  W  W8  1  0.48913300  0.00000000  0.50000000  1
  W  W9  1  0.98913300  0.00000000  0.00000000  1
  W  W10  1  0.98913300  0.50000000  0.50000000  1
  W  W11  1  0.48913300  0.50000000  0.00000000  1
  O  O12  1  0.43307000  0.10586400  0.40750400  1
  O  O13  1  0.93307000  0.39413600  0.59249600  1
  O  O14  1  0.93307000  0.10586400  0.09249600  1
  O  O15  1  0.43307000  0.39413600  0.90750400  1
  O  O16  1  0.71136300  0.47624700  0.24496500  1
  O  O17  1  0.21136300  0.02375300  0.75503500  1
  O  O18  1  0.76955550  0.24988150  0.76203400  1
  O  O19  1  0.26955550  0.25011850  0.23796600  1
  O  O20  1  0.26955550  0.24988150  0.73796600  1
  O  O21  1  0.76955550  0.25011850  0.26203400  1
  O  O22  1  0.71136300  0.02375300  0.74496500  1
  O  O23  1  0.21136300  0.47624700  0.25503500  1
  O  O24  1  0.93307000  0.60586400  0.40750400  1
  O  O25  1  0.43307000  0.89413600  0.59249600  1
  O  O26  1  0.43307000  0.60586400  0.09249600  1
  O  O27  1  0.93307000  0.89413600  0.90750400  1
  O  O28  1  0.21136300  0.97624700  0.24496500  1
  O  O29  1  0.71136300  0.52375300  0.75503500  1
  O  O30  1  0.26955550  0.74988150  0.76203400  1
  O  O31  1  0.76955550  0.75011850  0.23796600  1
  O  O32  1  0.76955550  0.74988150  0.73796600  1
  O  O33  1  0.26955550  0.75011850  0.26203400  1
  O  O34  1  0.21136300  0.52375300  0.74496500  1
  O  O35  1  0.71136300  0.97624700  0.25503500  1
