# generated using pymatgen
data_Eu(Sb3Ru)4
_symmetry_space_group_name_H-M   'P 1'
_cell_length_a   9.40702000
_cell_length_b   9.40702000
_cell_length_c   9.40702000
_cell_angle_alpha   90.00000000
_cell_angle_beta   90.00000000
_cell_angle_gamma   90.00000000
_symmetry_Int_Tables_number   1
_chemical_formula_structural   Eu(Sb3Ru)4
_chemical_formula_sum   'Eu2 Sb24 Ru8'
_cell_volume   832.44625165
_cell_formula_units_Z   2
loop_
 _symmetry_equiv_pos_site_id
 _symmetry_equiv_pos_as_xyz
  1  'x, y, z'
loop_
 _atom_site_type_symbol
 _atom_site_label
 _atom_site_symmetry_multiplicity
 _atom_site_fract_x
 _atom_site_fract_y
 _atom_site_fract_z
 _atom_site_occupancy
  Eu  Eu0  1  0.00000000  0.00000000  0.00000000  1
  Eu  Eu1  1  0.50000000  0.50000000  0.50000000  1
  Sb  Sb2  1  0.34113800  0.15870600  0.50000000  1
  Sb  Sb3  1  0.15886200  0.34129400  0.00000000  1
  Sb  Sb4  1  0.84129400  0.50000000  0.34113800  1
  Sb  Sb5  1  0.00000000  0.15886200  0.65870600  1
  Sb  Sb6  1  0.15870600  0.50000000  0.34113800  1
  Sb  Sb7  1  0.50000000  0.34113800  0.84129400  1
  Sb  Sb8  1  0.65870600  0.00000000  0.15886200  1
  Sb  Sb9  1  0.50000000  0.34113800  0.15870600  1
  Sb  Sb10  1  0.00000000  0.15886200  0.34129400  1
  Sb  Sb11  1  0.34129400  0.00000000  0.15886200  1
  Sb  Sb12  1  0.34113800  0.84129400  0.50000000  1
  Sb  Sb13  1  0.15886200  0.65870600  0.00000000  1
  Sb  Sb14  1  0.84113800  0.65870600  0.00000000  1
  Sb  Sb15  1  0.65886200  0.84129400  0.50000000  1
  Sb  Sb16  1  0.34129400  0.00000000  0.84113800  1
  Sb  Sb17  1  0.50000000  0.65886200  0.15870600  1
  Sb  Sb18  1  0.65870600  0.00000000  0.84113800  1
  Sb  Sb19  1  0.00000000  0.84113800  0.34129400  1
  Sb  Sb20  1  0.15870600  0.50000000  0.65886200  1
  Sb  Sb21  1  0.00000000  0.84113800  0.65870600  1
  Sb  Sb22  1  0.50000000  0.65886200  0.84129400  1
  Sb  Sb23  1  0.84129400  0.50000000  0.65886200  1
  Sb  Sb24  1  0.84113800  0.34129400  0.00000000  1
  Sb  Sb25  1  0.65886200  0.15870600  0.50000000  1
  Ru  Ru26  1  0.25000000  0.25000000  0.25000000  1
  Ru  Ru27  1  0.25000000  0.25000000  0.75000000  1
  Ru  Ru28  1  0.75000000  0.25000000  0.25000000  1
  Ru  Ru29  1  0.25000000  0.75000000  0.25000000  1
  Ru  Ru30  1  0.75000000  0.75000000  0.75000000  1
  Ru  Ru31  1  0.75000000  0.75000000  0.25000000  1
  Ru  Ru32  1  0.25000000  0.75000000  0.75000000  1
  Ru  Ru33  1  0.75000000  0.25000000  0.75000000  1
