# generated using pymatgen
data_LaFe3(BO3)4
_symmetry_space_group_name_H-M   'P 1'
_cell_length_a   9.71669447
_cell_length_b   9.71669447
_cell_length_c   7.77168236
_cell_angle_alpha   90.00000000
_cell_angle_beta   90.00000000
_cell_angle_gamma   120.00000000
_symmetry_Int_Tables_number   1
_chemical_formula_structural   LaFe3(BO3)4
_chemical_formula_sum   'La3 Fe9 B12 O36'
_cell_volume   635.45202514
_cell_formula_units_Z   3
loop_
 _symmetry_equiv_pos_site_id
 _symmetry_equiv_pos_as_xyz
  1  'x, y, z'
loop_
 _atom_site_type_symbol
 _atom_site_label
 _atom_site_symmetry_multiplicity
 _atom_site_fract_x
 _atom_site_fract_y
 _atom_site_fract_z
 _atom_site_occupancy
  La  La0  1  0.00000000  0.00000000  0.00000000  1
  La  La1  1  0.66666667  0.33333333  0.33333333  1
  La  La2  1  0.33333333  0.66666667  0.66666667  1
  Fe  Fe3  1  0.11516767  0.33333333  0.33333333  1
  Fe  Fe4  1  0.66666667  0.78183433  0.33333333  1
  Fe  Fe5  1  0.21816567  0.88483233  0.33333333  1
  Fe  Fe6  1  0.78183433  0.66666667  0.66666667  1
  Fe  Fe7  1  0.33333333  0.11516767  0.66666667  1
  Fe  Fe8  1  0.88483233  0.21816567  0.66666667  1
  Fe  Fe9  1  0.44850100  0.00000000  0.00000000  1
  Fe  Fe10  1  0.00000000  0.44850100  0.00000000  1
  Fe  Fe11  1  0.55149900  0.55149900  0.00000000  1
  B  B12  1  0.55470000  0.00000000  0.50000000  1
  B  B13  1  0.00000000  0.55470000  0.50000000  1
  B  B14  1  0.44530000  0.44530000  0.50000000  1
  B  B15  1  0.00000000  0.00000000  0.50000000  1
  B  B16  1  0.22136667  0.33333333  0.83333333  1
  B  B17  1  0.66666667  0.88803333  0.83333333  1
  B  B18  1  0.11196667  0.77863333  0.83333333  1
  B  B19  1  0.66666667  0.33333333  0.83333333  1
  B  B20  1  0.88803333  0.66666667  0.16666667  1
  B  B21  1  0.33333333  0.22136667  0.16666667  1
  B  B22  1  0.77863333  0.11196667  0.16666667  1
  B  B23  1  0.33333333  0.66666667  0.16666667  1
  O  O24  1  0.69280433  0.14336467  0.52042867  1
  O  O25  1  0.30719567  0.45056033  0.47957133  1
  O  O26  1  0.14336467  0.69280433  0.47957133  1
  O  O27  1  0.54943967  0.85663533  0.47957133  1
  O  O28  1  0.85674200  0.85674200  0.50000000  1
  O  O29  1  0.00000000  0.14325800  0.50000000  1
  O  O30  1  0.14325800  0.00000000  0.50000000  1
  O  O31  1  0.58866800  0.58866800  0.50000000  1
  O  O32  1  0.00000000  0.41133200  0.50000000  1
  O  O33  1  0.41133200  0.00000000  0.50000000  1
  O  O34  1  0.45056033  0.30719567  0.52042867  1
  O  O35  1  0.85663533  0.54943967  0.52042867  1
  O  O36  1  0.35947100  0.47669800  0.85376200  1
  O  O37  1  0.97386233  0.78389367  0.81290467  1
  O  O38  1  0.81003133  0.02613767  0.81290467  1
  O  O39  1  0.21610633  0.18996867  0.81290467  1
  O  O40  1  0.52340867  0.19007533  0.83333333  1
  O  O41  1  0.66666667  0.47659133  0.83333333  1
  O  O42  1  0.80992467  0.33333333  0.83333333  1
  O  O43  1  0.25533467  0.92200133  0.83333333  1
  O  O44  1  0.66666667  0.74466533  0.83333333  1
  O  O45  1  0.07799867  0.33333333  0.83333333  1
  O  O46  1  0.11722700  0.64052900  0.85376200  1
  O  O47  1  0.52330200  0.88277300  0.85376200  1
  O  O48  1  0.02613767  0.81003133  0.18709533  1
  O  O49  1  0.64052900  0.11722700  0.14623800  1
  O  O50  1  0.47669800  0.35947100  0.14623800  1
  O  O51  1  0.88277300  0.52330200  0.14623800  1
  O  O52  1  0.19007533  0.52340867  0.16666667  1
  O  O53  1  0.33333333  0.80992467  0.16666667  1
  O  O54  1  0.47659133  0.66666667  0.16666667  1
  O  O55  1  0.92200133  0.25533467  0.16666667  1
  O  O56  1  0.33333333  0.07799867  0.16666667  1
  O  O57  1  0.74466533  0.66666667  0.16666667  1
  O  O58  1  0.78389367  0.97386233  0.18709533  1
  O  O59  1  0.18996867  0.21610633  0.18709533  1
