# generated using pymatgen
data_Dy2(Ga3Ru)3
_symmetry_space_group_name_H-M   'P 1'
_cell_length_a   7.58782800
_cell_length_b   12.89228600
_cell_length_c   9.72756600
_cell_angle_alpha   90.00000000
_cell_angle_beta   90.00000000
_cell_angle_gamma   90.00000000
_symmetry_Int_Tables_number   1
_chemical_formula_structural   Dy2(Ga3Ru)3
_chemical_formula_sum   'Dy8 Ga36 Ru12'
_cell_volume   951.59378109
_cell_formula_units_Z   4
loop_
 _symmetry_equiv_pos_site_id
 _symmetry_equiv_pos_as_xyz
  1  'x, y, z'
loop_
 _atom_site_type_symbol
 _atom_site_label
 _atom_site_symmetry_multiplicity
 _atom_site_fract_x
 _atom_site_fract_y
 _atom_site_fract_z
 _atom_site_occupancy
  Dy  Dy0  1  0.16322550  0.16105850  0.75000000  1
  Dy  Dy1  1  0.83677450  0.83894150  0.25000000  1
  Dy  Dy2  1  0.16322550  0.83894150  0.75000000  1
  Dy  Dy3  1  0.83677450  0.16105850  0.25000000  1
  Dy  Dy4  1  0.66322550  0.66105850  0.75000000  1
  Dy  Dy5  1  0.33677450  0.33894150  0.25000000  1
  Dy  Dy6  1  0.66322550  0.33894150  0.75000000  1
  Dy  Dy7  1  0.33677450  0.66105850  0.25000000  1
  Ga  Ga8  1  0.86673500  0.00000000  0.75000000  1
  Ga  Ga9  1  0.13326500  0.00000000  0.25000000  1
  Ga  Ga10  1  0.66232000  0.00000000  0.43866500  1
  Ga  Ga11  1  0.33768000  0.00000000  0.93866500  1
  Ga  Ga12  1  0.66232000  0.00000000  0.06133500  1
  Ga  Ga13  1  0.33768000  0.00000000  0.56133500  1
  Ga  Ga14  1  0.55210100  0.89233200  0.75000000  1
  Ga  Ga15  1  0.44789900  0.10766800  0.25000000  1
  Ga  Ga16  1  0.55210100  0.10766800  0.75000000  1
  Ga  Ga17  1  0.44789900  0.89233200  0.25000000  1
  Ga  Ga18  1  0.17380400  0.83561100  0.07726600  1
  Ga  Ga19  1  0.82619600  0.16438900  0.57726600  1
  Ga  Ga20  1  0.17380400  0.16438900  0.42273400  1
  Ga  Ga21  1  0.82619600  0.83561100  0.92273400  1
  Ga  Ga22  1  0.82619600  0.16438900  0.92273400  1
  Ga  Ga23  1  0.17380400  0.83561100  0.42273400  1
  Ga  Ga24  1  0.82619600  0.83561100  0.57726600  1
  Ga  Ga25  1  0.17380400  0.16438900  0.07726600  1
  Ga  Ga26  1  0.36673500  0.50000000  0.75000000  1
  Ga  Ga27  1  0.63326500  0.50000000  0.25000000  1
  Ga  Ga28  1  0.16232000  0.50000000  0.43866500  1
  Ga  Ga29  1  0.83768000  0.50000000  0.93866500  1
  Ga  Ga30  1  0.16232000  0.50000000  0.06133500  1
  Ga  Ga31  1  0.83768000  0.50000000  0.56133500  1
  Ga  Ga32  1  0.05210100  0.39233200  0.75000000  1
  Ga  Ga33  1  0.94789900  0.60766800  0.25000000  1
  Ga  Ga34  1  0.05210100  0.60766800  0.75000000  1
  Ga  Ga35  1  0.94789900  0.39233200  0.25000000  1
  Ga  Ga36  1  0.67380400  0.33561100  0.07726600  1
  Ga  Ga37  1  0.32619600  0.66438900  0.57726600  1
  Ga  Ga38  1  0.67380400  0.66438900  0.42273400  1
  Ga  Ga39  1  0.32619600  0.33561100  0.92273400  1
  Ga  Ga40  1  0.32619600  0.66438900  0.92273400  1
  Ga  Ga41  1  0.67380400  0.33561100  0.42273400  1
  Ga  Ga42  1  0.32619600  0.33561100  0.57726600  1
  Ga  Ga43  1  0.67380400  0.66438900  0.07726600  1
  Ru  Ru44  1  0.00000000  0.00000000  0.50000000  1
  Ru  Ru45  1  0.00000000  0.00000000  0.00000000  1
  Ru  Ru46  1  0.50000000  0.17632000  0.50000000  1
  Ru  Ru47  1  0.50000000  0.82368000  0.00000000  1
  Ru  Ru48  1  0.50000000  0.82368000  0.50000000  1
  Ru  Ru49  1  0.50000000  0.17632000  0.00000000  1
  Ru  Ru50  1  0.50000000  0.50000000  0.50000000  1
  Ru  Ru51  1  0.50000000  0.50000000  0.00000000  1
  Ru  Ru52  1  0.00000000  0.67632000  0.50000000  1
  Ru  Ru53  1  0.00000000  0.32368000  0.00000000  1
  Ru  Ru54  1  0.00000000  0.32368000  0.50000000  1
  Ru  Ru55  1  0.00000000  0.67632000  0.00000000  1
