# generated using pymatgen
data_Nb3B3C
_symmetry_space_group_name_H-M   'P 1'
_cell_length_a   3.28113400
_cell_length_b   28.89691800
_cell_length_c   3.14221500
_cell_angle_alpha   90.00000000
_cell_angle_beta   90.00000000
_cell_angle_gamma   90.00000000
_symmetry_Int_Tables_number   1
_chemical_formula_structural   Nb3B3C
_chemical_formula_sum   'Nb12 B12 C4'
_cell_volume   297.92804733
_cell_formula_units_Z   4
loop_
 _symmetry_equiv_pos_site_id
 _symmetry_equiv_pos_as_xyz
  1  'x, y, z'
loop_
 _atom_site_type_symbol
 _atom_site_label
 _atom_site_symmetry_multiplicity
 _atom_site_fract_x
 _atom_site_fract_y
 _atom_site_fract_z
 _atom_site_occupancy
  Nb  Nb0  1  0.00000000  0.45323700  0.75000000  1
  Nb  Nb1  1  0.50000000  0.04676300  0.25000000  1
  Nb  Nb2  1  0.50000000  0.28741700  0.75000000  1
  Nb  Nb3  1  0.00000000  0.21258300  0.25000000  1
  Nb  Nb4  1  0.00000000  0.36211000  0.25000000  1
  Nb  Nb5  1  0.50000000  0.13789000  0.75000000  1
  Nb  Nb6  1  0.50000000  0.95323700  0.75000000  1
  Nb  Nb7  1  0.00000000  0.54676300  0.25000000  1
  Nb  Nb8  1  0.00000000  0.78741700  0.75000000  1
  Nb  Nb9  1  0.50000000  0.71258300  0.25000000  1
  Nb  Nb10  1  0.50000000  0.86211000  0.25000000  1
  Nb  Nb11  1  0.00000000  0.63789000  0.75000000  1
  B  B12  1  0.00000000  0.01544800  0.75000000  1
  B  B13  1  0.50000000  0.48455200  0.25000000  1
  B  B14  1  0.50000000  0.38788700  0.75000000  1
  B  B15  1  0.00000000  0.11211300  0.25000000  1
  B  B16  1  0.00000000  0.07904000  0.75000000  1
  B  B17  1  0.50000000  0.42096000  0.25000000  1
  B  B18  1  0.50000000  0.51544800  0.75000000  1
  B  B19  1  0.00000000  0.98455200  0.25000000  1
  B  B20  1  0.00000000  0.88788700  0.75000000  1
  B  B21  1  0.50000000  0.61211300  0.25000000  1
  B  B22  1  0.50000000  0.57904000  0.75000000  1
  B  B23  1  0.00000000  0.92096000  0.25000000  1
  C  C24  1  0.50000000  0.21221300  0.75000000  1
  C  C25  1  0.00000000  0.28778700  0.25000000  1
  C  C26  1  0.00000000  0.71221300  0.75000000  1
  C  C27  1  0.50000000  0.78778700  0.25000000  1
