# generated using pymatgen
data_KCr3H6(SO7)2
_symmetry_space_group_name_H-M   'P 1'
_cell_length_a   7.35928271
_cell_length_b   7.35928271
_cell_length_c   17.56754217
_cell_angle_alpha   90.00000000
_cell_angle_beta   90.00000000
_cell_angle_gamma   120.00000000
_symmetry_Int_Tables_number   1
_chemical_formula_structural   KCr3H6(SO7)2
_chemical_formula_sum   'K3 Cr9 H18 S6 O42'
_cell_volume   823.97229671
_cell_formula_units_Z   3
loop_
 _symmetry_equiv_pos_site_id
 _symmetry_equiv_pos_as_xyz
  1  'x, y, z'
loop_
 _atom_site_type_symbol
 _atom_site_label
 _atom_site_symmetry_multiplicity
 _atom_site_fract_x
 _atom_site_fract_y
 _atom_site_fract_z
 _atom_site_occupancy
  K  K0  1  0.33333333  0.66666667  0.66666667  1
  K  K1  1  1.00000000  1.00000000  0.00000000  1
  K  K2  1  0.66666667  0.33333333  0.33333333  1
  Cr  Cr3  1  0.33333333  0.16666667  0.16666667  1
  Cr  Cr4  1  0.16666667  0.83333333  0.83333333  1
  Cr  Cr5  1  0.50000000  0.00000000  0.50000000  1
  Cr  Cr6  1  0.00000000  0.50000000  0.50000000  1
  Cr  Cr7  1  0.83333333  0.16666667  0.16666667  1
  Cr  Cr8  1  0.16666667  0.33333333  0.83333333  1
  Cr  Cr9  1  0.66666667  0.83333333  0.83333333  1
  Cr  Cr10  1  0.50000000  0.50000000  0.50000000  1
  Cr  Cr11  1  0.83333333  0.66666667  0.16666667  1
  H  H12  1  0.80279333  0.60558667  0.88976267  1
  H  H13  1  0.80279333  0.19720667  0.88976267  1
  H  H14  1  0.39441333  0.19720667  0.88976267  1
  H  H15  1  0.93892000  0.46946000  0.77690400  1
  H  H16  1  0.53054000  0.06108000  0.77690400  1
  H  H17  1  0.53054000  0.46946000  0.77690400  1
  H  H18  1  0.46946000  0.93892000  0.22309600  1
  H  H19  1  0.46946000  0.53054000  0.22309600  1
  H  H20  1  0.06108000  0.53054000  0.22309600  1
  H  H21  1  0.60558667  0.80279333  0.11023733  1
  H  H22  1  0.19720667  0.39441333  0.11023733  1
  H  H23  1  0.19720667  0.80279333  0.11023733  1
  H  H24  1  0.13612667  0.27225333  0.55642933  1
  H  H25  1  0.13612667  0.86387333  0.55642933  1
  H  H26  1  0.72774667  0.86387333  0.55642933  1
  H  H27  1  0.27225333  0.13612667  0.44357067  1
  H  H28  1  0.86387333  0.72774667  0.44357067  1
  H  H29  1  0.86387333  0.13612667  0.44357067  1
  S  S30  1  0.66666667  0.33333333  0.02903017  1
  S  S31  1  0.66666667  0.33333333  0.63763650  1
  S  S32  1  0.33333333  0.66666667  0.36236350  1
  S  S33  1  0.33333333  0.66666667  0.97096983  1
  S  S34  1  0.00000000  0.00000000  0.69569683  1
  S  S35  1  0.00000000  0.00000000  0.30430317  1
  O  O36  1  0.66666667  0.33333333  0.72130533  1
  O  O37  1  0.66666667  0.33333333  0.94536133  1
  O  O38  1  0.55567383  0.44432617  0.60936867  1
  O  O39  1  0.55567383  0.11134767  0.60936867  1
  O  O40  1  0.88865233  0.44432617  0.60936867  1
  O  O41  1  0.44468100  0.22234050  0.05729800  1
  O  O42  1  0.77765950  0.22234050  0.05729800  1
  O  O43  1  0.77765950  0.55531900  0.05729800  1
  O  O44  1  0.46140500  0.53859500  0.80169800  1
  O  O45  1  0.46140500  0.92281000  0.80169800  1
  O  O46  1  0.07719000  0.53859500  0.80169800  1
  O  O47  1  0.25614333  0.12807167  0.86496867  1
  O  O48  1  0.87192833  0.12807167  0.86496867  1
  O  O49  1  0.87192833  0.74385667  0.86496867  1
  O  O50  1  0.33333333  0.66666667  0.05463867  1
  O  O51  1  0.33333333  0.66666667  0.27869467  1
  O  O52  1  0.22234050  0.77765950  0.94270200  1
  O  O53  1  0.22234050  0.44468100  0.94270200  1
  O  O54  1  0.55531900  0.77765950  0.94270200  1
  O  O55  1  0.11134767  0.55567383  0.39063133  1
  O  O56  1  0.44432617  0.55567383  0.39063133  1
  O  O57  1  0.44432617  0.88865233  0.39063133  1
  O  O58  1  0.12807167  0.87192833  0.13503133  1
  O  O59  1  0.12807167  0.25614333  0.13503133  1
  O  O60  1  0.74385667  0.87192833  0.13503133  1
  O  O61  1  0.92281000  0.46140500  0.19830200  1
  O  O62  1  0.53859500  0.46140500  0.19830200  1
  O  O63  1  0.53859500  0.07719000  0.19830200  1
  O  O64  1  0.00000000  0.00000000  0.38797200  1
  O  O65  1  0.00000000  0.00000000  0.61202800  1
  O  O66  1  0.88900717  0.11099283  0.27603533  1
  O  O67  1  0.88900717  0.77801433  0.27603533  1
  O  O68  1  0.22198567  0.11099283  0.27603533  1
  O  O69  1  0.77801433  0.88900717  0.72396467  1
  O  O70  1  0.11099283  0.88900717  0.72396467  1
  O  O71  1  0.11099283  0.22198567  0.72396467  1
  O  O72  1  0.79473833  0.20526167  0.46836467  1
  O  O73  1  0.79473833  0.58947667  0.46836467  1
  O  O74  1  0.41052333  0.20526167  0.46836467  1
  O  O75  1  0.58947667  0.79473833  0.53163533  1
  O  O76  1  0.20526167  0.79473833  0.53163533  1
  O  O77  1  0.20526167  0.41052333  0.53163533  1
