# generated using pymatgen
data_Mn2Si(P2O7)2
_symmetry_space_group_name_H-M   'P 1'
_cell_length_a   17.33845800
_cell_length_b   5.17296600
_cell_length_c   12.56241722
_cell_angle_alpha   90.00000000
_cell_angle_beta   103.13236797
_cell_angle_gamma   90.00000000
_symmetry_Int_Tables_number   1
_chemical_formula_structural   Mn2Si(P2O7)2
_chemical_formula_sum   'Mn8 Si4 P16 O56'
_cell_volume   1097.27221452
_cell_formula_units_Z   4
loop_
 _symmetry_equiv_pos_site_id
 _symmetry_equiv_pos_as_xyz
  1  'x, y, z'
loop_
 _atom_site_type_symbol
 _atom_site_label
 _atom_site_symmetry_multiplicity
 _atom_site_fract_x
 _atom_site_fract_y
 _atom_site_fract_z
 _atom_site_occupancy
  Mn  Mn0  1  0.75364050  0.84315550  0.36880600  1
  Mn  Mn1  1  0.74635950  0.34315550  0.13119400  1
  Mn  Mn2  1  0.74635950  0.65684450  0.63119400  1
  Mn  Mn3  1  0.75364050  0.15684450  0.86880600  1
  Mn  Mn4  1  0.25364050  0.34315550  0.36880600  1
  Mn  Mn5  1  0.24635950  0.84315550  0.13119400  1
  Mn  Mn6  1  0.24635950  0.15684450  0.63119400  1
  Mn  Mn7  1  0.25364050  0.65684450  0.86880600  1
  Si  Si8  1  0.00000000  0.14019500  0.25000000  1
  Si  Si9  1  0.00000000  0.85980500  0.75000000  1
  Si  Si10  1  0.50000000  0.64019500  0.25000000  1
  Si  Si11  1  0.50000000  0.35980500  0.75000000  1
  P  P12  1  0.86648850  0.16220750  0.58341200  1
  P  P13  1  0.63351150  0.66220750  0.91658800  1
  P  P14  1  0.63351150  0.33779250  0.41658800  1
  P  P15  1  0.86648850  0.83779250  0.08341200  1
  P  P16  1  0.87688500  0.34982400  0.36550600  1
  P  P17  1  0.62311500  0.84982400  0.13449400  1
  P  P18  1  0.62311500  0.15017600  0.63449400  1
  P  P19  1  0.87688500  0.65017600  0.86550600  1
  P  P20  1  0.36648850  0.66220750  0.58341200  1
  P  P21  1  0.13351150  0.16220750  0.91658800  1
  P  P22  1  0.13351150  0.83779250  0.41658800  1
  P  P23  1  0.36648850  0.33779250  0.08341200  1
  P  P24  1  0.37688500  0.84982400  0.36550600  1
  P  P25  1  0.12311500  0.34982400  0.13449400  1
  P  P26  1  0.12311500  0.65017600  0.63449400  1
  P  P27  1  0.37688500  0.15017600  0.86550600  1
  O  O28  1  0.93847950  0.04162150  0.66782200  1
  O  O29  1  0.56152050  0.54162150  0.83217800  1
  O  O30  1  0.56152050  0.45837850  0.33217800  1
  O  O31  1  0.93847950  0.95837850  0.16782200  1
  O  O32  1  0.69791150  0.53543950  0.45329000  1
  O  O33  1  0.80208850  0.03543950  0.04671000  1
  O  O34  1  0.80208850  0.96456050  0.54671000  1
  O  O35  1  0.69791150  0.46456050  0.95329000  1
  O  O36  1  0.65554150  0.08382950  0.37307400  1
  O  O37  1  0.84445850  0.58382950  0.12692600  1
  O  O38  1  0.84445850  0.41617050  0.62692600  1
  O  O39  1  0.65554150  0.91617050  0.87307400  1
  O  O40  1  0.90822000  0.21101000  0.48236600  1
  O  O41  1  0.59178000  0.71101000  0.01763400  1
  O  O42  1  0.95503350  0.66968150  0.82031500  1
  O  O43  1  0.54496650  0.16968150  0.67968500  1
  O  O44  1  0.54496650  0.83031850  0.17968500  1
  O  O45  1  0.95503350  0.33031850  0.32031500  1
  O  O46  1  0.85897750  0.36859150  0.87887000  1
  O  O47  1  0.64102250  0.86859150  0.62113000  1
  O  O48  1  0.64102250  0.13140850  0.12113000  1
  O  O49  1  0.85897750  0.63140850  0.37887000  1
  O  O50  1  0.68970400  0.31233500  0.70250700  1
  O  O51  1  0.81029600  0.81233500  0.79749300  1
  O  O52  1  0.81029600  0.18766500  0.29749300  1
  O  O53  1  0.68970400  0.68766500  0.20250700  1
  O  O54  1  0.90822000  0.78899000  0.98236600  1
  O  O55  1  0.59178000  0.28899000  0.51763400  1
  O  O56  1  0.43847950  0.54162150  0.66782200  1
  O  O57  1  0.06152050  0.04162150  0.83217800  1
  O  O58  1  0.06152050  0.95837850  0.33217800  1
  O  O59  1  0.43847950  0.45837850  0.16782200  1
  O  O60  1  0.19791150  0.03543950  0.45329000  1
  O  O61  1  0.30208850  0.53543950  0.04671000  1
  O  O62  1  0.30208850  0.46456050  0.54671000  1
  O  O63  1  0.19791150  0.96456050  0.95329000  1
  O  O64  1  0.15554150  0.58382950  0.37307400  1
  O  O65  1  0.34445850  0.08382950  0.12692600  1
  O  O66  1  0.34445850  0.91617050  0.62692600  1
  O  O67  1  0.15554150  0.41617050  0.87307400  1
  O  O68  1  0.40822000  0.71101000  0.48236600  1
  O  O69  1  0.09178000  0.21101000  0.01763400  1
  O  O70  1  0.45503350  0.16968150  0.82031500  1
  O  O71  1  0.04496650  0.66968150  0.67968500  1
  O  O72  1  0.04496650  0.33031850  0.17968500  1
  O  O73  1  0.45503350  0.83031850  0.32031500  1
  O  O74  1  0.35897750  0.86859150  0.87887000  1
  O  O75  1  0.14102250  0.36859150  0.62113000  1
  O  O76  1  0.14102250  0.63140850  0.12113000  1
  O  O77  1  0.35897750  0.13140850  0.37887000  1
  O  O78  1  0.18970400  0.81233500  0.70250700  1
  O  O79  1  0.31029600  0.31233500  0.79749300  1
  O  O80  1  0.31029600  0.68766500  0.29749300  1
  O  O81  1  0.18970400  0.18766500  0.20250700  1
  O  O82  1  0.40822000  0.28899000  0.98236600  1
  O  O83  1  0.09178000  0.78899000  0.51763400  1
