# generated using pymatgen
data_Ce4Sb3
_symmetry_space_group_name_H-M   'P 1'
_cell_length_a   9.44191400
_cell_length_b   9.44191400
_cell_length_c   9.44191400
_cell_angle_alpha   90.00000000
_cell_angle_beta   90.00000000
_cell_angle_gamma   90.00000000
_symmetry_Int_Tables_number   1
_chemical_formula_structural   Ce4Sb3
_chemical_formula_sum   'Ce16 Sb12'
_cell_volume   841.74417805
_cell_formula_units_Z   4
loop_
 _symmetry_equiv_pos_site_id
 _symmetry_equiv_pos_as_xyz
  1  'x, y, z'
loop_
 _atom_site_type_symbol
 _atom_site_label
 _atom_site_symmetry_multiplicity
 _atom_site_fract_x
 _atom_site_fract_y
 _atom_site_fract_z
 _atom_site_occupancy
  Ce  Ce0  1  0.17773400  0.67773400  0.82226600  1
  Ce  Ce1  1  0.82226600  0.17773400  0.67773400  1
  Ce  Ce2  1  0.07226600  0.07226600  0.07226600  1
  Ce  Ce3  1  0.67773400  0.82226600  0.17773400  1
  Ce  Ce4  1  0.92773400  0.42773400  0.07226600  1
  Ce  Ce5  1  0.42773400  0.07226600  0.92773400  1
  Ce  Ce6  1  0.07226600  0.92773400  0.42773400  1
  Ce  Ce7  1  0.32226600  0.32226600  0.32226600  1
  Ce  Ce8  1  0.67773400  0.17773400  0.32226600  1
  Ce  Ce9  1  0.32226600  0.67773400  0.17773400  1
  Ce  Ce10  1  0.57226600  0.57226600  0.57226600  1
  Ce  Ce11  1  0.17773400  0.32226600  0.67773400  1
  Ce  Ce12  1  0.42773400  0.92773400  0.57226600  1
  Ce  Ce13  1  0.92773400  0.57226600  0.42773400  1
  Ce  Ce14  1  0.57226600  0.42773400  0.92773400  1
  Ce  Ce15  1  0.82226600  0.82226600  0.82226600  1
  Sb  Sb16  1  0.12500000  0.00000000  0.75000000  1
  Sb  Sb17  1  0.25000000  0.37500000  0.00000000  1
  Sb  Sb18  1  0.37500000  0.00000000  0.25000000  1
  Sb  Sb19  1  0.00000000  0.75000000  0.12500000  1
  Sb  Sb20  1  0.00000000  0.25000000  0.37500000  1
  Sb  Sb21  1  0.75000000  0.12500000  0.00000000  1
  Sb  Sb22  1  0.62500000  0.50000000  0.25000000  1
  Sb  Sb23  1  0.75000000  0.87500000  0.50000000  1
  Sb  Sb24  1  0.87500000  0.50000000  0.75000000  1
  Sb  Sb25  1  0.50000000  0.25000000  0.62500000  1
  Sb  Sb26  1  0.50000000  0.75000000  0.87500000  1
  Sb  Sb27  1  0.25000000  0.62500000  0.50000000  1
