# generated using pymatgen
data_BiP2O7
_symmetry_space_group_name_H-M   'P 1'
_cell_length_a   10.41465400
_cell_length_b   8.78342000
_cell_length_c   14.05520748
_cell_angle_alpha   90.00000000
_cell_angle_beta   111.17651182
_cell_angle_gamma   90.00000000
_symmetry_Int_Tables_number   1
_chemical_formula_structural   BiP2O7
_chemical_formula_sum   'Bi8 P16 O56'
_cell_volume   1198.89608722
_cell_formula_units_Z   8
loop_
 _symmetry_equiv_pos_site_id
 _symmetry_equiv_pos_as_xyz
  1  'x, y, z'
loop_
 _atom_site_type_symbol
 _atom_site_label
 _atom_site_symmetry_multiplicity
 _atom_site_fract_x
 _atom_site_fract_y
 _atom_site_fract_z
 _atom_site_occupancy
  Bi  Bi0  1  0.86663400  0.74843300  0.86123800  1
  Bi  Bi1  1  0.36663400  0.75156700  0.36123800  1
  Bi  Bi2  1  0.13336600  0.74843300  0.63876200  1
  Bi  Bi3  1  0.63336600  0.75156700  0.13876200  1
  Bi  Bi4  1  0.36663400  0.24843300  0.86123800  1
  Bi  Bi5  1  0.86663400  0.25156700  0.36123800  1
  Bi  Bi6  1  0.63336600  0.24843300  0.63876200  1
  Bi  Bi7  1  0.13336600  0.25156700  0.13876200  1
  P  P8  1  0.67398750  0.43125250  0.86911900  1
  P  P9  1  0.82601250  0.06874750  0.13088100  1
  P  P10  1  0.67398750  0.56874750  0.36911900  1
  P  P11  1  0.86909750  0.46259650  0.57079600  1
  P  P12  1  0.36909750  0.03740350  0.07079600  1
  P  P13  1  0.63090250  0.03740350  0.42920400  1
  P  P14  1  0.13090250  0.46259650  0.92920400  1
  P  P15  1  0.82601250  0.93125250  0.63088100  1
  P  P16  1  0.17398750  0.93125250  0.86911900  1
  P  P17  1  0.32601250  0.56874750  0.13088100  1
  P  P18  1  0.17398750  0.06874750  0.36911900  1
  P  P19  1  0.36909750  0.96259650  0.57079600  1
  P  P20  1  0.86909750  0.53740350  0.07079600  1
  P  P21  1  0.13090250  0.53740350  0.42920400  1
  P  P22  1  0.63090250  0.96259650  0.92920400  1
  P  P23  1  0.32601250  0.43125250  0.63088100  1
  O  O24  1  0.76815200  0.44188000  0.62700100  1
  O  O25  1  0.23184800  0.44188000  0.87299900  1
  O  O26  1  0.00046550  0.54100450  0.64025600  1
  O  O27  1  0.80742600  0.79183700  0.69042400  1
  O  O28  1  0.26815200  0.05812000  0.12700100  1
  O  O29  1  0.49953450  0.95899550  0.35974400  1
  O  O30  1  0.69257400  0.70816300  0.30957600  1
  O  O31  1  0.69905800  0.91835600  0.52238100  1
  O  O32  1  0.50046550  0.95899550  0.14025600  1
  O  O33  1  0.03955000  0.92584700  0.89089000  1
  O  O34  1  0.96045000  0.92584700  0.60911000  1
  O  O35  1  0.09936550  0.68687850  0.47306000  1
  O  O36  1  0.19257400  0.79183700  0.80957600  1
  O  O37  1  0.40063450  0.18687850  0.02694000  1
  O  O38  1  0.81543100  0.08562400  0.67879400  1
  O  O39  1  0.73184800  0.05812000  0.37299900  1
  O  O40  1  0.80094200  0.41835600  0.97761900  1
  O  O41  1  0.99953450  0.54100450  0.85974400  1
  O  O42  1  0.68456900  0.58562400  0.82120600  1
  O  O43  1  0.69905800  0.08164400  0.02238100  1
  O  O44  1  0.81543100  0.91437600  0.17879400  1
  O  O45  1  0.68456900  0.41437600  0.32120600  1
  O  O46  1  0.09936550  0.31312150  0.97306000  1
  O  O47  1  0.30742600  0.70816300  0.19042400  1
  O  O48  1  0.40063450  0.81312150  0.52694000  1
  O  O49  1  0.53955000  0.57415300  0.39089000  1
  O  O50  1  0.46045000  0.57415300  0.10911000  1
  O  O51  1  0.80094200  0.58164400  0.47761900  1
  O  O52  1  0.26815200  0.94188000  0.62700100  1
  O  O53  1  0.73184800  0.94188000  0.87299900  1
  O  O54  1  0.50046550  0.04100450  0.64025600  1
  O  O55  1  0.30742600  0.29183700  0.69042400  1
  O  O56  1  0.76815200  0.55812000  0.12700100  1
  O  O57  1  0.99953450  0.45899550  0.35974400  1
  O  O58  1  0.19257400  0.20816300  0.30957600  1
  O  O59  1  0.19905800  0.41835600  0.52238100  1
  O  O60  1  0.00046550  0.45899550  0.14025600  1
  O  O61  1  0.53955000  0.42584700  0.89089000  1
  O  O62  1  0.46045000  0.42584700  0.60911000  1
  O  O63  1  0.59936550  0.18687850  0.47306000  1
  O  O64  1  0.69257400  0.29183700  0.80957600  1
  O  O65  1  0.90063450  0.68687850  0.02694000  1
  O  O66  1  0.31543100  0.58562400  0.67879400  1
  O  O67  1  0.23184800  0.55812000  0.37299900  1
  O  O68  1  0.30094200  0.91835600  0.97761900  1
  O  O69  1  0.49953450  0.04100450  0.85974400  1
  O  O70  1  0.18456900  0.08562400  0.82120600  1
  O  O71  1  0.19905800  0.58164400  0.02238100  1
  O  O72  1  0.31543100  0.41437600  0.17879400  1
  O  O73  1  0.18456900  0.91437600  0.32120600  1
  O  O74  1  0.59936550  0.81312150  0.97306000  1
  O  O75  1  0.80742600  0.20816300  0.19042400  1
  O  O76  1  0.90063450  0.31312150  0.52694000  1
  O  O77  1  0.03955000  0.07415300  0.39089000  1
  O  O78  1  0.96045000  0.07415300  0.10911000  1
  O  O79  1  0.30094200  0.08164400  0.47761900  1
