# generated using pymatgen
data_Ba2Cu3(BrO2)2
_symmetry_space_group_name_H-M   'P 1'
_cell_length_a   5.60876800
_cell_length_b   5.60876800
_cell_length_c   14.95179000
_cell_angle_alpha   90.00000000
_cell_angle_beta   90.00000000
_cell_angle_gamma   90.00000000
_symmetry_Int_Tables_number   1
_chemical_formula_structural   Ba2Cu3(BrO2)2
_chemical_formula_sum   'Ba4 Cu6 Br4 O8'
_cell_volume   470.35757356
_cell_formula_units_Z   2
loop_
 _symmetry_equiv_pos_site_id
 _symmetry_equiv_pos_as_xyz
  1  'x, y, z'
loop_
 _atom_site_type_symbol
 _atom_site_label
 _atom_site_symmetry_multiplicity
 _atom_site_fract_x
 _atom_site_fract_y
 _atom_site_fract_z
 _atom_site_occupancy
  Ba  Ba0  1  0.50000000  0.50000000  0.13139600  1
  Ba  Ba1  1  0.00000000  0.00000000  0.36860400  1
  Ba  Ba2  1  0.00000000  0.00000000  0.63139600  1
  Ba  Ba3  1  0.50000000  0.50000000  0.86860400  1
  Cu  Cu4  1  0.00000000  0.50000000  0.00000000  1
  Cu  Cu5  1  0.50000000  0.00000000  0.00000000  1
  Cu  Cu6  1  0.00000000  0.00000000  0.00000000  1
  Cu  Cu7  1  0.50000000  0.00000000  0.50000000  1
  Cu  Cu8  1  0.00000000  0.50000000  0.50000000  1
  Cu  Cu9  1  0.50000000  0.50000000  0.50000000  1
  Br  Br10  1  0.50000000  0.00000000  0.25000000  1
  Br  Br11  1  0.00000000  0.50000000  0.25000000  1
  Br  Br12  1  0.00000000  0.50000000  0.75000000  1
  Br  Br13  1  0.50000000  0.00000000  0.75000000  1
  O  O14  1  0.75901800  0.24098200  0.00000000  1
  O  O15  1  0.75901800  0.75901800  0.00000000  1
  O  O16  1  0.24098200  0.24098200  0.00000000  1
  O  O17  1  0.24098200  0.75901800  0.00000000  1
  O  O18  1  0.25901800  0.74098200  0.50000000  1
  O  O19  1  0.25901800  0.25901800  0.50000000  1
  O  O20  1  0.74098200  0.74098200  0.50000000  1
  O  O21  1  0.74098200  0.25901800  0.50000000  1
