# generated using pymatgen
data_Ca2Cu6P5
_symmetry_space_group_name_H-M   'P 1'
_cell_length_a   4.00764400
_cell_length_b   4.00764400
_cell_length_c   24.64603800
_cell_angle_alpha   90.00000000
_cell_angle_beta   90.00000000
_cell_angle_gamma   90.00000000
_symmetry_Int_Tables_number   1
_chemical_formula_structural   Ca2Cu6P5
_chemical_formula_sum   'Ca4 Cu12 P10'
_cell_volume   395.84520260
_cell_formula_units_Z   2
loop_
 _symmetry_equiv_pos_site_id
 _symmetry_equiv_pos_as_xyz
  1  'x, y, z'
loop_
 _atom_site_type_symbol
 _atom_site_label
 _atom_site_symmetry_multiplicity
 _atom_site_fract_x
 _atom_site_fract_y
 _atom_site_fract_z
 _atom_site_occupancy
  Ca  Ca0  1  0.50000000  0.50000000  0.14906000  1
  Ca  Ca1  1  0.00000000  0.00000000  0.35094000  1
  Ca  Ca2  1  0.00000000  0.00000000  0.64906000  1
  Ca  Ca3  1  0.50000000  0.50000000  0.85094000  1
  Cu  Cu4  1  0.00000000  0.50000000  0.25000000  1
  Cu  Cu5  1  0.00000000  0.50000000  0.44622800  1
  Cu  Cu6  1  0.50000000  0.00000000  0.44622800  1
  Cu  Cu7  1  0.50000000  0.00000000  0.05377200  1
  Cu  Cu8  1  0.00000000  0.50000000  0.05377200  1
  Cu  Cu9  1  0.50000000  0.00000000  0.25000000  1
  Cu  Cu10  1  0.50000000  0.00000000  0.75000000  1
  Cu  Cu11  1  0.50000000  0.00000000  0.94622800  1
  Cu  Cu12  1  0.00000000  0.50000000  0.94622800  1
  Cu  Cu13  1  0.00000000  0.50000000  0.55377200  1
  Cu  Cu14  1  0.50000000  0.00000000  0.55377200  1
  Cu  Cu15  1  0.00000000  0.50000000  0.75000000  1
  P  P16  1  0.50000000  0.50000000  0.30240100  1
  P  P17  1  0.50000000  0.50000000  0.00000000  1
  P  P18  1  0.00000000  0.00000000  0.19759900  1
  P  P19  1  0.50000000  0.50000000  0.39425300  1
  P  P20  1  0.00000000  0.00000000  0.10574700  1
  P  P21  1  0.00000000  0.00000000  0.80240100  1
  P  P22  1  0.00000000  0.00000000  0.50000000  1
  P  P23  1  0.50000000  0.50000000  0.69759900  1
  P  P24  1  0.00000000  0.00000000  0.89425300  1
  P  P25  1  0.50000000  0.50000000  0.60574700  1
