# generated using pymatgen
data_TlV5S8
_symmetry_space_group_name_H-M   'P 1'
_cell_length_a   17.57399200
_cell_length_b   3.26209400
_cell_length_c   8.55172487
_cell_angle_alpha   90.00000000
_cell_angle_beta   104.70529807
_cell_angle_gamma   90.00000000
_symmetry_Int_Tables_number   1
_chemical_formula_structural   TlV5S8
_chemical_formula_sum   'Tl2 V10 S16'
_cell_volume   474.19480073
_cell_formula_units_Z   2
loop_
 _symmetry_equiv_pos_site_id
 _symmetry_equiv_pos_as_xyz
  1  'x, y, z'
loop_
 _atom_site_type_symbol
 _atom_site_label
 _atom_site_symmetry_multiplicity
 _atom_site_fract_x
 _atom_site_fract_y
 _atom_site_fract_z
 _atom_site_occupancy
  Tl  Tl0  1  0.00000000  0.01453100  0.00000000  1
  Tl  Tl1  1  0.50000000  0.51453100  0.00000000  1
  V  V2  1  0.35177800  0.53642600  0.50317700  1
  V  V3  1  0.14822200  0.03642600  0.49682300  1
  V  V4  1  0.00000000  0.53673800  0.50000000  1
  V  V5  1  0.21089900  0.03688900  0.85860500  1
  V  V6  1  0.28910100  0.53688900  0.14139500  1
  V  V7  1  0.85177800  0.03642600  0.50317700  1
  V  V8  1  0.64822200  0.53642600  0.49682300  1
  V  V9  1  0.50000000  0.03673800  0.50000000  1
  V  V10  1  0.71089900  0.53688900  0.85860500  1
  V  V11  1  0.78910100  0.03688900  0.14139500  1
  S  S12  1  0.07426150  0.03692250  0.67937400  1
  S  S13  1  0.42573850  0.53692250  0.32062600  1
  S  S14  1  0.41510900  0.03619400  0.67996400  1
  S  S15  1  0.08489100  0.53619400  0.32003600  1
  S  S16  1  0.24111100  0.53677700  0.66003900  1
  S  S17  1  0.25888900  0.03677700  0.33996100  1
  S  S18  1  0.16074100  0.53665700  0.00018500  1
  S  S19  1  0.33925900  0.03665700  0.99981500  1
  S  S20  1  0.57426150  0.53692250  0.67937400  1
  S  S21  1  0.92573850  0.03692250  0.32062600  1
  S  S22  1  0.91510900  0.53619400  0.67996400  1
  S  S23  1  0.58489100  0.03619400  0.32003600  1
  S  S24  1  0.74111100  0.03677700  0.66003900  1
  S  S25  1  0.75888900  0.53677700  0.33996100  1
  S  S26  1  0.66074100  0.03665700  0.00018500  1
  S  S27  1  0.83925900  0.53665700  0.99981500  1
