# generated using pymatgen
data_SmGa4Co
_symmetry_space_group_name_H-M   'P 1'
_cell_length_a   4.12919000
_cell_length_b   15.70999600
_cell_length_c   6.51772800
_cell_angle_alpha   90.00000000
_cell_angle_beta   90.00000000
_cell_angle_gamma   90.00000000
_symmetry_Int_Tables_number   1
_chemical_formula_structural   SmGa4Co
_chemical_formula_sum   'Sm4 Ga16 Co4'
_cell_volume   422.80213702
_cell_formula_units_Z   4
loop_
 _symmetry_equiv_pos_site_id
 _symmetry_equiv_pos_as_xyz
  1  'x, y, z'
loop_
 _atom_site_type_symbol
 _atom_site_label
 _atom_site_symmetry_multiplicity
 _atom_site_fract_x
 _atom_site_fract_y
 _atom_site_fract_z
 _atom_site_occupancy
  Sm  Sm0  1  0.50000000  0.61743200  0.75000000  1
  Sm  Sm1  1  0.00000000  0.88256800  0.25000000  1
  Sm  Sm2  1  0.00000000  0.11743200  0.75000000  1
  Sm  Sm3  1  0.50000000  0.38256800  0.25000000  1
  Ga  Ga4  1  0.50000000  0.81011200  0.94846200  1
  Ga  Ga5  1  0.00000000  0.68988800  0.05153800  1
  Ga  Ga6  1  0.00000000  0.68988800  0.44846200  1
  Ga  Ga7  1  0.50000000  0.81011200  0.55153800  1
  Ga  Ga8  1  0.50000000  0.57498100  0.25000000  1
  Ga  Ga9  1  0.00000000  0.92501900  0.75000000  1
  Ga  Ga10  1  0.50000000  0.00000000  0.50000000  1
  Ga  Ga11  1  0.50000000  0.00000000  0.00000000  1
  Ga  Ga12  1  0.00000000  0.31011200  0.94846200  1
  Ga  Ga13  1  0.50000000  0.18988800  0.05153800  1
  Ga  Ga14  1  0.50000000  0.18988800  0.44846200  1
  Ga  Ga15  1  0.00000000  0.31011200  0.55153800  1
  Ga  Ga16  1  0.00000000  0.07498100  0.25000000  1
  Ga  Ga17  1  0.50000000  0.42501900  0.75000000  1
  Ga  Ga18  1  0.00000000  0.50000000  0.50000000  1
  Ga  Ga19  1  0.00000000  0.50000000  0.00000000  1
  Co  Co20  1  0.50000000  0.72282800  0.25000000  1
  Co  Co21  1  0.00000000  0.77717200  0.75000000  1
  Co  Co22  1  0.00000000  0.22282800  0.25000000  1
  Co  Co23  1  0.50000000  0.27717200  0.75000000  1
