# generated using pymatgen
data_MnSnO3
_symmetry_space_group_name_H-M   'P 1'
_cell_length_a   5.43691375
_cell_length_b   5.43691375
_cell_length_c   14.71298952
_cell_angle_alpha   90.00000000
_cell_angle_beta   90.00000000
_cell_angle_gamma   120.00000000
_symmetry_Int_Tables_number   1
_chemical_formula_structural   MnSnO3
_chemical_formula_sum   'Mn6 Sn6 O18'
_cell_volume   376.64867528
_cell_formula_units_Z   6
loop_
 _symmetry_equiv_pos_site_id
 _symmetry_equiv_pos_as_xyz
  1  'x, y, z'
loop_
 _atom_site_type_symbol
 _atom_site_label
 _atom_site_symmetry_multiplicity
 _atom_site_fract_x
 _atom_site_fract_y
 _atom_site_fract_z
 _atom_site_occupancy
  Mn  Mn0  1  0.66666667  0.33333333  0.97153833  1
  Mn  Mn1  1  0.66666667  0.33333333  0.69512833  1
  Mn  Mn2  1  0.33333333  0.66666667  0.30487167  1
  Mn  Mn3  1  0.33333333  0.66666667  0.02846167  1
  Mn  Mn4  1  0.00000000  0.00000000  0.63820500  1
  Mn  Mn5  1  0.00000000  0.00000000  0.36179500  1
  Sn  Sn6  1  0.33333333  0.66666667  0.81782567  1
  Sn  Sn7  1  0.00000000  0.00000000  0.84884100  1
  Sn  Sn8  1  0.00000000  0.00000000  0.15115900  1
  Sn  Sn9  1  0.66666667  0.33333333  0.18217433  1
  Sn  Sn10  1  0.66666667  0.33333333  0.48449233  1
  Sn  Sn11  1  0.33333333  0.66666667  0.51550767  1
  O  O12  1  0.64148133  0.95811867  0.91301667  1
  O  O13  1  0.04188133  0.68336267  0.91301667  1
  O  O14  1  0.01669600  0.30814800  0.75365000  1
  O  O15  1  0.29145200  0.98330400  0.75365000  1
  O  O16  1  0.31663733  0.35851867  0.91301667  1
  O  O17  1  0.69185200  0.70854800  0.75365000  1
  O  O18  1  0.30814800  0.29145200  0.24635000  1
  O  O19  1  0.70854800  0.01669600  0.24635000  1
  O  O20  1  0.68336267  0.64148133  0.08698333  1
  O  O21  1  0.95811867  0.31663733  0.08698333  1
  O  O22  1  0.98330400  0.69185200  0.24635000  1
  O  O23  1  0.35851867  0.04188133  0.08698333  1
  O  O24  1  0.97481467  0.62478533  0.57968333  1
  O  O25  1  0.37521467  0.35002933  0.57968333  1
  O  O26  1  0.35002933  0.97481467  0.42031667  1
  O  O27  1  0.62478533  0.64997067  0.42031667  1
  O  O28  1  0.64997067  0.02518533  0.57968333  1
  O  O29  1  0.02518533  0.37521467  0.42031667  1
