# generated using pymatgen
data_Li2CrO4
_symmetry_space_group_name_H-M   'P 1'
_cell_length_a   14.19768090
_cell_length_b   14.19768090
_cell_length_c   9.51545372
_cell_angle_alpha   90.00000000
_cell_angle_beta   90.00000000
_cell_angle_gamma   120.00000000
_symmetry_Int_Tables_number   1
_chemical_formula_structural   Li2CrO4
_chemical_formula_sum   'Li36 Cr18 O72'
_cell_volume   1661.09685008
_cell_formula_units_Z   18
loop_
 _symmetry_equiv_pos_site_id
 _symmetry_equiv_pos_as_xyz
  1  'x, y, z'
loop_
 _atom_site_type_symbol
 _atom_site_label
 _atom_site_symmetry_multiplicity
 _atom_site_fract_x
 _atom_site_fract_y
 _atom_site_fract_z
 _atom_site_occupancy
  Li  Li0  1  0.80955667  0.01813933  0.41402233  1
  Li  Li1  1  0.98186067  0.79141733  0.41402233  1
  Li  Li2  1  0.20858267  0.19044333  0.41402233  1
  Li  Li3  1  0.19044333  0.98186067  0.58597767  1
  Li  Li4  1  0.01813933  0.20858267  0.58597767  1
  Li  Li5  1  0.79141733  0.80955667  0.58597767  1
  Li  Li6  1  0.47321300  0.35351700  0.41449600  1
  Li  Li7  1  0.64648300  0.11969600  0.41449600  1
  Li  Li8  1  0.88030400  0.52678700  0.41449600  1
  Li  Li9  1  0.52678700  0.64648300  0.58550400  1
  Li  Li10  1  0.35351700  0.88030400  0.58550400  1
  Li  Li11  1  0.11969600  0.47321300  0.58550400  1
  Li  Li12  1  0.47622333  0.35147267  0.74735567  1
  Li  Li13  1  0.64852733  0.12475067  0.74735567  1
  Li  Li14  1  0.87524933  0.52377667  0.74735567  1
  Li  Li15  1  0.85711000  0.31519400  0.91931100  1
  Li  Li16  1  0.68480600  0.54191600  0.91931100  1
  Li  Li17  1  0.45808400  0.14289000  0.91931100  1
  Li  Li18  1  0.13987967  0.68685033  0.74782933  1
  Li  Li19  1  0.31314967  0.45302933  0.74782933  1
  Li  Li20  1  0.54697067  0.86012033  0.74782933  1
  Li  Li21  1  0.19345367  0.97981633  0.91883733  1
  Li  Li22  1  0.02018367  0.21363733  0.91883733  1
  Li  Li23  1  0.78636267  0.80654633  0.91883733  1
  Li  Li24  1  0.14289000  0.68480600  0.08068900  1
  Li  Li25  1  0.31519400  0.45808400  0.08068900  1
  Li  Li26  1  0.54191600  0.85711000  0.08068900  1
  Li  Li27  1  0.52377667  0.64852733  0.25264433  1
  Li  Li28  1  0.35147267  0.87524933  0.25264433  1
  Li  Li29  1  0.12475067  0.47622333  0.25264433  1
  Li  Li30  1  0.80654633  0.02018367  0.08116267  1
  Li  Li31  1  0.97981633  0.78636267  0.08116267  1
  Li  Li32  1  0.21363733  0.19345367  0.08116267  1
  Li  Li33  1  0.86012033  0.31314967  0.25217067  1
  Li  Li34  1  0.68685033  0.54697067  0.25217067  1
  Li  Li35  1  0.45302933  0.13987967  0.25217067  1
  Cr  Cr36  1  0.80362200  0.01437900  0.74871000  1
  Cr  Cr37  1  0.98562100  0.78924300  0.74871000  1
  Cr  Cr38  1  0.21075700  0.19637800  0.74871000  1
  Cr  Cr39  1  0.19637800  0.98562100  0.25129000  1
  Cr  Cr40  1  0.01437900  0.21075700  0.25129000  1
  Cr  Cr41  1  0.78924300  0.80362200  0.25129000  1
  Cr  Cr42  1  0.47028867  0.34771233  0.08204333  1
  Cr  Cr43  1  0.65228767  0.12257633  0.08204333  1
  Cr  Cr44  1  0.87742367  0.52971133  0.08204333  1
  Cr  Cr45  1  0.86304467  0.31895433  0.58462333  1
  Cr  Cr46  1  0.68104567  0.54409033  0.58462333  1
  Cr  Cr47  1  0.45590967  0.13695533  0.58462333  1
  Cr  Cr48  1  0.13695533  0.68104567  0.41537667  1
  Cr  Cr49  1  0.31895433  0.45590967  0.41537667  1
  Cr  Cr50  1  0.54409033  0.86304467  0.41537667  1
  Cr  Cr51  1  0.52971133  0.65228767  0.91795667  1
  Cr  Cr52  1  0.34771233  0.87742367  0.91795667  1
  Cr  Cr53  1  0.12257633  0.47028867  0.91795667  1
  O  O54  1  0.78354600  0.88832100  0.75228900  1
  O  O55  1  0.11167900  0.89522500  0.75228900  1
  O  O56  1  0.10477500  0.21645400  0.75228900  1
  O  O57  1  0.21645400  0.11167900  0.24771100  1
  O  O58  1  0.88832100  0.10477500  0.24771100  1
  O  O59  1  0.89522500  0.78354600  0.24771100  1
  O  O60  1  0.01558533  0.67245967  0.41387967  1
  O  O61  1  0.32754033  0.34312567  0.41387967  1
  O  O62  1  0.65687433  0.98441467  0.41387967  1
  O  O63  1  0.98441467  0.32754033  0.58612033  1
  O  O64  1  0.67245967  0.65687433  0.58612033  1
  O  O65  1  0.34312567  0.01558533  0.58612033  1
  O  O66  1  0.87222233  0.07622467  0.60326267  1
  O  O67  1  0.92377533  0.79599767  0.60326267  1
  O  O68  1  0.20400233  0.12777767  0.60326267  1
  O  O69  1  0.12777767  0.92377533  0.39673733  1
  O  O70  1  0.07622467  0.20400233  0.39673733  1
  O  O71  1  0.79599767  0.87222233  0.39673733  1
  O  O72  1  0.20611800  0.74848900  0.55848600  1
  O  O73  1  0.25151100  0.45762900  0.55848600  1
  O  O74  1  0.54237100  0.79388200  0.55848600  1
  O  O75  1  0.79388200  0.25151100  0.44151400  1
  O  O76  1  0.74848900  0.54237100  0.44151400  1
  O  O77  1  0.45762900  0.20611800  0.44151400  1
  O  O78  1  0.45021267  0.22165433  0.08562233  1
  O  O79  1  0.77834567  0.22855833  0.08562233  1
  O  O80  1  0.77144167  0.54978733  0.08562233  1
  O  O81  1  0.88312067  0.44501233  0.58104433  1
  O  O82  1  0.55498767  0.43810833  0.58104433  1
  O  O83  1  0.56189167  0.11687933  0.58104433  1
  O  O84  1  0.68225200  0.00579300  0.74721300  1
  O  O85  1  0.99420700  0.67645900  0.74721300  1
  O  O86  1  0.32354100  0.31774800  0.74721300  1
  O  O87  1  0.65108133  0.66087367  0.91945367  1
  O  O88  1  0.33912633  0.99020767  0.91945367  1
  O  O89  1  0.00979233  0.34891867  0.91945367  1
  O  O90  1  0.53888900  0.40955800  0.93659600  1
  O  O91  1  0.59044200  0.12933100  0.93659600  1
  O  O92  1  0.87066900  0.46111100  0.93659600  1
  O  O93  1  0.79444433  0.25710867  0.73007067  1
  O  O94  1  0.74289133  0.53733567  0.73007067  1
  O  O95  1  0.46266433  0.20555567  0.73007067  1
  O  O96  1  0.87278467  0.08182233  0.89181933  1
  O  O97  1  0.91817767  0.79096233  0.89181933  1
  O  O98  1  0.20903767  0.12721533  0.89181933  1
  O  O99  1  0.46054867  0.58484433  0.77484733  1
  O  O100  1  0.41515567  0.87570433  0.77484733  1
  O  O101  1  0.12429567  0.53945133  0.77484733  1
  O  O102  1  0.11687933  0.55498767  0.41895567  1
  O  O103  1  0.44501233  0.56189167  0.41895567  1
  O  O104  1  0.43810833  0.88312067  0.41895567  1
  O  O105  1  0.54978733  0.77834567  0.91437767  1
  O  O106  1  0.22165433  0.77144167  0.91437767  1
  O  O107  1  0.22855833  0.45021267  0.91437767  1
  O  O108  1  0.34891867  0.33912633  0.08054633  1
  O  O109  1  0.66087367  0.00979233  0.08054633  1
  O  O110  1  0.99020767  0.65108133  0.08054633  1
  O  O111  1  0.31774800  0.99420700  0.25278700  1
  O  O112  1  0.00579300  0.32354100  0.25278700  1
  O  O113  1  0.67645900  0.68225200  0.25278700  1
  O  O114  1  0.20555567  0.74289133  0.26992933  1
  O  O115  1  0.25710867  0.46266433  0.26992933  1
  O  O116  1  0.53733567  0.79444433  0.26992933  1
  O  O117  1  0.46111100  0.59044200  0.06340400  1
  O  O118  1  0.40955800  0.87066900  0.06340400  1
  O  O119  1  0.12933100  0.53888900  0.06340400  1
  O  O120  1  0.53945133  0.41515567  0.22515267  1
  O  O121  1  0.58484433  0.12429567  0.22515267  1
  O  O122  1  0.87570433  0.46054867  0.22515267  1
  O  O123  1  0.12721533  0.91817767  0.10818067  1
  O  O124  1  0.08182233  0.20903767  0.10818067  1
  O  O125  1  0.79096233  0.87278467  0.10818067  1
