# generated using pymatgen
data_NaTa3N5
_symmetry_space_group_name_H-M   'P 1'
_cell_length_a   4.03919000
_cell_length_b   10.26110800
_cell_length_c   10.42433900
_cell_angle_alpha   90.00000000
_cell_angle_beta   90.00000000
_cell_angle_gamma   90.00000000
_symmetry_Int_Tables_number   1
_chemical_formula_structural   NaTa3N5
_chemical_formula_sum   'Na4 Ta12 N20'
_cell_volume   432.05304210
_cell_formula_units_Z   4
loop_
 _symmetry_equiv_pos_site_id
 _symmetry_equiv_pos_as_xyz
  1  'x, y, z'
loop_
 _atom_site_type_symbol
 _atom_site_label
 _atom_site_symmetry_multiplicity
 _atom_site_fract_x
 _atom_site_fract_y
 _atom_site_fract_z
 _atom_site_occupancy
  Na  Na0  1  0.00000000  0.49608400  0.25000000  1
  Na  Na1  1  0.50000000  0.00391600  0.75000000  1
  Na  Na2  1  0.50000000  0.99608400  0.25000000  1
  Na  Na3  1  0.00000000  0.50391600  0.75000000  1
  Ta  Ta4  1  0.50000000  0.36019750  0.04681900  1
  Ta  Ta5  1  0.00000000  0.20344250  0.25000000  1
  Ta  Ta6  1  0.00000000  0.13980250  0.54681900  1
  Ta  Ta7  1  0.00000000  0.13980250  0.95318100  1
  Ta  Ta8  1  0.50000000  0.29655750  0.75000000  1
  Ta  Ta9  1  0.50000000  0.36019750  0.45318100  1
  Ta  Ta10  1  0.00000000  0.86019750  0.04681900  1
  Ta  Ta11  1  0.50000000  0.70344250  0.25000000  1
  Ta  Ta12  1  0.50000000  0.63980250  0.54681900  1
  Ta  Ta13  1  0.50000000  0.63980250  0.95318100  1
  Ta  Ta14  1  0.00000000  0.79655750  0.75000000  1
  Ta  Ta15  1  0.00000000  0.86019750  0.45318100  1
  N  N16  1  0.50000000  0.17901850  0.57888700  1
  N  N17  1  0.00000000  0.04530550  0.37851600  1
  N  N18  1  0.00000000  0.04530550  0.12148400  1
  N  N19  1  0.50000000  0.45469450  0.87851600  1
  N  N20  1  0.50000000  0.17901850  0.92111300  1
  N  N21  1  0.50000000  0.24653350  0.25000000  1
  N  N22  1  0.00000000  0.32098150  0.07888700  1
  N  N23  1  0.00000000  0.25346650  0.75000000  1
  N  N24  1  0.50000000  0.45469450  0.62148400  1
  N  N25  1  0.00000000  0.32098150  0.42111300  1
  N  N26  1  0.00000000  0.67901850  0.57888700  1
  N  N27  1  0.50000000  0.54530550  0.37851600  1
  N  N28  1  0.50000000  0.54530550  0.12148400  1
  N  N29  1  0.00000000  0.95469450  0.87851600  1
  N  N30  1  0.00000000  0.67901850  0.92111300  1
  N  N31  1  0.00000000  0.74653350  0.25000000  1
  N  N32  1  0.50000000  0.82098150  0.07888700  1
  N  N33  1  0.50000000  0.75346650  0.75000000  1
  N  N34  1  0.00000000  0.95469450  0.62148400  1
  N  N35  1  0.50000000  0.82098150  0.42111300  1
