# generated using pymatgen
data_K2MgCr2(H2O5)2
_symmetry_space_group_name_H-M   'P 1'
_cell_length_a   5.76992612
_cell_length_b   6.50936083
_cell_length_c   7.66561751
_cell_angle_alpha   111.12850378
_cell_angle_beta   95.09893981
_cell_angle_gamma   110.05312154
_symmetry_Int_Tables_number   1
_chemical_formula_structural   K2MgCr2(H2O5)2
_chemical_formula_sum   'K2 Mg1 Cr2 H4 O10'
_cell_volume   244.74405391
_cell_formula_units_Z   1
loop_
 _symmetry_equiv_pos_site_id
 _symmetry_equiv_pos_as_xyz
  1  'x, y, z'
loop_
 _atom_site_type_symbol
 _atom_site_label
 _atom_site_symmetry_multiplicity
 _atom_site_fract_x
 _atom_site_fract_y
 _atom_site_fract_z
 _atom_site_occupancy
  K  K0  1  0.09484294  0.46223162  0.24327865  1
  K  K1  1  0.90515706  0.53776838  0.75672135  1
  Mg  Mg2  1  0.00000000  0.00000000  0.00000000  1
  Cr  Cr3  1  0.43348944  0.10714501  0.23481298  1
  Cr  Cr4  1  0.56651056  0.89285499  0.76518702  1
  H  H5  1  0.71615654  0.74715785  0.38996090  1
  H  H6  1  0.28384346  0.25284215  0.61003910  1
  H  H7  1  0.62382955  0.55956476  0.29861622  1
  H  H8  1  0.37617045  0.44043524  0.70138378  1
  O  O9  1  0.73829078  0.17473181  0.62715436  1
  O  O10  1  0.26170922  0.82526819  0.37284564  1
  O  O11  1  0.77198270  0.71861322  0.26876166  1
  O  O12  1  0.40640679  0.27075486  0.36882041  1
  O  O13  1  0.59359321  0.72924514  0.63117959  1
  O  O14  1  0.22801730  0.28138678  0.73123834  1
  O  O15  1  0.69956040  0.83190761  0.91372064  1
  O  O16  1  0.77322283  0.18312862  0.10427800  1
  O  O17  1  0.22677717  0.81687138  0.89572200  1
  O  O18  1  0.30043960  0.16809239  0.08627936  1
