# generated using pymatgen
data_V(SiO3)2
_symmetry_space_group_name_H-M   'P 1'
_cell_length_a   9.60270246
_cell_length_b   8.79638172
_cell_length_c   5.36721090
_cell_angle_alpha   90.00000000
_cell_angle_beta   109.75064242
_cell_angle_gamma   90.00000000
_symmetry_Int_Tables_number   1
_chemical_formula_structural   V(SiO3)2
_chemical_formula_sum   'V4 Si8 O24'
_cell_volume   426.69278885
_cell_formula_units_Z   4
loop_
 _symmetry_equiv_pos_site_id
 _symmetry_equiv_pos_as_xyz
  1  'x, y, z'
loop_
 _atom_site_type_symbol
 _atom_site_label
 _atom_site_symmetry_multiplicity
 _atom_site_fract_x
 _atom_site_fract_y
 _atom_site_fract_z
 _atom_site_occupancy
  V  V0  1  0.50000000  0.89758000  0.25000000  1
  V  V1  1  0.00000000  0.60242000  0.75000000  1
  V  V2  1  0.00000000  0.39758000  0.25000000  1
  V  V3  1  0.50000000  0.10242000  0.75000000  1
  Si  Si4  1  0.20014450  0.08415700  0.24947250  1
  Si  Si5  1  0.29985550  0.41584300  0.75052750  1
  Si  Si6  1  0.29985550  0.58415700  0.25052750  1
  Si  Si7  1  0.20014450  0.91584300  0.74947250  1
  Si  Si8  1  0.70014450  0.58415700  0.24947250  1
  Si  Si9  1  0.79985550  0.91584300  0.75052750  1
  Si  Si10  1  0.79985550  0.08415700  0.25052750  1
  Si  Si11  1  0.70014450  0.41584300  0.74947250  1
  O  O12  1  0.35868225  0.50561475  0.53842350  1
  O  O13  1  0.14131775  0.99438525  0.46157650  1
  O  O14  1  0.35868225  0.49438525  0.03842350  1
  O  O15  1  0.14131775  0.00561475  0.96157650  1
  O  O16  1  0.63702625  0.75687525  0.22010700  1
  O  O17  1  0.86297375  0.74312475  0.77989300  1
  O  O18  1  0.36297375  0.75687525  0.27989300  1
  O  O19  1  0.13702625  0.74312475  0.72010700  1
  O  O20  1  0.11508775  0.56839125  0.13525850  1
  O  O21  1  0.38491225  0.93160875  0.86474150  1
  O  O22  1  0.38491225  0.06839125  0.36474150  1
  O  O23  1  0.11508775  0.43160875  0.63525850  1
  O  O24  1  0.85868225  0.00561475  0.53842350  1
  O  O25  1  0.64131775  0.49438525  0.46157650  1
  O  O26  1  0.85868225  0.99438525  0.03842350  1
  O  O27  1  0.64131775  0.50561475  0.96157650  1
  O  O28  1  0.13702625  0.25687525  0.22010700  1
  O  O29  1  0.36297375  0.24312475  0.77989300  1
  O  O30  1  0.86297375  0.25687525  0.27989300  1
  O  O31  1  0.63702625  0.24312475  0.72010700  1
  O  O32  1  0.61508775  0.06839125  0.13525850  1
  O  O33  1  0.88491225  0.43160875  0.86474150  1
  O  O34  1  0.88491225  0.56839125  0.36474150  1
  O  O35  1  0.61508775  0.93160875  0.63525850  1
