# generated using pymatgen
data_La3(OsO5)2
_symmetry_space_group_name_H-M   'P 1'
_cell_length_a   7.94396400
_cell_length_b   8.00971800
_cell_length_c   7.03410495
_cell_angle_alpha   90.00000000
_cell_angle_beta   115.49677613
_cell_angle_gamma   90.00000000
_symmetry_Int_Tables_number   1
_chemical_formula_structural   La3(OsO5)2
_chemical_formula_sum   'La6 Os4 O20'
_cell_volume   403.98314019
_cell_formula_units_Z   2
loop_
 _symmetry_equiv_pos_site_id
 _symmetry_equiv_pos_as_xyz
  1  'x, y, z'
loop_
 _atom_site_type_symbol
 _atom_site_label
 _atom_site_symmetry_multiplicity
 _atom_site_fract_x
 _atom_site_fract_y
 _atom_site_fract_z
 _atom_site_occupancy
  La  La0  1  0.50000000  0.00000000  0.00000000  1
  La  La1  1  0.50000000  0.74376500  0.50000000  1
  La  La2  1  0.50000000  0.25623500  0.50000000  1
  La  La3  1  0.00000000  0.50000000  0.00000000  1
  La  La4  1  0.00000000  0.24376500  0.50000000  1
  La  La5  1  0.00000000  0.75623500  0.50000000  1
  Os  Os6  1  0.13053400  0.00000000  0.17590800  1
  Os  Os7  1  0.86946600  0.00000000  0.82409200  1
  Os  Os8  1  0.63053400  0.50000000  0.17590800  1
  Os  Os9  1  0.36946600  0.50000000  0.82409200  1
  O  O10  1  0.82991800  0.00000000  0.52724500  1
  O  O11  1  0.17008200  0.00000000  0.47275500  1
  O  O12  1  0.59680400  0.00000000  0.71664000  1
  O  O13  1  0.40319600  0.00000000  0.28336000  1
  O  O14  1  0.63775100  0.26102200  0.21093700  1
  O  O15  1  0.85590500  0.00000000  0.10188300  1
  O  O16  1  0.14409500  0.00000000  0.89811700  1
  O  O17  1  0.63775100  0.73897800  0.21093700  1
  O  O18  1  0.36224900  0.73897800  0.78906300  1
  O  O19  1  0.36224900  0.26102200  0.78906300  1
  O  O20  1  0.32991800  0.50000000  0.52724500  1
  O  O21  1  0.67008200  0.50000000  0.47275500  1
  O  O22  1  0.09680400  0.50000000  0.71664000  1
  O  O23  1  0.90319600  0.50000000  0.28336000  1
  O  O24  1  0.13775100  0.76102200  0.21093700  1
  O  O25  1  0.35590500  0.50000000  0.10188300  1
  O  O26  1  0.64409500  0.50000000  0.89811700  1
  O  O27  1  0.13775100  0.23897800  0.21093700  1
  O  O28  1  0.86224900  0.23897800  0.78906300  1
  O  O29  1  0.86224900  0.76102200  0.78906300  1
