# generated using pymatgen
data_Ce(Ni2B)6
_symmetry_space_group_name_H-M   'P 1'
_cell_length_a   7.36822800
_cell_length_b   9.56900200
_cell_length_c   10.98364200
_cell_angle_alpha   90.00000000
_cell_angle_beta   90.00000000
_cell_angle_gamma   90.00000000
_symmetry_Int_Tables_number   1
_chemical_formula_structural   Ce(Ni2B)6
_chemical_formula_sum   'Ce4 Ni48 B24'
_cell_volume   774.41912638
_cell_formula_units_Z   4
loop_
 _symmetry_equiv_pos_site_id
 _symmetry_equiv_pos_as_xyz
  1  'x, y, z'
loop_
 _atom_site_type_symbol
 _atom_site_label
 _atom_site_symmetry_multiplicity
 _atom_site_fract_x
 _atom_site_fract_y
 _atom_site_fract_z
 _atom_site_occupancy
  Ce  Ce0  1  0.83195700  0.00000000  0.49704100  1
  Ce  Ce1  1  0.16804300  0.00000000  0.99704100  1
  Ce  Ce2  1  0.33195700  0.50000000  0.49704100  1
  Ce  Ce3  1  0.66804300  0.50000000  0.99704100  1
  Ni  Ni4  1  0.51272800  0.63315700  0.75526800  1
  Ni  Ni5  1  0.48727200  0.63315700  0.25526800  1
  Ni  Ni6  1  0.53642350  0.80585950  0.06785900  1
  Ni  Ni7  1  0.46357650  0.19414050  0.56785900  1
  Ni  Ni8  1  0.46357650  0.80585950  0.56785900  1
  Ni  Ni9  1  0.51272800  0.36684300  0.75526800  1
  Ni  Ni10  1  0.81247750  0.81773450  0.93716500  1
  Ni  Ni11  1  0.18752250  0.18226550  0.43716500  1
  Ni  Ni12  1  0.18752250  0.81773450  0.43716500  1
  Ni  Ni13  1  0.81247750  0.18226550  0.93716500  1
  Ni  Ni14  1  0.65848250  0.86978650  0.27663100  1
  Ni  Ni15  1  0.34151750  0.13021350  0.77663100  1
  Ni  Ni16  1  0.34151750  0.86978650  0.77663100  1
  Ni  Ni17  1  0.65848250  0.13021350  0.27663100  1
  Ni  Ni18  1  0.32702000  0.86918900  0.23392700  1
  Ni  Ni19  1  0.67298000  0.13081100  0.73392700  1
  Ni  Ni20  1  0.67298000  0.86918900  0.73392700  1
  Ni  Ni21  1  0.32702000  0.13081100  0.23392700  1
  Ni  Ni22  1  0.21881700  0.00000000  0.59786400  1
  Ni  Ni23  1  0.78118300  0.00000000  0.09786400  1
  Ni  Ni24  1  0.43608900  0.00000000  0.41872400  1
  Ni  Ni25  1  0.56391100  0.00000000  0.91872400  1
  Ni  Ni26  1  0.53642350  0.19414050  0.06785900  1
  Ni  Ni27  1  0.48727200  0.36684300  0.25526800  1
  Ni  Ni28  1  0.01272800  0.13315700  0.75526800  1
  Ni  Ni29  1  0.98727200  0.13315700  0.25526800  1
  Ni  Ni30  1  0.03642350  0.30585950  0.06785900  1
  Ni  Ni31  1  0.96357650  0.69414050  0.56785900  1
  Ni  Ni32  1  0.96357650  0.30585950  0.56785900  1
  Ni  Ni33  1  0.01272800  0.86684300  0.75526800  1
  Ni  Ni34  1  0.31247750  0.31773450  0.93716500  1
  Ni  Ni35  1  0.68752250  0.68226550  0.43716500  1
  Ni  Ni36  1  0.68752250  0.31773450  0.43716500  1
  Ni  Ni37  1  0.31247750  0.68226550  0.93716500  1
  Ni  Ni38  1  0.15848250  0.36978650  0.27663100  1
  Ni  Ni39  1  0.84151750  0.63021350  0.77663100  1
  Ni  Ni40  1  0.84151750  0.36978650  0.77663100  1
  Ni  Ni41  1  0.15848250  0.63021350  0.27663100  1
  Ni  Ni42  1  0.82702000  0.36918900  0.23392700  1
  Ni  Ni43  1  0.17298000  0.63081100  0.73392700  1
  Ni  Ni44  1  0.17298000  0.36918900  0.73392700  1
  Ni  Ni45  1  0.82702000  0.63081100  0.23392700  1
  Ni  Ni46  1  0.71881700  0.50000000  0.59786400  1
  Ni  Ni47  1  0.28118300  0.50000000  0.09786400  1
  Ni  Ni48  1  0.93608900  0.50000000  0.41872400  1
  Ni  Ni49  1  0.06391100  0.50000000  0.91872400  1
  Ni  Ni50  1  0.03642350  0.69414050  0.06785900  1
  Ni  Ni51  1  0.98727200  0.86684300  0.25526800  1
  B  B52  1  0.30716050  0.70618250  0.12251600  1
  B  B53  1  0.69283950  0.29381750  0.62251600  1
  B  B54  1  0.46010200  0.78477200  0.38565400  1
  B  B55  1  0.53989800  0.21522800  0.88565400  1
  B  B56  1  0.53989800  0.78477200  0.88565400  1
  B  B57  1  0.46010200  0.21522800  0.38565400  1
  B  B58  1  0.48715600  0.00000000  0.65554100  1
  B  B59  1  0.51284400  0.00000000  0.15554100  1
  B  B60  1  0.83663800  0.00000000  0.83579400  1
  B  B61  1  0.16336200  0.00000000  0.33579400  1
  B  B62  1  0.69283950  0.70618250  0.62251600  1
  B  B63  1  0.30716050  0.29381750  0.12251600  1
  B  B64  1  0.80716050  0.20618250  0.12251600  1
  B  B65  1  0.19283950  0.79381750  0.62251600  1
  B  B66  1  0.96010200  0.28477200  0.38565400  1
  B  B67  1  0.03989800  0.71522800  0.88565400  1
  B  B68  1  0.03989800  0.28477200  0.88565400  1
  B  B69  1  0.96010200  0.71522800  0.38565400  1
  B  B70  1  0.98715600  0.50000000  0.65554100  1
  B  B71  1  0.01284400  0.50000000  0.15554100  1
  B  B72  1  0.33663800  0.50000000  0.83579400  1
  B  B73  1  0.66336200  0.50000000  0.33579400  1
  B  B74  1  0.19283950  0.20618250  0.62251600  1
  B  B75  1  0.80716050  0.79381750  0.12251600  1
