# generated using pymatgen
data_MnPO4F
_symmetry_space_group_name_H-M   'P 1'
_cell_length_a   5.15105367
_cell_length_b   5.18814134
_cell_length_c   7.22814557
_cell_angle_alpha   109.28011997
_cell_angle_beta   106.98411313
_cell_angle_gamma   96.64113958
_symmetry_Int_Tables_number   1
_chemical_formula_structural   MnPO4F
_chemical_formula_sum   'Mn2 P2 O8 F2'
_cell_volume   169.50037811
_cell_formula_units_Z   2
loop_
 _symmetry_equiv_pos_site_id
 _symmetry_equiv_pos_as_xyz
  1  'x, y, z'
loop_
 _atom_site_type_symbol
 _atom_site_label
 _atom_site_symmetry_multiplicity
 _atom_site_fract_x
 _atom_site_fract_y
 _atom_site_fract_z
 _atom_site_occupancy
  Mn  Mn0  1  0.00000000  0.00000000  0.00000000  1
  Mn  Mn1  1  1.00000000  0.00000000  0.50000000  1
  P  P2  1  0.67388097  0.35066436  0.76163386  1
  P  P3  1  0.32611903  0.64933564  0.23836614  1
  O  O4  1  0.12278505  0.68063179  0.12103035  1
  O  O5  1  0.63664368  0.76759435  0.07757428  1
  O  O6  1  0.26101442  0.79032499  0.40272199  1
  O  O7  1  0.30039688  0.33449770  0.34425874  1
  O  O8  1  0.36335632  0.23240565  0.92242572  1
  O  O9  1  0.73898558  0.20967501  0.59727801  1
  O  O10  1  0.69960312  0.66550230  0.65574126  1
  O  O11  1  0.87721495  0.31936821  0.87896965  1
  F  F12  1  0.88411070  0.05449079  0.26500941  1
  F  F13  1  0.11588930  0.94550921  0.73499059  1
