# generated using pymatgen
data_Ba2EuTaO6
_symmetry_space_group_name_H-M   'P 1'
_cell_length_a   6.08778800
_cell_length_b   6.08778800
_cell_length_c   8.65243800
_cell_angle_alpha   90.00000000
_cell_angle_beta   90.00000000
_cell_angle_gamma   90.00000000
_symmetry_Int_Tables_number   1
_chemical_formula_structural   Ba2EuTaO6
_chemical_formula_sum   'Ba4 Eu2 Ta2 O12'
_cell_volume   320.66941275
_cell_formula_units_Z   2
loop_
 _symmetry_equiv_pos_site_id
 _symmetry_equiv_pos_as_xyz
  1  'x, y, z'
loop_
 _atom_site_type_symbol
 _atom_site_label
 _atom_site_symmetry_multiplicity
 _atom_site_fract_x
 _atom_site_fract_y
 _atom_site_fract_z
 _atom_site_occupancy
  Ba  Ba0  1  0.50000000  0.00000000  0.25000000  1
  Ba  Ba1  1  0.00000000  0.50000000  0.25000000  1
  Ba  Ba2  1  0.00000000  0.50000000  0.75000000  1
  Ba  Ba3  1  0.50000000  0.00000000  0.75000000  1
  Eu  Eu4  1  0.00000000  0.00000000  0.00000000  1
  Eu  Eu5  1  0.50000000  0.50000000  0.50000000  1
  Ta  Ta6  1  0.50000000  0.50000000  0.00000000  1
  Ta  Ta7  1  0.00000000  0.00000000  0.50000000  1
  O  O8  1  0.28448400  0.24918800  0.00000000  1
  O  O9  1  0.50000000  0.50000000  0.23214700  1
  O  O10  1  0.75081200  0.28448400  0.00000000  1
  O  O11  1  0.00000000  0.00000000  0.26785300  1
  O  O12  1  0.71551600  0.75081200  0.00000000  1
  O  O13  1  0.24918800  0.71551600  0.00000000  1
  O  O14  1  0.78448400  0.74918800  0.50000000  1
  O  O15  1  0.00000000  0.00000000  0.73214700  1
  O  O16  1  0.25081200  0.78448400  0.50000000  1
  O  O17  1  0.50000000  0.50000000  0.76785300  1
  O  O18  1  0.21551600  0.25081200  0.50000000  1
  O  O19  1  0.74918800  0.21551600  0.50000000  1
