# generated using pymatgen
data_V2NiP2(H4O7)2
_symmetry_space_group_name_H-M   'P 1'
_cell_length_a   6.33393073
_cell_length_b   6.33393073
_cell_length_c   13.41048331
_cell_angle_alpha   90.00000000
_cell_angle_beta   90.00000000
_cell_angle_gamma   90.00000000
_symmetry_Int_Tables_number   1
_chemical_formula_structural   V2NiP2(H4O7)2
_chemical_formula_sum   'V4 Ni2 P4 H16 O28'
_cell_volume   538.01086905
_cell_formula_units_Z   2
loop_
 _symmetry_equiv_pos_site_id
 _symmetry_equiv_pos_as_xyz
  1  'x, y, z'
loop_
 _atom_site_type_symbol
 _atom_site_label
 _atom_site_symmetry_multiplicity
 _atom_site_fract_x
 _atom_site_fract_y
 _atom_site_fract_z
 _atom_site_occupancy
  V  V0  1  0.00000000  0.00000000  0.27737100  1
  V  V1  1  0.50000000  0.50000000  0.22262900  1
  V  V2  1  0.50000000  0.50000000  0.77737100  1
  V  V3  1  0.00000000  0.00000000  0.72262900  1
  Ni  Ni4  1  0.00000000  0.00000000  0.00000000  1
  Ni  Ni5  1  0.50000000  0.50000000  0.50000000  1
  P  P6  1  0.00000000  0.50000000  0.25000000  1
  P  P7  1  0.50000000  0.00000000  0.25000000  1
  P  P8  1  0.50000000  0.00000000  0.75000000  1
  P  P9  1  0.00000000  0.50000000  0.75000000  1
  H  H10  1  0.34645850  0.18167450  0.05980450  1
  H  H11  1  0.81832550  0.34645850  0.05980450  1
  H  H12  1  0.18167450  0.65354150  0.05980450  1
  H  H13  1  0.65354150  0.81832550  0.05980450  1
  H  H14  1  0.15354150  0.31832550  0.44019550  1
  H  H15  1  0.84645850  0.68167450  0.44019550  1
  H  H16  1  0.68167450  0.15354150  0.44019550  1
  H  H17  1  0.31832550  0.84645850  0.44019550  1
  H  H18  1  0.84645850  0.68167450  0.55980450  1
  H  H19  1  0.31832550  0.84645850  0.55980450  1
  H  H20  1  0.68167450  0.15354150  0.55980450  1
  H  H21  1  0.15354150  0.31832550  0.55980450  1
  H  H22  1  0.65354150  0.81832550  0.94019550  1
  H  H23  1  0.34645850  0.18167450  0.94019550  1
  H  H24  1  0.18167450  0.65354150  0.94019550  1
  H  H25  1  0.81832550  0.34645850  0.94019550  1
  O  O26  1  0.69593050  0.02744350  0.31854450  1
  O  O27  1  0.19593050  0.52744350  0.18145550  1
  O  O28  1  0.97255650  0.69593050  0.31854450  1
  O  O29  1  0.52744350  0.80406950  0.18145550  1
  O  O30  1  0.80406950  0.47255650  0.18145550  1
  O  O31  1  0.02744350  0.30406950  0.31854450  1
  O  O32  1  0.50000000  0.50000000  0.34507500  1
  O  O33  1  0.25723400  0.20038300  0.00000000  1
  O  O34  1  0.79961700  0.25723400  0.00000000  1
  O  O35  1  0.20038300  0.74276600  0.00000000  1
  O  O36  1  0.74276600  0.79961700  0.00000000  1
  O  O37  1  0.30406950  0.97255650  0.31854450  1
  O  O38  1  0.47255650  0.19593050  0.18145550  1
  O  O39  1  0.00000000  0.00000000  0.15492500  1
  O  O40  1  0.19593050  0.52744350  0.81854450  1
  O  O41  1  0.69593050  0.02744350  0.68145550  1
  O  O42  1  0.47255650  0.19593050  0.81854450  1
  O  O43  1  0.02744350  0.30406950  0.68145550  1
  O  O44  1  0.30406950  0.97255650  0.68145550  1
  O  O45  1  0.52744350  0.80406950  0.81854450  1
  O  O46  1  0.00000000  0.00000000  0.84507500  1
  O  O47  1  0.75723400  0.70038300  0.50000000  1
  O  O48  1  0.29961700  0.75723400  0.50000000  1
  O  O49  1  0.70038300  0.24276600  0.50000000  1
  O  O50  1  0.24276600  0.29961700  0.50000000  1
  O  O51  1  0.80406950  0.47255650  0.81854450  1
  O  O52  1  0.97255650  0.69593050  0.68145550  1
  O  O53  1  0.50000000  0.50000000  0.65492500  1
