# generated using pymatgen
data_Pa3As4
_symmetry_space_group_name_H-M   'P 1'
_cell_length_a   8.57462000
_cell_length_b   8.57462000
_cell_length_c   8.57462000
_cell_angle_alpha   90.00000000
_cell_angle_beta   90.00000000
_cell_angle_gamma   90.00000000
_symmetry_Int_Tables_number   1
_chemical_formula_structural   Pa3As4
_chemical_formula_sum   'Pa12 As16'
_cell_volume   630.44128818
_cell_formula_units_Z   4
loop_
 _symmetry_equiv_pos_site_id
 _symmetry_equiv_pos_as_xyz
  1  'x, y, z'
loop_
 _atom_site_type_symbol
 _atom_site_label
 _atom_site_symmetry_multiplicity
 _atom_site_fract_x
 _atom_site_fract_y
 _atom_site_fract_z
 _atom_site_occupancy
  Pa  Pa0  1  0.00000000  0.75000000  0.12500000  1
  Pa  Pa1  1  0.25000000  0.37500000  0.00000000  1
  Pa  Pa2  1  0.75000000  0.12500000  0.00000000  1
  Pa  Pa3  1  0.12500000  0.00000000  0.75000000  1
  Pa  Pa4  1  0.37500000  0.00000000  0.25000000  1
  Pa  Pa5  1  0.00000000  0.25000000  0.37500000  1
  Pa  Pa6  1  0.50000000  0.25000000  0.62500000  1
  Pa  Pa7  1  0.75000000  0.87500000  0.50000000  1
  Pa  Pa8  1  0.25000000  0.62500000  0.50000000  1
  Pa  Pa9  1  0.62500000  0.50000000  0.25000000  1
  Pa  Pa10  1  0.87500000  0.50000000  0.75000000  1
  Pa  Pa11  1  0.50000000  0.75000000  0.87500000  1
  As  As12  1  0.32906650  0.32906650  0.32906650  1
  As  As13  1  0.92093350  0.42093350  0.07906650  1
  As  As14  1  0.42093350  0.07906650  0.92093350  1
  As  As15  1  0.07906650  0.92093350  0.42093350  1
  As  As16  1  0.67093350  0.82906650  0.17093350  1
  As  As17  1  0.82906650  0.17093350  0.67093350  1
  As  As18  1  0.07906650  0.07906650  0.07906650  1
  As  As19  1  0.17093350  0.67093350  0.82906650  1
  As  As20  1  0.82906650  0.82906650  0.82906650  1
  As  As21  1  0.42093350  0.92093350  0.57906650  1
  As  As22  1  0.92093350  0.57906650  0.42093350  1
  As  As23  1  0.57906650  0.42093350  0.92093350  1
  As  As24  1  0.17093350  0.32906650  0.67093350  1
  As  As25  1  0.32906650  0.67093350  0.17093350  1
  As  As26  1  0.57906650  0.57906650  0.57906650  1
  As  As27  1  0.67093350  0.17093350  0.32906650  1
