# generated using pymatgen
data_CeFeGe3
_symmetry_space_group_name_H-M   'P 1'
_cell_length_a   4.29560600
_cell_length_b   4.29560600
_cell_length_c   9.94403400
_cell_angle_alpha   90.00000000
_cell_angle_beta   90.00000000
_cell_angle_gamma   90.00000000
_symmetry_Int_Tables_number   1
_chemical_formula_structural   CeFeGe3
_chemical_formula_sum   'Ce2 Fe2 Ge6'
_cell_volume   183.48961152
_cell_formula_units_Z   2
loop_
 _symmetry_equiv_pos_site_id
 _symmetry_equiv_pos_as_xyz
  1  'x, y, z'
loop_
 _atom_site_type_symbol
 _atom_site_label
 _atom_site_symmetry_multiplicity
 _atom_site_fract_x
 _atom_site_fract_y
 _atom_site_fract_z
 _atom_site_occupancy
  Ce  Ce0  1  0.00000000  0.00000000  0.32775800  1
  Ce  Ce1  1  0.50000000  0.50000000  0.82775800  1
  Fe  Fe2  1  0.50000000  0.50000000  0.49885400  1
  Fe  Fe3  1  0.00000000  0.00000000  0.99885400  1
  Ge  Ge4  1  0.50000000  0.00000000  0.09026600  1
  Ge  Ge5  1  0.50000000  0.50000000  0.27125600  1
  Ge  Ge6  1  0.00000000  0.50000000  0.09026600  1
  Ge  Ge7  1  0.00000000  0.50000000  0.59026600  1
  Ge  Ge8  1  0.00000000  0.00000000  0.77125600  1
  Ge  Ge9  1  0.50000000  0.00000000  0.59026600  1
