# generated using pymatgen
data_Dy3(CuGe)4
_symmetry_space_group_name_H-M   'P 1'
_cell_length_a   4.18958800
_cell_length_b   6.64667400
_cell_length_c   13.90394800
_cell_angle_alpha   90.00000000
_cell_angle_beta   90.00000000
_cell_angle_gamma   90.00000000
_symmetry_Int_Tables_number   1
_chemical_formula_structural   Dy3(CuGe)4
_chemical_formula_sum   'Dy6 Cu8 Ge8'
_cell_volume   387.18081553
_cell_formula_units_Z   2
loop_
 _symmetry_equiv_pos_site_id
 _symmetry_equiv_pos_as_xyz
  1  'x, y, z'
loop_
 _atom_site_type_symbol
 _atom_site_label
 _atom_site_symmetry_multiplicity
 _atom_site_fract_x
 _atom_site_fract_y
 _atom_site_fract_z
 _atom_site_occupancy
  Dy  Dy0  1  0.00000000  0.00000000  0.86990300  1
  Dy  Dy1  1  0.50000000  0.50000000  0.63009700  1
  Dy  Dy2  1  0.00000000  0.50000000  0.00000000  1
  Dy  Dy3  1  0.50000000  0.50000000  0.36990300  1
  Dy  Dy4  1  0.00000000  0.00000000  0.13009700  1
  Dy  Dy5  1  0.50000000  0.00000000  0.50000000  1
  Cu  Cu6  1  0.00000000  0.18965800  0.66894600  1
  Cu  Cu7  1  0.50000000  0.31034200  0.83105400  1
  Cu  Cu8  1  0.00000000  0.81034200  0.66894600  1
  Cu  Cu9  1  0.50000000  0.68965800  0.83105400  1
  Cu  Cu10  1  0.50000000  0.68965800  0.16894600  1
  Cu  Cu11  1  0.00000000  0.81034200  0.33105400  1
  Cu  Cu12  1  0.50000000  0.31034200  0.16894600  1
  Cu  Cu13  1  0.00000000  0.18965800  0.33105400  1
  Ge  Ge14  1  0.00000000  0.50000000  0.78318300  1
  Ge  Ge15  1  0.50000000  0.80840000  0.00000000  1
  Ge  Ge16  1  0.50000000  0.19160000  0.00000000  1
  Ge  Ge17  1  0.50000000  0.00000000  0.71681700  1
  Ge  Ge18  1  0.50000000  0.00000000  0.28318300  1
  Ge  Ge19  1  0.00000000  0.30840000  0.50000000  1
  Ge  Ge20  1  0.00000000  0.69160000  0.50000000  1
  Ge  Ge21  1  0.00000000  0.50000000  0.21681700  1
