# generated using pymatgen
data_RbTe6
_symmetry_space_group_name_H-M   'P 1'
_cell_length_a   12.25176800
_cell_length_b   7.39916200
_cell_length_c   12.66172123
_cell_angle_alpha   90.00000000
_cell_angle_beta   112.04427177
_cell_angle_gamma   90.00000000
_symmetry_Int_Tables_number   1
_chemical_formula_structural   RbTe6
_chemical_formula_sum   'Rb4 Te24'
_cell_volume   1063.90825010
_cell_formula_units_Z   4
loop_
 _symmetry_equiv_pos_site_id
 _symmetry_equiv_pos_as_xyz
  1  'x, y, z'
loop_
 _atom_site_type_symbol
 _atom_site_label
 _atom_site_symmetry_multiplicity
 _atom_site_fract_x
 _atom_site_fract_y
 _atom_site_fract_z
 _atom_site_occupancy
  Rb  Rb0  1  0.50000000  0.87370200  0.25000000  1
  Rb  Rb1  1  0.00000000  0.62629800  0.75000000  1
  Rb  Rb2  1  0.00000000  0.37370200  0.25000000  1
  Rb  Rb3  1  0.50000000  0.12629800  0.75000000  1
  Te  Te4  1  0.71814450  0.48239650  0.35398600  1
  Te  Te5  1  0.78185550  0.98239650  0.14601400  1
  Te  Te6  1  0.81649650  0.05321150  0.40838500  1
  Te  Te7  1  0.18350350  0.05321150  0.09161500  1
  Te  Te8  1  0.68350350  0.44678850  0.59161500  1
  Te  Te9  1  0.31649650  0.44678850  0.90838500  1
  Te  Te10  1  0.92181900  0.70154500  0.44258300  1
  Te  Te11  1  0.57818100  0.20154500  0.05741700  1
  Te  Te12  1  0.57818100  0.79845500  0.55741700  1
  Te  Te13  1  0.92181900  0.29845500  0.94258300  1
  Te  Te14  1  0.71814450  0.51760350  0.85398600  1
  Te  Te15  1  0.78185550  0.01760350  0.64601400  1
  Te  Te16  1  0.21814450  0.98239650  0.35398600  1
  Te  Te17  1  0.28185550  0.48239650  0.14601400  1
  Te  Te18  1  0.31649650  0.55321150  0.40838500  1
  Te  Te19  1  0.68350350  0.55321150  0.09161500  1
  Te  Te20  1  0.18350350  0.94678850  0.59161500  1
  Te  Te21  1  0.81649650  0.94678850  0.90838500  1
  Te  Te22  1  0.42181900  0.20154500  0.44258300  1
  Te  Te23  1  0.07818100  0.70154500  0.05741700  1
  Te  Te24  1  0.07818100  0.29845500  0.55741700  1
  Te  Te25  1  0.42181900  0.79845500  0.94258300  1
  Te  Te26  1  0.21814450  0.01760350  0.85398600  1
  Te  Te27  1  0.28185550  0.51760350  0.64601400  1
