# generated using pymatgen
data_V2WO6
_symmetry_space_group_name_H-M   'P 1'
_cell_length_a   4.70019350
_cell_length_b   4.70019350
_cell_length_c   9.17949800
_cell_angle_alpha   90.00000000
_cell_angle_beta   90.00000000
_cell_angle_gamma   90.00000000
_symmetry_Int_Tables_number   1
_chemical_formula_structural   V2WO6
_chemical_formula_sum   'V4 W2 O12'
_cell_volume   202.79180777
_cell_formula_units_Z   2
loop_
 _symmetry_equiv_pos_site_id
 _symmetry_equiv_pos_as_xyz
  1  'x, y, z'
loop_
 _atom_site_type_symbol
 _atom_site_label
 _atom_site_symmetry_multiplicity
 _atom_site_fract_x
 _atom_site_fract_y
 _atom_site_fract_z
 _atom_site_occupancy
  V  V0  1  0.50000000  0.50000000  0.16492900  1
  V  V1  1  0.00000000  0.00000000  0.33507100  1
  V  V2  1  0.00000000  0.00000000  0.66492900  1
  V  V3  1  0.50000000  0.50000000  0.83507100  1
  W  W4  1  0.00000000  0.00000000  0.00000000  1
  W  W5  1  0.50000000  0.50000000  0.50000000  1
  O  O6  1  0.29326200  0.29326200  0.00000000  1
  O  O7  1  0.20673800  0.79326200  0.50000000  1
  O  O8  1  0.79326200  0.20673800  0.50000000  1
  O  O9  1  0.70673800  0.70673800  0.00000000  1
  O  O10  1  0.69619200  0.69619200  0.65891700  1
  O  O11  1  0.30380800  0.30380800  0.65891700  1
  O  O12  1  0.69619200  0.69619200  0.34108300  1
  O  O13  1  0.19619200  0.80380800  0.15891700  1
  O  O14  1  0.80380800  0.19619200  0.15891700  1
  O  O15  1  0.80380800  0.19619200  0.84108300  1
  O  O16  1  0.19619200  0.80380800  0.84108300  1
  O  O17  1  0.30380800  0.30380800  0.34108300  1
