# generated using pymatgen
data_Na3(Mn2Te3)2
_symmetry_space_group_name_H-M   'P 1'
_cell_length_a   7.87484400
_cell_length_b   13.76814200
_cell_length_c   7.57952679
_cell_angle_alpha   90.00000000
_cell_angle_beta   91.13640088
_cell_angle_gamma   90.00000000
_symmetry_Int_Tables_number   1
_chemical_formula_structural   Na3(Mn2Te3)2
_chemical_formula_sum   'Na6 Mn8 Te12'
_cell_volume   821.62559503
_cell_formula_units_Z   2
loop_
 _symmetry_equiv_pos_site_id
 _symmetry_equiv_pos_as_xyz
  1  'x, y, z'
loop_
 _atom_site_type_symbol
 _atom_site_label
 _atom_site_symmetry_multiplicity
 _atom_site_fract_x
 _atom_site_fract_y
 _atom_site_fract_z
 _atom_site_occupancy
  Na  Na0  1  0.00000000  0.65171400  0.00000000  1
  Na  Na1  1  0.50000000  0.84828600  0.00000000  1
  Na  Na2  1  0.00000000  0.00000000  0.00000000  1
  Na  Na3  1  0.50000000  0.15171400  0.00000000  1
  Na  Na4  1  0.00000000  0.34828600  0.00000000  1
  Na  Na5  1  0.50000000  0.50000000  0.00000000  1
  Mn  Mn6  1  0.17380900  0.83967700  0.37594400  1
  Mn  Mn7  1  0.82619100  0.83967700  0.62405600  1
  Mn  Mn8  1  0.32619100  0.66032300  0.62405600  1
  Mn  Mn9  1  0.67380900  0.66032300  0.37594400  1
  Mn  Mn10  1  0.67380900  0.33967700  0.37594400  1
  Mn  Mn11  1  0.32619100  0.33967700  0.62405600  1
  Mn  Mn12  1  0.82619100  0.16032300  0.62405600  1
  Mn  Mn13  1  0.17380900  0.16032300  0.37594400  1
  Te  Te14  1  0.32210000  0.00000000  0.25870200  1
  Te  Te15  1  0.67790000  0.00000000  0.74129800  1
  Te  Te16  1  0.15965150  0.82455350  0.73750000  1
  Te  Te17  1  0.84034850  0.82455350  0.26250000  1
  Te  Te18  1  0.34034850  0.67544650  0.26250000  1
  Te  Te19  1  0.65965150  0.67544650  0.73750000  1
  Te  Te20  1  0.82210000  0.50000000  0.25870200  1
  Te  Te21  1  0.17790000  0.50000000  0.74129800  1
  Te  Te22  1  0.65965150  0.32455350  0.73750000  1
  Te  Te23  1  0.34034850  0.32455350  0.26250000  1
  Te  Te24  1  0.84034850  0.17544650  0.26250000  1
  Te  Te25  1  0.15965150  0.17544650  0.73750000  1
