# generated using pymatgen
data_Zn(Bi3O5)4
_symmetry_space_group_name_H-M   'P 1'
_cell_length_a   10.19794400
_cell_length_b   10.19794400
_cell_length_c   10.19794400
_cell_angle_alpha   90.00000000
_cell_angle_beta   90.00000000
_cell_angle_gamma   90.00000000
_symmetry_Int_Tables_number   1
_chemical_formula_structural   Zn(Bi3O5)4
_chemical_formula_sum   'Zn2 Bi24 O40'
_cell_volume   1060.56641062
_cell_formula_units_Z   2
loop_
 _symmetry_equiv_pos_site_id
 _symmetry_equiv_pos_as_xyz
  1  'x, y, z'
loop_
 _atom_site_type_symbol
 _atom_site_label
 _atom_site_symmetry_multiplicity
 _atom_site_fract_x
 _atom_site_fract_y
 _atom_site_fract_z
 _atom_site_occupancy
  Zn  Zn0  1  0.00000000  0.00000000  0.00000000  1
  Zn  Zn1  1  0.50000000  0.50000000  0.50000000  1
  Bi  Bi2  1  0.18501800  0.32593400  0.50677800  1
  Bi  Bi3  1  0.49322200  0.81498200  0.32593400  1
  Bi  Bi4  1  0.17406600  0.00677800  0.31498200  1
  Bi  Bi5  1  0.00677800  0.31498200  0.17406600  1
  Bi  Bi6  1  0.17406600  0.99322200  0.68501800  1
  Bi  Bi7  1  0.50677800  0.18501800  0.32593400  1
  Bi  Bi8  1  0.32593400  0.50677800  0.18501800  1
  Bi  Bi9  1  0.32593400  0.49322200  0.81498200  1
  Bi  Bi10  1  0.99322200  0.68501800  0.17406600  1
  Bi  Bi11  1  0.31498200  0.17406600  0.00677800  1
  Bi  Bi12  1  0.68501800  0.17406600  0.99322200  1
  Bi  Bi13  1  0.81498200  0.32593400  0.49322200  1
  Bi  Bi14  1  0.68501800  0.82593400  0.00677800  1
  Bi  Bi15  1  0.99322200  0.31498200  0.82593400  1
  Bi  Bi16  1  0.67406600  0.50677800  0.81498200  1
  Bi  Bi17  1  0.50677800  0.81498200  0.67406600  1
  Bi  Bi18  1  0.67406600  0.49322200  0.18501800  1
  Bi  Bi19  1  0.00677800  0.68501800  0.82593400  1
  Bi  Bi20  1  0.82593400  0.00677800  0.68501800  1
  Bi  Bi21  1  0.82593400  0.99322200  0.31498200  1
  Bi  Bi22  1  0.49322200  0.18501800  0.67406600  1
  Bi  Bi23  1  0.81498200  0.67406600  0.50677800  1
  Bi  Bi24  1  0.18501800  0.67406600  0.49322200  1
  Bi  Bi25  1  0.31498200  0.82593400  0.99322200  1
  O  O26  1  0.31069150  0.31069150  0.68930850  1
  O  O27  1  0.31069150  0.68930850  0.31069150  1
  O  O28  1  0.18930850  0.18930850  0.18930850  1
  O  O29  1  0.68930850  0.31069150  0.31069150  1
  O  O30  1  0.25042750  0.36946950  0.98896150  1
  O  O31  1  0.51103850  0.24957250  0.86946950  1
  O  O32  1  0.13053050  0.48896150  0.24957250  1
  O  O33  1  0.48896150  0.24957250  0.13053050  1
  O  O34  1  0.63053050  0.01103850  0.25042750  1
  O  O35  1  0.98896150  0.25042750  0.36946950  1
  O  O36  1  0.36946950  0.98896150  0.25042750  1
  O  O37  1  0.86946950  0.51103850  0.24957250  1
  O  O38  1  0.01103850  0.25042750  0.63053050  1
  O  O39  1  0.24957250  0.13053050  0.48896150  1
  O  O40  1  0.25042750  0.63053050  0.01103850  1
  O  O41  1  0.24957250  0.86946950  0.51103850  1
  O  O42  1  0.11490000  0.11490000  0.88510000  1
  O  O43  1  0.11490000  0.88510000  0.11490000  1
  O  O44  1  0.38510000  0.38510000  0.38510000  1
  O  O45  1  0.88510000  0.11490000  0.11490000  1
  O  O46  1  0.81069150  0.81069150  0.18930850  1
  O  O47  1  0.81069150  0.18930850  0.81069150  1
  O  O48  1  0.68930850  0.68930850  0.68930850  1
  O  O49  1  0.18930850  0.81069150  0.81069150  1
  O  O50  1  0.75042750  0.86946950  0.48896150  1
  O  O51  1  0.01103850  0.74957250  0.36946950  1
  O  O52  1  0.63053050  0.98896150  0.74957250  1
  O  O53  1  0.98896150  0.74957250  0.63053050  1
  O  O54  1  0.13053050  0.51103850  0.75042750  1
  O  O55  1  0.48896150  0.75042750  0.86946950  1
  O  O56  1  0.86946950  0.48896150  0.75042750  1
  O  O57  1  0.36946950  0.01103850  0.74957250  1
  O  O58  1  0.51103850  0.75042750  0.13053050  1
  O  O59  1  0.74957250  0.63053050  0.98896150  1
  O  O60  1  0.75042750  0.13053050  0.51103850  1
  O  O61  1  0.74957250  0.36946950  0.01103850  1
  O  O62  1  0.61490000  0.61490000  0.38510000  1
  O  O63  1  0.61490000  0.38510000  0.61490000  1
  O  O64  1  0.88510000  0.88510000  0.88510000  1
  O  O65  1  0.38510000  0.61490000  0.61490000  1
