# generated using pymatgen
data_NpCl4
_symmetry_space_group_name_H-M   'P 1'
_cell_length_a   8.31719600
_cell_length_b   8.31719600
_cell_length_c   7.76742600
_cell_angle_alpha   90.00000000
_cell_angle_beta   90.00000000
_cell_angle_gamma   90.00000000
_symmetry_Int_Tables_number   1
_chemical_formula_structural   NpCl4
_chemical_formula_sum   'Np4 Cl16'
_cell_volume   537.31751370
_cell_formula_units_Z   4
loop_
 _symmetry_equiv_pos_site_id
 _symmetry_equiv_pos_as_xyz
  1  'x, y, z'
loop_
 _atom_site_type_symbol
 _atom_site_label
 _atom_site_symmetry_multiplicity
 _atom_site_fract_x
 _atom_site_fract_y
 _atom_site_fract_z
 _atom_site_occupancy
  Np  Np0  1  0.50000000  0.50000000  0.50000000  1
  Np  Np1  1  0.50000000  0.00000000  0.25000000  1
  Np  Np2  1  0.00000000  0.00000000  0.00000000  1
  Np  Np3  1  0.00000000  0.50000000  0.75000000  1
  Cl  Cl4  1  0.00000000  0.81129300  0.68540500  1
  Cl  Cl5  1  0.68870700  0.00000000  0.93540500  1
  Cl  Cl6  1  0.81129300  0.00000000  0.31459500  1
  Cl  Cl7  1  0.50000000  0.18870700  0.56459500  1
  Cl  Cl8  1  0.00000000  0.31129300  0.06459500  1
  Cl  Cl9  1  0.18870700  0.00000000  0.31459500  1
  Cl  Cl10  1  0.00000000  0.18870700  0.68540500  1
  Cl  Cl11  1  0.81129300  0.50000000  0.43540500  1
  Cl  Cl12  1  0.50000000  0.31129300  0.18540500  1
  Cl  Cl13  1  0.18870700  0.50000000  0.43540500  1
  Cl  Cl14  1  0.31129300  0.50000000  0.81459500  1
  Cl  Cl15  1  0.00000000  0.68870700  0.06459500  1
  Cl  Cl16  1  0.50000000  0.81129300  0.56459500  1
  Cl  Cl17  1  0.68870700  0.50000000  0.81459500  1
  Cl  Cl18  1  0.50000000  0.68870700  0.18540500  1
  Cl  Cl19  1  0.31129300  0.00000000  0.93540500  1
