# generated using pymatgen
data_Te2AuCl
_symmetry_space_group_name_H-M   'P 1'
_cell_length_a   4.13196800
_cell_length_b   12.37227400
_cell_length_c   8.80597000
_cell_angle_alpha   90.00000000
_cell_angle_beta   90.00000000
_cell_angle_gamma   90.00000000
_symmetry_Int_Tables_number   1
_chemical_formula_structural   Te2AuCl
_chemical_formula_sum   'Te8 Au4 Cl4'
_cell_volume   450.17739163
_cell_formula_units_Z   4
loop_
 _symmetry_equiv_pos_site_id
 _symmetry_equiv_pos_as_xyz
  1  'x, y, z'
loop_
 _atom_site_type_symbol
 _atom_site_label
 _atom_site_symmetry_multiplicity
 _atom_site_fract_x
 _atom_site_fract_y
 _atom_site_fract_z
 _atom_site_occupancy
  Te  Te0  1  0.50000000  0.10766300  0.05039400  1
  Te  Te1  1  0.00000000  0.39233700  0.55039400  1
  Te  Te2  1  0.50000000  0.10766300  0.44960600  1
  Te  Te3  1  0.00000000  0.39233700  0.94960600  1
  Te  Te4  1  0.00000000  0.60766300  0.05039400  1
  Te  Te5  1  0.50000000  0.89233700  0.55039400  1
  Te  Te6  1  0.00000000  0.60766300  0.44960600  1
  Te  Te7  1  0.50000000  0.89233700  0.94960600  1
  Au  Au8  1  0.00000000  0.08583000  0.25000000  1
  Au  Au9  1  0.50000000  0.41417000  0.75000000  1
  Au  Au10  1  0.50000000  0.58583000  0.25000000  1
  Au  Au11  1  0.00000000  0.91417000  0.75000000  1
  Cl  Cl12  1  0.50000000  0.33155000  0.25000000  1
  Cl  Cl13  1  0.00000000  0.16845000  0.75000000  1
  Cl  Cl14  1  0.00000000  0.83155000  0.25000000  1
  Cl  Cl15  1  0.50000000  0.66845000  0.75000000  1
