# generated using pymatgen
data_P2Pd15
_symmetry_space_group_name_H-M   'P 1'
_cell_length_a   7.22588416
_cell_length_b   7.22588416
_cell_length_c   17.37771512
_cell_angle_alpha   90.00000000
_cell_angle_beta   90.00000000
_cell_angle_gamma   120.00000000
_symmetry_Int_Tables_number   1
_chemical_formula_structural   P2Pd15
_chemical_formula_sum   'P6 Pd45'
_cell_volume   785.78782506
_cell_formula_units_Z   3
loop_
 _symmetry_equiv_pos_site_id
 _symmetry_equiv_pos_as_xyz
  1  'x, y, z'
loop_
 _atom_site_type_symbol
 _atom_site_label
 _atom_site_symmetry_multiplicity
 _atom_site_fract_x
 _atom_site_fract_y
 _atom_site_fract_z
 _atom_site_occupancy
  P  P0  1  0.33333333  0.66666667  0.38098367  1
  P  P1  1  0.33333333  0.66666667  0.95234967  1
  P  P2  1  0.00000000  0.00000000  0.71431700  1
  P  P3  1  0.00000000  0.00000000  0.28568300  1
  P  P4  1  0.66666667  0.33333333  0.04765033  1
  P  P5  1  0.66666667  0.33333333  0.61901633  1
  Pd  Pd6  1  0.59847267  0.71581633  0.03620033  1
  Pd  Pd7  1  0.28418367  0.88265633  0.03620033  1
  Pd  Pd8  1  0.11734367  0.40152733  0.03620033  1
  Pd  Pd9  1  0.06819400  0.61751700  0.29713300  1
  Pd  Pd10  1  0.38248300  0.45067700  0.29713300  1
  Pd  Pd11  1  0.54932300  0.93180600  0.29713300  1
  Pd  Pd12  1  0.74244233  0.76275467  0.20477567  1
  Pd  Pd13  1  0.23724533  0.97968767  0.20477567  1
  Pd  Pd14  1  0.02031233  0.25755767  0.20477567  1
  Pd  Pd15  1  0.92422433  0.57057867  0.12855767  1
  Pd  Pd16  1  0.42942133  0.35364567  0.12855767  1
  Pd  Pd17  1  0.64635433  0.07577567  0.12855767  1
  Pd  Pd18  1  0.33333333  0.66666667  0.58723967  1
  Pd  Pd19  1  0.33333333  0.66666667  0.74609367  1
  Pd  Pd20  1  0.33333333  0.66666667  0.16666667  1
  Pd  Pd21  1  0.26513933  0.04914967  0.36953367  1
  Pd  Pd22  1  0.95085033  0.21598967  0.36953367  1
  Pd  Pd23  1  0.78401033  0.73486067  0.36953367  1
  Pd  Pd24  1  0.73486067  0.95085033  0.63046633  1
  Pd  Pd25  1  0.04914967  0.78401033  0.63046633  1
  Pd  Pd26  1  0.21598967  0.26513933  0.63046633  1
  Pd  Pd27  1  0.40910900  0.09608800  0.53810900  1
  Pd  Pd28  1  0.90391200  0.31302100  0.53810900  1
  Pd  Pd29  1  0.68697900  0.59089100  0.53810900  1
  Pd  Pd30  1  0.59089100  0.90391200  0.46189100  1
  Pd  Pd31  1  0.09608800  0.68697900  0.46189100  1
  Pd  Pd32  1  0.31302100  0.40910900  0.46189100  1
  Pd  Pd33  1  0.00000000  0.00000000  0.92057300  1
  Pd  Pd34  1  0.00000000  0.00000000  0.07942700  1
  Pd  Pd35  1  1.00000000  0.00000000  0.50000000  1
  Pd  Pd36  1  0.93180600  0.38248300  0.70286700  1
  Pd  Pd37  1  0.61751700  0.54932300  0.70286700  1
  Pd  Pd38  1  0.45067700  0.06819400  0.70286700  1
  Pd  Pd39  1  0.40152733  0.28418367  0.96379967  1
  Pd  Pd40  1  0.71581633  0.11734367  0.96379967  1
  Pd  Pd41  1  0.88265633  0.59847267  0.96379967  1
  Pd  Pd42  1  0.07577567  0.42942133  0.87144233  1
  Pd  Pd43  1  0.57057867  0.64635433  0.87144233  1
  Pd  Pd44  1  0.35364567  0.92422433  0.87144233  1
  Pd  Pd45  1  0.25755767  0.23724533  0.79522433  1
  Pd  Pd46  1  0.76275467  0.02031233  0.79522433  1
  Pd  Pd47  1  0.97968767  0.74244233  0.79522433  1
  Pd  Pd48  1  0.66666667  0.33333333  0.25390633  1
  Pd  Pd49  1  0.66666667  0.33333333  0.41276033  1
  Pd  Pd50  1  0.66666667  0.33333333  0.83333333  1
