# generated using pymatgen
data_YbIn2Ni
_symmetry_space_group_name_H-M   'P 1'
_cell_length_a   4.35886400
_cell_length_b   10.13358400
_cell_length_c   7.71294200
_cell_angle_alpha   90.00000000
_cell_angle_beta   90.00000000
_cell_angle_gamma   90.00000000
_symmetry_Int_Tables_number   1
_chemical_formula_structural   YbIn2Ni
_chemical_formula_sum   'Yb4 In8 Ni4'
_cell_volume   340.68770154
_cell_formula_units_Z   4
loop_
 _symmetry_equiv_pos_site_id
 _symmetry_equiv_pos_as_xyz
  1  'x, y, z'
loop_
 _atom_site_type_symbol
 _atom_site_label
 _atom_site_symmetry_multiplicity
 _atom_site_fract_x
 _atom_site_fract_y
 _atom_site_fract_z
 _atom_site_occupancy
  Yb  Yb0  1  0.50000000  0.43817500  0.75000000  1
  Yb  Yb1  1  0.00000000  0.06182500  0.25000000  1
  Yb  Yb2  1  0.00000000  0.93817500  0.75000000  1
  Yb  Yb3  1  0.50000000  0.56182500  0.25000000  1
  In  In4  1  0.00000000  0.35133300  0.05244000  1
  In  In5  1  0.50000000  0.14866700  0.94756000  1
  In  In6  1  0.00000000  0.35133300  0.44756000  1
  In  In7  1  0.50000000  0.14866700  0.55244000  1
  In  In8  1  0.50000000  0.85133300  0.05244000  1
  In  In9  1  0.00000000  0.64866700  0.94756000  1
  In  In10  1  0.50000000  0.85133300  0.44756000  1
  In  In11  1  0.00000000  0.64866700  0.55244000  1
  Ni  Ni12  1  0.50000000  0.28162400  0.25000000  1
  Ni  Ni13  1  0.00000000  0.21837600  0.75000000  1
  Ni  Ni14  1  0.00000000  0.78162400  0.25000000  1
  Ni  Ni15  1  0.50000000  0.71837600  0.75000000  1
