# generated using pymatgen
data_UCl4
_symmetry_space_group_name_H-M   'P 1'
_cell_length_a   8.36708800
_cell_length_b   8.36708800
_cell_length_c   7.78511200
_cell_angle_alpha   90.00000000
_cell_angle_beta   90.00000000
_cell_angle_gamma   90.00000000
_symmetry_Int_Tables_number   1
_chemical_formula_structural   UCl4
_chemical_formula_sum   'U4 Cl16'
_cell_volume   545.02137897
_cell_formula_units_Z   4
loop_
 _symmetry_equiv_pos_site_id
 _symmetry_equiv_pos_as_xyz
  1  'x, y, z'
loop_
 _atom_site_type_symbol
 _atom_site_label
 _atom_site_symmetry_multiplicity
 _atom_site_fract_x
 _atom_site_fract_y
 _atom_site_fract_z
 _atom_site_occupancy
  U  U0  1  0.50000000  0.50000000  0.50000000  1
  U  U1  1  0.50000000  0.00000000  0.25000000  1
  U  U2  1  0.00000000  0.00000000  0.00000000  1
  U  U3  1  0.00000000  0.50000000  0.75000000  1
  Cl  Cl4  1  0.00000000  0.81071800  0.68382100  1
  Cl  Cl5  1  0.68928200  0.00000000  0.93382100  1
  Cl  Cl6  1  0.81071800  0.00000000  0.31617900  1
  Cl  Cl7  1  0.50000000  0.18928200  0.56617900  1
  Cl  Cl8  1  0.00000000  0.31071800  0.06617900  1
  Cl  Cl9  1  0.18928200  0.00000000  0.31617900  1
  Cl  Cl10  1  0.00000000  0.18928200  0.68382100  1
  Cl  Cl11  1  0.81071800  0.50000000  0.43382100  1
  Cl  Cl12  1  0.50000000  0.31071800  0.18382100  1
  Cl  Cl13  1  0.18928200  0.50000000  0.43382100  1
  Cl  Cl14  1  0.31071800  0.50000000  0.81617900  1
  Cl  Cl15  1  0.00000000  0.68928200  0.06617900  1
  Cl  Cl16  1  0.50000000  0.81071800  0.56617900  1
  Cl  Cl17  1  0.68928200  0.50000000  0.81617900  1
  Cl  Cl18  1  0.50000000  0.68928200  0.18382100  1
  Cl  Cl19  1  0.31071800  0.00000000  0.93382100  1
