# generated using pymatgen
data_Bi(PO3)4
_symmetry_space_group_name_H-M   'P 1'
_cell_length_a   18.06360200
_cell_length_b   11.88024600
_cell_length_c   5.27097609
_cell_angle_alpha   90.00000000
_cell_angle_beta   103.56432180
_cell_angle_gamma   90.00000000
_symmetry_Int_Tables_number   1
_chemical_formula_structural   Bi(PO3)4
_chemical_formula_sum   'Bi4 P16 O48'
_cell_volume   1099.60070982
_cell_formula_units_Z   4
loop_
 _symmetry_equiv_pos_site_id
 _symmetry_equiv_pos_as_xyz
  1  'x, y, z'
loop_
 _atom_site_type_symbol
 _atom_site_label
 _atom_site_symmetry_multiplicity
 _atom_site_fract_x
 _atom_site_fract_y
 _atom_site_fract_z
 _atom_site_occupancy
  Bi  Bi0  1  0.34218200  0.00000000  0.39485300  1
  Bi  Bi1  1  0.65781800  0.00000000  0.60514700  1
  Bi  Bi2  1  0.84218200  0.50000000  0.39485300  1
  Bi  Bi3  1  0.15781800  0.50000000  0.60514700  1
  P  P4  1  0.81656100  0.12102600  0.09975500  1
  P  P5  1  0.58339450  0.81575850  0.00244800  1
  P  P6  1  0.41660550  0.81575850  0.99755200  1
  P  P7  1  0.41660550  0.18424150  0.99755200  1
  P  P8  1  0.18343900  0.87897400  0.90024500  1
  P  P9  1  0.58339450  0.18424150  0.00244800  1
  P  P10  1  0.81656100  0.87897400  0.09975500  1
  P  P11  1  0.18343900  0.12102600  0.90024500  1
  P  P12  1  0.31656100  0.62102600  0.09975500  1
  P  P13  1  0.08339450  0.31575850  0.00244800  1
  P  P14  1  0.91660550  0.31575850  0.99755200  1
  P  P15  1  0.91660550  0.68424150  0.99755200  1
  P  P16  1  0.68343900  0.37897400  0.90024500  1
  P  P17  1  0.08339450  0.68424150  0.00244800  1
  P  P18  1  0.31656100  0.37897400  0.09975500  1
  P  P19  1  0.68343900  0.62102600  0.90024500  1
  O  O20  1  0.57793900  0.88060900  0.75124400  1
  O  O21  1  0.81243200  0.14161900  0.37598400  1
  O  O22  1  0.18756800  0.85838100  0.62401600  1
  O  O23  1  0.18756800  0.14161900  0.62401600  1
  O  O24  1  0.50000000  0.76930300  0.00000000  1
  O  O25  1  0.50000000  0.23069700  0.00000000  1
  O  O26  1  0.61836050  0.87294050  0.25439100  1
  O  O27  1  0.61836050  0.12705950  0.25439100  1
  O  O28  1  0.37830550  0.69538250  0.00612700  1
  O  O29  1  0.37830550  0.30461750  0.00612700  1
  O  O30  1  0.14408700  0.00000000  0.92584300  1
  O  O31  1  0.42206100  0.88060900  0.24875600  1
  O  O32  1  0.42206100  0.11939100  0.24875600  1
  O  O33  1  0.25874600  0.87374700  0.10115900  1
  O  O34  1  0.25874600  0.12625300  0.10115900  1
  O  O35  1  0.38163950  0.12705950  0.74560900  1
  O  O36  1  0.74125400  0.12625300  0.89884100  1
  O  O37  1  0.74125400  0.87374700  0.89884100  1
  O  O38  1  0.57793900  0.11939100  0.75124400  1
  O  O39  1  0.85591300  0.00000000  0.07415700  1
  O  O40  1  0.62169450  0.69538250  0.99387300  1
  O  O41  1  0.62169450  0.30461750  0.99387300  1
  O  O42  1  0.38163950  0.87294050  0.74560900  1
  O  O43  1  0.81243200  0.85838100  0.37598400  1
  O  O44  1  0.07793900  0.38060900  0.75124400  1
  O  O45  1  0.31243200  0.64161900  0.37598400  1
  O  O46  1  0.68756800  0.35838100  0.62401600  1
  O  O47  1  0.68756800  0.64161900  0.62401600  1
  O  O48  1  0.00000000  0.26930300  0.00000000  1
  O  O49  1  0.00000000  0.73069700  0.00000000  1
  O  O50  1  0.11836050  0.37294050  0.25439100  1
  O  O51  1  0.11836050  0.62705950  0.25439100  1
  O  O52  1  0.87830550  0.19538250  0.00612700  1
  O  O53  1  0.87830550  0.80461750  0.00612700  1
  O  O54  1  0.64408700  0.50000000  0.92584300  1
  O  O55  1  0.92206100  0.38060900  0.24875600  1
  O  O56  1  0.92206100  0.61939100  0.24875600  1
  O  O57  1  0.75874600  0.37374700  0.10115900  1
  O  O58  1  0.75874600  0.62625300  0.10115900  1
  O  O59  1  0.88163950  0.62705950  0.74560900  1
  O  O60  1  0.24125400  0.62625300  0.89884100  1
  O  O61  1  0.24125400  0.37374700  0.89884100  1
  O  O62  1  0.07793900  0.61939100  0.75124400  1
  O  O63  1  0.35591300  0.50000000  0.07415700  1
  O  O64  1  0.12169450  0.19538250  0.99387300  1
  O  O65  1  0.12169450  0.80461750  0.99387300  1
  O  O66  1  0.88163950  0.37294050  0.74560900  1
  O  O67  1  0.31243200  0.35838100  0.37598400  1
