# generated using pymatgen
data_SrIn4
_symmetry_space_group_name_H-M   'P 1'
_cell_length_a   4.95718000
_cell_length_b   4.95718000
_cell_length_c   12.33409200
_cell_angle_alpha   90.00000000
_cell_angle_beta   90.00000000
_cell_angle_gamma   90.00000000
_symmetry_Int_Tables_number   1
_chemical_formula_structural   SrIn4
_chemical_formula_sum   'Sr2 In8'
_cell_volume   303.09345701
_cell_formula_units_Z   2
loop_
 _symmetry_equiv_pos_site_id
 _symmetry_equiv_pos_as_xyz
  1  'x, y, z'
loop_
 _atom_site_type_symbol
 _atom_site_label
 _atom_site_symmetry_multiplicity
 _atom_site_fract_x
 _atom_site_fract_y
 _atom_site_fract_z
 _atom_site_occupancy
  Sr  Sr0  1  0.00000000  0.00000000  0.00000000  1
  Sr  Sr1  1  0.50000000  0.50000000  0.50000000  1
  In  In2  1  0.50000000  0.00000000  0.25000000  1
  In  In3  1  0.00000000  0.50000000  0.25000000  1
  In  In4  1  0.00000000  0.00000000  0.38585200  1
  In  In5  1  0.50000000  0.50000000  0.11414800  1
  In  In6  1  0.00000000  0.50000000  0.75000000  1
  In  In7  1  0.50000000  0.00000000  0.75000000  1
  In  In8  1  0.50000000  0.50000000  0.88585200  1
  In  In9  1  0.00000000  0.00000000  0.61414800  1
