# generated using pymatgen
data_Sr5(B5Rh7)2
_symmetry_space_group_name_H-M   'P 1'
_cell_length_a   5.65531800
_cell_length_b   9.96293600
_cell_length_c   29.04548600
_cell_angle_alpha   90.00000000
_cell_angle_beta   90.00000000
_cell_angle_gamma   90.00000000
_symmetry_Int_Tables_number   1
_chemical_formula_structural   Sr5(B5Rh7)2
_chemical_formula_sum   'Sr20 B40 Rh56'
_cell_volume   1636.52641120
_cell_formula_units_Z   4
loop_
 _symmetry_equiv_pos_site_id
 _symmetry_equiv_pos_as_xyz
  1  'x, y, z'
loop_
 _atom_site_type_symbol
 _atom_site_label
 _atom_site_symmetry_multiplicity
 _atom_site_fract_x
 _atom_site_fract_y
 _atom_site_fract_z
 _atom_site_occupancy
  Sr  Sr0  1  0.00000000  0.00000000  0.71156100  1
  Sr  Sr1  1  0.50000000  0.00000000  0.78843900  1
  Sr  Sr2  1  0.00000000  0.00000000  0.60450600  1
  Sr  Sr3  1  0.50000000  0.00000000  0.89549400  1
  Sr  Sr4  1  0.50000000  0.00000000  0.00000000  1
  Sr  Sr5  1  0.00000000  0.50000000  0.21156100  1
  Sr  Sr6  1  0.50000000  0.50000000  0.28843900  1
  Sr  Sr7  1  0.00000000  0.50000000  0.10450600  1
  Sr  Sr8  1  0.50000000  0.50000000  0.39549400  1
  Sr  Sr9  1  0.50000000  0.50000000  0.50000000  1
  Sr  Sr10  1  0.50000000  0.00000000  0.21156100  1
  Sr  Sr11  1  0.00000000  0.00000000  0.28843900  1
  Sr  Sr12  1  0.50000000  0.00000000  0.10450600  1
  Sr  Sr13  1  0.00000000  0.00000000  0.39549400  1
  Sr  Sr14  1  0.00000000  0.00000000  0.50000000  1
  Sr  Sr15  1  0.50000000  0.50000000  0.71156100  1
  Sr  Sr16  1  0.00000000  0.50000000  0.78843900  1
  Sr  Sr17  1  0.50000000  0.50000000  0.60450600  1
  Sr  Sr18  1  0.00000000  0.50000000  0.89549400  1
  Sr  Sr19  1  0.00000000  0.50000000  0.00000000  1
  B  B20  1  0.50000000  0.83388400  0.70164600  1
  B  B21  1  0.50000000  0.66611600  0.79835400  1
  B  B22  1  0.00000000  0.83388400  0.79835400  1
  B  B23  1  0.00000000  0.66611600  0.70164600  1
  B  B24  1  0.50000000  0.83495300  0.60111600  1
  B  B25  1  0.50000000  0.66504700  0.89888400  1
  B  B26  1  0.00000000  0.83495300  0.89888400  1
  B  B27  1  0.00000000  0.66504700  0.60111600  1
  B  B28  1  0.00000000  0.83378000  0.00000000  1
  B  B29  1  0.50000000  0.66622000  0.00000000  1
  B  B30  1  0.50000000  0.33388400  0.20164600  1
  B  B31  1  0.50000000  0.16611600  0.29835400  1
  B  B32  1  0.00000000  0.33388400  0.29835400  1
  B  B33  1  0.00000000  0.16611600  0.20164600  1
  B  B34  1  0.50000000  0.33495300  0.10111600  1
  B  B35  1  0.50000000  0.16504700  0.39888400  1
  B  B36  1  0.00000000  0.33495300  0.39888400  1
  B  B37  1  0.00000000  0.16504700  0.10111600  1
  B  B38  1  0.00000000  0.33378000  0.50000000  1
  B  B39  1  0.50000000  0.16622000  0.50000000  1
  B  B40  1  0.00000000  0.83388400  0.20164600  1
  B  B41  1  0.00000000  0.66611600  0.29835400  1
  B  B42  1  0.50000000  0.83388400  0.29835400  1
  B  B43  1  0.50000000  0.66611600  0.20164600  1
  B  B44  1  0.00000000  0.83495300  0.10111600  1
  B  B45  1  0.00000000  0.66504700  0.39888400  1
  B  B46  1  0.50000000  0.83495300  0.39888400  1
  B  B47  1  0.50000000  0.66504700  0.10111600  1
  B  B48  1  0.50000000  0.83378000  0.50000000  1
  B  B49  1  0.00000000  0.66622000  0.50000000  1
  B  B50  1  0.00000000  0.33388400  0.70164600  1
  B  B51  1  0.00000000  0.16611600  0.79835400  1
  B  B52  1  0.50000000  0.33388400  0.79835400  1
  B  B53  1  0.50000000  0.16611600  0.70164600  1
  B  B54  1  0.00000000  0.33495300  0.60111600  1
  B  B55  1  0.00000000  0.16504700  0.89888400  1
  B  B56  1  0.50000000  0.33495300  0.89888400  1
  B  B57  1  0.50000000  0.16504700  0.60111600  1
  B  B58  1  0.50000000  0.33378000  0.00000000  1
  B  B59  1  0.00000000  0.16622000  0.00000000  1
  Rh  Rh60  1  0.75000000  0.75000000  0.75000000  1
  Rh  Rh61  1  0.25000000  0.75000000  0.75000000  1
  Rh  Rh62  1  0.75000000  0.75000000  0.65150300  1
  Rh  Rh63  1  0.75000000  0.75000000  0.84849700  1
  Rh  Rh64  1  0.25000000  0.75000000  0.84849700  1
  Rh  Rh65  1  0.25000000  0.75000000  0.65150300  1
  Rh  Rh66  1  0.75000000  0.75000000  0.55073800  1
  Rh  Rh67  1  0.75000000  0.75000000  0.94926200  1
  Rh  Rh68  1  0.25000000  0.75000000  0.94926200  1
  Rh  Rh69  1  0.25000000  0.75000000  0.55073800  1
  Rh  Rh70  1  0.00000000  0.00000000  0.84724500  1
  Rh  Rh71  1  0.50000000  0.00000000  0.65275500  1
  Rh  Rh72  1  0.00000000  0.00000000  0.94951600  1
  Rh  Rh73  1  0.50000000  0.00000000  0.55048400  1
  Rh  Rh74  1  0.75000000  0.25000000  0.25000000  1
  Rh  Rh75  1  0.25000000  0.25000000  0.25000000  1
  Rh  Rh76  1  0.75000000  0.25000000  0.15150300  1
  Rh  Rh77  1  0.75000000  0.25000000  0.34849700  1
  Rh  Rh78  1  0.25000000  0.25000000  0.34849700  1
  Rh  Rh79  1  0.25000000  0.25000000  0.15150300  1
  Rh  Rh80  1  0.75000000  0.25000000  0.05073800  1
  Rh  Rh81  1  0.75000000  0.25000000  0.44926200  1
  Rh  Rh82  1  0.25000000  0.25000000  0.44926200  1
  Rh  Rh83  1  0.25000000  0.25000000  0.05073800  1
  Rh  Rh84  1  0.00000000  0.50000000  0.34724500  1
  Rh  Rh85  1  0.50000000  0.50000000  0.15275500  1
  Rh  Rh86  1  0.00000000  0.50000000  0.44951600  1
  Rh  Rh87  1  0.50000000  0.50000000  0.05048400  1
  Rh  Rh88  1  0.25000000  0.75000000  0.25000000  1
  Rh  Rh89  1  0.75000000  0.75000000  0.25000000  1
  Rh  Rh90  1  0.25000000  0.75000000  0.15150300  1
  Rh  Rh91  1  0.25000000  0.75000000  0.34849700  1
  Rh  Rh92  1  0.75000000  0.75000000  0.34849700  1
  Rh  Rh93  1  0.75000000  0.75000000  0.15150300  1
  Rh  Rh94  1  0.25000000  0.75000000  0.05073800  1
  Rh  Rh95  1  0.25000000  0.75000000  0.44926200  1
  Rh  Rh96  1  0.75000000  0.75000000  0.44926200  1
  Rh  Rh97  1  0.75000000  0.75000000  0.05073800  1
  Rh  Rh98  1  0.50000000  0.00000000  0.34724500  1
  Rh  Rh99  1  0.00000000  0.00000000  0.15275500  1
  Rh  Rh100  1  0.50000000  0.00000000  0.44951600  1
  Rh  Rh101  1  0.00000000  0.00000000  0.05048400  1
  Rh  Rh102  1  0.25000000  0.25000000  0.75000000  1
  Rh  Rh103  1  0.75000000  0.25000000  0.75000000  1
  Rh  Rh104  1  0.25000000  0.25000000  0.65150300  1
  Rh  Rh105  1  0.25000000  0.25000000  0.84849700  1
  Rh  Rh106  1  0.75000000  0.25000000  0.84849700  1
  Rh  Rh107  1  0.75000000  0.25000000  0.65150300  1
  Rh  Rh108  1  0.25000000  0.25000000  0.55073800  1
  Rh  Rh109  1  0.25000000  0.25000000  0.94926200  1
  Rh  Rh110  1  0.75000000  0.25000000  0.94926200  1
  Rh  Rh111  1  0.75000000  0.25000000  0.55073800  1
  Rh  Rh112  1  0.50000000  0.50000000  0.84724500  1
  Rh  Rh113  1  0.00000000  0.50000000  0.65275500  1
  Rh  Rh114  1  0.50000000  0.50000000  0.94951600  1
  Rh  Rh115  1  0.00000000  0.50000000  0.55048400  1
