# generated using pymatgen
data_Sc7Cl10
_symmetry_space_group_name_H-M   'P 1'
_cell_length_a   19.78416200
_cell_length_b   3.55729800
_cell_length_c   12.66433943
_cell_angle_alpha   90.00000000
_cell_angle_beta   91.83612788
_cell_angle_gamma   90.00000000
_symmetry_Int_Tables_number   1
_chemical_formula_structural   Sc7Cl10
_chemical_formula_sum   'Sc14 Cl20'
_cell_volume   890.83527655
_cell_formula_units_Z   2
loop_
 _symmetry_equiv_pos_site_id
 _symmetry_equiv_pos_as_xyz
  1  'x, y, z'
loop_
 _atom_site_type_symbol
 _atom_site_label
 _atom_site_symmetry_multiplicity
 _atom_site_fract_x
 _atom_site_fract_y
 _atom_site_fract_z
 _atom_site_occupancy
  Sc  Sc0  1  0.81253000  0.00000000  0.53287200  1
  Sc  Sc1  1  0.68747000  0.50000000  0.46712800  1
  Sc  Sc2  1  0.69645900  0.00000000  0.69494600  1
  Sc  Sc3  1  0.80354100  0.50000000  0.30505400  1
  Sc  Sc4  1  0.83217000  0.50000000  0.75119800  1
  Sc  Sc5  1  0.66783000  0.00000000  0.24880200  1
  Sc  Sc6  1  0.00000000  0.00000000  0.00000000  1
  Sc  Sc7  1  0.31253000  0.50000000  0.53287200  1
  Sc  Sc8  1  0.18747000  0.00000000  0.46712800  1
  Sc  Sc9  1  0.19645900  0.50000000  0.69494600  1
  Sc  Sc10  1  0.30354100  0.00000000  0.30505400  1
  Sc  Sc11  1  0.33217000  0.00000000  0.75119800  1
  Sc  Sc12  1  0.16783000  0.50000000  0.24880200  1
  Sc  Sc13  1  0.50000000  0.50000000  0.00000000  1
  Cl  Cl14  1  0.89187000  0.00000000  0.87613900  1
  Cl  Cl15  1  0.60813000  0.50000000  0.12386100  1
  Cl  Cl16  1  0.72194700  0.50000000  0.84460200  1
  Cl  Cl17  1  0.77805300  0.00000000  0.15539800  1
  Cl  Cl18  1  0.55170000  0.00000000  0.88831300  1
  Cl  Cl19  1  0.94830000  0.50000000  0.11168700  1
  Cl  Cl20  1  0.60931000  0.50000000  0.63581300  1
  Cl  Cl21  1  0.59242900  0.00000000  0.39827800  1
  Cl  Cl22  1  0.90757100  0.50000000  0.60172200  1
  Cl  Cl23  1  0.89069000  0.00000000  0.36418700  1
  Cl  Cl24  1  0.39187000  0.50000000  0.87613900  1
  Cl  Cl25  1  0.10813000  0.00000000  0.12386100  1
  Cl  Cl26  1  0.22194700  0.00000000  0.84460200  1
  Cl  Cl27  1  0.27805300  0.50000000  0.15539800  1
  Cl  Cl28  1  0.05170000  0.50000000  0.88831300  1
  Cl  Cl29  1  0.44830000  0.00000000  0.11168700  1
  Cl  Cl30  1  0.10931000  0.00000000  0.63581300  1
  Cl  Cl31  1  0.09242900  0.50000000  0.39827800  1
  Cl  Cl32  1  0.40757100  0.00000000  0.60172200  1
  Cl  Cl33  1  0.39069000  0.50000000  0.36418700  1
