# generated using pymatgen
data_YbIn2Pd
_symmetry_space_group_name_H-M   'P 1'
_cell_length_a   4.48616300
_cell_length_b   10.25071000
_cell_length_c   7.95835300
_cell_angle_alpha   90.00000000
_cell_angle_beta   90.00000000
_cell_angle_gamma   90.00000000
_symmetry_Int_Tables_number   1
_chemical_formula_structural   YbIn2Pd
_chemical_formula_sum   'Yb4 In8 Pd4'
_cell_volume   365.97565364
_cell_formula_units_Z   4
loop_
 _symmetry_equiv_pos_site_id
 _symmetry_equiv_pos_as_xyz
  1  'x, y, z'
loop_
 _atom_site_type_symbol
 _atom_site_label
 _atom_site_symmetry_multiplicity
 _atom_site_fract_x
 _atom_site_fract_y
 _atom_site_fract_z
 _atom_site_occupancy
  Yb  Yb0  1  0.50000000  0.43332700  0.75000000  1
  Yb  Yb1  1  0.00000000  0.06667300  0.25000000  1
  Yb  Yb2  1  0.00000000  0.93332700  0.75000000  1
  Yb  Yb3  1  0.50000000  0.56667300  0.25000000  1
  In  In4  1  0.00000000  0.35644300  0.05285000  1
  In  In5  1  0.50000000  0.14355700  0.94715000  1
  In  In6  1  0.00000000  0.35644300  0.44715000  1
  In  In7  1  0.50000000  0.14355700  0.55285000  1
  In  In8  1  0.50000000  0.85644300  0.05285000  1
  In  In9  1  0.00000000  0.64355700  0.94715000  1
  In  In10  1  0.50000000  0.85644300  0.44715000  1
  In  In11  1  0.00000000  0.64355700  0.55285000  1
  Pd  Pd12  1  0.50000000  0.28270600  0.25000000  1
  Pd  Pd13  1  0.00000000  0.21729400  0.75000000  1
  Pd  Pd14  1  0.00000000  0.78270600  0.25000000  1
  Pd  Pd15  1  0.50000000  0.71729400  0.75000000  1
