# generated using pymatgen
data_Ca5Au2
_symmetry_space_group_name_H-M   'P 1'
_cell_length_a   16.86659600
_cell_length_b   6.87925000
_cell_length_c   7.83048341
_cell_angle_alpha   90.00000000
_cell_angle_beta   97.72423659
_cell_angle_gamma   90.00000000
_symmetry_Int_Tables_number   1
_chemical_formula_structural   Ca5Au2
_chemical_formula_sum   'Ca20 Au8'
_cell_volume   900.32336819
_cell_formula_units_Z   4
loop_
 _symmetry_equiv_pos_site_id
 _symmetry_equiv_pos_as_xyz
  1  'x, y, z'
loop_
 _atom_site_type_symbol
 _atom_site_label
 _atom_site_symmetry_multiplicity
 _atom_site_fract_x
 _atom_site_fract_y
 _atom_site_fract_z
 _atom_site_occupancy
  Ca  Ca0  1  0.71865050  0.92003850  0.81690300  1
  Ca  Ca1  1  0.78134950  0.42003850  0.68309700  1
  Ca  Ca2  1  0.78134950  0.57996150  0.18309700  1
  Ca  Ca3  1  0.71865050  0.07996150  0.31690300  1
  Ca  Ca4  1  0.00000000  0.58025900  0.25000000  1
  Ca  Ca5  1  0.00000000  0.41974100  0.75000000  1
  Ca  Ca6  1  0.59109750  0.60867850  0.42101300  1
  Ca  Ca7  1  0.90890250  0.10867850  0.07898700  1
  Ca  Ca8  1  0.90890250  0.89132150  0.57898700  1
  Ca  Ca9  1  0.59109750  0.39132150  0.92101300  1
  Ca  Ca10  1  0.21865050  0.42003850  0.81690300  1
  Ca  Ca11  1  0.28134950  0.92003850  0.68309700  1
  Ca  Ca12  1  0.28134950  0.07996150  0.18309700  1
  Ca  Ca13  1  0.21865050  0.57996150  0.31690300  1
  Ca  Ca14  1  0.50000000  0.08025900  0.25000000  1
  Ca  Ca15  1  0.50000000  0.91974100  0.75000000  1
  Ca  Ca16  1  0.09109750  0.10867850  0.42101300  1
  Ca  Ca17  1  0.40890250  0.60867850  0.07898700  1
  Ca  Ca18  1  0.40890250  0.39132150  0.57898700  1
  Ca  Ca19  1  0.09109750  0.89132150  0.92101300  1
  Au  Au20  1  0.61015500  0.20662100  0.58135500  1
  Au  Au21  1  0.88984500  0.70662100  0.91864500  1
  Au  Au22  1  0.88984500  0.29337900  0.41864500  1
  Au  Au23  1  0.61015500  0.79337900  0.08135500  1
  Au  Au24  1  0.11015500  0.70662100  0.58135500  1
  Au  Au25  1  0.38984500  0.20662100  0.91864500  1
  Au  Au26  1  0.38984500  0.79337900  0.41864500  1
  Au  Au27  1  0.11015500  0.29337900  0.08135500  1
