# generated using pymatgen
data_Co10Ge3O16
_symmetry_space_group_name_H-M   'P 1'
_cell_length_a   6.01937471
_cell_length_b   6.01937471
_cell_length_c   29.18927934
_cell_angle_alpha   90.00000000
_cell_angle_beta   90.00000000
_cell_angle_gamma   120.00000000
_symmetry_Int_Tables_number   1
_chemical_formula_structural   Co10Ge3O16
_chemical_formula_sum   'Co30 Ge9 O48'
_cell_volume   915.91835512
_cell_formula_units_Z   3
loop_
 _symmetry_equiv_pos_site_id
 _symmetry_equiv_pos_as_xyz
  1  'x, y, z'
loop_
 _atom_site_type_symbol
 _atom_site_label
 _atom_site_symmetry_multiplicity
 _atom_site_fract_x
 _atom_site_fract_y
 _atom_site_fract_z
 _atom_site_occupancy
  Co  Co0  1  0.83671081  0.67342161  0.91440830  1
  Co  Co1  1  0.83671081  0.16328919  0.91440830  1
  Co  Co2  1  0.32657839  0.16328919  0.91440830  1
  Co  Co3  1  0.00675495  0.50337747  0.75225836  1
  Co  Co4  1  0.49662253  0.99324505  0.75225836  1
  Co  Co5  1  0.49662253  0.50337747  0.75225836  1
  Co  Co6  1  0.66666667  0.33333333  0.83333333  1
  Co  Co7  1  0.00000000  0.50000000  0.00000000  1
  Co  Co8  1  0.83333333  0.66666667  0.66666667  1
  Co  Co9  1  0.50000000  0.50000000  0.00000000  1
  Co  Co10  1  0.50337747  0.00675495  0.24774164  1
  Co  Co11  1  0.50337747  0.49662253  0.24774164  1
  Co  Co12  1  0.99324505  0.49662253  0.24774164  1
  Co  Co13  1  0.67342161  0.83671081  0.08559170  1
  Co  Co14  1  0.16328919  0.32657839  0.08559170  1
  Co  Co15  1  0.16328919  0.83671081  0.08559170  1
  Co  Co16  1  0.33333333  0.66666667  0.16666667  1
  Co  Co17  1  0.66666667  0.83333333  0.33333333  1
  Co  Co18  1  0.50000000  0.00000000  0.00000000  1
  Co  Co19  1  0.16666667  0.83333333  0.33333333  1
  Co  Co20  1  0.17004414  0.34008828  0.58107497  1
  Co  Co21  1  0.17004414  0.82995586  0.58107497  1
  Co  Co22  1  0.65991172  0.82995586  0.58107497  1
  Co  Co23  1  0.34008828  0.17004414  0.41892503  1
  Co  Co24  1  0.82995586  0.65991172  0.41892503  1
  Co  Co25  1  0.82995586  0.17004414  0.41892503  1
  Co  Co26  1  1.00000000  1.00000000  0.50000000  1
  Co  Co27  1  0.33333333  0.16666667  0.66666667  1
  Co  Co28  1  0.16666667  0.33333333  0.33333333  1
  Co  Co29  1  0.83333333  0.16666667  0.66666667  1
  Ge  Ge30  1  0.00000000  0.00000000  0.81079340  1
  Ge  Ge31  1  0.33333333  0.66666667  0.85587327  1
  Ge  Ge32  1  0.00000000  0.00000000  0.00000000  1
  Ge  Ge33  1  0.66666667  0.33333333  0.14412673  1
  Ge  Ge34  1  0.00000000  0.00000000  0.18920660  1
  Ge  Ge35  1  0.66666667  0.33333333  0.33333333  1
  Ge  Ge36  1  0.33333333  0.66666667  0.47746007  1
  Ge  Ge37  1  0.66666667  0.33333333  0.52253993  1
  Ge  Ge38  1  0.33333333  0.66666667  0.66666667  1
  O  O39  1  0.49799400  0.50200600  0.87450522  1
  O  O40  1  0.00401201  0.50200600  0.87450522  1
  O  O41  1  0.49799400  0.99598799  0.87450522  1
  O  O42  1  0.83533934  0.16466066  0.79216145  1
  O  O43  1  0.32932132  0.16466066  0.79216145  1
  O  O44  1  0.83533934  0.67067868  0.79216145  1
  O  O45  1  0.70013018  0.85006509  0.96196843  1
  O  O46  1  0.14993491  0.29986982  0.96196843  1
  O  O47  1  0.14993491  0.85006509  0.96196843  1
  O  O48  1  0.18339842  0.36679685  0.70469824  1
  O  O49  1  0.18339843  0.81660157  0.70469824  1
  O  O50  1  0.63320315  0.81660157  0.70469824  1
  O  O51  1  0.66666667  0.33333333  0.95667084  1
  O  O52  1  0.33333333  0.66666667  0.79352905  1
  O  O53  1  0.66666667  0.33333333  0.70999583  1
  O  O54  1  0.00000000  0.00000000  0.87313761  1
  O  O55  1  0.16466066  0.83533934  0.20783855  1
  O  O56  1  0.67067868  0.83533934  0.20783855  1
  O  O57  1  0.16466066  0.32932132  0.20783855  1
  O  O58  1  0.50200600  0.49799400  0.12549478  1
  O  O59  1  0.99598799  0.49799400  0.12549478  1
  O  O60  1  0.50200600  0.00401201  0.12549478  1
  O  O61  1  0.36679685  0.18339843  0.29530176  1
  O  O62  1  0.81660157  0.63320315  0.29530176  1
  O  O63  1  0.81660157  0.18339843  0.29530176  1
  O  O64  1  0.85006509  0.70013018  0.03803157  1
  O  O65  1  0.85006509  0.14993491  0.03803157  1
  O  O66  1  0.29986982  0.14993491  0.03803157  1
  O  O67  1  0.33333333  0.66666667  0.29000417  1
  O  O68  1  0.00000000  0.00000000  0.12686239  1
  O  O69  1  0.33333333  0.66666667  0.04332916  1
  O  O70  1  0.66666667  0.33333333  0.20647095  1
  O  O71  1  0.83132733  0.16867267  0.54117189  1
  O  O72  1  0.33734534  0.16867267  0.54117189  1
  O  O73  1  0.83132733  0.66265466  0.54117189  1
  O  O74  1  0.16867267  0.83132733  0.45882811  1
  O  O75  1  0.66265466  0.83132733  0.45882811  1
  O  O76  1  0.16867267  0.33734534  0.45882811  1
  O  O77  1  0.03346352  0.51673176  0.62863509  1
  O  O78  1  0.48326824  0.96653648  0.62863509  1
  O  O79  1  0.48326824  0.51673176  0.62863509  1
  O  O80  1  0.51673176  0.03346352  0.37136491  1
  O  O81  1  0.51673176  0.48326824  0.37136491  1
  O  O82  1  0.96653648  0.48326824  0.37136491  1
  O  O83  1  0.00000000  0.00000000  0.62333750  1
  O  O84  1  0.66666667  0.33333333  0.46019572  1
  O  O85  1  0.00000000  0.00000000  0.37666250  1
  O  O86  1  0.33333333  0.66666667  0.53980428  1
