# generated using pymatgen
data_Ce3(BN2)2
_symmetry_space_group_name_H-M   'P 1'
_cell_length_a   3.51351200
_cell_length_b   6.21885200
_cell_length_c   10.56380000
_cell_angle_alpha   90.00000000
_cell_angle_beta   90.00000000
_cell_angle_gamma   90.00000000
_symmetry_Int_Tables_number   1
_chemical_formula_structural   Ce3(BN2)2
_chemical_formula_sum   'Ce6 B4 N8'
_cell_volume   230.81914756
_cell_formula_units_Z   2
loop_
 _symmetry_equiv_pos_site_id
 _symmetry_equiv_pos_as_xyz
  1  'x, y, z'
loop_
 _atom_site_type_symbol
 _atom_site_label
 _atom_site_symmetry_multiplicity
 _atom_site_fract_x
 _atom_site_fract_y
 _atom_site_fract_z
 _atom_site_occupancy
  Ce  Ce0  1  0.50000000  0.00000000  0.69703800  1
  Ce  Ce1  1  0.00000000  0.50000000  0.80296200  1
  Ce  Ce2  1  0.00000000  0.00000000  0.00000000  1
  Ce  Ce3  1  0.00000000  0.50000000  0.19703800  1
  Ce  Ce4  1  0.50000000  0.00000000  0.30296200  1
  Ce  Ce5  1  0.50000000  0.50000000  0.50000000  1
  B  B6  1  0.50000000  0.35733600  0.00000000  1
  B  B7  1  0.50000000  0.64266400  0.00000000  1
  B  B8  1  0.00000000  0.85733600  0.50000000  1
  B  B9  1  0.00000000  0.14266400  0.50000000  1
  N  N10  1  0.00000000  0.73835000  0.62208600  1
  N  N11  1  0.00000000  0.26165000  0.62208600  1
  N  N12  1  0.50000000  0.23835000  0.87791400  1
  N  N13  1  0.50000000  0.76165000  0.87791400  1
  N  N14  1  0.50000000  0.23835000  0.12208600  1
  N  N15  1  0.50000000  0.76165000  0.12208600  1
  N  N16  1  0.00000000  0.73835000  0.37791400  1
  N  N17  1  0.00000000  0.26165000  0.37791400  1
