# generated using pymatgen
data_Ce2CdSe4
_symmetry_space_group_name_H-M   'P 1'
_cell_length_a   8.83100800
_cell_length_b   8.83100800
_cell_length_c   9.30163000
_cell_angle_alpha   90.00000000
_cell_angle_beta   90.00000000
_cell_angle_gamma   90.00000000
_symmetry_Int_Tables_number   1
_chemical_formula_structural   Ce2CdSe4
_chemical_formula_sum   'Ce8 Cd4 Se16'
_cell_volume   725.40344968
_cell_formula_units_Z   4
loop_
 _symmetry_equiv_pos_site_id
 _symmetry_equiv_pos_as_xyz
  1  'x, y, z'
loop_
 _atom_site_type_symbol
 _atom_site_label
 _atom_site_symmetry_multiplicity
 _atom_site_fract_x
 _atom_site_fract_y
 _atom_site_fract_z
 _atom_site_occupancy
  Ce  Ce0  1  0.75000000  0.36300800  0.37500000  1
  Ce  Ce1  1  0.13699200  0.25000000  0.12500000  1
  Ce  Ce2  1  0.75000000  0.13699200  0.87500000  1
  Ce  Ce3  1  0.36300800  0.25000000  0.62500000  1
  Ce  Ce4  1  0.25000000  0.86300800  0.87500000  1
  Ce  Ce5  1  0.63699200  0.75000000  0.62500000  1
  Ce  Ce6  1  0.25000000  0.63699200  0.37500000  1
  Ce  Ce7  1  0.86300800  0.75000000  0.12500000  1
  Cd  Cd8  1  0.00000000  0.00000000  0.50000000  1
  Cd  Cd9  1  0.50000000  0.00000000  0.25000000  1
  Cd  Cd10  1  0.50000000  0.50000000  0.00000000  1
  Cd  Cd11  1  0.00000000  0.50000000  0.75000000  1
  Se  Se12  1  0.80780000  0.07015900  0.18806400  1
  Se  Se13  1  0.07015900  0.30780000  0.43806400  1
  Se  Se14  1  0.30780000  0.92984100  0.56193600  1
  Se  Se15  1  0.42984100  0.30780000  0.31193600  1
  Se  Se16  1  0.42984100  0.19220000  0.93806400  1
  Se  Se17  1  0.19220000  0.57015900  0.06193600  1
  Se  Se18  1  0.57015900  0.69220000  0.31193600  1
  Se  Se19  1  0.19220000  0.92984100  0.18806400  1
  Se  Se20  1  0.30780000  0.57015900  0.68806400  1
  Se  Se21  1  0.57015900  0.80780000  0.93806400  1
  Se  Se22  1  0.80780000  0.42984100  0.06193600  1
  Se  Se23  1  0.92984100  0.80780000  0.81193600  1
  Se  Se24  1  0.92984100  0.69220000  0.43806400  1
  Se  Se25  1  0.69220000  0.07015900  0.56193600  1
  Se  Se26  1  0.07015900  0.19220000  0.81193600  1
  Se  Se27  1  0.69220000  0.42984100  0.68806400  1
