# generated using pymatgen
data_LiMnPO4
_symmetry_space_group_name_H-M   'P 1'
_cell_length_a   5.63059200
_cell_length_b   8.49935600
_cell_length_c   6.32475800
_cell_angle_alpha   90.00000000
_cell_angle_beta   90.00000000
_cell_angle_gamma   90.00000000
_symmetry_Int_Tables_number   1
_chemical_formula_structural   LiMnPO4
_chemical_formula_sum   'Li4 Mn4 P4 O16'
_cell_volume   302.68018610
_cell_formula_units_Z   4
loop_
 _symmetry_equiv_pos_site_id
 _symmetry_equiv_pos_as_xyz
  1  'x, y, z'
loop_
 _atom_site_type_symbol
 _atom_site_label
 _atom_site_symmetry_multiplicity
 _atom_site_fract_x
 _atom_site_fract_y
 _atom_site_fract_z
 _atom_site_occupancy
  Li  Li0  1  0.00000000  0.66436975  0.25000000  1
  Li  Li1  1  0.50000000  0.83563025  0.75000000  1
  Li  Li2  1  0.50000000  0.16436975  0.25000000  1
  Li  Li3  1  0.00000000  0.33563025  0.75000000  1
  Mn  Mn4  1  0.00000000  0.00000000  0.50000000  1
  Mn  Mn5  1  0.50000000  0.50000000  0.00000000  1
  Mn  Mn6  1  0.50000000  0.50000000  0.50000000  1
  Mn  Mn7  1  0.00000000  0.00000000  0.00000000  1
  P  P8  1  0.50000000  0.85290175  0.25000000  1
  P  P9  1  0.00000000  0.64709825  0.75000000  1
  P  P10  1  0.00000000  0.35290175  0.25000000  1
  P  P11  1  0.50000000  0.14709825  0.75000000  1
  O  O12  1  0.50000000  0.75138175  0.04878550  1
  O  O13  1  0.50000000  0.75138175  0.45121450  1
  O  O14  1  0.00000000  0.74861825  0.54878550  1
  O  O15  1  0.00000000  0.74861825  0.95121450  1
  O  O16  1  0.22180800  0.46676675  0.25000000  1
  O  O17  1  0.27819200  0.96676675  0.25000000  1
  O  O18  1  0.27819200  0.03323325  0.75000000  1
  O  O19  1  0.22180800  0.53323325  0.75000000  1
  O  O20  1  0.00000000  0.25138175  0.04878550  1
  O  O21  1  0.00000000  0.25138175  0.45121450  1
  O  O22  1  0.50000000  0.24861825  0.54878550  1
  O  O23  1  0.50000000  0.24861825  0.95121450  1
  O  O24  1  0.72180800  0.96676675  0.25000000  1
  O  O25  1  0.77819200  0.46676675  0.25000000  1
  O  O26  1  0.77819200  0.53323325  0.75000000  1
  O  O27  1  0.72180800  0.03323325  0.75000000  1
