# generated using pymatgen
data_Li3Fe2(PO4)3
_symmetry_space_group_name_H-M   'P 1'
_cell_length_a   11.60164200
_cell_length_b   12.75932000
_cell_length_c   6.41747424
_cell_angle_alpha   90.00000000
_cell_angle_beta   114.87616747
_cell_angle_gamma   90.00000000
_symmetry_Int_Tables_number   1
_chemical_formula_structural   Li3Fe2(PO4)3
_chemical_formula_sum   'Li12 Fe8 P12 O48'
_cell_volume   861.83334524
_cell_formula_units_Z   4
loop_
 _symmetry_equiv_pos_site_id
 _symmetry_equiv_pos_as_xyz
  1  'x, y, z'
loop_
 _atom_site_type_symbol
 _atom_site_label
 _atom_site_symmetry_multiplicity
 _atom_site_fract_x
 _atom_site_fract_y
 _atom_site_fract_z
 _atom_site_occupancy
  Li  Li0  1  0.50000000  0.79011900  0.75000000  1
  Li  Li1  1  0.50000000  0.00000000  0.00000000  1
  Li  Li2  1  0.50000000  0.20988100  0.25000000  1
  Li  Li3  1  0.50000000  0.46601600  0.25000000  1
  Li  Li4  1  0.50000000  0.00000000  0.50000000  1
  Li  Li5  1  0.50000000  0.53398400  0.75000000  1
  Li  Li6  1  0.00000000  0.29011900  0.75000000  1
  Li  Li7  1  0.00000000  0.50000000  0.00000000  1
  Li  Li8  1  0.00000000  0.70988100  0.25000000  1
  Li  Li9  1  0.00000000  0.96601600  0.25000000  1
  Li  Li10  1  0.00000000  0.50000000  0.50000000  1
  Li  Li11  1  0.00000000  0.03398400  0.75000000  1
  Fe  Fe12  1  0.78817150  0.84750650  0.37259700  1
  Fe  Fe13  1  0.78817150  0.15249350  0.87259700  1
  Fe  Fe14  1  0.21182850  0.84750650  0.12740300  1
  Fe  Fe15  1  0.21182850  0.15249350  0.62740300  1
  Fe  Fe16  1  0.28817150  0.34750650  0.37259700  1
  Fe  Fe17  1  0.28817150  0.65249350  0.87259700  1
  Fe  Fe18  1  0.71182850  0.34750650  0.12740300  1
  Fe  Fe19  1  0.71182850  0.65249350  0.62740300  1
  P  P20  1  0.23442000  0.10248000  0.12961700  1
  P  P21  1  0.50000000  0.20724100  0.75000000  1
  P  P22  1  0.50000000  0.79275900  0.25000000  1
  P  P23  1  0.76558000  0.89752000  0.87038300  1
  P  P24  1  0.23442000  0.89752000  0.62961700  1
  P  P25  1  0.76558000  0.10248000  0.37038300  1
  P  P26  1  0.73442000  0.60248000  0.12961700  1
  P  P27  1  0.00000000  0.70724100  0.75000000  1
  P  P28  1  0.00000000  0.29275900  0.25000000  1
  P  P29  1  0.26558000  0.39752000  0.87038300  1
  P  P30  1  0.73442000  0.39752000  0.62961700  1
  P  P31  1  0.26558000  0.60248000  0.37038300  1
  O  O32  1  0.45343250  0.27436550  0.52843800  1
  O  O33  1  0.78374250  0.17108250  0.18532400  1
  O  O34  1  0.84721550  0.99838850  0.40807100  1
  O  O35  1  0.83340300  0.83956400  0.10643200  1
  O  O36  1  0.16659700  0.16043600  0.89356800  1
  O  O37  1  0.15278450  0.00161150  0.59192900  1
  O  O38  1  0.21625750  0.82891750  0.81467600  1
  O  O39  1  0.16659700  0.83956400  0.39356800  1
  O  O40  1  0.15278450  0.99838850  0.09192900  1
  O  O41  1  0.21625750  0.17108250  0.31467600  1
  O  O42  1  0.37458650  0.91778350  0.69836300  1
  O  O43  1  0.84721550  0.00161150  0.90807100  1
  O  O44  1  0.54656750  0.27436550  0.97156200  1
  O  O45  1  0.37458650  0.08221650  0.19836300  1
  O  O46  1  0.39644400  0.13270200  0.76156800  1
  O  O47  1  0.39644400  0.86729800  0.26156800  1
  O  O48  1  0.60355600  0.13270200  0.73843200  1
  O  O49  1  0.54656750  0.72563450  0.47156200  1
  O  O50  1  0.62541350  0.91778350  0.80163700  1
  O  O51  1  0.45343250  0.72563450  0.02843800  1
  O  O52  1  0.60355600  0.86729800  0.23843200  1
  O  O53  1  0.62541350  0.08221650  0.30163700  1
  O  O54  1  0.78374250  0.82891750  0.68532400  1
  O  O55  1  0.83340300  0.16043600  0.60643200  1
  O  O56  1  0.95343250  0.77436550  0.52843800  1
  O  O57  1  0.28374250  0.67108250  0.18532400  1
  O  O58  1  0.34721550  0.49838850  0.40807100  1
  O  O59  1  0.33340300  0.33956400  0.10643200  1
  O  O60  1  0.66659700  0.66043600  0.89356800  1
  O  O61  1  0.65278450  0.50161150  0.59192900  1
  O  O62  1  0.71625750  0.32891750  0.81467600  1
  O  O63  1  0.66659700  0.33956400  0.39356800  1
  O  O64  1  0.65278450  0.49838850  0.09192900  1
  O  O65  1  0.71625750  0.67108250  0.31467600  1
  O  O66  1  0.87458650  0.41778350  0.69836300  1
  O  O67  1  0.34721550  0.50161150  0.90807100  1
  O  O68  1  0.04656750  0.77436550  0.97156200  1
  O  O69  1  0.87458650  0.58221650  0.19836300  1
  O  O70  1  0.89644400  0.63270200  0.76156800  1
  O  O71  1  0.89644400  0.36729800  0.26156800  1
  O  O72  1  0.10355600  0.63270200  0.73843200  1
  O  O73  1  0.04656750  0.22563450  0.47156200  1
  O  O74  1  0.12541350  0.41778350  0.80163700  1
  O  O75  1  0.95343250  0.22563450  0.02843800  1
  O  O76  1  0.10355600  0.36729800  0.23843200  1
  O  O77  1  0.12541350  0.58221650  0.30163700  1
  O  O78  1  0.28374250  0.32891750  0.68532400  1
  O  O79  1  0.33340300  0.66043600  0.60643200  1
