# generated using pymatgen
data_Li3Ni2(PO4)3
_symmetry_space_group_name_H-M   'P 1'
_cell_length_a   8.22477400
_cell_length_b   5.32187000
_cell_length_c   18.80911127
_cell_angle_alpha   90.00000000
_cell_angle_beta   90.12147532
_cell_angle_gamma   90.00000000
_symmetry_Int_Tables_number   1
_chemical_formula_structural   Li3Ni2(PO4)3
_chemical_formula_sum   'Li12 Ni8 P12 O48'
_cell_volume   823.29510735
_cell_formula_units_Z   4
loop_
 _symmetry_equiv_pos_site_id
 _symmetry_equiv_pos_as_xyz
  1  'x, y, z'
loop_
 _atom_site_type_symbol
 _atom_site_label
 _atom_site_symmetry_multiplicity
 _atom_site_fract_x
 _atom_site_fract_y
 _atom_site_fract_z
 _atom_site_occupancy
  Li  Li0  1  0.32769800  0.00000000  0.58368500  1
  Li  Li1  1  0.32886400  0.00000000  0.25183700  1
  Li  Li2  1  0.67230200  0.00000000  0.41631500  1
  Li  Li3  1  0.99965100  0.00000000  0.66640700  1
  Li  Li4  1  0.00034900  0.00000000  0.33359300  1
  Li  Li5  1  0.67113600  0.00000000  0.74816300  1
  Li  Li6  1  0.82769800  0.50000000  0.58368500  1
  Li  Li7  1  0.82886400  0.50000000  0.25183700  1
  Li  Li8  1  0.17230200  0.50000000  0.41631500  1
  Li  Li9  1  0.49965100  0.50000000  0.66640700  1
  Li  Li10  1  0.50034900  0.50000000  0.33359300  1
  Li  Li11  1  0.17113600  0.50000000  0.74816300  1
  Ni  Ni12  1  0.00060800  0.00000000  0.83423700  1
  Ni  Ni13  1  0.00000000  0.00000000  0.00000000  1
  Ni  Ni14  1  0.99939200  0.00000000  0.16576300  1
  Ni  Ni15  1  0.00000000  0.00000000  0.50000000  1
  Ni  Ni16  1  0.50060800  0.50000000  0.83423700  1
  Ni  Ni17  1  0.50000000  0.50000000  0.00000000  1
  Ni  Ni18  1  0.49939200  0.50000000  0.16576300  1
  Ni  Ni19  1  0.50000000  0.50000000  0.50000000  1
  P  P20  1  0.64382000  0.00000000  0.58111300  1
  P  P21  1  0.64530900  0.00000000  0.91640800  1
  P  P22  1  0.35469100  0.00000000  0.08359200  1
  P  P23  1  0.35618000  0.00000000  0.41888700  1
  P  P24  1  0.35478300  0.00000000  0.75209200  1
  P  P25  1  0.64521700  0.00000000  0.24790800  1
  P  P26  1  0.14382000  0.50000000  0.58111300  1
  P  P27  1  0.14530900  0.50000000  0.91640800  1
  P  P28  1  0.85469100  0.50000000  0.08359200  1
  P  P29  1  0.85618000  0.50000000  0.41888700  1
  P  P30  1  0.85478300  0.50000000  0.75209200  1
  P  P31  1  0.14521700  0.50000000  0.24790800  1
  O  O32  1  0.74885400  0.00000000  0.84720900  1
  O  O33  1  0.25638000  0.00000000  0.68186900  1
  O  O34  1  0.75389000  0.00000000  0.98368900  1
  O  O35  1  0.53207050  0.23540650  0.24644700  1
  O  O36  1  0.74538000  0.00000000  0.65029200  1
  O  O37  1  0.47000850  0.23476550  0.41988600  1
  O  O38  1  0.24528100  0.00000000  0.48501400  1
  O  O39  1  0.47000850  0.76523450  0.41988600  1
  O  O40  1  0.75471900  0.00000000  0.51498600  1
  O  O41  1  0.53207050  0.76459350  0.24644700  1
  O  O42  1  0.74362000  0.00000000  0.31813100  1
  O  O43  1  0.46370800  0.23964200  0.08295900  1
  O  O44  1  0.24611000  0.00000000  0.01631100  1
  O  O45  1  0.52999150  0.76523450  0.58011400  1
  O  O46  1  0.25462000  0.00000000  0.34970800  1
  O  O47  1  0.53629200  0.76035800  0.91704100  1
  O  O48  1  0.75772400  0.00000000  0.18269300  1
  O  O49  1  0.24227600  0.00000000  0.81730700  1
  O  O50  1  0.53629200  0.23964200  0.91704100  1
  O  O51  1  0.46370800  0.76035800  0.08295900  1
  O  O52  1  0.25114600  0.00000000  0.15279100  1
  O  O53  1  0.46792950  0.76459350  0.75355300  1
  O  O54  1  0.52999150  0.23476550  0.58011400  1
  O  O55  1  0.46792950  0.23540650  0.75355300  1
  O  O56  1  0.24885400  0.50000000  0.84720900  1
  O  O57  1  0.75638000  0.50000000  0.68186900  1
  O  O58  1  0.25389000  0.50000000  0.98368900  1
  O  O59  1  0.03207050  0.73540650  0.24644700  1
  O  O60  1  0.24538000  0.50000000  0.65029200  1
  O  O61  1  0.97000850  0.73476550  0.41988600  1
  O  O62  1  0.74528100  0.50000000  0.48501400  1
  O  O63  1  0.97000850  0.26523450  0.41988600  1
  O  O64  1  0.25471900  0.50000000  0.51498600  1
  O  O65  1  0.03207050  0.26459350  0.24644700  1
  O  O66  1  0.24362000  0.50000000  0.31813100  1
  O  O67  1  0.96370800  0.73964200  0.08295900  1
  O  O68  1  0.74611000  0.50000000  0.01631100  1
  O  O69  1  0.02999150  0.26523450  0.58011400  1
  O  O70  1  0.75462000  0.50000000  0.34970800  1
  O  O71  1  0.03629200  0.26035800  0.91704100  1
  O  O72  1  0.25772400  0.50000000  0.18269300  1
  O  O73  1  0.74227600  0.50000000  0.81730700  1
  O  O74  1  0.03629200  0.73964200  0.91704100  1
  O  O75  1  0.96370800  0.26035800  0.08295900  1
  O  O76  1  0.75114600  0.50000000  0.15279100  1
  O  O77  1  0.96792950  0.26459350  0.75355300  1
  O  O78  1  0.02999150  0.73476550  0.58011400  1
  O  O79  1  0.96792950  0.73540650  0.75355300  1
