# generated using pymatgen
data_Pr2SmS4
_symmetry_space_group_name_H-M   'P 1'
_cell_length_a   8.57809400
_cell_length_b   8.57809400
_cell_length_c   8.61559000
_cell_angle_alpha   90.00000000
_cell_angle_beta   90.00000000
_cell_angle_gamma   90.00000000
_symmetry_Int_Tables_number   1
_chemical_formula_structural   Pr2SmS4
_chemical_formula_sum   'Pr8 Sm4 S16'
_cell_volume   633.96696122
_cell_formula_units_Z   4
loop_
 _symmetry_equiv_pos_site_id
 _symmetry_equiv_pos_as_xyz
  1  'x, y, z'
loop_
 _atom_site_type_symbol
 _atom_site_label
 _atom_site_symmetry_multiplicity
 _atom_site_fract_x
 _atom_site_fract_y
 _atom_site_fract_z
 _atom_site_occupancy
  Pr  Pr0  1  0.87577500  0.25000000  0.62500000  1
  Pr  Pr1  1  0.62422500  0.25000000  0.12500000  1
  Pr  Pr2  1  0.25000000  0.37577500  0.87500000  1
  Pr  Pr3  1  0.25000000  0.12422500  0.37500000  1
  Pr  Pr4  1  0.37577500  0.75000000  0.12500000  1
  Pr  Pr5  1  0.12422500  0.75000000  0.62500000  1
  Pr  Pr6  1  0.75000000  0.87577500  0.37500000  1
  Pr  Pr7  1  0.75000000  0.62422500  0.87500000  1
  Sm  Sm8  1  0.00000000  0.50000000  0.25000000  1
  Sm  Sm9  1  0.00000000  0.00000000  0.00000000  1
  Sm  Sm10  1  0.50000000  0.00000000  0.75000000  1
  Sm  Sm11  1  0.50000000  0.50000000  0.50000000  1
  S  S12  1  0.07414900  0.67719600  0.95202700  1
  S  S13  1  0.17719600  0.07414900  0.70202700  1
  S  S14  1  0.17719600  0.42585100  0.54797300  1
  S  S15  1  0.42585100  0.82280400  0.45202700  1
  S  S16  1  0.57414900  0.32280400  0.79797300  1
  S  S17  1  0.32280400  0.07414900  0.04797300  1
  S  S18  1  0.92585100  0.17719600  0.29797300  1
  S  S19  1  0.32280400  0.42585100  0.20202700  1
  S  S20  1  0.57414900  0.17719600  0.45202700  1
  S  S21  1  0.67719600  0.57414900  0.20202700  1
  S  S22  1  0.67719600  0.92585100  0.04797300  1
  S  S23  1  0.92585100  0.32280400  0.95202700  1
  S  S24  1  0.07414900  0.82280400  0.29797300  1
  S  S25  1  0.82280400  0.57414900  0.54797300  1
  S  S26  1  0.42585100  0.67719600  0.79797300  1
  S  S27  1  0.82280400  0.92585100  0.70202700  1
