# generated using pymatgen
data_Y2Sn5Rh3
_symmetry_space_group_name_H-M   'P 1'
_cell_length_a   4.46252600
_cell_length_b   26.60927400
_cell_length_c   7.24563400
_cell_angle_alpha   90.00000000
_cell_angle_beta   90.00000000
_cell_angle_gamma   90.00000000
_symmetry_Int_Tables_number   1
_chemical_formula_structural   Y2Sn5Rh3
_chemical_formula_sum   'Y8 Sn20 Rh12'
_cell_volume   860.37974491
_cell_formula_units_Z   4
loop_
 _symmetry_equiv_pos_site_id
 _symmetry_equiv_pos_as_xyz
  1  'x, y, z'
loop_
 _atom_site_type_symbol
 _atom_site_label
 _atom_site_symmetry_multiplicity
 _atom_site_fract_x
 _atom_site_fract_y
 _atom_site_fract_z
 _atom_site_occupancy
  Y  Y0  1  0.00000000  0.52354400  0.23761300  1
  Y  Y1  1  0.00000000  0.82815700  0.25702600  1
  Y  Y2  1  0.50000000  0.97645600  0.73761300  1
  Y  Y3  1  0.50000000  0.67184300  0.75702600  1
  Y  Y4  1  0.50000000  0.02354400  0.23761300  1
  Y  Y5  1  0.50000000  0.32815700  0.25702600  1
  Y  Y6  1  0.00000000  0.47645600  0.73761300  1
  Y  Y7  1  0.00000000  0.17184300  0.75702600  1
  Sn  Sn8  1  0.50000000  0.79499700  0.54903000  1
  Sn  Sn9  1  0.50000000  0.90334500  0.10941400  1
  Sn  Sn10  1  0.00000000  0.95242200  0.40213800  1
  Sn  Sn11  1  0.50000000  0.54757800  0.90213800  1
  Sn  Sn12  1  0.50000000  0.79018500  0.97739300  1
  Sn  Sn13  1  0.00000000  0.70981500  0.47739300  1
  Sn  Sn14  1  0.00000000  0.70500300  0.04903000  1
  Sn  Sn15  1  0.50000000  0.62025700  0.23383600  1
  Sn  Sn16  1  0.00000000  0.87974300  0.73383600  1
  Sn  Sn17  1  0.00000000  0.59665500  0.60941400  1
  Sn  Sn18  1  0.00000000  0.29499700  0.54903000  1
  Sn  Sn19  1  0.00000000  0.40334500  0.10941400  1
  Sn  Sn20  1  0.50000000  0.45242200  0.40213800  1
  Sn  Sn21  1  0.00000000  0.04757800  0.90213800  1
  Sn  Sn22  1  0.00000000  0.29018500  0.97739300  1
  Sn  Sn23  1  0.50000000  0.20981500  0.47739300  1
  Sn  Sn24  1  0.50000000  0.20500300  0.04903000  1
  Sn  Sn25  1  0.00000000  0.12025700  0.23383600  1
  Sn  Sn26  1  0.50000000  0.37974300  0.73383600  1
  Sn  Sn27  1  0.50000000  0.09665500  0.60941400  1
  Rh  Rh28  1  0.00000000  0.60595800  0.98256000  1
  Rh  Rh29  1  0.50000000  0.72276300  0.26522200  1
  Rh  Rh30  1  0.00000000  0.77723700  0.76522200  1
  Rh  Rh31  1  0.00000000  0.94985100  0.01766800  1
  Rh  Rh32  1  0.50000000  0.89404200  0.48256000  1
  Rh  Rh33  1  0.50000000  0.55014900  0.51766800  1
  Rh  Rh34  1  0.50000000  0.10595800  0.98256000  1
  Rh  Rh35  1  0.00000000  0.22276300  0.26522200  1
  Rh  Rh36  1  0.50000000  0.27723700  0.76522200  1
  Rh  Rh37  1  0.50000000  0.44985100  0.01766800  1
  Rh  Rh38  1  0.00000000  0.39404200  0.48256000  1
  Rh  Rh39  1  0.00000000  0.05014900  0.51766800  1
