# generated using pymatgen
data_NaSm2Se3
_symmetry_space_group_name_H-M   'P 1'
_cell_length_a   7.30782600
_cell_length_b   12.51194800
_cell_length_c   7.24954782
_cell_angle_alpha   90.00000000
_cell_angle_beta   109.59171816
_cell_angle_gamma   90.00000000
_symmetry_Int_Tables_number   1
_chemical_formula_structural   NaSm2Se3
_chemical_formula_sum   'Na4 Sm8 Se12'
_cell_volume   624.48755197
_cell_formula_units_Z   4
loop_
 _symmetry_equiv_pos_site_id
 _symmetry_equiv_pos_as_xyz
  1  'x, y, z'
loop_
 _atom_site_type_symbol
 _atom_site_label
 _atom_site_symmetry_multiplicity
 _atom_site_fract_x
 _atom_site_fract_y
 _atom_site_fract_z
 _atom_site_occupancy
  Na  Na0  1  0.50000000  0.08313800  0.75000000  1
  Na  Na1  1  0.50000000  0.91686200  0.25000000  1
  Na  Na2  1  0.00000000  0.58313800  0.75000000  1
  Na  Na3  1  0.00000000  0.41686200  0.25000000  1
  Sm  Sm4  1  0.50000000  0.75063900  0.75000000  1
  Sm  Sm5  1  0.50000000  0.41667900  0.75000000  1
  Sm  Sm6  1  0.50000000  0.58332100  0.25000000  1
  Sm  Sm7  1  0.50000000  0.24936100  0.25000000  1
  Sm  Sm8  1  0.00000000  0.25063900  0.75000000  1
  Sm  Sm9  1  0.00000000  0.91667900  0.75000000  1
  Sm  Sm10  1  0.00000000  0.08332100  0.25000000  1
  Sm  Sm11  1  0.00000000  0.74936100  0.25000000  1
  Se  Se12  1  0.75276600  0.08405400  0.50172300  1
  Se  Se13  1  0.24723400  0.91594600  0.49827700  1
  Se  Se14  1  0.24723400  0.08405400  0.99827700  1
  Se  Se15  1  0.75000000  0.75000000  0.50000000  1
  Se  Se16  1  0.75276600  0.91594600  0.00172300  1
  Se  Se17  1  0.75000000  0.25000000  0.00000000  1
  Se  Se18  1  0.25276600  0.58405400  0.50172300  1
  Se  Se19  1  0.74723400  0.41594600  0.49827700  1
  Se  Se20  1  0.74723400  0.58405400  0.99827700  1
  Se  Se21  1  0.25000000  0.25000000  0.50000000  1
  Se  Se22  1  0.25276600  0.41594600  0.00172300  1
  Se  Se23  1  0.25000000  0.75000000  0.00000000  1
