# generated using pymatgen
data_LiMoP2O7
_symmetry_space_group_name_H-M   'P 1'
_cell_length_a   9.86449955
_cell_length_b   8.48639400
_cell_length_c   13.57066727
_cell_angle_alpha   90.00000000
_cell_angle_beta   110.10613489
_cell_angle_gamma   90.00000000
_symmetry_Int_Tables_number   1
_chemical_formula_structural   LiMoP2O7
_chemical_formula_sum   'Li8 Mo8 P16 O56'
_cell_volume   1066.82114011
_cell_formula_units_Z   8
loop_
 _symmetry_equiv_pos_site_id
 _symmetry_equiv_pos_as_xyz
  1  'x, y, z'
loop_
 _atom_site_type_symbol
 _atom_site_label
 _atom_site_symmetry_multiplicity
 _atom_site_fract_x
 _atom_site_fract_y
 _atom_site_fract_z
 _atom_site_occupancy
  Li  Li0  1  0.36678800  0.10935700  0.84608200  1
  Li  Li1  1  0.86678800  0.39064300  0.34608200  1
  Li  Li2  1  0.13321200  0.60935700  0.65391800  1
  Li  Li3  1  0.63321200  0.89064300  0.15391800  1
  Li  Li4  1  0.86678800  0.60935700  0.84608200  1
  Li  Li5  1  0.36678800  0.89064300  0.34608200  1
  Li  Li6  1  0.63321200  0.10935700  0.65391800  1
  Li  Li7  1  0.13321200  0.39064300  0.15391800  1
  Mo  Mo8  1  0.13423900  0.76144900  0.13855800  1
  Mo  Mo9  1  0.86576100  0.76144900  0.36144200  1
  Mo  Mo10  1  0.13423900  0.23855100  0.63855800  1
  Mo  Mo11  1  0.86576100  0.23855100  0.86144200  1
  Mo  Mo12  1  0.63423900  0.26144900  0.13855800  1
  Mo  Mo13  1  0.36576100  0.26144900  0.36144200  1
  Mo  Mo14  1  0.63423900  0.73855100  0.63855800  1
  Mo  Mo15  1  0.36576100  0.73855100  0.86144200  1
  P  P16  1  0.82770050  0.42511850  0.63520600  1
  P  P17  1  0.62789800  0.53941500  0.42826900  1
  P  P18  1  0.87210200  0.03941500  0.07173100  1
  P  P19  1  0.82770050  0.57488150  0.13520600  1
  P  P20  1  0.17229950  0.57488150  0.36479400  1
  P  P21  1  0.37210200  0.46058500  0.57173100  1
  P  P22  1  0.12789800  0.96058500  0.92826900  1
  P  P23  1  0.17229950  0.42511850  0.86479400  1
  P  P24  1  0.32770050  0.92511850  0.63520600  1
  P  P25  1  0.12789800  0.03941500  0.42826900  1
  P  P26  1  0.37210200  0.53941500  0.07173100  1
  P  P27  1  0.32770050  0.07488150  0.13520600  1
  P  P28  1  0.67229950  0.07488150  0.36479400  1
  P  P29  1  0.87210200  0.96058500  0.57173100  1
  P  P30  1  0.62789800  0.46058500  0.92826900  1
  P  P31  1  0.67229950  0.92511850  0.86479400  1
  O  O32  1  0.97411650  0.41820950  0.61795800  1
  O  O33  1  0.02588350  0.41820950  0.88204200  1
  O  O34  1  0.74032700  0.56465600  0.37440400  1
  O  O35  1  0.81558100  0.58519300  0.68544800  1
  O  O36  1  0.02588350  0.58179050  0.38204200  1
  O  O37  1  0.97411650  0.58179050  0.11795800  1
  O  O38  1  0.25967300  0.43534400  0.62559600  1
  O  O39  1  0.18441900  0.41480700  0.31455200  1
  O  O40  1  0.99565200  0.04587600  0.85728000  1
  O  O41  1  0.20312850  0.71696450  0.30569600  1
  O  O42  1  0.29730100  0.58601300  0.47719800  1
  O  O43  1  0.59260250  0.30950550  0.97677900  1
  O  O44  1  0.90739750  0.80950550  0.52322100  1
  O  O45  1  0.00434800  0.04587600  0.64272000  1
  O  O46  1  0.70269900  0.58601300  0.02280200  1
  O  O47  1  0.75967300  0.06465600  0.12559600  1
  O  O48  1  0.79687150  0.71696450  0.19430400  1
  O  O49  1  0.81558100  0.41480700  0.18544800  1
  O  O50  1  0.18441900  0.58519300  0.81455200  1
  O  O51  1  0.20312850  0.28303550  0.80569600  1
  O  O52  1  0.24032700  0.93534400  0.87440400  1
  O  O53  1  0.29730100  0.41398700  0.97719800  1
  O  O54  1  0.99565200  0.95412400  0.35728000  1
  O  O55  1  0.09260250  0.19049450  0.47677900  1
  O  O56  1  0.40739750  0.69049450  0.02322100  1
  O  O57  1  0.70269900  0.41398700  0.52280200  1
  O  O58  1  0.79687150  0.28303550  0.69430400  1
  O  O59  1  0.00434800  0.95412400  0.14272000  1
  O  O60  1  0.47411650  0.91820950  0.61795800  1
  O  O61  1  0.52588350  0.91820950  0.88204200  1
  O  O62  1  0.24032700  0.06465600  0.37440400  1
  O  O63  1  0.31558100  0.08519300  0.68544800  1
  O  O64  1  0.52588350  0.08179050  0.38204200  1
  O  O65  1  0.47411650  0.08179050  0.11795800  1
  O  O66  1  0.75967300  0.93534400  0.62559600  1
  O  O67  1  0.68441900  0.91480700  0.31455200  1
  O  O68  1  0.49565200  0.54587600  0.85728000  1
  O  O69  1  0.70312850  0.21696450  0.30569600  1
  O  O70  1  0.79730100  0.08601300  0.47719800  1
  O  O71  1  0.09260250  0.80950550  0.97677900  1
  O  O72  1  0.40739750  0.30950550  0.52322100  1
  O  O73  1  0.50434800  0.54587600  0.64272000  1
  O  O74  1  0.20269900  0.08601300  0.02280200  1
  O  O75  1  0.25967300  0.56465600  0.12559600  1
  O  O76  1  0.29687150  0.21696450  0.19430400  1
  O  O77  1  0.31558100  0.91480700  0.18544800  1
  O  O78  1  0.68441900  0.08519300  0.81455200  1
  O  O79  1  0.70312850  0.78303550  0.80569600  1
  O  O80  1  0.74032700  0.43534400  0.87440400  1
  O  O81  1  0.79730100  0.91398700  0.97719800  1
  O  O82  1  0.49565200  0.45412400  0.35728000  1
  O  O83  1  0.59260250  0.69049450  0.47677900  1
  O  O84  1  0.90739750  0.19049450  0.02322100  1
  O  O85  1  0.20269900  0.91398700  0.52280200  1
  O  O86  1  0.29687150  0.78303550  0.69430400  1
  O  O87  1  0.50434800  0.45412400  0.14272000  1
