# generated using pymatgen
data_CsGa7
_symmetry_space_group_name_H-M   'P 1'
_cell_length_a   6.77115023
_cell_length_b   6.77115023
_cell_length_c   29.24678595
_cell_angle_alpha   90.00000000
_cell_angle_beta   90.00000000
_cell_angle_gamma   120.00000000
_symmetry_Int_Tables_number   1
_chemical_formula_structural   CsGa7
_chemical_formula_sum   'Cs6 Ga42'
_cell_volume   1161.27125690
_cell_formula_units_Z   6
loop_
 _symmetry_equiv_pos_site_id
 _symmetry_equiv_pos_as_xyz
  1  'x, y, z'
loop_
 _atom_site_type_symbol
 _atom_site_label
 _atom_site_symmetry_multiplicity
 _atom_site_fract_x
 _atom_site_fract_y
 _atom_site_fract_z
 _atom_site_occupancy
  Cs  Cs0  1  0.66666667  0.33333333  0.13856333  1
  Cs  Cs1  1  0.00000000  0.00000000  0.19477000  1
  Cs  Cs2  1  0.33333333  0.66666667  0.47189667  1
  Cs  Cs3  1  0.66666667  0.33333333  0.52810333  1
  Cs  Cs4  1  0.00000000  0.00000000  0.80523000  1
  Cs  Cs5  1  0.33333333  0.66666667  0.86143667  1
  Ga  Ga6  1  0.72088200  0.86044100  0.07571100  1
  Ga  Ga7  1  0.13955900  0.27911800  0.07571100  1
  Ga  Ga8  1  0.33333333  0.66666667  0.21145967  1
  Ga  Ga9  1  0.33333333  0.66666667  0.12187367  1
  Ga  Ga10  1  0.86650933  0.73301867  0.31532367  1
  Ga  Ga11  1  0.26698133  0.13349067  0.31532367  1
  Ga  Ga12  1  0.86650933  0.13349067  0.31532367  1
  Ga  Ga13  1  0.80015733  0.19984267  0.01800967  1
  Ga  Ga14  1  0.80015733  0.60031467  0.01800967  1
  Ga  Ga15  1  0.39968533  0.19984267  0.01800967  1
  Ga  Ga16  1  0.52710767  0.05421533  0.25762233  1
  Ga  Ga17  1  0.94578467  0.47289233  0.25762233  1
  Ga  Ga18  1  0.52710767  0.47289233  0.25762233  1
  Ga  Ga19  1  0.13955900  0.86044100  0.07571100  1
  Ga  Ga20  1  0.38754867  0.19377433  0.40904433  1
  Ga  Ga21  1  0.80622567  0.61245133  0.40904433  1
  Ga  Ga22  1  0.00000000  0.00000000  0.54479300  1
  Ga  Ga23  1  0.00000000  0.00000000  0.45520700  1
  Ga  Ga24  1  0.53317600  0.06635200  0.64865700  1
  Ga  Ga25  1  0.93364800  0.46682400  0.64865700  1
  Ga  Ga26  1  0.53317600  0.46682400  0.64865700  1
  Ga  Ga27  1  0.46682400  0.53317600  0.35134300  1
  Ga  Ga28  1  0.46682400  0.93364800  0.35134300  1
  Ga  Ga29  1  0.06635200  0.53317600  0.35134300  1
  Ga  Ga30  1  0.19377433  0.38754867  0.59095567  1
  Ga  Ga31  1  0.61245133  0.80622567  0.59095567  1
  Ga  Ga32  1  0.19377433  0.80622567  0.59095567  1
  Ga  Ga33  1  0.80622567  0.19377433  0.40904433  1
  Ga  Ga34  1  0.05421533  0.52710767  0.74237767  1
  Ga  Ga35  1  0.47289233  0.94578467  0.74237767  1
  Ga  Ga36  1  0.66666667  0.33333333  0.87812633  1
  Ga  Ga37  1  0.66666667  0.33333333  0.78854033  1
  Ga  Ga38  1  0.19984267  0.39968533  0.98199033  1
  Ga  Ga39  1  0.60031467  0.80015733  0.98199033  1
  Ga  Ga40  1  0.19984267  0.80015733  0.98199033  1
  Ga  Ga41  1  0.13349067  0.86650933  0.68467633  1
  Ga  Ga42  1  0.13349067  0.26698133  0.68467633  1
  Ga  Ga43  1  0.73301867  0.86650933  0.68467633  1
  Ga  Ga44  1  0.86044100  0.72088200  0.92428900  1
  Ga  Ga45  1  0.27911800  0.13955900  0.92428900  1
  Ga  Ga46  1  0.86044100  0.13955900  0.92428900  1
  Ga  Ga47  1  0.47289233  0.52710767  0.74237767  1
