# generated using pymatgen
data_LiCr2(PO4)3
_symmetry_space_group_name_H-M   'P 1'
_cell_length_a   11.59969200
_cell_length_b   11.59969200
_cell_length_c   11.57249600
_cell_angle_alpha   90.00000000
_cell_angle_beta   90.00000000
_cell_angle_gamma   90.00000000
_symmetry_Int_Tables_number   1
_chemical_formula_structural   LiCr2(PO4)3
_chemical_formula_sum   'Li8 Cr16 P24 O96'
_cell_volume   1557.11237043
_cell_formula_units_Z   8
loop_
 _symmetry_equiv_pos_site_id
 _symmetry_equiv_pos_as_xyz
  1  'x, y, z'
loop_
 _atom_site_type_symbol
 _atom_site_label
 _atom_site_symmetry_multiplicity
 _atom_site_fract_x
 _atom_site_fract_y
 _atom_site_fract_z
 _atom_site_occupancy
  Li  Li0  1  0.50000000  0.00000000  0.00000000  1
  Li  Li1  1  0.00000000  0.00000000  0.25000000  1
  Li  Li2  1  0.50000000  0.50000000  0.25000000  1
  Li  Li3  1  0.50000000  0.00000000  0.50000000  1
  Li  Li4  1  0.00000000  0.50000000  0.50000000  1
  Li  Li5  1  0.50000000  0.50000000  0.75000000  1
  Li  Li6  1  0.00000000  0.00000000  0.75000000  1
  Li  Li7  1  0.00000000  0.50000000  0.00000000  1
  Cr  Cr8  1  0.25000000  0.50000000  0.62500000  1
  Cr  Cr9  1  0.50000000  0.75000000  0.37500000  1
  Cr  Cr10  1  0.00000000  0.25000000  0.37500000  1
  Cr  Cr11  1  0.75000000  0.00000000  0.62500000  1
  Cr  Cr12  1  0.50000000  0.25000000  0.37500000  1
  Cr  Cr13  1  0.75000000  0.50000000  0.12500000  1
  Cr  Cr14  1  0.75000000  0.50000000  0.62500000  1
  Cr  Cr15  1  0.50000000  0.25000000  0.87500000  1
  Cr  Cr16  1  0.75000000  0.00000000  0.12500000  1
  Cr  Cr17  1  0.00000000  0.25000000  0.87500000  1
  Cr  Cr18  1  0.50000000  0.75000000  0.87500000  1
  Cr  Cr19  1  0.25000000  0.50000000  0.12500000  1
  Cr  Cr20  1  0.00000000  0.75000000  0.87500000  1
  Cr  Cr21  1  0.25000000  0.00000000  0.62500000  1
  Cr  Cr22  1  0.25000000  0.00000000  0.12500000  1
  Cr  Cr23  1  0.00000000  0.75000000  0.37500000  1
  P  P24  1  0.75000000  0.12599300  0.87500000  1
  P  P25  1  0.87400700  0.25000000  0.62500000  1
  P  P26  1  0.50000000  0.00000000  0.75000000  1
  P  P27  1  0.12599300  0.25000000  0.12500000  1
  P  P28  1  0.25000000  0.37400700  0.87500000  1
  P  P29  1  0.00000000  0.00000000  0.50000000  1
  P  P30  1  0.50000000  0.50000000  0.50000000  1
  P  P31  1  0.25000000  0.12599300  0.37500000  1
  P  P32  1  0.62599300  0.25000000  0.12500000  1
  P  P33  1  0.75000000  0.37400700  0.37500000  1
  P  P34  1  0.50000000  0.00000000  0.25000000  1
  P  P35  1  0.37400700  0.25000000  0.62500000  1
  P  P36  1  0.25000000  0.62599300  0.37500000  1
  P  P37  1  0.37400700  0.75000000  0.12500000  1
  P  P38  1  0.00000000  0.50000000  0.25000000  1
  P  P39  1  0.62599300  0.75000000  0.62500000  1
  P  P40  1  0.75000000  0.87400700  0.37500000  1
  P  P41  1  0.50000000  0.50000000  0.00000000  1
  P  P42  1  0.00000000  0.00000000  0.00000000  1
  P  P43  1  0.75000000  0.62599300  0.87500000  1
  P  P44  1  0.12599300  0.75000000  0.62500000  1
  P  P45  1  0.25000000  0.87400700  0.87500000  1
  P  P46  1  0.00000000  0.50000000  0.75000000  1
  P  P47  1  0.87400700  0.75000000  0.12500000  1
  O  O48  1  0.90589900  0.45638100  0.16485000  1
  O  O49  1  0.20365150  0.04379450  0.27879450  1
  O  O50  1  0.34713050  0.29416450  0.91997750  1
  O  O51  1  0.29634850  0.45620550  0.77879450  1
  O  O52  1  0.04361900  0.90589900  0.41485000  1
  O  O53  1  0.70365150  0.45620550  0.27879450  1
  O  O54  1  0.79416450  0.65286950  0.16997750  1
  O  O55  1  0.59410100  0.45638100  0.58515000  1
  O  O56  1  0.90589900  0.54361900  0.66485000  1
  O  O57  1  0.70583550  0.34713050  0.08002250  1
  O  O58  1  0.79634850  0.54379450  0.97120550  1
  O  O59  1  0.54379450  0.20365150  0.02879450  1
  O  O60  1  0.79634850  0.45620550  0.47120550  1
  O  O61  1  0.45638100  0.09410100  0.83515000  1
  O  O62  1  0.65286950  0.20583550  0.83002250  1
  O  O63  1  0.70365150  0.04379450  0.97120550  1
  O  O64  1  0.45638100  0.90589900  0.33515000  1
  O  O65  1  0.34713050  0.70583550  0.41997750  1
  O  O66  1  0.84713050  0.29416450  0.33002250  1
  O  O67  1  0.45620550  0.20365150  0.52879450  1
  O  O68  1  0.79416450  0.34713050  0.66997750  1
  O  O69  1  0.45620550  0.29634850  0.72120550  1
  O  O70  1  0.04361900  0.40589900  0.33515000  1
  O  O71  1  0.70583550  0.15286950  0.16997750  1
  O  O72  1  0.59410100  0.04361900  0.66485000  1
  O  O73  1  0.65286950  0.29416450  0.41997750  1
  O  O74  1  0.09410100  0.45638100  0.66485000  1
  O  O75  1  0.79634850  0.04379450  0.77879450  1
  O  O76  1  0.95620550  0.20365150  0.72120550  1
  O  O77  1  0.79416450  0.15286950  0.58002250  1
  O  O78  1  0.54361900  0.09410100  0.33515000  1
  O  O79  1  0.04379450  0.20365150  0.22120550  1
  O  O80  1  0.95620550  0.29634850  0.52879450  1
  O  O81  1  0.45638100  0.40589900  0.41485000  1
  O  O82  1  0.70583550  0.84713050  0.66997750  1
  O  O83  1  0.04379450  0.29634850  0.02879450  1
  O  O84  1  0.70365150  0.95620550  0.47120550  1
  O  O85  1  0.40589900  0.54361900  0.58515000  1
  O  O86  1  0.84713050  0.70583550  0.83002250  1
  O  O87  1  0.90589900  0.95638100  0.58515000  1
  O  O88  1  0.29416450  0.34713050  0.58002250  1
  O  O89  1  0.95638100  0.09410100  0.41485000  1
  O  O90  1  0.54361900  0.59410100  0.41485000  1
  O  O91  1  0.70583550  0.65286950  0.58002250  1
  O  O92  1  0.54379450  0.29634850  0.22120550  1
  O  O93  1  0.15286950  0.20583550  0.41997750  1
  O  O94  1  0.65286950  0.79416450  0.33002250  1
  O  O95  1  0.09410100  0.04361900  0.58515000  1
  O  O96  1  0.40589900  0.95638100  0.66485000  1
  O  O97  1  0.70365150  0.54379450  0.77879450  1
  O  O98  1  0.84713050  0.79416450  0.41997750  1
  O  O99  1  0.79634850  0.95620550  0.27879450  1
  O  O100  1  0.54361900  0.40589900  0.91485000  1
  O  O101  1  0.20365150  0.95620550  0.77879450  1
  O  O102  1  0.29416450  0.15286950  0.66997750  1
  O  O103  1  0.09410100  0.95638100  0.08515000  1
  O  O104  1  0.40589900  0.04361900  0.16485000  1
  O  O105  1  0.20583550  0.84713050  0.58002250  1
  O  O106  1  0.29634850  0.04379450  0.47120550  1
  O  O107  1  0.04379450  0.70365150  0.52879450  1
  O  O108  1  0.29634850  0.95620550  0.97120550  1
  O  O109  1  0.95638100  0.59410100  0.33515000  1
  O  O110  1  0.15286950  0.70583550  0.33002250  1
  O  O111  1  0.20365150  0.54379450  0.47120550  1
  O  O112  1  0.95638100  0.40589900  0.83515000  1
  O  O113  1  0.84713050  0.20583550  0.91997750  1
  O  O114  1  0.34713050  0.79416450  0.83002250  1
  O  O115  1  0.95620550  0.70365150  0.02879450  1
  O  O116  1  0.29416450  0.84713050  0.16997750  1
  O  O117  1  0.95620550  0.79634850  0.22120550  1
  O  O118  1  0.54361900  0.90589900  0.83515000  1
  O  O119  1  0.20583550  0.65286950  0.66997750  1
  O  O120  1  0.09410100  0.54361900  0.16485000  1
  O  O121  1  0.15286950  0.79416450  0.91997750  1
  O  O122  1  0.59410100  0.95638100  0.16485000  1
  O  O123  1  0.29634850  0.54379450  0.27879450  1
  O  O124  1  0.45620550  0.70365150  0.22120550  1
  O  O125  1  0.29416450  0.65286950  0.08002250  1
  O  O126  1  0.04361900  0.59410100  0.83515000  1
  O  O127  1  0.54379450  0.70365150  0.72120550  1
  O  O128  1  0.45620550  0.79634850  0.02879450  1
  O  O129  1  0.95638100  0.90589900  0.91485000  1
  O  O130  1  0.20583550  0.34713050  0.16997750  1
  O  O131  1  0.54379450  0.79634850  0.52879450  1
  O  O132  1  0.20365150  0.45620550  0.97120550  1
  O  O133  1  0.90589900  0.04361900  0.08515000  1
  O  O134  1  0.34713050  0.20583550  0.33002250  1
  O  O135  1  0.40589900  0.45638100  0.08515000  1
  O  O136  1  0.79416450  0.84713050  0.08002250  1
  O  O137  1  0.45638100  0.59410100  0.91485000  1
  O  O138  1  0.04361900  0.09410100  0.91485000  1
  O  O139  1  0.20583550  0.15286950  0.08002250  1
  O  O140  1  0.04379450  0.79634850  0.72120550  1
  O  O141  1  0.65286950  0.70583550  0.91997750  1
  O  O142  1  0.15286950  0.29416450  0.83002250  1
  O  O143  1  0.59410100  0.54361900  0.08515000  1
