# generated using pymatgen
data_Pu2S3
_symmetry_space_group_name_H-M   'P 1'
_cell_length_a   8.29976000
_cell_length_b   8.29976000
_cell_length_c   25.11620400
_cell_angle_alpha   90.00000000
_cell_angle_beta   90.00000000
_cell_angle_gamma   90.00000000
_symmetry_Int_Tables_number   1
_chemical_formula_structural   Pu2S3
_chemical_formula_sum   'Pu32 S48'
_cell_volume   1730.15523205
_cell_formula_units_Z   16
loop_
 _symmetry_equiv_pos_site_id
 _symmetry_equiv_pos_as_xyz
  1  'x, y, z'
loop_
 _atom_site_type_symbol
 _atom_site_label
 _atom_site_symmetry_multiplicity
 _atom_site_fract_x
 _atom_site_fract_y
 _atom_site_fract_z
 _atom_site_occupancy
  Pu  Pu0  1  0.50000000  0.00000000  0.08475100  1
  Pu  Pu1  1  0.12018000  0.75000000  0.12500000  1
  Pu  Pu2  1  0.24493500  0.13475700  0.21092700  1
  Pu  Pu3  1  0.50000000  0.50000000  0.16524900  1
  Pu  Pu4  1  0.87982000  0.25000000  0.12500000  1
  Pu  Pu5  1  0.75506500  0.86524300  0.21092700  1
  Pu  Pu6  1  0.63475700  0.25506500  0.28907300  1
  Pu  Pu7  1  0.75000000  0.62018000  0.37500000  1
  Pu  Pu8  1  0.00000000  0.00000000  0.33475100  1
  Pu  Pu9  1  0.25000000  0.37982000  0.37500000  1
  Pu  Pu10  1  0.36524300  0.74493500  0.28907300  1
  Pu  Pu11  1  0.50000000  0.00000000  0.41524900  1
  Pu  Pu12  1  0.13475700  0.74493500  0.46092700  1
  Pu  Pu13  1  0.75506500  0.63475700  0.03907300  1
  Pu  Pu14  1  0.24493500  0.36524300  0.03907300  1
  Pu  Pu15  1  0.86524300  0.25506500  0.46092700  1
  Pu  Pu16  1  0.00000000  0.50000000  0.58475100  1
  Pu  Pu17  1  0.62018000  0.25000000  0.62500000  1
  Pu  Pu18  1  0.74493500  0.63475700  0.71092700  1
  Pu  Pu19  1  0.00000000  0.00000000  0.66524900  1
  Pu  Pu20  1  0.37982000  0.75000000  0.62500000  1
  Pu  Pu21  1  0.25506500  0.36524300  0.71092700  1
  Pu  Pu22  1  0.13475700  0.75506500  0.78907300  1
  Pu  Pu23  1  0.25000000  0.12018000  0.87500000  1
  Pu  Pu24  1  0.50000000  0.50000000  0.83475100  1
  Pu  Pu25  1  0.75000000  0.87982000  0.87500000  1
  Pu  Pu26  1  0.86524300  0.24493500  0.78907300  1
  Pu  Pu27  1  0.00000000  0.50000000  0.91524900  1
  Pu  Pu28  1  0.63475700  0.24493500  0.96092700  1
  Pu  Pu29  1  0.25506500  0.13475700  0.53907300  1
  Pu  Pu30  1  0.74493500  0.86524300  0.53907300  1
  Pu  Pu31  1  0.36524300  0.75506500  0.96092700  1
  S  S32  1  0.82042100  0.92440800  0.10369300  1
  S  S33  1  0.42451150  0.67344150  0.06695450  1
  S  S34  1  0.42451150  0.82655850  0.18304550  1
  S  S35  1  0.57548850  0.32655850  0.06695450  1
  S  S36  1  0.57548850  0.17344150  0.18304550  1
  S  S37  1  0.17957900  0.07559200  0.10369300  1
  S  S38  1  0.82042100  0.57559200  0.14630700  1
  S  S39  1  0.17957900  0.42440800  0.14630700  1
  S  S40  1  0.33063200  0.42196200  0.26592600  1
  S  S41  1  0.92196200  0.16936800  0.23407400  1
  S  S42  1  0.92440800  0.32042100  0.35369300  1
  S  S43  1  0.07803800  0.83063200  0.23407400  1
  S  S44  1  0.07559200  0.67957900  0.35369300  1
  S  S45  1  0.32655850  0.07548850  0.31695450  1
  S  S46  1  0.66936800  0.57803800  0.26592600  1
  S  S47  1  0.67344150  0.92451150  0.31695450  1
  S  S48  1  0.82655850  0.92451150  0.43304550  1
  S  S49  1  0.42440800  0.67957900  0.39630700  1
  S  S50  1  0.57559200  0.32042100  0.39630700  1
  S  S51  1  0.92196200  0.33063200  0.01592600  1
  S  S52  1  0.07803800  0.66936800  0.01592600  1
  S  S53  1  0.83063200  0.57803800  0.48407400  1
  S  S54  1  0.17344150  0.07548850  0.43304550  1
  S  S55  1  0.16936800  0.42196200  0.48407400  1
  S  S56  1  0.32042100  0.42440800  0.60369300  1
  S  S57  1  0.92451150  0.17344150  0.56695450  1
  S  S58  1  0.92451150  0.32655850  0.68304550  1
  S  S59  1  0.07548850  0.82655850  0.56695450  1
  S  S60  1  0.07548850  0.67344150  0.68304550  1
  S  S61  1  0.67957900  0.57559200  0.60369300  1
  S  S62  1  0.32042100  0.07559200  0.64630700  1
  S  S63  1  0.67957900  0.92440800  0.64630700  1
  S  S64  1  0.83063200  0.92196200  0.76592600  1
  S  S65  1  0.42196200  0.66936800  0.73407400  1
  S  S66  1  0.42440800  0.82042100  0.85369300  1
  S  S67  1  0.57803800  0.33063200  0.73407400  1
  S  S68  1  0.57559200  0.17957900  0.85369300  1
  S  S69  1  0.82655850  0.57548850  0.81695450  1
  S  S70  1  0.16936800  0.07803800  0.76592600  1
  S  S71  1  0.17344150  0.42451150  0.81695450  1
  S  S72  1  0.32655850  0.42451150  0.93304550  1
  S  S73  1  0.92440800  0.17957900  0.89630700  1
  S  S74  1  0.07559200  0.82042100  0.89630700  1
  S  S75  1  0.42196200  0.83063200  0.51592600  1
  S  S76  1  0.57803800  0.16936800  0.51592600  1
  S  S77  1  0.33063200  0.07803800  0.98407400  1
  S  S78  1  0.67344150  0.57548850  0.93304550  1
  S  S79  1  0.66936800  0.92196200  0.98407400  1
