# generated using pymatgen
data_Sm2AsSe
_symmetry_space_group_name_H-M   'P 1'
_cell_length_a   5.92979600
_cell_length_b   5.92979600
_cell_length_c   11.89322600
_cell_angle_alpha   90.00000000
_cell_angle_beta   90.00000000
_cell_angle_gamma   90.00000000
_symmetry_Int_Tables_number   1
_chemical_formula_structural   Sm2AsSe
_chemical_formula_sum   'Sm8 As4 Se4'
_cell_volume   418.19532852
_cell_formula_units_Z   4
loop_
 _symmetry_equiv_pos_site_id
 _symmetry_equiv_pos_as_xyz
  1  'x, y, z'
loop_
 _atom_site_type_symbol
 _atom_site_label
 _atom_site_symmetry_multiplicity
 _atom_site_fract_x
 _atom_site_fract_y
 _atom_site_fract_z
 _atom_site_occupancy
  Sm  Sm0  1  0.50000000  0.50000000  0.24466000  1
  Sm  Sm1  1  0.50000000  0.00000000  0.49466000  1
  Sm  Sm2  1  0.00000000  0.00000000  0.25534000  1
  Sm  Sm3  1  0.50000000  0.00000000  0.00534000  1
  Sm  Sm4  1  0.00000000  0.00000000  0.74466000  1
  Sm  Sm5  1  0.00000000  0.50000000  0.99466000  1
  Sm  Sm6  1  0.50000000  0.50000000  0.75534000  1
  Sm  Sm7  1  0.00000000  0.50000000  0.50534000  1
  As  As8  1  0.50000000  0.50000000  0.00000000  1
  As  As9  1  0.50000000  0.00000000  0.25000000  1
  As  As10  1  0.00000000  0.00000000  0.50000000  1
  As  As11  1  0.00000000  0.50000000  0.75000000  1
  Se  Se12  1  0.00000000  0.00000000  0.00000000  1
  Se  Se13  1  0.00000000  0.50000000  0.25000000  1
  Se  Se14  1  0.50000000  0.50000000  0.50000000  1
  Se  Se15  1  0.50000000  0.00000000  0.75000000  1
