# generated using pymatgen
data_Hf11Ga10
_symmetry_space_group_name_H-M   'P 1'
_cell_length_a   10.36407400
_cell_length_b   10.36407400
_cell_length_c   14.76499800
_cell_angle_alpha   90.00000000
_cell_angle_beta   90.00000000
_cell_angle_gamma   90.00000000
_symmetry_Int_Tables_number   1
_chemical_formula_structural   Hf11Ga10
_chemical_formula_sum   'Hf44 Ga40'
_cell_volume   1585.96793631
_cell_formula_units_Z   4
loop_
 _symmetry_equiv_pos_site_id
 _symmetry_equiv_pos_as_xyz
  1  'x, y, z'
loop_
 _atom_site_type_symbol
 _atom_site_label
 _atom_site_symmetry_multiplicity
 _atom_site_fract_x
 _atom_site_fract_y
 _atom_site_fract_z
 _atom_site_occupancy
  Hf  Hf0  1  0.00000000  0.00000000  0.32136700  1
  Hf  Hf1  1  0.50000000  0.50000000  0.17863300  1
  Hf  Hf2  1  0.17481800  0.17481800  0.00000000  1
  Hf  Hf3  1  0.82518200  0.17481800  0.00000000  1
  Hf  Hf4  1  0.17481800  0.82518200  0.00000000  1
  Hf  Hf5  1  0.82518200  0.82518200  0.00000000  1
  Hf  Hf6  1  0.00000000  0.25075800  0.18808600  1
  Hf  Hf7  1  0.74924200  0.00000000  0.18808600  1
  Hf  Hf8  1  0.25075800  0.00000000  0.18808600  1
  Hf  Hf9  1  0.50000000  0.24924200  0.31191400  1
  Hf  Hf10  1  0.50000000  0.75075800  0.31191400  1
  Hf  Hf11  1  0.75075800  0.50000000  0.31191400  1
  Hf  Hf12  1  0.24924200  0.50000000  0.31191400  1
  Hf  Hf13  1  0.00000000  0.74924200  0.18808600  1
  Hf  Hf14  1  0.00000000  0.33355100  0.39637100  1
  Hf  Hf15  1  0.66644900  0.00000000  0.39637100  1
  Hf  Hf16  1  0.33355100  0.00000000  0.39637100  1
  Hf  Hf17  1  0.50000000  0.16644900  0.10362900  1
  Hf  Hf18  1  0.50000000  0.83355100  0.10362900  1
  Hf  Hf19  1  0.83355100  0.50000000  0.10362900  1
  Hf  Hf20  1  0.16644900  0.50000000  0.10362900  1
  Hf  Hf21  1  0.00000000  0.66644900  0.39637100  1
  Hf  Hf22  1  0.50000000  0.50000000  0.82136700  1
  Hf  Hf23  1  0.00000000  0.00000000  0.67863300  1
  Hf  Hf24  1  0.67481800  0.67481800  0.50000000  1
  Hf  Hf25  1  0.32518200  0.67481800  0.50000000  1
  Hf  Hf26  1  0.67481800  0.32518200  0.50000000  1
  Hf  Hf27  1  0.32518200  0.32518200  0.50000000  1
  Hf  Hf28  1  0.50000000  0.75075800  0.68808600  1
  Hf  Hf29  1  0.24924200  0.50000000  0.68808600  1
  Hf  Hf30  1  0.75075800  0.50000000  0.68808600  1
  Hf  Hf31  1  0.00000000  0.74924200  0.81191400  1
  Hf  Hf32  1  0.00000000  0.25075800  0.81191400  1
  Hf  Hf33  1  0.25075800  0.00000000  0.81191400  1
  Hf  Hf34  1  0.74924200  0.00000000  0.81191400  1
  Hf  Hf35  1  0.50000000  0.24924200  0.68808600  1
  Hf  Hf36  1  0.50000000  0.83355100  0.89637100  1
  Hf  Hf37  1  0.16644900  0.50000000  0.89637100  1
  Hf  Hf38  1  0.83355100  0.50000000  0.89637100  1
  Hf  Hf39  1  0.00000000  0.66644900  0.60362900  1
  Hf  Hf40  1  0.00000000  0.33355100  0.60362900  1
  Hf  Hf41  1  0.33355100  0.00000000  0.60362900  1
  Hf  Hf42  1  0.66644900  0.00000000  0.60362900  1
  Hf  Hf43  1  0.50000000  0.16644900  0.89637100  1
  Ga  Ga44  1  0.00000000  0.50000000  0.25000000  1
  Ga  Ga45  1  0.50000000  0.00000000  0.25000000  1
  Ga  Ga46  1  0.00000000  0.00000000  0.10756600  1
  Ga  Ga47  1  0.50000000  0.50000000  0.39243400  1
  Ga  Ga48  1  0.37256300  0.37256300  0.00000000  1
  Ga  Ga49  1  0.62743700  0.37256300  0.00000000  1
  Ga  Ga50  1  0.37256300  0.62743700  0.00000000  1
  Ga  Ga51  1  0.62743700  0.62743700  0.00000000  1
  Ga  Ga52  1  0.35683600  0.00000000  0.00000000  1
  Ga  Ga53  1  0.00000000  0.35683600  0.00000000  1
  Ga  Ga54  1  0.00000000  0.64316400  0.00000000  1
  Ga  Ga55  1  0.64316400  0.00000000  0.00000000  1
  Ga  Ga56  1  0.20639300  0.20639300  0.32675400  1
  Ga  Ga57  1  0.79360700  0.20639300  0.32675400  1
  Ga  Ga58  1  0.20639300  0.79360700  0.32675400  1
  Ga  Ga59  1  0.70639300  0.29360700  0.17324600  1
  Ga  Ga60  1  0.29360700  0.70639300  0.17324600  1
  Ga  Ga61  1  0.70639300  0.70639300  0.17324600  1
  Ga  Ga62  1  0.29360700  0.29360700  0.17324600  1
  Ga  Ga63  1  0.79360700  0.79360700  0.32675400  1
  Ga  Ga64  1  0.50000000  0.00000000  0.75000000  1
  Ga  Ga65  1  0.00000000  0.50000000  0.75000000  1
  Ga  Ga66  1  0.50000000  0.50000000  0.60756600  1
  Ga  Ga67  1  0.00000000  0.00000000  0.89243400  1
  Ga  Ga68  1  0.87256300  0.87256300  0.50000000  1
  Ga  Ga69  1  0.12743700  0.87256300  0.50000000  1
  Ga  Ga70  1  0.87256300  0.12743700  0.50000000  1
  Ga  Ga71  1  0.12743700  0.12743700  0.50000000  1
  Ga  Ga72  1  0.85683600  0.50000000  0.50000000  1
  Ga  Ga73  1  0.50000000  0.85683600  0.50000000  1
  Ga  Ga74  1  0.50000000  0.14316400  0.50000000  1
  Ga  Ga75  1  0.14316400  0.50000000  0.50000000  1
  Ga  Ga76  1  0.70639300  0.70639300  0.82675400  1
  Ga  Ga77  1  0.29360700  0.70639300  0.82675400  1
  Ga  Ga78  1  0.70639300  0.29360700  0.82675400  1
  Ga  Ga79  1  0.20639300  0.79360700  0.67324600  1
  Ga  Ga80  1  0.79360700  0.20639300  0.67324600  1
  Ga  Ga81  1  0.20639300  0.20639300  0.67324600  1
  Ga  Ga82  1  0.79360700  0.79360700  0.67324600  1
  Ga  Ga83  1  0.29360700  0.29360700  0.82675400  1
