# generated using pymatgen
data_LiV(PO3)4
_symmetry_space_group_name_H-M   'P 1'
_cell_length_a   15.49080000
_cell_length_b   7.36688000
_cell_length_c   9.71637108
_cell_angle_alpha   90.00000000
_cell_angle_beta   122.30092288
_cell_angle_gamma   90.00000000
_symmetry_Int_Tables_number   1
_chemical_formula_structural   LiV(PO3)4
_chemical_formula_sum   'Li4 V4 P16 O48'
_cell_volume   937.23472733
_cell_formula_units_Z   4
loop_
 _symmetry_equiv_pos_site_id
 _symmetry_equiv_pos_as_xyz
  1  'x, y, z'
loop_
 _atom_site_type_symbol
 _atom_site_label
 _atom_site_symmetry_multiplicity
 _atom_site_fract_x
 _atom_site_fract_y
 _atom_site_fract_z
 _atom_site_occupancy
  Li  Li0  1  0.50000000  0.69119400  0.25000000  1
  Li  Li1  1  0.00000000  0.80880600  0.75000000  1
  Li  Li2  1  0.00000000  0.19119400  0.25000000  1
  Li  Li3  1  0.50000000  0.30880600  0.75000000  1
  V  V4  1  0.50000000  0.13246300  0.25000000  1
  V  V5  1  0.00000000  0.36753700  0.75000000  1
  V  V6  1  0.00000000  0.63246300  0.25000000  1
  V  V7  1  0.50000000  0.86753700  0.75000000  1
  P  P8  1  0.86481000  0.66883200  0.83979300  1
  P  P9  1  0.86849050  0.08000050  0.85928100  1
  P  P10  1  0.63150950  0.58000050  0.64071900  1
  P  P11  1  0.63519000  0.16883200  0.66020700  1
  P  P12  1  0.86481000  0.33116800  0.33979300  1
  P  P13  1  0.86849050  0.91999950  0.35928100  1
  P  P14  1  0.63150950  0.41999950  0.14071900  1
  P  P15  1  0.63519000  0.83116800  0.16020700  1
  P  P16  1  0.36481000  0.16883200  0.83979300  1
  P  P17  1  0.36849050  0.58000050  0.85928100  1
  P  P18  1  0.13150950  0.08000050  0.64071900  1
  P  P19  1  0.13519000  0.66883200  0.66020700  1
  P  P20  1  0.36481000  0.83116800  0.33979300  1
  P  P21  1  0.36849050  0.41999950  0.35928100  1
  P  P22  1  0.13150950  0.91999950  0.14071900  1
  P  P23  1  0.13519000  0.33116800  0.16020700  1
  O  O24  1  0.86386500  0.87641200  0.79176400  1
  O  O25  1  0.59691200  0.29967600  0.22663600  1
  O  O26  1  0.75208300  0.60685800  0.71534900  1
  O  O27  1  0.56801400  0.92026200  0.20994400  1
  O  O28  1  0.74791700  0.10685800  0.78465100  1
  O  O29  1  0.60774350  0.14512550  0.48761400  1
  O  O30  1  0.58013200  0.58476200  0.46155800  1
  O  O31  1  0.41986800  0.58476200  0.03844200  1
  O  O32  1  0.63613500  0.37641200  0.70823600  1
  O  O33  1  0.39225650  0.14512550  0.01238600  1
  O  O34  1  0.09691200  0.20032400  0.72663600  1
  O  O35  1  0.43198600  0.92026200  0.29005600  1
  O  O36  1  0.06801400  0.57973800  0.70994400  1
  O  O37  1  0.40308800  0.29967600  0.27336400  1
  O  O38  1  0.10774350  0.35487450  0.98761400  1
  O  O39  1  0.86386500  0.12358800  0.29176400  1
  O  O40  1  0.08013200  0.91523800  0.96155800  1
  O  O41  1  0.91986800  0.91523800  0.53844200  1
  O  O42  1  0.89225650  0.35487450  0.51238600  1
  O  O43  1  0.75208300  0.39314200  0.21534900  1
  O  O44  1  0.93198600  0.57973800  0.79005600  1
  O  O45  1  0.74791700  0.89314200  0.28465100  1
  O  O46  1  0.90308800  0.20032400  0.77336400  1
  O  O47  1  0.63613500  0.62358800  0.20823600  1
  O  O48  1  0.36386500  0.37641200  0.79176400  1
  O  O49  1  0.09691200  0.79967600  0.22663600  1
  O  O50  1  0.25208300  0.10685800  0.71534900  1
  O  O51  1  0.06801400  0.42026200  0.20994400  1
  O  O52  1  0.24791700  0.60685800  0.78465100  1
  O  O53  1  0.10774350  0.64512550  0.48761400  1
  O  O54  1  0.08013200  0.08476200  0.46155800  1
  O  O55  1  0.91986800  0.08476200  0.03844200  1
  O  O56  1  0.13613500  0.87641200  0.70823600  1
  O  O57  1  0.89225650  0.64512550  0.01238600  1
  O  O58  1  0.59691200  0.70032400  0.72663600  1
  O  O59  1  0.93198600  0.42026200  0.29005600  1
  O  O60  1  0.56801400  0.07973800  0.70994400  1
  O  O61  1  0.90308800  0.79967600  0.27336400  1
  O  O62  1  0.60774350  0.85487450  0.98761400  1
  O  O63  1  0.36386500  0.62358800  0.29176400  1
  O  O64  1  0.58013200  0.41523800  0.96155800  1
  O  O65  1  0.41986800  0.41523800  0.53844200  1
  O  O66  1  0.39225650  0.85487450  0.51238600  1
  O  O67  1  0.25208300  0.89314200  0.21534900  1
  O  O68  1  0.43198600  0.07973800  0.79005600  1
  O  O69  1  0.24791700  0.39314200  0.28465100  1
  O  O70  1  0.40308800  0.70032400  0.77336400  1
  O  O71  1  0.13613500  0.12358800  0.20823600  1
