# generated using pymatgen
data_LiNi2(PO4)3
_symmetry_space_group_name_H-M   'P 1'
_cell_length_a   8.10406200
_cell_length_b   5.27424600
_cell_length_c   19.29912891
_cell_angle_alpha   90.00000000
_cell_angle_beta   90.55392648
_cell_angle_gamma   90.00000000
_symmetry_Int_Tables_number   1
_chemical_formula_structural   LiNi2(PO4)3
_chemical_formula_sum   'Li4 Ni8 P12 O48'
_cell_volume   824.86057712
_cell_formula_units_Z   4
loop_
 _symmetry_equiv_pos_site_id
 _symmetry_equiv_pos_as_xyz
  1  'x, y, z'
loop_
 _atom_site_type_symbol
 _atom_site_label
 _atom_site_symmetry_multiplicity
 _atom_site_fract_x
 _atom_site_fract_y
 _atom_site_fract_z
 _atom_site_occupancy
  Li  Li0  1  0.99970300  0.00000000  0.66639000  1
  Li  Li1  1  0.00029700  0.00000000  0.33361000  1
  Li  Li2  1  0.49970300  0.50000000  0.66639000  1
  Li  Li3  1  0.50029700  0.50000000  0.33361000  1
  Ni  Ni4  1  0.00000000  0.00000000  0.00000000  1
  Ni  Ni5  1  0.00161400  0.00000000  0.16628300  1
  Ni  Ni6  1  0.99838600  0.00000000  0.83371700  1
  Ni  Ni7  1  0.00000000  0.00000000  0.50000000  1
  Ni  Ni8  1  0.50000000  0.50000000  0.00000000  1
  Ni  Ni9  1  0.50161400  0.50000000  0.16628300  1
  Ni  Ni10  1  0.49838600  0.50000000  0.83371700  1
  Ni  Ni11  1  0.50000000  0.50000000  0.50000000  1
  P  P12  1  0.64580400  0.00000000  0.91661400  1
  P  P13  1  0.64343800  0.00000000  0.58132300  1
  P  P14  1  0.35547000  0.00000000  0.75203800  1
  P  P15  1  0.35656200  0.00000000  0.41867700  1
  P  P16  1  0.35419600  0.00000000  0.08338600  1
  P  P17  1  0.64453000  0.00000000  0.24796200  1
  P  P18  1  0.14580400  0.50000000  0.91661400  1
  P  P19  1  0.14343800  0.50000000  0.58132300  1
  P  P20  1  0.85547000  0.50000000  0.75203800  1
  P  P21  1  0.85656200  0.50000000  0.41867700  1
  P  P22  1  0.85419600  0.50000000  0.08338600  1
  P  P23  1  0.14453000  0.50000000  0.24796200  1
  O  O24  1  0.25638500  0.00000000  0.68318400  1
  O  O25  1  0.53553550  0.76140450  0.24591700  1
  O  O26  1  0.75330800  0.00000000  0.98351200  1
  O  O27  1  0.46386700  0.75878100  0.08315100  1
  O  O28  1  0.53388400  0.76167600  0.57979500  1
  O  O29  1  0.46446450  0.76140450  0.75408300  1
  O  O30  1  0.53388400  0.23832400  0.57979500  1
  O  O31  1  0.53613300  0.75878100  0.91684900  1
  O  O32  1  0.74408900  0.00000000  0.64975200  1
  O  O33  1  0.74361500  0.00000000  0.31681600  1
  O  O34  1  0.74966200  0.00000000  0.84962500  1
  O  O35  1  0.53553550  0.23859550  0.24591700  1
  O  O36  1  0.25033800  0.00000000  0.15037500  1
  O  O37  1  0.46386700  0.24121900  0.08315100  1
  O  O38  1  0.46446450  0.23859550  0.75408300  1
  O  O39  1  0.24699600  0.00000000  0.48478800  1
  O  O40  1  0.46611600  0.23832400  0.42020500  1
  O  O41  1  0.75544200  0.00000000  0.18228400  1
  O  O42  1  0.24669200  0.00000000  0.01648800  1
  O  O43  1  0.46611600  0.76167600  0.42020500  1
  O  O44  1  0.25591100  0.00000000  0.35024800  1
  O  O45  1  0.24455800  0.00000000  0.81771600  1
  O  O46  1  0.53613300  0.24121900  0.91684900  1
  O  O47  1  0.75300400  0.00000000  0.51521200  1
  O  O48  1  0.75638500  0.50000000  0.68318400  1
  O  O49  1  0.03553550  0.26140450  0.24591700  1
  O  O50  1  0.25330800  0.50000000  0.98351200  1
  O  O51  1  0.96386700  0.25878100  0.08315100  1
  O  O52  1  0.03388400  0.26167600  0.57979500  1
  O  O53  1  0.96446450  0.26140450  0.75408300  1
  O  O54  1  0.03388400  0.73832400  0.57979500  1
  O  O55  1  0.03613300  0.25878100  0.91684900  1
  O  O56  1  0.24408900  0.50000000  0.64975200  1
  O  O57  1  0.24361500  0.50000000  0.31681600  1
  O  O58  1  0.24966200  0.50000000  0.84962500  1
  O  O59  1  0.03553550  0.73859550  0.24591700  1
  O  O60  1  0.75033800  0.50000000  0.15037500  1
  O  O61  1  0.96386700  0.74121900  0.08315100  1
  O  O62  1  0.96446450  0.73859550  0.75408300  1
  O  O63  1  0.74699600  0.50000000  0.48478800  1
  O  O64  1  0.96611600  0.73832400  0.42020500  1
  O  O65  1  0.25544200  0.50000000  0.18228400  1
  O  O66  1  0.74669200  0.50000000  0.01648800  1
  O  O67  1  0.96611600  0.26167600  0.42020500  1
  O  O68  1  0.75591100  0.50000000  0.35024800  1
  O  O69  1  0.74455800  0.50000000  0.81771600  1
  O  O70  1  0.03613300  0.74121900  0.91684900  1
  O  O71  1  0.25300400  0.50000000  0.51521200  1
