# generated using pymatgen
data_CoHO2
_symmetry_space_group_name_H-M   'P 1'
_cell_length_a   2.88272761
_cell_length_b   2.88272761
_cell_length_c   13.03965652
_cell_angle_alpha   90.00000000
_cell_angle_beta   90.00000000
_cell_angle_gamma   120.00000000
_symmetry_Int_Tables_number   1
_chemical_formula_structural   CoHO2
_chemical_formula_sum   'Co3 H3 O6'
_cell_volume   93.84345691
_cell_formula_units_Z   3
loop_
 _symmetry_equiv_pos_site_id
 _symmetry_equiv_pos_as_xyz
  1  'x, y, z'
loop_
 _atom_site_type_symbol
 _atom_site_label
 _atom_site_symmetry_multiplicity
 _atom_site_fract_x
 _atom_site_fract_y
 _atom_site_fract_z
 _atom_site_occupancy
  Co  Co0  1  0.00000000  0.00000000  0.00000000  1
  Co  Co1  1  0.66666667  0.33333333  0.33333333  1
  Co  Co2  1  0.33333333  0.66666667  0.66666667  1
  H  H3  1  0.66666667  0.33333333  0.83333333  1
  H  H4  1  0.33333333  0.66666667  0.16666667  1
  H  H5  1  1.00000000  1.00000000  0.50000000  1
  O  O6  1  0.66666667  0.33333333  0.74065733  1
  O  O7  1  0.66666667  0.33333333  0.92600933  1
  O  O8  1  0.33333333  0.66666667  0.07399067  1
  O  O9  1  0.33333333  0.66666667  0.25934267  1
  O  O10  1  0.00000000  0.00000000  0.40732400  1
  O  O11  1  0.00000000  0.00000000  0.59267600  1
