# generated using pymatgen
data_Cu2P2O7
_symmetry_space_group_name_H-M   'P 1'
_cell_length_a   7.18444600
_cell_length_b   8.20845000
_cell_length_c   9.37708878
_cell_angle_alpha   90.00000000
_cell_angle_beta   111.39417248
_cell_angle_gamma   90.00000000
_symmetry_Int_Tables_number   1
_chemical_formula_structural   Cu2P2O7
_chemical_formula_sum   'Cu8 P8 O28'
_cell_volume   514.89123091
_cell_formula_units_Z   4
loop_
 _symmetry_equiv_pos_site_id
 _symmetry_equiv_pos_as_xyz
  1  'x, y, z'
loop_
 _atom_site_type_symbol
 _atom_site_label
 _atom_site_symmetry_multiplicity
 _atom_site_fract_x
 _atom_site_fract_y
 _atom_site_fract_z
 _atom_site_occupancy
  Cu  Cu0  1  0.47521600  0.18645800  0.00867600  1
  Cu  Cu1  1  0.52478400  0.18645800  0.49132400  1
  Cu  Cu2  1  0.52478400  0.81354200  0.99132400  1
  Cu  Cu3  1  0.47521600  0.81354200  0.50867600  1
  Cu  Cu4  1  0.97521600  0.68645800  0.00867600  1
  Cu  Cu5  1  0.02478400  0.68645800  0.49132400  1
  Cu  Cu6  1  0.02478400  0.31354200  0.99132400  1
  Cu  Cu7  1  0.97521600  0.31354200  0.50867600  1
  P  P8  1  0.18952000  0.98875300  0.70705600  1
  P  P9  1  0.81048000  0.98875300  0.79294400  1
  P  P10  1  0.81048000  0.01124700  0.29294400  1
  P  P11  1  0.18952000  0.01124700  0.20705600  1
  P  P12  1  0.68952000  0.48875300  0.70705600  1
  P  P13  1  0.31048000  0.48875300  0.79294400  1
  P  P14  1  0.31048000  0.51124700  0.29294400  1
  P  P15  1  0.68952000  0.51124700  0.20705600  1
  O  O16  1  0.16082700  0.14926800  0.62301100  1
  O  O17  1  0.83917300  0.14926800  0.87698900  1
  O  O18  1  0.83917300  0.85073200  0.37698900  1
  O  O19  1  0.16082700  0.85073200  0.12301100  1
  O  O20  1  0.22012250  0.84443950  0.61408200  1
  O  O21  1  0.77987750  0.84443950  0.88591800  1
  O  O22  1  0.77987750  0.15556050  0.38591800  1
  O  O23  1  0.22012250  0.15556050  0.11408200  1
  O  O24  1  0.50000000  0.56051000  0.25000000  1
  O  O25  1  0.50000000  0.43949000  0.75000000  1
  O  O26  1  0.37073950  0.00072950  0.36221500  1
  O  O27  1  0.62926050  0.00072950  0.13778500  1
  O  O28  1  0.62926050  0.99927050  0.63778500  1
  O  O29  1  0.37073950  0.99927050  0.86221500  1
  O  O30  1  0.66082700  0.64926800  0.62301100  1
  O  O31  1  0.33917300  0.64926800  0.87698900  1
  O  O32  1  0.33917300  0.35073200  0.37698900  1
  O  O33  1  0.66082700  0.35073200  0.12301100  1
  O  O34  1  0.72012250  0.34443950  0.61408200  1
  O  O35  1  0.27987750  0.34443950  0.88591800  1
  O  O36  1  0.27987750  0.65556050  0.38591800  1
  O  O37  1  0.72012250  0.65556050  0.11408200  1
  O  O38  1  0.00000000  0.06051000  0.25000000  1
  O  O39  1  0.00000000  0.93949000  0.75000000  1
  O  O40  1  0.87073950  0.50072950  0.36221500  1
  O  O41  1  0.12926050  0.50072950  0.13778500  1
  O  O42  1  0.12926050  0.49927050  0.63778500  1
  O  O43  1  0.87073950  0.49927050  0.86221500  1
