# generated using pymatgen
data_LiMnPO4
_symmetry_space_group_name_H-M   'P 1'
_cell_length_a   5.27207485
_cell_length_b   6.18866976
_cell_length_c   10.57415114
_cell_angle_alpha   90.00000000
_cell_angle_beta   114.43191490
_cell_angle_gamma   90.00000000
_symmetry_Int_Tables_number   1
_chemical_formula_structural   LiMnPO4
_chemical_formula_sum   'Li4 Mn4 P4 O16'
_cell_volume   314.11025614
_cell_formula_units_Z   4
loop_
 _symmetry_equiv_pos_site_id
 _symmetry_equiv_pos_as_xyz
  1  'x, y, z'
loop_
 _atom_site_type_symbol
 _atom_site_label
 _atom_site_symmetry_multiplicity
 _atom_site_fract_x
 _atom_site_fract_y
 _atom_site_fract_z
 _atom_site_occupancy
  Li  Li0  1  0.41192623  0.63936845  0.07495951  1
  Li  Li1  1  0.58807377  0.13936845  0.42504049  1
  Li  Li2  1  0.41192623  0.86063155  0.57495951  1
  Li  Li3  1  0.58807377  0.36063155  0.92504049  1
  Mn  Mn4  1  0.95012576  0.61124928  0.66356881  1
  Mn  Mn5  1  0.04987424  0.11124928  0.83643119  1
  Mn  Mn6  1  0.95012576  0.88875072  0.16356881  1
  Mn  Mn7  1  0.04987424  0.38875072  0.33643119  1
  P  P8  1  0.39552364  0.34998035  0.63556261  1
  P  P9  1  0.60447636  0.84998035  0.86443739  1
  P  P10  1  0.39552364  0.15001965  0.13556261  1
  P  P11  1  0.60447636  0.65001965  0.36443739  1
  O  O12  1  0.71625519  0.14398465  0.22419111  1
  O  O13  1  0.28374481  0.85601535  0.77580889  1
  O  O14  1  0.28300710  0.56265779  0.55287804  1
  O  O15  1  0.31272212  0.16532942  0.52629393  1
  O  O16  1  0.74844993  0.66664677  0.26110572  1
  O  O17  1  0.25155007  0.33335323  0.73889428  1
  O  O18  1  0.71699290  0.43734221  0.44712196  1
  O  O19  1  0.68727788  0.83467058  0.47370607  1
  O  O20  1  0.31272212  0.33467058  0.02629393  1
  O  O21  1  0.28300710  0.93734221  0.05287804  1
  O  O22  1  0.68727788  0.66532942  0.97370607  1
  O  O23  1  0.71625519  0.35601535  0.72419111  1
  O  O24  1  0.28374481  0.64398465  0.27580889  1
  O  O25  1  0.25155007  0.16664677  0.23889428  1
  O  O26  1  0.71699290  0.06265779  0.94712196  1
  O  O27  1  0.74844993  0.83335323  0.76110572  1
