# generated using pymatgen
data_LiMn3O4
_symmetry_space_group_name_H-M   'P 1'
_cell_length_a   6.30430920
_cell_length_b   8.46927410
_cell_length_c   6.32666036
_cell_angle_alpha   90.00000000
_cell_angle_beta   93.07594582
_cell_angle_gamma   90.00000000
_symmetry_Int_Tables_number   1
_chemical_formula_structural   LiMn3O4
_chemical_formula_sum   'Li4 Mn12 O16'
_cell_volume   337.31221519
_cell_formula_units_Z   4
loop_
 _symmetry_equiv_pos_site_id
 _symmetry_equiv_pos_as_xyz
  1  'x, y, z'
loop_
 _atom_site_type_symbol
 _atom_site_label
 _atom_site_symmetry_multiplicity
 _atom_site_fract_x
 _atom_site_fract_y
 _atom_site_fract_z
 _atom_site_occupancy
  Li  Li0  1  0.00000000  0.00000000  0.50000000  1
  Li  Li1  1  0.00000000  0.00000000  0.00000000  1
  Li  Li2  1  0.50000000  0.50000000  0.50000000  1
  Li  Li3  1  0.50000000  0.50000000  0.00000000  1
  Mn  Mn4  1  0.50000000  0.00000000  0.00000000  1
  Mn  Mn5  1  0.50000000  0.00000000  0.50000000  1
  Mn  Mn6  1  0.75333500  0.24676600  0.24622400  1
  Mn  Mn7  1  0.74666500  0.25323400  0.75377600  1
  Mn  Mn8  1  0.24666500  0.24676600  0.75377600  1
  Mn  Mn9  1  0.25333500  0.25323400  0.24622400  1
  Mn  Mn10  1  0.00000000  0.50000000  0.00000000  1
  Mn  Mn11  1  0.00000000  0.50000000  0.50000000  1
  Mn  Mn12  1  0.25333500  0.74676600  0.24622400  1
  Mn  Mn13  1  0.24666500  0.75323400  0.75377600  1
  Mn  Mn14  1  0.74666500  0.74676600  0.75377600  1
  Mn  Mn15  1  0.75333500  0.75323400  0.24622400  1
  O  O16  1  0.27345750  0.00000000  0.27177500  1
  O  O17  1  0.24605600  0.00000000  0.74928900  1
  O  O18  1  0.22654250  0.50000000  0.72822500  1
  O  O19  1  0.25394400  0.50000000  0.25071100  1
  O  O20  1  0.50000000  0.23580350  0.50000000  1
  O  O21  1  0.50000000  0.25751750  0.00000000  1
  O  O22  1  0.00000000  0.26419650  0.50000000  1
  O  O23  1  0.00000000  0.24248250  0.00000000  1
  O  O24  1  0.77345750  0.50000000  0.27177500  1
  O  O25  1  0.74605600  0.50000000  0.74928900  1
  O  O26  1  0.72654250  0.00000000  0.72822500  1
  O  O27  1  0.75394400  0.00000000  0.25071100  1
  O  O28  1  0.00000000  0.73580350  0.50000000  1
  O  O29  1  0.00000000  0.75751750  0.00000000  1
  O  O30  1  0.50000000  0.76419650  0.50000000  1
  O  O31  1  0.50000000  0.74248250  0.00000000  1
