# generated using pymatgen
data_Er5BiPt2
_symmetry_space_group_name_H-M   'P 1'
_cell_length_a   7.78365400
_cell_length_b   7.78365400
_cell_length_c   13.60405000
_cell_angle_alpha   90.00000000
_cell_angle_beta   90.00000000
_cell_angle_gamma   90.00000000
_symmetry_Int_Tables_number   1
_chemical_formula_structural   Er5BiPt2
_chemical_formula_sum   'Er20 Bi4 Pt8'
_cell_volume   824.20503679
_cell_formula_units_Z   4
loop_
 _symmetry_equiv_pos_site_id
 _symmetry_equiv_pos_as_xyz
  1  'x, y, z'
loop_
 _atom_site_type_symbol
 _atom_site_label
 _atom_site_symmetry_multiplicity
 _atom_site_fract_x
 _atom_site_fract_y
 _atom_site_fract_z
 _atom_site_occupancy
  Er  Er0  1  0.00000000  0.00000000  0.00000000  1
  Er  Er1  1  0.50000000  0.50000000  0.00000000  1
  Er  Er2  1  0.15566150  0.65566150  0.13579150  1
  Er  Er3  1  0.34433850  0.15566150  0.13579150  1
  Er  Er4  1  0.65566150  0.84433850  0.13579150  1
  Er  Er5  1  0.15566150  0.34433850  0.36420850  1
  Er  Er6  1  0.84433850  0.65566150  0.36420850  1
  Er  Er7  1  0.65566150  0.15566150  0.36420850  1
  Er  Er8  1  0.34433850  0.84433850  0.36420850  1
  Er  Er9  1  0.84433850  0.34433850  0.13579150  1
  Er  Er10  1  0.50000000  0.50000000  0.50000000  1
  Er  Er11  1  0.00000000  0.00000000  0.50000000  1
  Er  Er12  1  0.65566150  0.15566150  0.63579150  1
  Er  Er13  1  0.84433850  0.65566150  0.63579150  1
  Er  Er14  1  0.15566150  0.34433850  0.63579150  1
  Er  Er15  1  0.65566150  0.84433850  0.86420850  1
  Er  Er16  1  0.34433850  0.15566150  0.86420850  1
  Er  Er17  1  0.15566150  0.65566150  0.86420850  1
  Er  Er18  1  0.84433850  0.34433850  0.86420850  1
  Er  Er19  1  0.34433850  0.84433850  0.63579150  1
  Bi  Bi20  1  0.00000000  0.00000000  0.25000000  1
  Bi  Bi21  1  0.50000000  0.50000000  0.25000000  1
  Bi  Bi22  1  0.50000000  0.50000000  0.75000000  1
  Bi  Bi23  1  0.00000000  0.00000000  0.75000000  1
  Pt  Pt24  1  0.36080300  0.86080300  0.00000000  1
  Pt  Pt25  1  0.13919700  0.36080300  0.00000000  1
  Pt  Pt26  1  0.86080300  0.63919700  0.00000000  1
  Pt  Pt27  1  0.63919700  0.13919700  0.00000000  1
  Pt  Pt28  1  0.86080300  0.36080300  0.50000000  1
  Pt  Pt29  1  0.63919700  0.86080300  0.50000000  1
  Pt  Pt30  1  0.36080300  0.13919700  0.50000000  1
  Pt  Pt31  1  0.13919700  0.63919700  0.50000000  1
