# generated using pymatgen
data_LiV2(PO4)3
_symmetry_space_group_name_H-M   'P 1'
_cell_length_a   8.58923826
_cell_length_b   8.58923826
_cell_length_c   20.80571829
_cell_angle_alpha   90.00000000
_cell_angle_beta   90.00000000
_cell_angle_gamma   120.00000000
_symmetry_Int_Tables_number   1
_chemical_formula_structural   LiV2(PO4)3
_chemical_formula_sum   'Li6 V12 P18 O72'
_cell_volume   1329.29890134
_cell_formula_units_Z   6
loop_
 _symmetry_equiv_pos_site_id
 _symmetry_equiv_pos_as_xyz
  1  'x, y, z'
loop_
 _atom_site_type_symbol
 _atom_site_label
 _atom_site_symmetry_multiplicity
 _atom_site_fract_x
 _atom_site_fract_y
 _atom_site_fract_z
 _atom_site_occupancy
  Li  Li0  1  0.33333333  0.66666667  0.16666667  1
  Li  Li1  1  0.00000000  0.00000000  0.00000000  1
  Li  Li2  1  1.00000000  0.00000000  0.50000000  1
  Li  Li3  1  0.66666667  0.33333333  0.33333333  1
  Li  Li4  1  0.66666667  0.33333333  0.83333333  1
  Li  Li5  1  0.33333333  0.66666667  0.66666667  1
  V  V6  1  0.33333333  0.66666667  0.52586067  1
  V  V7  1  0.33333333  0.66666667  0.30747267  1
  V  V8  1  0.33333333  0.66666667  0.02586067  1
  V  V9  1  0.33333333  0.66666667  0.80747267  1
  V  V10  1  0.00000000  0.00000000  0.85919400  1
  V  V11  1  1.00000000  0.00000000  0.64080600  1
  V  V12  1  0.00000000  0.00000000  0.35919400  1
  V  V13  1  0.00000000  0.00000000  0.14080600  1
  V  V14  1  0.66666667  0.33333333  0.19252733  1
  V  V15  1  0.66666667  0.33333333  0.97413933  1
  V  V16  1  0.66666667  0.33333333  0.69252733  1
  V  V17  1  0.66666667  0.33333333  0.47413933  1
  P  P18  1  0.71007400  0.71007400  0.25000000  1
  P  P19  1  0.28992600  0.00000000  0.25000000  1
  P  P20  1  0.00000000  0.28992600  0.25000000  1
  P  P21  1  0.66666667  0.04340733  0.08333333  1
  P  P22  1  0.37674067  0.33333333  0.08333333  1
  P  P23  1  0.95659267  0.62325933  0.08333333  1
  P  P24  1  0.37674067  0.04340733  0.58333333  1
  P  P25  1  0.95659267  0.33333333  0.58333333  1
  P  P26  1  0.66666667  0.62325933  0.58333333  1
  P  P27  1  0.33333333  0.37674067  0.41666667  1
  P  P28  1  0.04340733  0.66666667  0.41666667  1
  P  P29  1  0.62325933  0.95659267  0.41666667  1
  P  P30  1  0.04340733  0.37674067  0.91666667  1
  P  P31  1  0.62325933  0.66666667  0.91666667  1
  P  P32  1  0.33333333  0.95659267  0.91666667  1
  P  P33  1  0.00000000  0.71007400  0.75000000  1
  P  P34  1  0.71007400  0.00000000  0.75000000  1
  P  P35  1  0.28992600  0.28992600  0.75000000  1
  O  O36  1  0.97641700  0.81177800  0.07969600  1
  O  O37  1  0.51948700  0.85465800  0.35646200  1
  O  O38  1  0.14534200  0.66482900  0.35646200  1
  O  O39  1  0.52155533  0.69024967  0.24636267  1
  O  O40  1  0.47844467  0.16869433  0.25363733  1
  O  O41  1  0.83130567  0.30975033  0.25363733  1
  O  O42  1  0.16869433  0.47844467  0.24636267  1
  O  O43  1  0.51948700  0.66482900  0.85646200  1
  O  O44  1  0.35691633  0.50202767  0.08697067  1
  O  O45  1  0.33149567  0.47867533  0.47687133  1
  O  O46  1  0.52132467  0.85282033  0.47687133  1
  O  O47  1  0.33517100  0.48051300  0.35646200  1
  O  O48  1  0.33149567  0.85282033  0.97687133  1
  O  O49  1  0.69024967  0.52155533  0.25363733  1
  O  O50  1  0.33517100  0.85465800  0.85646200  1
  O  O51  1  0.30975033  0.83130567  0.24636267  1
  O  O52  1  0.14534200  0.48051300  0.85646200  1
  O  O53  1  0.49797233  0.85488867  0.08697067  1
  O  O54  1  0.83536100  0.02358300  0.07969600  1
  O  O55  1  0.18822200  0.16463900  0.07969600  1
  O  O56  1  0.14511133  0.64308367  0.08697067  1
  O  O57  1  0.52132467  0.66850433  0.97687133  1
  O  O58  1  0.14717967  0.47867533  0.97687133  1
  O  O59  1  0.14717967  0.66850433  0.47687133  1
  O  O60  1  0.64308367  0.14511133  0.41302933  1
  O  O61  1  0.18615367  0.18799133  0.68979533  1
  O  O62  1  0.81200867  0.99816233  0.68979533  1
  O  O63  1  0.18822200  0.02358300  0.57969600  1
  O  O64  1  0.14511133  0.50202767  0.58697067  1
  O  O65  1  0.49797233  0.64308367  0.58697067  1
  O  O66  1  0.83536100  0.81177800  0.57969600  1
  O  O67  1  0.18615367  0.99816233  0.18979533  1
  O  O68  1  0.02358300  0.83536100  0.42030400  1
  O  O69  1  0.99816233  0.81200867  0.81020467  1
  O  O70  1  0.18799133  0.18615367  0.81020467  1
  O  O71  1  0.00183767  0.81384633  0.68979533  1
  O  O72  1  0.99816233  0.18615367  0.31020467  1
  O  O73  1  0.35691633  0.85488867  0.58697067  1
  O  O74  1  0.00183767  0.18799133  0.18979533  1
  O  O75  1  0.97641700  0.16463900  0.57969600  1
  O  O76  1  0.81200867  0.81384633  0.18979533  1
  O  O77  1  0.16463900  0.18822200  0.42030400  1
  O  O78  1  0.50202767  0.35691633  0.41302933  1
  O  O79  1  0.85488867  0.49797233  0.41302933  1
  O  O80  1  0.81177800  0.97641700  0.42030400  1
  O  O81  1  0.18799133  0.00183767  0.31020467  1
  O  O82  1  0.81384633  0.81200867  0.31020467  1
  O  O83  1  0.81384633  0.00183767  0.81020467  1
  O  O84  1  0.30975033  0.47844467  0.74636267  1
  O  O85  1  0.85282033  0.52132467  0.02312867  1
  O  O86  1  0.47867533  0.33149567  0.02312867  1
  O  O87  1  0.85488867  0.35691633  0.91302933  1
  O  O88  1  0.81177800  0.83536100  0.92030400  1
  O  O89  1  0.16463900  0.97641700  0.92030400  1
  O  O90  1  0.50202767  0.14511133  0.91302933  1
  O  O91  1  0.85282033  0.33149567  0.52312867  1
  O  O92  1  0.69024967  0.16869433  0.75363733  1
  O  O93  1  0.66482900  0.14534200  0.14353800  1
  O  O94  1  0.85465800  0.51948700  0.14353800  1
  O  O95  1  0.66850433  0.14717967  0.02312867  1
  O  O96  1  0.66482900  0.51948700  0.64353800  1
  O  O97  1  0.02358300  0.18822200  0.92030400  1
  O  O98  1  0.66850433  0.52132467  0.52312867  1
  O  O99  1  0.64308367  0.49797233  0.91302933  1
  O  O100  1  0.47867533  0.14717967  0.52312867  1
  O  O101  1  0.83130567  0.52155533  0.75363733  1
  O  O102  1  0.16869433  0.69024967  0.74636267  1
  O  O103  1  0.52155533  0.83130567  0.74636267  1
  O  O104  1  0.47844467  0.30975033  0.75363733  1
  O  O105  1  0.85465800  0.33517100  0.64353800  1
  O  O106  1  0.48051300  0.14534200  0.64353800  1
  O  O107  1  0.48051300  0.33517100  0.14353800  1
