# generated using pymatgen
data_Mn2P3O11
_symmetry_space_group_name_H-M   'P 1'
_cell_length_a   11.82736200
_cell_length_b   8.47445400
_cell_length_c   8.90883569
_cell_angle_alpha   90.00000000
_cell_angle_beta   114.63953793
_cell_angle_gamma   90.00000000
_symmetry_Int_Tables_number   1
_chemical_formula_structural   Mn2P3O11
_chemical_formula_sum   'Mn8 P12 O44'
_cell_volume   811.63338921
_cell_formula_units_Z   4
loop_
 _symmetry_equiv_pos_site_id
 _symmetry_equiv_pos_as_xyz
  1  'x, y, z'
loop_
 _atom_site_type_symbol
 _atom_site_label
 _atom_site_symmetry_multiplicity
 _atom_site_fract_x
 _atom_site_fract_y
 _atom_site_fract_z
 _atom_site_occupancy
  Mn  Mn0  1  0.12259450  0.24018250  0.54309800  1
  Mn  Mn1  1  0.12259450  0.75981750  0.04309800  1
  Mn  Mn2  1  0.87740550  0.24018250  0.95690200  1
  Mn  Mn3  1  0.87740550  0.75981750  0.45690200  1
  Mn  Mn4  1  0.62259450  0.74018250  0.54309800  1
  Mn  Mn5  1  0.62259450  0.25981750  0.04309800  1
  Mn  Mn6  1  0.37740550  0.74018250  0.95690200  1
  Mn  Mn7  1  0.37740550  0.25981750  0.45690200  1
  P  P8  1  0.10921650  0.43945250  0.21365800  1
  P  P9  1  0.00000000  0.96392700  0.25000000  1
  P  P10  1  0.10921650  0.56054750  0.71365800  1
  P  P11  1  0.89078350  0.43945250  0.28634200  1
  P  P12  1  0.89078350  0.56054750  0.78634200  1
  P  P13  1  0.00000000  0.03607300  0.75000000  1
  P  P14  1  0.60921650  0.93945250  0.21365800  1
  P  P15  1  0.50000000  0.46392700  0.25000000  1
  P  P16  1  0.60921650  0.06054750  0.71365800  1
  P  P17  1  0.39078350  0.93945250  0.28634200  1
  P  P18  1  0.39078350  0.06054750  0.78634200  1
  P  P19  1  0.50000000  0.53607300  0.75000000  1
  O  O20  1  0.18726450  0.65572350  0.87061300  1
  O  O21  1  0.04284950  0.66844050  0.56305800  1
  O  O22  1  0.42498150  0.55936150  0.09285600  1
  O  O23  1  0.18202200  0.42816400  0.68044000  1
  O  O24  1  0.95715050  0.66844050  0.93694200  1
  O  O25  1  0.57501850  0.55936150  0.40714400  1
  O  O26  1  0.18202200  0.57183600  0.18044000  1
  O  O27  1  0.90064950  0.86134750  0.27475600  1
  O  O28  1  0.81273550  0.65572350  0.62938700  1
  O  O29  1  0.04284950  0.33155950  0.06305800  1
  O  O30  1  0.90064950  0.13865250  0.77475600  1
  O  O31  1  0.81797800  0.57183600  0.31956000  1
  O  O32  1  0.09935050  0.86134750  0.22524400  1
  O  O33  1  0.00000000  0.47557700  0.75000000  1
  O  O34  1  0.57501850  0.44063850  0.90714400  1
  O  O35  1  0.81273550  0.34427650  0.12938700  1
  O  O36  1  0.95715050  0.33155950  0.43694200  1
  O  O37  1  0.09935050  0.13865250  0.72524400  1
  O  O38  1  0.18726450  0.34427650  0.37061300  1
  O  O39  1  0.81797800  0.42816400  0.81956000  1
  O  O40  1  0.42498150  0.44063850  0.59285600  1
  O  O41  1  0.00000000  0.52442300  0.25000000  1
  O  O42  1  0.68726450  0.15572350  0.87061300  1
  O  O43  1  0.54284950  0.16844050  0.56305800  1
  O  O44  1  0.92498150  0.05936150  0.09285600  1
  O  O45  1  0.68202200  0.92816400  0.68044000  1
  O  O46  1  0.45715050  0.16844050  0.93694200  1
  O  O47  1  0.07501850  0.05936150  0.40714400  1
  O  O48  1  0.68202200  0.07183600  0.18044000  1
  O  O49  1  0.40064950  0.36134750  0.27475600  1
  O  O50  1  0.31273550  0.15572350  0.62938700  1
  O  O51  1  0.54284950  0.83155950  0.06305800  1
  O  O52  1  0.40064950  0.63865250  0.77475600  1
  O  O53  1  0.31797800  0.07183600  0.31956000  1
  O  O54  1  0.59935050  0.36134750  0.22524400  1
  O  O55  1  0.50000000  0.97557700  0.75000000  1
  O  O56  1  0.07501850  0.94063850  0.90714400  1
  O  O57  1  0.31273550  0.84427650  0.12938700  1
  O  O58  1  0.45715050  0.83155950  0.43694200  1
  O  O59  1  0.59935050  0.63865250  0.72524400  1
  O  O60  1  0.68726450  0.84427650  0.37061300  1
  O  O61  1  0.31797800  0.92816400  0.81956000  1
  O  O62  1  0.92498150  0.94063850  0.59285600  1
  O  O63  1  0.50000000  0.02442300  0.25000000  1
