# generated using pymatgen
data_Li3Mo3(PO4)4
_symmetry_space_group_name_H-M   'P 1'
_cell_length_a   7.74527800
_cell_length_b   8.36939000
_cell_length_c   10.26701743
_cell_angle_alpha   90.00000000
_cell_angle_beta   91.98765534
_cell_angle_gamma   90.00000000
_symmetry_Int_Tables_number   1
_chemical_formula_structural   Li3Mo3(PO4)4
_chemical_formula_sum   'Li6 Mo6 P8 O32'
_cell_volume   665.14101952
_cell_formula_units_Z   2
loop_
 _symmetry_equiv_pos_site_id
 _symmetry_equiv_pos_as_xyz
  1  'x, y, z'
loop_
 _atom_site_type_symbol
 _atom_site_label
 _atom_site_symmetry_multiplicity
 _atom_site_fract_x
 _atom_site_fract_y
 _atom_site_fract_z
 _atom_site_occupancy
  Li  Li0  1  0.66391700  0.63143300  0.83150800  1
  Li  Li1  1  0.33608300  0.13143300  0.16849200  1
  Li  Li2  1  0.14100000  0.85891200  0.57578200  1
  Li  Li3  1  0.14433200  0.87011800  0.07862800  1
  Li  Li4  1  0.85900000  0.35891200  0.42421800  1
  Li  Li5  1  0.85566800  0.37011800  0.92137200  1
  Mo  Mo6  1  0.64066500  0.63393500  0.31736200  1
  Mo  Mo7  1  0.35933500  0.13393500  0.68263800  1
  Mo  Mo8  1  0.24538400  0.50942400  0.62535100  1
  Mo  Mo9  1  0.23543900  0.49800000  0.12319800  1
  Mo  Mo10  1  0.75461600  0.00942400  0.37464900  1
  Mo  Mo11  1  0.76456100  0.99800000  0.87680200  1
  P  P12  1  0.95302000  0.19967400  0.63945400  1
  P  P13  1  0.94889900  0.19335000  0.14107500  1
  P  P14  1  0.05110100  0.69335000  0.85892500  1
  P  P15  1  0.04698000  0.69967400  0.36054600  1
  P  P16  1  0.45887900  0.31444200  0.90073200  1
  P  P17  1  0.44483900  0.29668400  0.38903500  1
  P  P18  1  0.55516100  0.79668400  0.61096500  1
  P  P19  1  0.54112100  0.81444200  0.09926800  1
  O  O20  1  0.80512000  0.14604200  0.03742500  1
  O  O21  1  0.80788300  0.15108000  0.53921500  1
  O  O22  1  0.88492200  0.19235400  0.77900100  1
  O  O23  1  0.90278100  0.57654300  0.85362900  1
  O  O24  1  0.86161900  0.20306700  0.27694800  1
  O  O25  1  0.89250400  0.58077500  0.37439200  1
  O  O26  1  0.68249100  0.84949500  0.21363900  1
  O  O27  1  0.69301800  0.85166100  0.71161400  1
  O  O28  1  0.64190100  0.79688100  0.47257500  1
  O  O29  1  0.59988000  0.41331800  0.40034900  1
  O  O30  1  0.63434600  0.80166400  0.97070900  1
  O  O31  1  0.60705300  0.42819000  0.90137700  1
  O  O32  1  0.50717200  0.12746300  0.35536900  1
  O  O33  1  0.48233900  0.63785700  0.14894600  1
  O  O34  1  0.51766100  0.13785700  0.85105400  1
  O  O35  1  0.49282800  0.62746300  0.64463100  1
  O  O36  1  0.40012000  0.91331800  0.59965100  1
  O  O37  1  0.35809900  0.29688100  0.52742500  1
  O  O38  1  0.39294700  0.92819000  0.09862300  1
  O  O39  1  0.36565400  0.30166400  0.02929100  1
  O  O40  1  0.30698200  0.35166100  0.28838600  1
  O  O41  1  0.31750900  0.34949500  0.78636100  1
  O  O42  1  0.19211700  0.65108000  0.46078500  1
  O  O43  1  0.19488000  0.64604200  0.96257500  1
  O  O44  1  0.11507800  0.69235400  0.22099900  1
  O  O45  1  0.09721900  0.07654300  0.14637100  1
  O  O46  1  0.13838100  0.70306700  0.72305200  1
  O  O47  1  0.10749600  0.08077500  0.62560800  1
  O  O48  1  0.01167700  0.37056100  0.60286700  1
  O  O49  1  0.98832300  0.87056100  0.39713300  1
  O  O50  1  0.99583100  0.86707900  0.89822800  1
  O  O51  1  0.00416900  0.36707900  0.10177200  1
