# generated using pymatgen
data_Y2U3O11
_symmetry_space_group_name_H-M   'P 1'
_cell_length_a   3.78342600
_cell_length_b   5.44445200
_cell_length_c   18.79084200
_cell_angle_alpha   90.00000000
_cell_angle_beta   90.00000000
_cell_angle_gamma   90.00000000
_symmetry_Int_Tables_number   1
_chemical_formula_structural   Y2U3O11
_chemical_formula_sum   'Y4 U6 O22'
_cell_volume   387.06656483
_cell_formula_units_Z   2
loop_
 _symmetry_equiv_pos_site_id
 _symmetry_equiv_pos_as_xyz
  1  'x, y, z'
loop_
 _atom_site_type_symbol
 _atom_site_label
 _atom_site_symmetry_multiplicity
 _atom_site_fract_x
 _atom_site_fract_y
 _atom_site_fract_z
 _atom_site_occupancy
  Y  Y0  1  0.00000000  0.00000000  0.79709500  1
  Y  Y1  1  0.50000000  0.50000000  0.70290500  1
  Y  Y2  1  0.50000000  0.50000000  0.29709500  1
  Y  Y3  1  0.00000000  0.00000000  0.20290500  1
  U  U4  1  0.00000000  0.00000000  0.59817300  1
  U  U5  1  0.00000000  0.00000000  0.00000000  1
  U  U6  1  0.50000000  0.50000000  0.90182700  1
  U  U7  1  0.50000000  0.50000000  0.09817300  1
  U  U8  1  0.50000000  0.50000000  0.50000000  1
  U  U9  1  0.00000000  0.00000000  0.40182700  1
  O  O10  1  0.50000000  0.26322400  0.80750800  1
  O  O11  1  0.00000000  0.76322400  0.69249200  1
  O  O12  1  0.50000000  0.73677600  0.80750800  1
  O  O13  1  0.50000000  0.26170050  0.60064550  1
  O  O14  1  0.00000000  0.23677600  0.69249200  1
  O  O15  1  0.50000000  0.21933300  0.00000000  1
  O  O16  1  0.50000000  0.73829950  0.60064550  1
  O  O17  1  0.00000000  0.50000000  0.00000000  1
  O  O18  1  0.00000000  0.76170050  0.89935450  1
  O  O19  1  0.50000000  0.78066700  0.00000000  1
  O  O20  1  0.00000000  0.23829950  0.89935450  1
  O  O21  1  0.00000000  0.76322400  0.30750800  1
  O  O22  1  0.50000000  0.26322400  0.19249200  1
  O  O23  1  0.00000000  0.23677600  0.30750800  1
  O  O24  1  0.00000000  0.76170050  0.10064550  1
  O  O25  1  0.50000000  0.73677600  0.19249200  1
  O  O26  1  0.00000000  0.71933300  0.50000000  1
  O  O27  1  0.00000000  0.23829950  0.10064550  1
  O  O28  1  0.50000000  0.00000000  0.50000000  1
  O  O29  1  0.50000000  0.26170050  0.39935450  1
  O  O30  1  0.00000000  0.28066700  0.50000000  1
  O  O31  1  0.50000000  0.73829950  0.39935450  1
