# generated using pymatgen
data_La2Mo2O7
_symmetry_space_group_name_H-M   'P 1'
_cell_length_a   4.00693507
_cell_length_b   6.10335472
_cell_length_c   12.39231975
_cell_angle_alpha   90.00000000
_cell_angle_beta   90.00000000
_cell_angle_gamma   90.00000000
_symmetry_Int_Tables_number   1
_chemical_formula_structural   La2Mo2O7
_chemical_formula_sum   'La4 Mo4 O14'
_cell_volume   303.06342505
_cell_formula_units_Z   2
loop_
 _symmetry_equiv_pos_site_id
 _symmetry_equiv_pos_as_xyz
  1  'x, y, z'
loop_
 _atom_site_type_symbol
 _atom_site_label
 _atom_site_symmetry_multiplicity
 _atom_site_fract_x
 _atom_site_fract_y
 _atom_site_fract_z
 _atom_site_occupancy
  La  La0  1  0.00000000  0.09504862  0.34359371  1
  La  La1  1  0.00000000  0.90495138  0.65640629  1
  La  La2  1  0.50000000  0.59504862  0.15640629  1
  La  La3  1  0.50000000  0.40495138  0.84359371  1
  Mo  Mo4  1  0.00000000  0.18597688  0.05169719  1
  Mo  Mo5  1  0.00000000  0.81402312  0.94830281  1
  Mo  Mo6  1  0.50000000  0.68597688  0.44830281  1
  Mo  Mo7  1  0.50000000  0.31402312  0.55169719  1
  O  O8  1  0.00000000  0.26794456  0.54302578  1
  O  O9  1  0.00000000  0.73205544  0.45697422  1
  O  O10  1  0.50000000  0.76794456  0.95697422  1
  O  O11  1  0.50000000  0.23205544  0.04302578  1
  O  O12  1  0.00000000  0.11545446  0.88257588  1
  O  O13  1  0.00000000  0.88454554  0.11742412  1
  O  O14  1  0.50000000  0.61545446  0.61742412  1
  O  O15  1  0.50000000  0.38454554  0.38257588  1
  O  O16  1  0.50000000  0.00000000  0.50000000  1
  O  O17  1  0.00000000  0.50000000  0.00000000  1
  O  O18  1  0.50000000  0.14967693  0.70219529  1
  O  O19  1  0.00000000  0.35032307  0.20219529  1
  O  O20  1  0.00000000  0.64967693  0.79780471  1
  O  O21  1  0.50000000  0.85032307  0.29780471  1
