# generated using pymatgen
data_K(SnAu2)2
_symmetry_space_group_name_H-M   'P 1'
_cell_length_a   9.05437400
_cell_length_b   9.05437400
_cell_length_c   8.43359800
_cell_angle_alpha   90.00000000
_cell_angle_beta   90.00000000
_cell_angle_gamma   90.00000000
_symmetry_Int_Tables_number   1
_chemical_formula_structural   K(SnAu2)2
_chemical_formula_sum   'K4 Sn8 Au16'
_cell_volume   691.40060444
_cell_formula_units_Z   4
loop_
 _symmetry_equiv_pos_site_id
 _symmetry_equiv_pos_as_xyz
  1  'x, y, z'
loop_
 _atom_site_type_symbol
 _atom_site_label
 _atom_site_symmetry_multiplicity
 _atom_site_fract_x
 _atom_site_fract_y
 _atom_site_fract_z
 _atom_site_occupancy
  K  K0  1  0.00000000  0.50000000  0.00000000  1
  K  K1  1  0.50000000  0.00000000  0.00000000  1
  K  K2  1  0.50000000  0.00000000  0.50000000  1
  K  K3  1  0.00000000  0.50000000  0.50000000  1
  Sn  Sn4  1  0.35759700  0.35759700  0.25000000  1
  Sn  Sn5  1  0.85759700  0.14240300  0.25000000  1
  Sn  Sn6  1  0.14240300  0.14240300  0.75000000  1
  Sn  Sn7  1  0.14240300  0.85759700  0.25000000  1
  Sn  Sn8  1  0.85759700  0.85759700  0.75000000  1
  Sn  Sn9  1  0.35759700  0.64240300  0.75000000  1
  Sn  Sn10  1  0.64240300  0.64240300  0.25000000  1
  Sn  Sn11  1  0.64240300  0.35759700  0.75000000  1
  Au  Au12  1  0.14618200  0.15573900  0.41558700  1
  Au  Au13  1  0.35381800  0.34426100  0.91558700  1
  Au  Au14  1  0.15573900  0.85381800  0.58441300  1
  Au  Au15  1  0.34426100  0.64618200  0.08441300  1
  Au  Au16  1  0.35381800  0.65573900  0.41558700  1
  Au  Au17  1  0.34426100  0.35381800  0.58441300  1
  Au  Au18  1  0.15573900  0.14618200  0.08441300  1
  Au  Au19  1  0.14618200  0.84426100  0.91558700  1
  Au  Au20  1  0.64618200  0.65573900  0.91558700  1
  Au  Au21  1  0.85381800  0.84426100  0.41558700  1
  Au  Au22  1  0.65573900  0.35381800  0.08441300  1
  Au  Au23  1  0.84426100  0.14618200  0.58441300  1
  Au  Au24  1  0.85381800  0.15573900  0.91558700  1
  Au  Au25  1  0.84426100  0.85381800  0.08441300  1
  Au  Au26  1  0.65573900  0.64618200  0.58441300  1
  Au  Au27  1  0.64618200  0.34426100  0.41558700  1
