# generated using pymatgen
data_Ho2Al3Si2
_symmetry_space_group_name_H-M   'P 1'
_cell_length_a   10.16787400
_cell_length_b   4.02202200
_cell_length_c   6.61284408
_cell_angle_alpha   90.00000000
_cell_angle_beta   100.91697972
_cell_angle_gamma   90.00000000
_symmetry_Int_Tables_number   1
_chemical_formula_structural   Ho2Al3Si2
_chemical_formula_sum   'Ho4 Al6 Si4'
_cell_volume   265.54082742
_cell_formula_units_Z   2
loop_
 _symmetry_equiv_pos_site_id
 _symmetry_equiv_pos_as_xyz
  1  'x, y, z'
loop_
 _atom_site_type_symbol
 _atom_site_label
 _atom_site_symmetry_multiplicity
 _atom_site_fract_x
 _atom_site_fract_y
 _atom_site_fract_z
 _atom_site_occupancy
  Ho  Ho0  1  0.61992200  0.00000000  0.32305100  1
  Ho  Ho1  1  0.88007800  0.50000000  0.67694900  1
  Ho  Ho2  1  0.11992200  0.50000000  0.32305100  1
  Ho  Ho3  1  0.38007800  0.00000000  0.67694900  1
  Al  Al4  1  0.80531500  0.50000000  0.13352600  1
  Al  Al5  1  0.00000000  0.00000000  0.00000000  1
  Al  Al6  1  0.69468500  0.00000000  0.86647400  1
  Al  Al7  1  0.30531500  0.00000000  0.13352600  1
  Al  Al8  1  0.50000000  0.50000000  0.00000000  1
  Al  Al9  1  0.19468500  0.50000000  0.86647400  1
  Si  Si10  1  0.59323000  0.50000000  0.63998700  1
  Si  Si11  1  0.90677000  0.00000000  0.36001300  1
  Si  Si12  1  0.09323000  0.00000000  0.63998700  1
  Si  Si13  1  0.40677000  0.50000000  0.36001300  1
