# generated using pymatgen
data_Li2Mn15O32
_symmetry_space_group_name_H-M   'P 1'
_cell_length_a   5.83149249
_cell_length_b   5.83149249
_cell_length_c   57.27953644
_cell_angle_alpha   90.00000000
_cell_angle_beta   90.00000000
_cell_angle_gamma   120.00000000
_symmetry_Int_Tables_number   1
_chemical_formula_structural   Li2Mn15O32
_chemical_formula_sum   'Li6 Mn45 O96'
_cell_volume   1686.90089015
_cell_formula_units_Z   3
loop_
 _symmetry_equiv_pos_site_id
 _symmetry_equiv_pos_as_xyz
  1  'x, y, z'
loop_
 _atom_site_type_symbol
 _atom_site_label
 _atom_site_symmetry_multiplicity
 _atom_site_fract_x
 _atom_site_fract_y
 _atom_site_fract_z
 _atom_site_occupancy
  Li  Li0  1  0.66666667  0.33333333  0.48939333  1
  Li  Li1  1  0.66666667  0.33333333  0.17783500  1
  Li  Li2  1  0.33333333  0.66666667  0.82272667  1
  Li  Li3  1  0.33333333  0.66666667  0.51116833  1
  Li  Li4  1  0.00000000  0.00000000  0.15606000  1
  Li  Li5  1  0.00000000  0.00000000  0.84450167  1
  Mn  Mn6  1  0.16377267  0.32754533  0.45896733  1
  Mn  Mn7  1  0.67245467  0.83622733  0.45896733  1
  Mn  Mn8  1  0.49654833  0.99309667  0.37508467  1
  Mn  Mn9  1  0.16377267  0.83622733  0.45896733  1
  Mn  Mn10  1  0.00690333  0.50345167  0.37508467  1
  Mn  Mn11  1  0.83345500  0.66691000  0.29168300  1
  Mn  Mn12  1  0.66666667  0.33333333  0.33364967  1
  Mn  Mn13  1  0.66666667  0.33333333  0.42854900  1
  Mn  Mn14  1  0.49654833  0.50345167  0.37508467  1
  Mn  Mn15  1  0.33309000  0.16654500  0.29168300  1
  Mn  Mn16  1  0.16895900  0.33791800  0.20793000  1
  Mn  Mn17  1  0.83345500  0.16654500  0.29168300  1
  Mn  Mn18  1  0.00000000  0.00000000  0.24958233  1
  Mn  Mn19  1  0.66208200  0.83104100  0.20793000  1
  Mn  Mn20  1  0.16895900  0.83104100  0.20793000  1
  Mn  Mn21  1  0.83043933  0.66087867  0.79230067  1
  Mn  Mn22  1  0.33912133  0.16956067  0.79230067  1
  Mn  Mn23  1  0.16321500  0.32643000  0.70841800  1
  Mn  Mn24  1  0.83043933  0.16956067  0.79230067  1
  Mn  Mn25  1  0.67357000  0.83678500  0.70841800  1
  Mn  Mn26  1  0.50012167  0.00024333  0.62501633  1
  Mn  Mn27  1  0.33333333  0.66666667  0.66698300  1
  Mn  Mn28  1  0.33333333  0.66666667  0.76188233  1
  Mn  Mn29  1  0.16321500  0.83678500  0.70841800  1
  Mn  Mn30  1  0.99975667  0.49987833  0.62501633  1
  Mn  Mn31  1  0.83562567  0.67125133  0.54126333  1
  Mn  Mn32  1  0.50012167  0.49987833  0.62501633  1
  Mn  Mn33  1  0.66666667  0.33333333  0.58291567  1
  Mn  Mn34  1  0.32874867  0.16437433  0.54126333  1
  Mn  Mn35  1  0.83562567  0.16437433  0.54126333  1
  Mn  Mn36  1  0.49710600  0.99421200  0.12563400  1
  Mn  Mn37  1  0.00578800  0.50289400  0.12563400  1
  Mn  Mn38  1  0.82988167  0.65976333  0.04175133  1
  Mn  Mn39  1  0.49710600  0.50289400  0.12563400  1
  Mn  Mn40  1  0.34023667  0.17011833  0.04175133  1
  Mn  Mn41  1  0.16678833  0.33357667  0.95834967  1
  Mn  Mn42  1  0.00000000  0.00000000  0.00031633  1
  Mn  Mn43  1  0.00000000  0.00000000  0.09521567  1
  Mn  Mn44  1  0.82988167  0.17011833  0.04175133  1
  Mn  Mn45  1  0.66642333  0.83321167  0.95834967  1
  Mn  Mn46  1  0.50229233  0.00458467  0.87459667  1
  Mn  Mn47  1  0.16678833  0.83321167  0.95834967  1
  Mn  Mn48  1  0.33333333  0.66666667  0.91624900  1
  Mn  Mn49  1  0.99541533  0.49770767  0.87459667  1
  Mn  Mn50  1  0.50229233  0.49770767  0.87459667  1
  O  O51  1  0.31312200  0.15656100  0.47560300  1
  O  O52  1  0.00000000  0.00000000  0.44113533  1
  O  O53  1  0.84343900  0.15656100  0.47560300  1
  O  O54  1  0.84343900  0.68687800  0.47560300  1
  O  O55  1  0.64583267  0.82291633  0.39170533  1
  O  O56  1  0.48761683  0.97523367  0.43996667  1
  O  O57  1  0.33333333  0.66666667  0.35741833  1
  O  O58  1  0.17708367  0.82291633  0.39170533  1
  O  O59  1  0.33333333  0.66666667  0.47595767  1
  O  O60  1  0.48761683  0.51238317  0.43996667  1
  O  O61  1  0.17708367  0.35416733  0.39170533  1
  O  O62  1  0.02476633  0.51238317  0.43996667  1
  O  O63  1  0.95989800  0.47994900  0.31132200  1
  O  O64  1  0.81234200  0.62468400  0.35558900  1
  O  O65  1  0.66666667  0.33333333  0.27464967  1
  O  O66  1  0.52005100  0.47994900  0.31132200  1
  O  O67  1  0.66666667  0.33333333  0.39333400  1
  O  O68  1  0.81234200  0.18765800  0.35558900  1
  O  O69  1  0.52005100  0.04010200  0.31132200  1
  O  O70  1  0.37531600  0.18765800  0.35558900  1
  O  O71  1  0.29103133  0.14551567  0.22776567  1
  O  O72  1  0.14666733  0.29333467  0.27214167  1
  O  O73  1  0.00000000  0.00000000  0.19041967  1
  O  O74  1  0.00000000  0.00000000  0.30876400  1
  O  O75  1  0.85448433  0.14551567  0.22776567  1
  O  O76  1  0.14666733  0.85333267  0.27214167  1
  O  O77  1  0.85448433  0.70896867  0.22776567  1
  O  O78  1  0.70666533  0.85333267  0.27214167  1
  O  O79  1  0.49164450  0.98328900  0.19143300  1
  O  O80  1  0.33333333  0.66666667  0.22545567  1
  O  O81  1  0.49164450  0.50835550  0.19143300  1
  O  O82  1  0.01671100  0.50835550  0.19143300  1
  O  O83  1  0.97978867  0.48989433  0.80893633  1
  O  O84  1  0.66666667  0.33333333  0.77446867  1
  O  O85  1  0.51010567  0.48989433  0.80893633  1
  O  O86  1  0.51010567  0.02021133  0.80893633  1
  O  O87  1  0.31249933  0.15624967  0.72503867  1
  O  O88  1  0.15428350  0.30856700  0.77330000  1
  O  O89  1  0.00000000  0.00000000  0.69075167  1
  O  O90  1  0.84375033  0.15624967  0.72503867  1
  O  O91  1  0.00000000  0.00000000  0.80929100  1
  O  O92  1  0.15428350  0.84571650  0.77330000  1
  O  O93  1  0.84375033  0.68750067  0.72503867  1
  O  O94  1  0.69143300  0.84571650  0.77330000  1
  O  O95  1  0.62656467  0.81328233  0.64465533  1
  O  O96  1  0.47900867  0.95801733  0.68892233  1
  O  O97  1  0.33333333  0.66666667  0.60798300  1
  O  O98  1  0.18671767  0.81328233  0.64465533  1
  O  O99  1  0.33333333  0.66666667  0.72666733  1
  O  O100  1  0.47900867  0.52099133  0.68892233  1
  O  O101  1  0.18671767  0.37343533  0.64465533  1
  O  O102  1  0.04198267  0.52099133  0.68892233  1
  O  O103  1  0.95769800  0.47884900  0.56109900  1
  O  O104  1  0.81333400  0.62666800  0.60547500  1
  O  O105  1  0.66666667  0.33333333  0.52375300  1
  O  O106  1  0.66666667  0.33333333  0.64209733  1
  O  O107  1  0.52115100  0.47884900  0.56109900  1
  O  O108  1  0.81333400  0.18666600  0.60547500  1
  O  O109  1  0.52115100  0.04230200  0.56109900  1
  O  O110  1  0.37333200  0.18666600  0.60547500  1
  O  O111  1  0.15831117  0.31662233  0.52476633  1
  O  O112  1  0.00000000  0.00000000  0.55878900  1
  O  O113  1  0.15831117  0.84168883  0.52476633  1
  O  O114  1  0.68337767  0.84168883  0.52476633  1
  O  O115  1  0.64645533  0.82322767  0.14226967  1
  O  O116  1  0.33333333  0.66666667  0.10780200  1
  O  O117  1  0.17677233  0.82322767  0.14226967  1
  O  O118  1  0.17677233  0.35354467  0.14226967  1
  O  O119  1  0.97916600  0.48958300  0.05837200  1
  O  O120  1  0.82095017  0.64190033  0.10663333  1
  O  O121  1  0.66666667  0.33333333  0.02408500  1
  O  O122  1  0.51041700  0.48958300  0.05837200  1
  O  O123  1  0.66666667  0.33333333  0.14262433  1
  O  O124  1  0.82095017  0.17904983  0.10663333  1
  O  O125  1  0.51041700  0.02083400  0.05837200  1
  O  O126  1  0.35809967  0.17904983  0.10663333  1
  O  O127  1  0.29323133  0.14661567  0.97798867  1
  O  O128  1  0.14567533  0.29135067  0.02225567  1
  O  O129  1  0.00000000  0.00000000  0.94131633  1
  O  O130  1  0.85338433  0.14661567  0.97798867  1
  O  O131  1  0.00000000  0.00000000  0.06000067  1
  O  O132  1  0.14567533  0.85432467  0.02225567  1
  O  O133  1  0.85338433  0.70676867  0.97798867  1
  O  O134  1  0.70864933  0.85432467  0.02225567  1
  O  O135  1  0.62436467  0.81218233  0.89443233  1
  O  O136  1  0.48000067  0.96000133  0.93880833  1
  O  O137  1  0.33333333  0.66666667  0.85708633  1
  O  O138  1  0.33333333  0.66666667  0.97543067  1
  O  O139  1  0.18781767  0.81218233  0.89443233  1
  O  O140  1  0.48000067  0.51999933  0.93880833  1
  O  O141  1  0.18781767  0.37563533  0.89443233  1
  O  O142  1  0.03999867  0.51999933  0.93880833  1
  O  O143  1  0.82497783  0.64995567  0.85809967  1
  O  O144  1  0.66666667  0.33333333  0.89212233  1
  O  O145  1  0.82497783  0.17502217  0.85809967  1
  O  O146  1  0.35004433  0.17502217  0.85809967  1
