# generated using pymatgen
data_Li3Mn2(PO4)3
_symmetry_space_group_name_H-M   'P 1'
_cell_length_a   14.04194290
_cell_length_b   8.85598000
_cell_length_c   9.07445771
_cell_angle_alpha   90.00000000
_cell_angle_beta   125.20253181
_cell_angle_gamma   90.00000000
_symmetry_Int_Tables_number   1
_chemical_formula_structural   Li3Mn2(PO4)3
_chemical_formula_sum   'Li12 Mn8 P12 O48'
_cell_volume   922.08306564
_cell_formula_units_Z   4
loop_
 _symmetry_equiv_pos_site_id
 _symmetry_equiv_pos_as_xyz
  1  'x, y, z'
loop_
 _atom_site_type_symbol
 _atom_site_label
 _atom_site_symmetry_multiplicity
 _atom_site_fract_x
 _atom_site_fract_y
 _atom_site_fract_z
 _atom_site_occupancy
  Li  Li0  1  0.81115050  0.02441650  0.87884100  1
  Li  Li1  1  0.31115050  0.47558350  0.37884100  1
  Li  Li2  1  0.75000000  0.75000000  0.00000000  1
  Li  Li3  1  0.68884950  0.52441650  0.62115900  1
  Li  Li4  1  0.75000000  0.25000000  0.50000000  1
  Li  Li5  1  0.18884950  0.97558350  0.12115900  1
  Li  Li6  1  0.31115050  0.52441650  0.87884100  1
  Li  Li7  1  0.81115050  0.97558350  0.37884100  1
  Li  Li8  1  0.25000000  0.25000000  0.00000000  1
  Li  Li9  1  0.18884950  0.02441650  0.62115900  1
  Li  Li10  1  0.25000000  0.75000000  0.50000000  1
  Li  Li11  1  0.68884950  0.47558350  0.12115900  1
  Mn  Mn12  1  0.61095000  0.24019600  0.65828500  1
  Mn  Mn13  1  0.11095000  0.25980400  0.15828500  1
  Mn  Mn14  1  0.88905000  0.74019600  0.84171500  1
  Mn  Mn15  1  0.38905000  0.75980400  0.34171500  1
  Mn  Mn16  1  0.11095000  0.74019600  0.65828500  1
  Mn  Mn17  1  0.61095000  0.75980400  0.15828500  1
  Mn  Mn18  1  0.38905000  0.24019600  0.84171500  1
  Mn  Mn19  1  0.88905000  0.25980400  0.34171500  1
  P  P20  1  0.84401900  0.58644900  0.46391800  1
  P  P21  1  0.50000000  0.53374200  0.75000000  1
  P  P22  1  0.84401900  0.41355100  0.96391800  1
  P  P23  1  0.15598100  0.58644900  0.03608200  1
  P  P24  1  0.15598100  0.41355100  0.53608200  1
  P  P25  1  0.50000000  0.46625800  0.25000000  1
  P  P26  1  0.34401900  0.08644900  0.46391800  1
  P  P27  1  0.00000000  0.03374200  0.75000000  1
  P  P28  1  0.34401900  0.91355100  0.96391800  1
  P  P29  1  0.65598100  0.08644900  0.03608200  1
  P  P30  1  0.65598100  0.91355100  0.53608200  1
  P  P31  1  0.00000000  0.96625800  0.25000000  1
  O  O32  1  0.55899400  0.43140200  0.68300900  1
  O  O33  1  0.55899400  0.56859800  0.18300900  1
  O  O34  1  0.26656300  0.17101000  0.27696200  1
  O  O35  1  0.82450250  0.41428350  0.41440700  1
  O  O36  1  0.44100600  0.56859800  0.31699100  1
  O  O37  1  0.44100600  0.43140200  0.81699100  1
  O  O38  1  0.73343700  0.82899000  0.72303800  1
  O  O39  1  0.17549750  0.58571650  0.58559300  1
  O  O40  1  0.19338950  0.38716850  0.41017800  1
  O  O41  1  0.53113250  0.86213350  0.45353400  1
  O  O42  1  0.59644800  0.37311500  0.41115200  1
  O  O43  1  0.23343700  0.67101000  0.22303800  1
  O  O44  1  0.17549750  0.41428350  0.08559300  1
  O  O45  1  0.69338950  0.11283150  0.91017800  1
  O  O46  1  0.40355200  0.37311500  0.08884800  1
  O  O47  1  0.03113250  0.63786650  0.95353400  1
  O  O48  1  0.96886750  0.36213350  0.04646600  1
  O  O49  1  0.59644800  0.62688500  0.91115200  1
  O  O50  1  0.30661050  0.88716850  0.08982200  1
  O  O51  1  0.82450250  0.58571650  0.91440700  1
  O  O52  1  0.76656300  0.32899000  0.77696200  1
  O  O53  1  0.40355200  0.62688500  0.58884800  1
  O  O54  1  0.46886750  0.13786650  0.54646600  1
  O  O55  1  0.80661050  0.61283150  0.58982200  1
  O  O56  1  0.05899400  0.93140200  0.68300900  1
  O  O57  1  0.05899400  0.06859800  0.18300900  1
  O  O58  1  0.76656300  0.67101000  0.27696200  1
  O  O59  1  0.32450250  0.91428350  0.41440700  1
  O  O60  1  0.94100600  0.06859800  0.31699100  1
  O  O61  1  0.94100600  0.93140200  0.81699100  1
  O  O62  1  0.23343700  0.32899000  0.72303800  1
  O  O63  1  0.67549750  0.08571650  0.58559300  1
  O  O64  1  0.69338950  0.88716850  0.41017800  1
  O  O65  1  0.03113250  0.36213350  0.45353400  1
  O  O66  1  0.09644800  0.87311500  0.41115200  1
  O  O67  1  0.73343700  0.17101000  0.22303800  1
  O  O68  1  0.67549750  0.91428350  0.08559300  1
  O  O69  1  0.19338950  0.61283150  0.91017800  1
  O  O70  1  0.90355200  0.87311500  0.08884800  1
  O  O71  1  0.53113250  0.13786650  0.95353400  1
  O  O72  1  0.46886750  0.86213350  0.04646600  1
  O  O73  1  0.09644800  0.12688500  0.91115200  1
  O  O74  1  0.80661050  0.38716850  0.08982200  1
  O  O75  1  0.32450250  0.08571650  0.91440700  1
  O  O76  1  0.26656300  0.82899000  0.77696200  1
  O  O77  1  0.90355200  0.12688500  0.58884800  1
  O  O78  1  0.96886750  0.63786650  0.54646600  1
  O  O79  1  0.30661050  0.11283150  0.58982200  1
