# generated using pymatgen
data_Co(PO3)4
_symmetry_space_group_name_H-M   'P 1'
_cell_length_a   17.03049400
_cell_length_b   12.30936600
_cell_length_c   5.13114228
_cell_angle_alpha   90.00000000
_cell_angle_beta   98.00900983
_cell_angle_gamma   90.00000000
_symmetry_Int_Tables_number   1
_chemical_formula_structural   Co(PO3)4
_chemical_formula_sum   'Co4 P16 O48'
_cell_volume   1065.17302597
_cell_formula_units_Z   4
loop_
 _symmetry_equiv_pos_site_id
 _symmetry_equiv_pos_as_xyz
  1  'x, y, z'
loop_
 _atom_site_type_symbol
 _atom_site_label
 _atom_site_symmetry_multiplicity
 _atom_site_fract_x
 _atom_site_fract_y
 _atom_site_fract_z
 _atom_site_occupancy
  Co  Co0  1  0.75000000  0.25000000  0.00000000  1
  Co  Co1  1  0.75000000  0.75000000  0.00000000  1
  Co  Co2  1  0.25000000  0.75000000  0.00000000  1
  Co  Co3  1  0.25000000  0.25000000  0.00000000  1
  P  P4  1  0.42512200  0.78665700  0.81818600  1
  P  P5  1  0.17957650  0.87843550  0.46582800  1
  P  P6  1  0.82042350  0.12156450  0.53417200  1
  P  P7  1  0.42512200  0.21334300  0.81818600  1
  P  P8  1  0.17957650  0.12156450  0.46582800  1
  P  P9  1  0.57487800  0.78665700  0.18181400  1
  P  P10  1  0.82042350  0.87843550  0.53417200  1
  P  P11  1  0.57487800  0.21334300  0.18181400  1
  P  P12  1  0.92512200  0.28665700  0.81818600  1
  P  P13  1  0.67957650  0.37843550  0.46582800  1
  P  P14  1  0.32042350  0.62156450  0.53417200  1
  P  P15  1  0.92512200  0.71334300  0.81818600  1
  P  P16  1  0.67957650  0.62156450  0.46582800  1
  P  P17  1  0.07487800  0.28665700  0.18181400  1
  P  P18  1  0.32042350  0.37843550  0.53417200  1
  P  P19  1  0.07487800  0.71334300  0.18181400  1
  O  O20  1  0.44792150  0.11775450  0.66349000  1
  O  O21  1  0.75851150  0.84259350  0.70179700  1
  O  O22  1  0.55207850  0.88224550  0.33651000  1
  O  O23  1  0.40236200  0.68328000  0.62715900  1
  O  O24  1  0.64017500  0.19416000  0.01503500  1
  O  O25  1  0.24148850  0.84259350  0.29820300  1
  O  O26  1  0.59763800  0.68328000  0.37284100  1
  O  O27  1  0.79839150  0.87109150  0.24234400  1
  O  O28  1  0.20160850  0.12890850  0.75765600  1
  O  O29  1  0.15186800  0.00000000  0.38684600  1
  O  O30  1  0.75851150  0.15740650  0.70179700  1
  O  O31  1  0.55207850  0.11775450  0.33651000  1
  O  O32  1  0.50000000  0.26747600  0.00000000  1
  O  O33  1  0.59763800  0.31672000  0.37284100  1
  O  O34  1  0.35982500  0.19416000  0.98496500  1
  O  O35  1  0.44792150  0.88224550  0.66349000  1
  O  O36  1  0.50000000  0.73252400  0.00000000  1
  O  O37  1  0.64017500  0.80584000  0.01503500  1
  O  O38  1  0.20160850  0.87109150  0.75765600  1
  O  O39  1  0.79839150  0.12890850  0.24234400  1
  O  O40  1  0.24148850  0.15740650  0.29820300  1
  O  O41  1  0.84813200  0.00000000  0.61315400  1
  O  O42  1  0.40236200  0.31672000  0.62715900  1
  O  O43  1  0.35982500  0.80584000  0.98496500  1
  O  O44  1  0.94792150  0.61775450  0.66349000  1
  O  O45  1  0.25851150  0.34259350  0.70179700  1
  O  O46  1  0.05207850  0.38224550  0.33651000  1
  O  O47  1  0.90236200  0.18328000  0.62715900  1
  O  O48  1  0.14017500  0.69416000  0.01503500  1
  O  O49  1  0.74148850  0.34259350  0.29820300  1
  O  O50  1  0.09763800  0.18328000  0.37284100  1
  O  O51  1  0.29839150  0.37109150  0.24234400  1
  O  O52  1  0.70160850  0.62890850  0.75765600  1
  O  O53  1  0.65186800  0.50000000  0.38684600  1
  O  O54  1  0.25851150  0.65740650  0.70179700  1
  O  O55  1  0.05207850  0.61775450  0.33651000  1
  O  O56  1  0.00000000  0.76747600  0.00000000  1
  O  O57  1  0.09763800  0.81672000  0.37284100  1
  O  O58  1  0.85982500  0.69416000  0.98496500  1
  O  O59  1  0.94792150  0.38224550  0.66349000  1
  O  O60  1  0.00000000  0.23252400  0.00000000  1
  O  O61  1  0.14017500  0.30584000  0.01503500  1
  O  O62  1  0.70160850  0.37109150  0.75765600  1
  O  O63  1  0.29839150  0.62890850  0.24234400  1
  O  O64  1  0.74148850  0.65740650  0.29820300  1
  O  O65  1  0.34813200  0.50000000  0.61315400  1
  O  O66  1  0.90236200  0.81672000  0.62715900  1
  O  O67  1  0.85982500  0.30584000  0.98496500  1
