# generated using pymatgen
data_SmAlGe
_symmetry_space_group_name_H-M   'P 1'
_cell_length_a   4.22589000
_cell_length_b   4.22589000
_cell_length_c   14.71173200
_cell_angle_alpha   90.00000000
_cell_angle_beta   90.00000000
_cell_angle_gamma   90.00000000
_symmetry_Int_Tables_number   1
_chemical_formula_structural   SmAlGe
_chemical_formula_sum   'Sm4 Al4 Ge4'
_cell_volume   262.72426227
_cell_formula_units_Z   4
loop_
 _symmetry_equiv_pos_site_id
 _symmetry_equiv_pos_as_xyz
  1  'x, y, z'
loop_
 _atom_site_type_symbol
 _atom_site_label
 _atom_site_symmetry_multiplicity
 _atom_site_fract_x
 _atom_site_fract_y
 _atom_site_fract_z
 _atom_site_occupancy
  Sm  Sm0  1  0.00000000  0.00000000  0.08498000  1
  Sm  Sm1  1  0.50000000  0.00000000  0.83498000  1
  Sm  Sm2  1  0.50000000  0.50000000  0.58498000  1
  Sm  Sm3  1  0.00000000  0.50000000  0.33498000  1
  Al  Al4  1  0.50000000  0.50000000  0.16908800  1
  Al  Al5  1  0.00000000  0.50000000  0.91908800  1
  Al  Al6  1  0.00000000  0.00000000  0.66908800  1
  Al  Al7  1  0.50000000  0.00000000  0.41908800  1
  Ge  Ge8  1  0.00000000  0.50000000  0.75353200  1
  Ge  Ge9  1  0.50000000  0.50000000  0.00353200  1
  Ge  Ge10  1  0.50000000  0.00000000  0.25353200  1
  Ge  Ge11  1  0.00000000  0.00000000  0.50353200  1
