# generated using pymatgen
data_Ho2Zn17
_symmetry_space_group_name_H-M   'P 1'
_cell_length_a   8.95528558
_cell_length_b   8.95528558
_cell_length_c   13.20930829
_cell_angle_alpha   90.00000000
_cell_angle_beta   90.00000000
_cell_angle_gamma   120.00000000
_symmetry_Int_Tables_number   1
_chemical_formula_structural   Ho2Zn17
_chemical_formula_sum   'Ho6 Zn51'
_cell_volume   917.42292453
_cell_formula_units_Z   3
loop_
 _symmetry_equiv_pos_site_id
 _symmetry_equiv_pos_as_xyz
  1  'x, y, z'
loop_
 _atom_site_type_symbol
 _atom_site_label
 _atom_site_symmetry_multiplicity
 _atom_site_fract_x
 _atom_site_fract_y
 _atom_site_fract_z
 _atom_site_occupancy
  Ho  Ho0  1  0.33333333  0.66666667  0.33166467  1
  Ho  Ho1  1  0.33333333  0.66666667  0.00166867  1
  Ho  Ho2  1  0.00000000  0.00000000  0.66499800  1
  Ho  Ho3  1  0.00000000  0.00000000  0.33500200  1
  Ho  Ho4  1  0.66666667  0.33333333  0.99833133  1
  Ho  Ho5  1  0.66666667  0.33333333  0.66833533  1
  Zn  Zn6  1  0.17133300  0.82866700  0.18070400  1
  Zn  Zn7  1  0.17133300  0.34266600  0.18070400  1
  Zn  Zn8  1  0.33333333  0.66666667  0.76674967  1
  Zn  Zn9  1  0.33333333  0.66666667  0.56658367  1
  Zn  Zn10  1  0.16666667  0.83333333  0.83333333  1
  Zn  Zn11  1  0.33333333  0.16666667  0.16666667  1
  Zn  Zn12  1  0.83333333  0.66666667  0.16666667  1
  Zn  Zn13  1  0.36845167  0.03511833  0.33333333  1
  Zn  Zn14  1  0.00000000  0.29821500  0.00000000  1
  Zn  Zn15  1  0.29821500  0.00000000  0.00000000  1
  Zn  Zn16  1  0.96488167  0.63154833  0.33333333  1
  Zn  Zn17  1  0.00000000  0.70178500  0.00000000  1
  Zn  Zn18  1  0.70178500  0.00000000  0.00000000  1
  Zn  Zn19  1  0.49533367  0.99066733  0.15262933  1
  Zn  Zn20  1  0.49533367  0.50466633  0.15262933  1
  Zn  Zn21  1  0.00933267  0.50466633  0.15262933  1
  Zn  Zn22  1  0.65733400  0.82866700  0.18070400  1
  Zn  Zn23  1  0.83799967  0.16200033  0.51403733  1
  Zn  Zn24  1  0.83799967  0.67599933  0.51403733  1
  Zn  Zn25  1  0.00000000  0.00000000  0.10008300  1
  Zn  Zn26  1  0.00000000  0.00000000  0.89991700  1
  Zn  Zn27  1  0.83333333  0.16666667  0.16666667  1
  Zn  Zn28  1  0.00000000  0.50000000  0.50000000  1
  Zn  Zn29  1  0.50000000  0.00000000  0.50000000  1
  Zn  Zn30  1  0.03511833  0.36845167  0.66666667  1
  Zn  Zn31  1  0.66666667  0.63154833  0.33333333  1
  Zn  Zn32  1  0.96488167  0.33333333  0.33333333  1
  Zn  Zn33  1  0.63154833  0.96488167  0.66666667  1
  Zn  Zn34  1  0.66666667  0.03511833  0.33333333  1
  Zn  Zn35  1  0.36845167  0.33333333  0.33333333  1
  Zn  Zn36  1  0.16200033  0.32400067  0.48596267  1
  Zn  Zn37  1  0.16200033  0.83799967  0.48596267  1
  Zn  Zn38  1  0.67599933  0.83799967  0.48596267  1
  Zn  Zn39  1  0.32400067  0.16200033  0.51403733  1
  Zn  Zn40  1  0.50466633  0.49533367  0.84737067  1
  Zn  Zn41  1  0.50466633  0.00933267  0.84737067  1
  Zn  Zn42  1  0.66666667  0.33333333  0.43341633  1
  Zn  Zn43  1  0.66666667  0.33333333  0.23325033  1
  Zn  Zn44  1  0.50000000  0.50000000  0.50000000  1
  Zn  Zn45  1  0.66666667  0.83333333  0.83333333  1
  Zn  Zn46  1  0.16666667  0.33333333  0.83333333  1
  Zn  Zn47  1  0.70178500  0.70178500  0.00000000  1
  Zn  Zn48  1  0.33333333  0.96488167  0.66666667  1
  Zn  Zn49  1  0.63154833  0.66666667  0.66666667  1
  Zn  Zn50  1  0.29821500  0.29821500  0.00000000  1
  Zn  Zn51  1  0.33333333  0.36845167  0.66666667  1
  Zn  Zn52  1  0.03511833  0.66666667  0.66666667  1
  Zn  Zn53  1  0.82866700  0.65733400  0.81929600  1
  Zn  Zn54  1  0.82866700  0.17133300  0.81929600  1
  Zn  Zn55  1  0.34266600  0.17133300  0.81929600  1
  Zn  Zn56  1  0.99066733  0.49533367  0.84737067  1
