# generated using pymatgen
data_Ni4P16W
_symmetry_space_group_name_H-M   'P 1'
_cell_length_a   19.68235600
_cell_length_b   5.69507200
_cell_length_c   11.16185634
_cell_angle_alpha   90.00000000
_cell_angle_beta   100.95140545
_cell_angle_gamma   90.00000000
_symmetry_Int_Tables_number   1
_chemical_formula_structural   Ni4P16W
_chemical_formula_sum   'Ni16 P64 W4'
_cell_volume   1228.37435978
_cell_formula_units_Z   4
loop_
 _symmetry_equiv_pos_site_id
 _symmetry_equiv_pos_as_xyz
  1  'x, y, z'
loop_
 _atom_site_type_symbol
 _atom_site_label
 _atom_site_symmetry_multiplicity
 _atom_site_fract_x
 _atom_site_fract_y
 _atom_site_fract_z
 _atom_site_occupancy
  Ni  Ni0  1  0.75047250  0.55497950  0.37153900  1
  Ni  Ni1  1  0.74952750  0.05497950  0.12846100  1
  Ni  Ni2  1  0.74952750  0.94502050  0.62846100  1
  Ni  Ni3  1  0.75047250  0.44502050  0.87153900  1
  Ni  Ni4  1  0.89387800  0.90566900  0.92560700  1
  Ni  Ni5  1  0.60612200  0.40566900  0.57439300  1
  Ni  Ni6  1  0.60612200  0.59433100  0.07439300  1
  Ni  Ni7  1  0.89387800  0.09433100  0.42560700  1
  Ni  Ni8  1  0.25047250  0.05497950  0.37153900  1
  Ni  Ni9  1  0.24952750  0.55497950  0.12846100  1
  Ni  Ni10  1  0.24952750  0.44502050  0.62846100  1
  Ni  Ni11  1  0.25047250  0.94502050  0.87153900  1
  Ni  Ni12  1  0.39387800  0.40566900  0.92560700  1
  Ni  Ni13  1  0.10612200  0.90566900  0.57439300  1
  Ni  Ni14  1  0.10612200  0.09433100  0.07439300  1
  Ni  Ni15  1  0.39387800  0.59433100  0.42560700  1
  P  P16  1  0.99583750  0.26317350  0.39257800  1
  P  P17  1  0.50416250  0.76317350  0.10742200  1
  P  P18  1  0.50416250  0.23682650  0.60742200  1
  P  P19  1  0.99583750  0.73682650  0.89257800  1
  P  P20  1  0.62079750  0.99487250  0.33920200  1
  P  P21  1  0.87920250  0.49487250  0.16079800  1
  P  P22  1  0.87920250  0.50512750  0.66079800  1
  P  P23  1  0.62079750  0.00512750  0.83920200  1
  P  P24  1  0.64100450  0.62622450  0.28046800  1
  P  P25  1  0.85899550  0.12622450  0.21953200  1
  P  P26  1  0.93853100  0.05209300  0.63206200  1
  P  P27  1  0.56146900  0.55209300  0.86793800  1
  P  P28  1  0.56146900  0.44790700  0.36793800  1
  P  P29  1  0.93853100  0.94790700  0.13206200  1
  P  P30  1  0.93801550  0.28158250  0.91970500  1
  P  P31  1  0.56198450  0.78158250  0.58029500  1
  P  P32  1  0.56198450  0.21841750  0.08029500  1
  P  P33  1  0.93801550  0.71841750  0.41970500  1
  P  P34  1  0.85831850  0.53915250  0.95746100  1
  P  P35  1  0.64168150  0.03915250  0.54253900  1
  P  P36  1  0.64168150  0.96084750  0.04253900  1
  P  P37  1  0.85831850  0.46084750  0.45746100  1
  P  P38  1  0.78708900  0.06635300  0.94570900  1
  P  P39  1  0.71291100  0.56635300  0.55429100  1
  P  P40  1  0.71291100  0.43364700  0.05429100  1
  P  P41  1  0.78708900  0.93364700  0.44570900  1
  P  P42  1  0.77876950  0.33741350  0.68795100  1
  P  P43  1  0.72123050  0.83741350  0.81204900  1
  P  P44  1  0.72123050  0.16258650  0.31204900  1
  P  P45  1  0.77876950  0.66258650  0.18795100  1
  P  P46  1  0.64100450  0.37377550  0.78046800  1
  P  P47  1  0.85899550  0.87377550  0.71953200  1
  P  P48  1  0.49583750  0.76317350  0.39257800  1
  P  P49  1  0.00416250  0.26317350  0.10742200  1
  P  P50  1  0.00416250  0.73682650  0.60742200  1
  P  P51  1  0.49583750  0.23682650  0.89257800  1
  P  P52  1  0.12079750  0.49487250  0.33920200  1
  P  P53  1  0.37920250  0.99487250  0.16079800  1
  P  P54  1  0.37920250  0.00512750  0.66079800  1
  P  P55  1  0.12079750  0.50512750  0.83920200  1
  P  P56  1  0.14100450  0.12622450  0.28046800  1
  P  P57  1  0.35899550  0.62622450  0.21953200  1
  P  P58  1  0.43853100  0.55209300  0.63206200  1
  P  P59  1  0.06146900  0.05209300  0.86793800  1
  P  P60  1  0.06146900  0.94790700  0.36793800  1
  P  P61  1  0.43853100  0.44790700  0.13206200  1
  P  P62  1  0.43801550  0.78158250  0.91970500  1
  P  P63  1  0.06198450  0.28158250  0.58029500  1
  P  P64  1  0.06198450  0.71841750  0.08029500  1
  P  P65  1  0.43801550  0.21841750  0.41970500  1
  P  P66  1  0.35831850  0.03915250  0.95746100  1
  P  P67  1  0.14168150  0.53915250  0.54253900  1
  P  P68  1  0.14168150  0.46084750  0.04253900  1
  P  P69  1  0.35831850  0.96084750  0.45746100  1
  P  P70  1  0.28708900  0.56635300  0.94570900  1
  P  P71  1  0.21291100  0.06635300  0.55429100  1
  P  P72  1  0.21291100  0.93364700  0.05429100  1
  P  P73  1  0.28708900  0.43364700  0.44570900  1
  P  P74  1  0.27876950  0.83741350  0.68795100  1
  P  P75  1  0.22123050  0.33741350  0.81204900  1
  P  P76  1  0.22123050  0.66258650  0.31204900  1
  P  P77  1  0.27876950  0.16258650  0.18795100  1
  P  P78  1  0.14100450  0.87377550  0.78046800  1
  P  P79  1  0.35899550  0.37377550  0.71953200  1
  W  W80  1  0.00000000  0.60523500  0.25000000  1
  W  W81  1  0.00000000  0.39476500  0.75000000  1
  W  W82  1  0.50000000  0.10523500  0.25000000  1
  W  W83  1  0.50000000  0.89476500  0.75000000  1
