# generated using pymatgen
data_Cr(PO3)4
_symmetry_space_group_name_H-M   'P 1'
_cell_length_a   16.82778602
_cell_length_b   12.29286137
_cell_length_c   5.15426837
_cell_angle_alpha   90.00000000
_cell_angle_beta   98.39471009
_cell_angle_gamma   90.00000000
_symmetry_Int_Tables_number   1
_chemical_formula_structural   Cr(PO3)4
_chemical_formula_sum   'Cr4 P16 O48'
_cell_volume   1054.79672934
_cell_formula_units_Z   4
loop_
 _symmetry_equiv_pos_site_id
 _symmetry_equiv_pos_as_xyz
  1  'x, y, z'
loop_
 _atom_site_type_symbol
 _atom_site_label
 _atom_site_symmetry_multiplicity
 _atom_site_fract_x
 _atom_site_fract_y
 _atom_site_fract_z
 _atom_site_occupancy
  Cr  Cr0  1  0.75000000  0.25000000  0.00000000  1
  Cr  Cr1  1  0.25000000  0.25000000  0.00000000  1
  Cr  Cr2  1  0.25000000  0.75000000  0.00000000  1
  Cr  Cr3  1  0.75000000  0.75000000  0.00000000  1
  P  P4  1  0.68036250  0.62188450  0.47140300  1
  P  P5  1  0.31963750  0.37811550  0.52859700  1
  P  P6  1  0.92485150  0.28817950  0.81543300  1
  P  P7  1  0.68036250  0.37811550  0.47140300  1
  P  P8  1  0.92485150  0.71182050  0.81543300  1
  P  P9  1  0.31963750  0.62188450  0.52859700  1
  P  P10  1  0.07514850  0.28817950  0.18456700  1
  P  P11  1  0.07514850  0.71182050  0.18456700  1
  P  P12  1  0.18036250  0.12188450  0.47140300  1
  P  P13  1  0.81963750  0.87811550  0.52859700  1
  P  P14  1  0.42485150  0.78817950  0.81543300  1
  P  P15  1  0.18036250  0.87811550  0.47140300  1
  P  P16  1  0.42485150  0.21182050  0.81543300  1
  P  P17  1  0.81963750  0.12188450  0.52859700  1
  P  P18  1  0.57514850  0.78817950  0.18456700  1
  P  P19  1  0.57514850  0.21182050  0.18456700  1
  O  O20  1  0.00000000  0.23320700  0.00000000  1
  O  O21  1  0.74420050  0.34586550  0.30907900  1
  O  O22  1  0.05286450  0.61373250  0.32952300  1
  O  O23  1  0.25579950  0.65413450  0.69092100  1
  O  O24  1  0.94713550  0.38626750  0.67047700  1
  O  O25  1  0.90246600  0.81504200  0.62095700  1
  O  O26  1  0.14105500  0.30416900  0.01543000  1
  O  O27  1  0.85894500  0.30416900  0.98457000  1
  O  O28  1  0.14105500  0.69583100  0.01543000  1
  O  O29  1  0.85894500  0.69583100  0.98457000  1
  O  O30  1  0.70209200  0.62959200  0.76447700  1
  O  O31  1  0.09753400  0.18495800  0.37904300  1
  O  O32  1  0.25579950  0.34586550  0.69092100  1
  O  O33  1  0.05286450  0.38626750  0.32952300  1
  O  O34  1  0.94713550  0.61373250  0.67047700  1
  O  O35  1  0.90246600  0.18495800  0.62095700  1
  O  O36  1  0.34951800  0.50000000  0.59858400  1
  O  O37  1  0.65048200  0.50000000  0.40141600  1
  O  O38  1  0.29790800  0.62959200  0.23552300  1
  O  O39  1  0.00000000  0.76679300  0.00000000  1
  O  O40  1  0.74420050  0.65413450  0.30907900  1
  O  O41  1  0.29790800  0.37040800  0.23552300  1
  O  O42  1  0.70209200  0.37040800  0.76447700  1
  O  O43  1  0.09753400  0.81504200  0.37904300  1
  O  O44  1  0.50000000  0.73320700  0.00000000  1
  O  O45  1  0.24420050  0.84586550  0.30907900  1
  O  O46  1  0.55286450  0.11373250  0.32952300  1
  O  O47  1  0.75579950  0.15413450  0.69092100  1
  O  O48  1  0.44713550  0.88626750  0.67047700  1
  O  O49  1  0.40246600  0.31504200  0.62095700  1
  O  O50  1  0.64105500  0.80416900  0.01543000  1
  O  O51  1  0.35894500  0.80416900  0.98457000  1
  O  O52  1  0.64105500  0.19583100  0.01543000  1
  O  O53  1  0.35894500  0.19583100  0.98457000  1
  O  O54  1  0.20209200  0.12959200  0.76447700  1
  O  O55  1  0.59753400  0.68495800  0.37904300  1
  O  O56  1  0.75579950  0.84586550  0.69092100  1
  O  O57  1  0.55286450  0.88626750  0.32952300  1
  O  O58  1  0.44713550  0.11373250  0.67047700  1
  O  O59  1  0.40246600  0.68495800  0.62095700  1
  O  O60  1  0.84951800  0.00000000  0.59858400  1
  O  O61  1  0.15048200  0.00000000  0.40141600  1
  O  O62  1  0.79790800  0.12959200  0.23552300  1
  O  O63  1  0.50000000  0.26679300  0.00000000  1
  O  O64  1  0.24420050  0.15413450  0.30907900  1
  O  O65  1  0.79790800  0.87040800  0.23552300  1
  O  O66  1  0.20209200  0.87040800  0.76447700  1
  O  O67  1  0.59753400  0.31504200  0.37904300  1
