# generated using pymatgen
data_Sm2TmS4
_symmetry_space_group_name_H-M   'P 1'
_cell_length_a   8.35020400
_cell_length_b   8.35020400
_cell_length_c   8.53930600
_cell_angle_alpha   90.00000000
_cell_angle_beta   90.00000000
_cell_angle_gamma   90.00000000
_symmetry_Int_Tables_number   1
_chemical_formula_structural   Sm2TmS4
_chemical_formula_sum   'Sm8 Tm4 S16'
_cell_volume   595.41085465
_cell_formula_units_Z   4
loop_
 _symmetry_equiv_pos_site_id
 _symmetry_equiv_pos_as_xyz
  1  'x, y, z'
loop_
 _atom_site_type_symbol
 _atom_site_label
 _atom_site_symmetry_multiplicity
 _atom_site_fract_x
 _atom_site_fract_y
 _atom_site_fract_z
 _atom_site_occupancy
  Sm  Sm0  1  0.25000000  0.61703600  0.37500000  1
  Sm  Sm1  1  0.75000000  0.38296400  0.37500000  1
  Sm  Sm2  1  0.88296400  0.75000000  0.12500000  1
  Sm  Sm3  1  0.11703600  0.25000000  0.12500000  1
  Sm  Sm4  1  0.75000000  0.11703600  0.87500000  1
  Sm  Sm5  1  0.25000000  0.88296400  0.87500000  1
  Sm  Sm6  1  0.38296400  0.25000000  0.62500000  1
  Sm  Sm7  1  0.61703600  0.75000000  0.62500000  1
  Tm  Tm8  1  0.00000000  0.00000000  0.50000000  1
  Tm  Tm9  1  0.50000000  0.00000000  0.25000000  1
  Tm  Tm10  1  0.50000000  0.50000000  0.00000000  1
  Tm  Tm11  1  0.00000000  0.50000000  0.75000000  1
  S  S12  1  0.18495200  0.92833500  0.19999400  1
  S  S13  1  0.42833500  0.18495200  0.94999400  1
  S  S14  1  0.07166500  0.31504800  0.44999400  1
  S  S15  1  0.42833500  0.31504800  0.30000600  1
  S  S16  1  0.31504800  0.57166500  0.69999400  1
  S  S17  1  0.31504800  0.92833500  0.55000600  1
  S  S18  1  0.07166500  0.18495200  0.80000600  1
  S  S19  1  0.18495200  0.57166500  0.05000600  1
  S  S20  1  0.68495200  0.42833500  0.69999400  1
  S  S21  1  0.92833500  0.68495200  0.44999400  1
  S  S22  1  0.57166500  0.81504800  0.94999400  1
  S  S23  1  0.92833500  0.81504800  0.80000600  1
  S  S24  1  0.81504800  0.07166500  0.19999400  1
  S  S25  1  0.81504800  0.42833500  0.05000600  1
  S  S26  1  0.57166500  0.68495200  0.30000600  1
  S  S27  1  0.68495200  0.07166500  0.55000600  1
