# generated using pymatgen
data_Ba(Mo3S4)2
_symmetry_space_group_name_H-M   'P 1'
_cell_length_a   9.38526455
_cell_length_b   9.38526455
_cell_length_c   11.88882112
_cell_angle_alpha   90.00000000
_cell_angle_beta   90.00000000
_cell_angle_gamma   120.00000000
_symmetry_Int_Tables_number   1
_chemical_formula_structural   Ba(Mo3S4)2
_chemical_formula_sum   'Ba3 Mo18 S24'
_cell_volume   906.90639155
_cell_formula_units_Z   3
loop_
 _symmetry_equiv_pos_site_id
 _symmetry_equiv_pos_as_xyz
  1  'x, y, z'
loop_
 _atom_site_type_symbol
 _atom_site_label
 _atom_site_symmetry_multiplicity
 _atom_site_fract_x
 _atom_site_fract_y
 _atom_site_fract_z
 _atom_site_occupancy
  Ba  Ba0  1  0.00000000  0.00000000  0.00000000  1
  Ba  Ba1  1  0.66666667  0.33333333  0.33333333  1
  Ba  Ba2  1  0.33333333  0.66666667  0.66666667  1
  Mo  Mo3  1  0.16276133  0.50723967  0.07240167  1
  Mo  Mo4  1  0.34447833  0.83723867  0.07240167  1
  Mo  Mo5  1  0.49276033  0.65552167  0.07240167  1
  Mo  Mo6  1  0.50390533  0.82609367  0.26093167  1
  Mo  Mo7  1  0.32218833  0.49609467  0.26093167  1
  Mo  Mo8  1  0.17390633  0.67781167  0.26093167  1
  Mo  Mo9  1  0.82942800  0.84057300  0.40573500  1
  Mo  Mo10  1  0.01114500  0.17057200  0.40573500  1
  Mo  Mo11  1  0.15942700  0.98885500  0.40573500  1
  Mo  Mo12  1  0.17057200  0.15942700  0.59426500  1
  Mo  Mo13  1  0.98885500  0.82942800  0.59426500  1
  Mo  Mo14  1  0.84057300  0.01114500  0.59426500  1
  Mo  Mo15  1  0.49609467  0.17390633  0.73906833  1
  Mo  Mo16  1  0.67781167  0.50390533  0.73906833  1
  Mo  Mo17  1  0.82609367  0.32218833  0.73906833  1
  Mo  Mo18  1  0.83723867  0.49276033  0.92759833  1
  Mo  Mo19  1  0.65552167  0.16276133  0.92759833  1
  Mo  Mo20  1  0.50723967  0.34447833  0.92759833  1
  S  S21  1  0.33333333  0.66666667  0.91888067  1
  S  S22  1  0.33333333  0.66666667  0.41445267  1
  S  S23  1  0.04155067  0.69212533  0.08330033  1
  S  S24  1  0.65057467  0.95844933  0.08330033  1
  S  S25  1  0.30787467  0.34942533  0.08330033  1
  S  S26  1  0.62511600  0.64120800  0.25003300  1
  S  S27  1  0.01609200  0.37488400  0.25003300  1
  S  S28  1  0.35879200  0.98390800  0.25003300  1
  S  S29  1  0.00000000  0.00000000  0.25221400  1
  S  S30  1  0.00000000  0.00000000  0.74778600  1
  S  S31  1  0.70821733  0.02545867  0.41663367  1
  S  S32  1  0.31724133  0.29178267  0.41663367  1
  S  S33  1  0.97454133  0.68275867  0.41663367  1
  S  S34  1  0.29178267  0.97454133  0.58336633  1
  S  S35  1  0.68275867  0.70821733  0.58336633  1
  S  S36  1  0.02545867  0.31724133  0.58336633  1
  S  S37  1  0.66666667  0.33333333  0.58554733  1
  S  S38  1  0.66666667  0.33333333  0.08111933  1
  S  S39  1  0.37488400  0.35879200  0.74996700  1
  S  S40  1  0.98390800  0.62511600  0.74996700  1
  S  S41  1  0.64120800  0.01609200  0.74996700  1
  S  S42  1  0.95844933  0.30787467  0.91669967  1
  S  S43  1  0.34942533  0.04155067  0.91669967  1
  S  S44  1  0.69212533  0.65057467  0.91669967  1
