# generated using pymatgen
data_LiCo(PO3)4
_symmetry_space_group_name_H-M   'P 1'
_cell_length_a   11.93641200
_cell_length_b   8.36815600
_cell_length_c   9.77488742
_cell_angle_alpha   90.00000000
_cell_angle_beta   117.46542674
_cell_angle_gamma   90.00000000
_symmetry_Int_Tables_number   1
_chemical_formula_structural   LiCo(PO3)4
_chemical_formula_sum   'Li4 Co4 P16 O48'
_cell_volume   866.32445902
_cell_formula_units_Z   4
loop_
 _symmetry_equiv_pos_site_id
 _symmetry_equiv_pos_as_xyz
  1  'x, y, z'
loop_
 _atom_site_type_symbol
 _atom_site_label
 _atom_site_symmetry_multiplicity
 _atom_site_fract_x
 _atom_site_fract_y
 _atom_site_fract_z
 _atom_site_occupancy
  Li  Li0  1  0.00000000  0.95564200  0.25000000  1
  Li  Li1  1  0.50000000  0.54435800  0.75000000  1
  Li  Li2  1  0.50000000  0.45564200  0.25000000  1
  Li  Li3  1  0.00000000  0.04435800  0.75000000  1
  Co  Co4  1  0.75000000  0.75000000  0.00000000  1
  Co  Co5  1  0.25000000  0.75000000  0.50000000  1
  Co  Co6  1  0.25000000  0.25000000  0.00000000  1
  Co  Co7  1  0.75000000  0.25000000  0.50000000  1
  P  P8  1  0.69019250  0.99387250  0.69693300  1
  P  P9  1  0.50466350  0.76367150  0.47169300  1
  P  P10  1  0.50466350  0.23632850  0.97169300  1
  P  P11  1  0.80980750  0.50612750  0.30306700  1
  P  P12  1  0.30980750  0.99387250  0.80306700  1
  P  P13  1  0.99533650  0.26367150  0.02830700  1
  P  P14  1  0.19019250  0.50612750  0.19693300  1
  P  P15  1  0.99533650  0.73632850  0.52830700  1
  P  P16  1  0.19019250  0.49387250  0.69693300  1
  P  P17  1  0.00466350  0.26367150  0.47169300  1
  P  P18  1  0.00466350  0.73632850  0.97169300  1
  P  P19  1  0.30980750  0.00612750  0.30306700  1
  P  P20  1  0.80980750  0.49387250  0.80306700  1
  P  P21  1  0.49533650  0.76367150  0.02830700  1
  P  P22  1  0.69019250  0.00612750  0.19693300  1
  P  P23  1  0.49533650  0.23632850  0.52830700  1
  O  O24  1  0.06191900  0.74558400  0.42712300  1
  O  O25  1  0.28790400  0.41416700  0.17001100  1
  O  O26  1  0.73548400  0.92283700  0.85471500  1
  O  O27  1  0.36336900  0.85764200  0.93210000  1
  O  O28  1  0.42700550  0.10722750  0.83453300  1
  O  O29  1  0.26451600  0.92283700  0.64528500  1
  O  O30  1  0.43808100  0.75441600  0.57287700  1
  O  O31  1  0.07299450  0.60722750  0.66546700  1
  O  O32  1  0.21209600  0.91416700  0.32998900  1
  O  O33  1  0.42700550  0.89277250  0.33453300  1
  O  O34  1  0.63663100  0.85764200  0.56790000  1
  O  O35  1  0.53081700  0.61905400  0.40697600  1
  O  O36  1  0.46918300  0.61905400  0.09302400  1
  O  O37  1  0.21209600  0.08583300  0.82998900  1
  O  O38  1  0.28790400  0.58583300  0.67001100  1
  O  O39  1  0.93808100  0.74558400  0.07287700  1
  O  O40  1  0.86336900  0.64235800  0.43210000  1
  O  O41  1  0.07299450  0.39277250  0.16546700  1
  O  O42  1  0.96918300  0.88094600  0.59302400  1
  O  O43  1  0.03081700  0.88094600  0.90697600  1
  O  O44  1  0.76451600  0.57716300  0.14528500  1
  O  O45  1  0.13663100  0.64235800  0.06790000  1
  O  O46  1  0.56191900  0.75441600  0.92712300  1
  O  O47  1  0.23548400  0.57716300  0.35471500  1
  O  O48  1  0.56191900  0.24558400  0.42712300  1
  O  O49  1  0.78790400  0.91416700  0.17001100  1
  O  O50  1  0.23548400  0.42283700  0.85471500  1
  O  O51  1  0.86336900  0.35764200  0.93210000  1
  O  O52  1  0.92700550  0.60722750  0.83453300  1
  O  O53  1  0.76451600  0.42283700  0.64528500  1
  O  O54  1  0.93808100  0.25441600  0.57287700  1
  O  O55  1  0.57299450  0.10722750  0.66546700  1
  O  O56  1  0.71209600  0.41416700  0.32998900  1
  O  O57  1  0.92700550  0.39277250  0.33453300  1
  O  O58  1  0.13663100  0.35764200  0.56790000  1
  O  O59  1  0.03081700  0.11905400  0.40697600  1
  O  O60  1  0.96918300  0.11905400  0.09302400  1
  O  O61  1  0.71209600  0.58583300  0.82998900  1
  O  O62  1  0.78790400  0.08583300  0.67001100  1
  O  O63  1  0.43808100  0.24558400  0.07287700  1
  O  O64  1  0.36336900  0.14235800  0.43210000  1
  O  O65  1  0.57299450  0.89277250  0.16546700  1
  O  O66  1  0.46918300  0.38094600  0.59302400  1
  O  O67  1  0.53081700  0.38094600  0.90697600  1
  O  O68  1  0.26451600  0.07716300  0.14528500  1
  O  O69  1  0.63663100  0.14235800  0.06790000  1
  O  O70  1  0.06191900  0.25441600  0.92712300  1
  O  O71  1  0.73548400  0.07716300  0.35471500  1
