# generated using pymatgen
data_LiCo3(P3O10)2
_symmetry_space_group_name_H-M   'P 1'
_cell_length_a   10.17777200
_cell_length_b   13.29816800
_cell_length_c   12.24748900
_cell_angle_alpha   90.00000000
_cell_angle_beta   90.00000000
_cell_angle_gamma   90.00000000
_symmetry_Int_Tables_number   1
_chemical_formula_structural   LiCo3(P3O10)2
_chemical_formula_sum   'Li4 Co12 P24 O80'
_cell_volume   1657.64524043
_cell_formula_units_Z   4
loop_
 _symmetry_equiv_pos_site_id
 _symmetry_equiv_pos_as_xyz
  1  'x, y, z'
loop_
 _atom_site_type_symbol
 _atom_site_label
 _atom_site_symmetry_multiplicity
 _atom_site_fract_x
 _atom_site_fract_y
 _atom_site_fract_z
 _atom_site_occupancy
  Li  Li0  1  0.41122500  0.00000000  0.00000000  1
  Li  Li1  1  0.58877500  0.00000000  0.50000000  1
  Li  Li2  1  0.91122500  0.50000000  0.00000000  1
  Li  Li3  1  0.08877500  0.50000000  0.50000000  1
  Co  Co4  1  0.87649100  0.00000000  0.50000000  1
  Co  Co5  1  0.50000000  0.26021800  0.25000000  1
  Co  Co6  1  0.50000000  0.19734100  0.75000000  1
  Co  Co7  1  0.50000000  0.80265900  0.25000000  1
  Co  Co8  1  0.50000000  0.73978200  0.75000000  1
  Co  Co9  1  0.12350900  0.00000000  0.00000000  1
  Co  Co10  1  0.37649100  0.50000000  0.50000000  1
  Co  Co11  1  0.00000000  0.76021800  0.25000000  1
  Co  Co12  1  0.00000000  0.69734100  0.75000000  1
  Co  Co13  1  0.00000000  0.30265900  0.25000000  1
  Co  Co14  1  0.00000000  0.23978200  0.75000000  1
  Co  Co15  1  0.62350900  0.50000000  0.00000000  1
  P  P16  1  0.55464100  0.29149600  0.51316900  1
  P  P17  1  0.55464100  0.70850400  0.48683100  1
  P  P18  1  0.75984250  0.94057250  0.28017000  1
  P  P19  1  0.44535900  0.29149600  0.98683100  1
  P  P20  1  0.75984250  0.05942750  0.71983000  1
  P  P21  1  0.77057900  0.14093300  0.18439600  1
  P  P22  1  0.22942100  0.85906700  0.68439600  1
  P  P23  1  0.22942100  0.14093300  0.31560400  1
  P  P24  1  0.24015750  0.94057250  0.21983000  1
  P  P25  1  0.77057900  0.85906700  0.81560400  1
  P  P26  1  0.44535900  0.70850400  0.01316900  1
  P  P27  1  0.24015750  0.05942750  0.78017000  1
  P  P28  1  0.05464100  0.79149600  0.51316900  1
  P  P29  1  0.05464100  0.20850400  0.48683100  1
  P  P30  1  0.25984250  0.44057250  0.28017000  1
  P  P31  1  0.94535900  0.79149600  0.98683100  1
  P  P32  1  0.25984250  0.55942750  0.71983000  1
  P  P33  1  0.27057900  0.64093300  0.18439600  1
  P  P34  1  0.72942100  0.35906700  0.68439600  1
  P  P35  1  0.72942100  0.64093300  0.31560400  1
  P  P36  1  0.74015750  0.44057250  0.21983000  1
  P  P37  1  0.27057900  0.35906700  0.81560400  1
  P  P38  1  0.94535900  0.20850400  0.01316900  1
  P  P39  1  0.74015750  0.55942750  0.78017000  1
  O  O40  1  0.81555450  0.02533050  0.19622700  1
  O  O41  1  0.80669250  0.83753250  0.94168800  1
  O  O42  1  0.73379100  0.99379700  0.39233600  1
  O  O43  1  0.73379100  0.00620300  0.60766400  1
  O  O44  1  0.80669250  0.16246750  0.05831200  1
  O  O45  1  0.81555450  0.97466950  0.80377300  1
  O  O46  1  0.18444550  0.97466950  0.69622700  1
  O  O47  1  0.18444550  0.02533050  0.30377300  1
  O  O48  1  0.19330750  0.16246750  0.44168800  1
  O  O49  1  0.19330750  0.83753250  0.55831200  1
  O  O50  1  0.26620900  0.99379700  0.10766400  1
  O  O51  1  0.26620900  0.00620300  0.89233600  1
  O  O52  1  0.35823750  0.70153550  0.25871400  1
  O  O53  1  0.47963250  0.20025350  0.91727300  1
  O  O54  1  0.36785800  0.36456200  0.29506100  1
  O  O55  1  0.36785800  0.63543800  0.70493900  1
  O  O56  1  0.36844500  0.09323100  0.72936400  1
  O  O57  1  0.36844500  0.90676900  0.27063600  1
  O  O58  1  0.37597800  0.14853200  0.30182800  1
  O  O59  1  0.37597800  0.85146800  0.69817200  1
  O  O60  1  0.41952200  0.73571000  0.89497700  1
  O  O61  1  0.41952200  0.26429000  0.10502300  1
  O  O62  1  0.45543350  0.62071750  0.47423900  1
  O  O63  1  0.45543350  0.37928250  0.52576100  1
  O  O64  1  0.64176250  0.70153550  0.24128600  1
  O  O65  1  0.47963250  0.79974650  0.08272700  1
  O  O66  1  0.52036750  0.79974650  0.41727300  1
  O  O67  1  0.52036750  0.20025350  0.58272700  1
  O  O68  1  0.54456650  0.37928250  0.97423900  1
  O  O69  1  0.54456650  0.62071750  0.02576100  1
  O  O70  1  0.58047800  0.26429000  0.39497700  1
  O  O71  1  0.58047800  0.73571000  0.60502300  1
  O  O72  1  0.62402200  0.85146800  0.80182800  1
  O  O73  1  0.62402200  0.14853200  0.19817200  1
  O  O74  1  0.63155500  0.90676900  0.22936400  1
  O  O75  1  0.63155500  0.09323100  0.77063600  1
  O  O76  1  0.63214200  0.63543800  0.79506100  1
  O  O77  1  0.63214200  0.36456200  0.20493900  1
  O  O78  1  0.64176250  0.29846450  0.75871400  1
  O  O79  1  0.35823750  0.29846450  0.74128600  1
  O  O80  1  0.31555450  0.52533050  0.19622700  1
  O  O81  1  0.30669250  0.33753250  0.94168800  1
  O  O82  1  0.23379100  0.49379700  0.39233600  1
  O  O83  1  0.23379100  0.50620300  0.60766400  1
  O  O84  1  0.30669250  0.66246750  0.05831200  1
  O  O85  1  0.31555450  0.47466950  0.80377300  1
  O  O86  1  0.68444550  0.47466950  0.69622700  1
  O  O87  1  0.68444550  0.52533050  0.30377300  1
  O  O88  1  0.69330750  0.66246750  0.44168800  1
  O  O89  1  0.69330750  0.33753250  0.55831200  1
  O  O90  1  0.76620900  0.49379700  0.10766400  1
  O  O91  1  0.76620900  0.50620300  0.89233600  1
  O  O92  1  0.85823750  0.20153550  0.25871400  1
  O  O93  1  0.97963250  0.70025350  0.91727300  1
  O  O94  1  0.86785800  0.86456200  0.29506100  1
  O  O95  1  0.86785800  0.13543800  0.70493900  1
  O  O96  1  0.86844500  0.59323100  0.72936400  1
  O  O97  1  0.86844500  0.40676900  0.27063600  1
  O  O98  1  0.87597800  0.64853200  0.30182800  1
  O  O99  1  0.87597800  0.35146800  0.69817200  1
  O  O100  1  0.91952200  0.23571000  0.89497700  1
  O  O101  1  0.91952200  0.76429000  0.10502300  1
  O  O102  1  0.95543350  0.12071750  0.47423900  1
  O  O103  1  0.95543350  0.87928250  0.52576100  1
  O  O104  1  0.14176250  0.20153550  0.24128600  1
  O  O105  1  0.97963250  0.29974650  0.08272700  1
  O  O106  1  0.02036750  0.29974650  0.41727300  1
  O  O107  1  0.02036750  0.70025350  0.58272700  1
  O  O108  1  0.04456650  0.87928250  0.97423900  1
  O  O109  1  0.04456650  0.12071750  0.02576100  1
  O  O110  1  0.08047800  0.76429000  0.39497700  1
  O  O111  1  0.08047800  0.23571000  0.60502300  1
  O  O112  1  0.12402200  0.35146800  0.80182800  1
  O  O113  1  0.12402200  0.64853200  0.19817200  1
  O  O114  1  0.13155500  0.40676900  0.22936400  1
  O  O115  1  0.13155500  0.59323100  0.77063600  1
  O  O116  1  0.13214200  0.13543800  0.79506100  1
  O  O117  1  0.13214200  0.86456200  0.20493900  1
  O  O118  1  0.14176250  0.79846450  0.75871400  1
  O  O119  1  0.85823750  0.79846450  0.74128600  1
