# generated using pymatgen
data_Fe2MoO4
_symmetry_space_group_name_H-M   'P 1'
_cell_length_a   6.08737100
_cell_length_b   6.33787185
_cell_length_c   8.71775918
_cell_angle_alpha   90.00000000
_cell_angle_beta   90.00000000
_cell_angle_gamma   90.00000000
_symmetry_Int_Tables_number   1
_chemical_formula_structural   Fe2MoO4
_chemical_formula_sum   'Fe8 Mo4 O16'
_cell_volume   336.33966912
_cell_formula_units_Z   4
loop_
 _symmetry_equiv_pos_site_id
 _symmetry_equiv_pos_as_xyz
  1  'x, y, z'
loop_
 _atom_site_type_symbol
 _atom_site_label
 _atom_site_symmetry_multiplicity
 _atom_site_fract_x
 _atom_site_fract_y
 _atom_site_fract_z
 _atom_site_occupancy
  Fe  Fe0  1  0.00000000  0.75000000  0.86746900  1
  Fe  Fe1  1  0.50000000  0.75000000  0.63253100  1
  Fe  Fe2  1  0.75000000  0.75000000  0.25000000  1
  Fe  Fe3  1  0.25000000  0.75000000  0.25000000  1
  Fe  Fe4  1  0.50000000  0.25000000  0.36746900  1
  Fe  Fe5  1  0.00000000  0.25000000  0.13253100  1
  Fe  Fe6  1  0.25000000  0.25000000  0.75000000  1
  Fe  Fe7  1  0.75000000  0.25000000  0.75000000  1
  Mo  Mo8  1  0.00000000  0.00000000  0.50000000  1
  Mo  Mo9  1  0.00000000  0.50000000  0.50000000  1
  Mo  Mo10  1  0.50000000  0.50000000  0.00000000  1
  Mo  Mo11  1  0.50000000  0.00000000  0.00000000  1
  O  O12  1  0.75569300  0.75000000  0.49864400  1
  O  O13  1  0.24430700  0.75000000  0.49864400  1
  O  O14  1  0.00000000  0.99450800  0.25087500  1
  O  O15  1  0.00000000  0.50549200  0.25087500  1
  O  O16  1  0.50000000  0.99450800  0.24912500  1
  O  O17  1  0.50000000  0.50549200  0.24912500  1
  O  O18  1  0.25569300  0.75000000  0.00135600  1
  O  O19  1  0.74430700  0.75000000  0.00135600  1
  O  O20  1  0.25569300  0.25000000  0.99864400  1
  O  O21  1  0.74430700  0.25000000  0.99864400  1
  O  O22  1  0.50000000  0.49450800  0.75087500  1
  O  O23  1  0.50000000  0.00549200  0.75087500  1
  O  O24  1  0.00000000  0.49450800  0.74912500  1
  O  O25  1  0.00000000  0.00549200  0.74912500  1
  O  O26  1  0.75569300  0.25000000  0.50135600  1
  O  O27  1  0.24430700  0.25000000  0.50135600  1
