# generated using pymatgen
data_Na2RuO3
_symmetry_space_group_name_H-M   'P 1'
_cell_length_a   5.49165200
_cell_length_b   9.51227800
_cell_length_c   5.66968324
_cell_angle_alpha   90.00000000
_cell_angle_beta   109.08492336
_cell_angle_gamma   90.00000000
_symmetry_Int_Tables_number   1
_chemical_formula_structural   Na2RuO3
_chemical_formula_sum   'Na8 Ru4 O12'
_cell_volume   279.89440932
_cell_formula_units_Z   4
loop_
 _symmetry_equiv_pos_site_id
 _symmetry_equiv_pos_as_xyz
  1  'x, y, z'
loop_
 _atom_site_type_symbol
 _atom_site_label
 _atom_site_symmetry_multiplicity
 _atom_site_fract_x
 _atom_site_fract_y
 _atom_site_fract_z
 _atom_site_occupancy
  Na  Na0  1  0.50000000  0.83963100  0.50000000  1
  Na  Na1  1  0.00000000  0.66036900  0.50000000  1
  Na  Na2  1  0.00000000  0.00000000  0.50000000  1
  Na  Na3  1  0.50000000  0.00000000  0.00000000  1
  Na  Na4  1  0.00000000  0.33963100  0.50000000  1
  Na  Na5  1  0.50000000  0.16036900  0.50000000  1
  Na  Na6  1  0.50000000  0.50000000  0.50000000  1
  Na  Na7  1  0.00000000  0.50000000  0.00000000  1
  Ru  Ru8  1  0.00000000  0.83316900  0.00000000  1
  Ru  Ru9  1  0.50000000  0.66683100  0.00000000  1
  Ru  Ru10  1  0.50000000  0.33316900  0.00000000  1
  Ru  Ru11  1  0.00000000  0.16683100  0.00000000  1
  O  O12  1  0.24628450  0.81522750  0.79638600  1
  O  O13  1  0.74628450  0.68477250  0.79638600  1
  O  O14  1  0.79900400  0.00000000  0.79309400  1
  O  O15  1  0.25371550  0.68477250  0.20361400  1
  O  O16  1  0.20099600  0.00000000  0.20690600  1
  O  O17  1  0.75371550  0.81522750  0.20361400  1
  O  O18  1  0.74628450  0.31522750  0.79638600  1
  O  O19  1  0.24628450  0.18477250  0.79638600  1
  O  O20  1  0.29900400  0.50000000  0.79309400  1
  O  O21  1  0.75371550  0.18477250  0.20361400  1
  O  O22  1  0.70099600  0.50000000  0.20690600  1
  O  O23  1  0.25371550  0.31522750  0.20361400  1
