# generated using pymatgen
data_Li3Mn2(PO4)3
_symmetry_space_group_name_H-M   'P 1'
_cell_length_a   8.49939256
_cell_length_b   8.49939256
_cell_length_c   22.84591270
_cell_angle_alpha   90.00000000
_cell_angle_beta   90.00000000
_cell_angle_gamma   120.00000000
_symmetry_Int_Tables_number   1
_chemical_formula_structural   Li3Mn2(PO4)3
_chemical_formula_sum   'Li18 Mn12 P18 O72'
_cell_volume   1429.27211576
_cell_formula_units_Z   6
loop_
 _symmetry_equiv_pos_site_id
 _symmetry_equiv_pos_as_xyz
  1  'x, y, z'
loop_
 _atom_site_type_symbol
 _atom_site_label
 _atom_site_symmetry_multiplicity
 _atom_site_fract_x
 _atom_site_fract_y
 _atom_site_fract_z
 _atom_site_occupancy
  Li  Li0  1  0.37956867  0.01840733  0.28286233  1
  Li  Li1  1  0.28709800  0.31492600  0.05047100  1
  Li  Li2  1  0.63883867  0.62043133  0.28286233  1
  Li  Li3  1  0.68507400  0.97217200  0.05047100  1
  Li  Li4  1  0.98159267  0.36116133  0.28286233  1
  Li  Li5  1  0.02782800  0.71290200  0.05047100  1
  Li  Li6  1  0.04623533  0.35174067  0.61619567  1
  Li  Li7  1  0.95376467  0.64825933  0.38380433  1
  Li  Li8  1  0.30550533  0.95376467  0.61619567  1
  Li  Li9  1  0.35174067  0.30550533  0.38380433  1
  Li  Li10  1  0.64825933  0.69449467  0.61619567  1
  Li  Li11  1  0.69449467  0.04623533  0.38380433  1
  Li  Li12  1  0.71290200  0.68507400  0.94952900  1
  Li  Li13  1  0.62043133  0.98159267  0.71713767  1
  Li  Li14  1  0.97217200  0.28709800  0.94952900  1
  Li  Li15  1  0.01840733  0.63883867  0.71713767  1
  Li  Li16  1  0.31492600  0.02782800  0.94952900  1
  Li  Li17  1  0.36116133  0.37956867  0.71713767  1
  Mn  Mn18  1  0.33333333  0.66666667  0.32009767  1
  Mn  Mn19  1  0.33333333  0.66666667  0.01323567  1
  Mn  Mn20  1  0.66666667  0.33333333  0.18715233  1
  Mn  Mn21  1  0.00000000  0.00000000  0.14618100  1
  Mn  Mn22  1  0.00000000  0.00000000  0.65343100  1
  Mn  Mn23  1  0.00000000  0.00000000  0.34656900  1
  Mn  Mn24  1  0.33333333  0.66666667  0.52048567  1
  Mn  Mn25  1  0.66666667  0.33333333  0.47951433  1
  Mn  Mn26  1  0.66666667  0.33333333  0.98676433  1
  Mn  Mn27  1  0.66666667  0.33333333  0.67990233  1
  Mn  Mn28  1  0.00000000  0.00000000  0.85381900  1
  Mn  Mn29  1  0.33333333  0.66666667  0.81284767  1
  P  P30  1  0.00240033  0.70870567  0.25014267  1
  P  P31  1  0.66426633  0.62462767  0.08319067  1
  P  P32  1  0.96036133  0.33573367  0.08319067  1
  P  P33  1  0.37537233  0.03963867  0.08319067  1
  P  P34  1  0.29129433  0.29369467  0.25014267  1
  P  P35  1  0.70630533  0.99759967  0.25014267  1
  P  P36  1  0.66906700  0.04203900  0.58347600  1
  P  P37  1  0.33093300  0.95796100  0.41652400  1
  P  P38  1  0.62702800  0.66906700  0.41652400  1
  P  P39  1  0.04203900  0.37297200  0.41652400  1
  P  P40  1  0.95796100  0.62702800  0.58347600  1
  P  P41  1  0.37297200  0.33093300  0.58347600  1
  P  P42  1  0.33573367  0.37537233  0.91680933  1
  P  P43  1  0.99759967  0.29129433  0.74985733  1
  P  P44  1  0.29369467  0.00240033  0.74985733  1
  P  P45  1  0.70870567  0.70630533  0.74985733  1
  P  P46  1  0.62462767  0.96036133  0.91680933  1
  P  P47  1  0.03963867  0.66426633  0.91680933  1
  O  O48  1  0.75859633  0.57383167  0.03224567  1
  O  O49  1  0.65831533  0.52971067  0.14026367  1
  O  O50  1  0.23622300  0.43564100  0.26850000  1
  O  O51  1  0.90807033  0.75950167  0.30108767  1
  O  O52  1  0.46724867  0.56955633  0.06483333  1
  O  O53  1  0.43044367  0.89769233  0.06483333  1
  O  O54  1  0.16585733  0.95041367  0.08738167  1
  O  O55  1  0.88211033  0.49919067  0.24595167  1
  O  O56  1  0.42616833  0.18476467  0.03224567  1
  O  O57  1  0.10230767  0.53275133  0.06483333  1
  O  O58  1  0.19637733  0.20472867  0.19306967  1
  O  O59  1  0.00835133  0.80362267  0.19306967  1
  O  O60  1  0.81523533  0.24140367  0.03224567  1
  O  O61  1  0.04958633  0.21544367  0.08738167  1
  O  O62  1  0.24049833  0.14856867  0.30108767  1
  O  O63  1  0.19941800  0.76377700  0.26850000  1
  O  O64  1  0.87139533  0.34168467  0.14026367  1
  O  O65  1  0.85143133  0.09192967  0.30108767  1
  O  O66  1  0.47028933  0.12860467  0.14026367  1
  O  O67  1  0.79527133  0.99164867  0.19306967  1
  O  O68  1  0.61708033  0.11788967  0.24595167  1
  O  O69  1  0.78455633  0.83414267  0.08738167  1
  O  O70  1  0.56435900  0.80058200  0.26850000  1
  O  O71  1  0.50080933  0.38291967  0.24595167  1
  O  O72  1  0.42526300  0.90716500  0.36557900  1
  O  O73  1  0.32498200  0.86304400  0.47359700  1
  O  O74  1  0.90288967  0.76897433  0.60183333  1
  O  O75  1  0.57473700  0.09283500  0.63442100  1
  O  O76  1  0.13391533  0.90288967  0.39816667  1
  O  O77  1  0.09711033  0.23102567  0.39816667  1
  O  O78  1  0.83252400  0.28374700  0.42071500  1
  O  O79  1  0.54877700  0.83252400  0.57928500  1
  O  O80  1  0.09283500  0.51809800  0.36557900  1
  O  O81  1  0.76897433  0.86608467  0.39816667  1
  O  O82  1  0.86304400  0.53806200  0.52640300  1
  O  O83  1  0.67501800  0.13695600  0.52640300  1
  O  O84  1  0.48190200  0.57473700  0.36557900  1
  O  O85  1  0.71625300  0.54877700  0.42071500  1
  O  O86  1  0.90716500  0.48190200  0.63442100  1
  O  O87  1  0.86608467  0.09711033  0.60183333  1
  O  O88  1  0.53806200  0.67501800  0.47359700  1
  O  O89  1  0.51809800  0.42526300  0.63442100  1
  O  O90  1  0.13695600  0.46193800  0.47359700  1
  O  O91  1  0.46193800  0.32498200  0.52640300  1
  O  O92  1  0.28374700  0.45122300  0.57928500  1
  O  O93  1  0.45122300  0.16747600  0.42071500  1
  O  O94  1  0.23102567  0.13391533  0.60183333  1
  O  O95  1  0.16747600  0.71625300  0.57928500  1
  O  O96  1  0.09192967  0.24049833  0.69891233  1
  O  O97  1  0.99164867  0.19637733  0.80693033  1
  O  O98  1  0.56955633  0.10230767  0.93516667  1
  O  O99  1  0.24140367  0.42616833  0.96775433  1
  O  O100  1  0.80058200  0.23622300  0.73150000  1
  O  O101  1  0.76377700  0.56435900  0.73150000  1
  O  O102  1  0.49919067  0.61708033  0.75404833  1
  O  O103  1  0.21544367  0.16585733  0.91261833  1
  O  O104  1  0.75950167  0.85143133  0.69891233  1
  O  O105  1  0.43564100  0.19941800  0.73150000  1
  O  O106  1  0.52971067  0.87139533  0.85973633  1
  O  O107  1  0.34168467  0.47028933  0.85973633  1
  O  O108  1  0.14856867  0.90807033  0.69891233  1
  O  O109  1  0.38291967  0.88211033  0.75404833  1
  O  O110  1  0.57383167  0.81523533  0.96775433  1
  O  O111  1  0.53275133  0.43044367  0.93516667  1
  O  O112  1  0.20472867  0.00835133  0.80693033  1
  O  O113  1  0.18476467  0.75859633  0.96775433  1
  O  O114  1  0.80362267  0.79527133  0.80693033  1
  O  O115  1  0.12860467  0.65831533  0.85973633  1
  O  O116  1  0.95041367  0.78455633  0.91261833  1
  O  O117  1  0.11788967  0.50080933  0.75404833  1
  O  O118  1  0.89769233  0.46724867  0.93516667  1
  O  O119  1  0.83414267  0.04958633  0.91261833  1
