# generated using pymatgen
data_K5Sb4
_symmetry_space_group_name_H-M   'P 1'
_cell_length_a   12.56551200
_cell_length_b   5.53623800
_cell_length_c   11.41641912
_cell_angle_alpha   90.00000000
_cell_angle_beta   111.56317474
_cell_angle_gamma   90.00000000
_symmetry_Int_Tables_number   1
_chemical_formula_structural   K5Sb4
_chemical_formula_sum   'K10 Sb8'
_cell_volume   738.60767444
_cell_formula_units_Z   2
loop_
 _symmetry_equiv_pos_site_id
 _symmetry_equiv_pos_as_xyz
  1  'x, y, z'
loop_
 _atom_site_type_symbol
 _atom_site_label
 _atom_site_symmetry_multiplicity
 _atom_site_fract_x
 _atom_site_fract_y
 _atom_site_fract_z
 _atom_site_occupancy
  K  K0  1  0.89960600  0.00000000  0.60866400  1
  K  K1  1  0.10039400  0.00000000  0.39133600  1
  K  K2  1  0.24522600  0.00000000  0.83406300  1
  K  K3  1  0.75477400  0.00000000  0.16593700  1
  K  K4  1  0.00000000  0.00000000  0.00000000  1
  K  K5  1  0.39960600  0.50000000  0.60866400  1
  K  K6  1  0.60039400  0.50000000  0.39133600  1
  K  K7  1  0.74522600  0.50000000  0.83406300  1
  K  K8  1  0.25477400  0.50000000  0.16593700  1
  K  K9  1  0.50000000  0.50000000  0.00000000  1
  Sb  Sb10  1  0.04391200  0.50000000  0.82410400  1
  Sb  Sb11  1  0.95608800  0.50000000  0.17589600  1
  Sb  Sb12  1  0.10475100  0.50000000  0.60835300  1
  Sb  Sb13  1  0.89524900  0.50000000  0.39164700  1
  Sb  Sb14  1  0.54391200  0.00000000  0.82410400  1
  Sb  Sb15  1  0.45608800  0.00000000  0.17589600  1
  Sb  Sb16  1  0.60475100  0.00000000  0.60835300  1
  Sb  Sb17  1  0.39524900  0.00000000  0.39164700  1
