# generated using pymatgen
data_LiCo(PO3)4
_symmetry_space_group_name_H-M   'P 1'
_cell_length_a   8.10795400
_cell_length_b   11.42198400
_cell_length_c   9.64301868
_cell_angle_alpha   90.00000000
_cell_angle_beta   92.23409300
_cell_angle_gamma   90.00000000
_symmetry_Int_Tables_number   1
_chemical_formula_structural   LiCo(PO3)4
_chemical_formula_sum   'Li4 Co4 P16 O48'
_cell_volume   892.35076004
_cell_formula_units_Z   4
loop_
 _symmetry_equiv_pos_site_id
 _symmetry_equiv_pos_as_xyz
  1  'x, y, z'
loop_
 _atom_site_type_symbol
 _atom_site_label
 _atom_site_symmetry_multiplicity
 _atom_site_fract_x
 _atom_site_fract_y
 _atom_site_fract_z
 _atom_site_occupancy
  Li  Li0  1  0.50000000  0.15801400  0.75000000  1
  Li  Li1  1  0.50000000  0.84198600  0.25000000  1
  Li  Li2  1  0.00000000  0.65801400  0.75000000  1
  Li  Li3  1  0.00000000  0.34198600  0.25000000  1
  Co  Co4  1  0.50000000  0.11601200  0.25000000  1
  Co  Co5  1  0.50000000  0.88398800  0.75000000  1
  Co  Co6  1  0.00000000  0.61601200  0.25000000  1
  Co  Co7  1  0.00000000  0.38398800  0.75000000  1
  P  P8  1  0.26117400  0.96429400  0.47067400  1
  P  P9  1  0.54417200  0.68115700  0.53061800  1
  P  P10  1  0.26117400  0.03570600  0.97067400  1
  P  P11  1  0.73882600  0.03570600  0.52932600  1
  P  P12  1  0.73882600  0.96429400  0.02932600  1
  P  P13  1  0.45582800  0.68115700  0.96938200  1
  P  P14  1  0.45582800  0.31884300  0.46938200  1
  P  P15  1  0.54417200  0.31884300  0.03061800  1
  P  P16  1  0.76117400  0.46429400  0.47067400  1
  P  P17  1  0.04417200  0.18115700  0.53061800  1
  P  P18  1  0.76117400  0.53570600  0.97067400  1
  P  P19  1  0.23882600  0.53570600  0.52932600  1
  P  P20  1  0.23882600  0.46429400  0.02932600  1
  P  P21  1  0.95582800  0.18115700  0.96938200  1
  P  P22  1  0.95582800  0.81884300  0.46938200  1
  P  P23  1  0.04417200  0.81884300  0.03061800  1
  O  O24  1  0.37320600  0.98189900  0.35080900  1
  O  O25  1  0.32981850  0.09803850  0.09826500  1
  O  O26  1  0.49487200  0.26767100  0.89493600  1
  O  O27  1  0.67018150  0.09803850  0.40173500  1
  O  O28  1  0.39653950  0.60389350  0.59311300  1
  O  O29  1  0.50512800  0.26767100  0.60506400  1
  O  O30  1  0.60346050  0.60389350  0.90688700  1
  O  O31  1  0.39199550  0.76104450  0.85340400  1
  O  O32  1  0.49487200  0.73232900  0.39493600  1
  O  O33  1  0.60800450  0.76104450  0.64659600  1
  O  O34  1  0.18926900  0.08592500  0.52104500  1
  O  O35  1  0.18926900  0.91407500  0.02104500  1
  O  O36  1  0.37320600  0.01810100  0.85080900  1
  O  O37  1  0.50512800  0.73232900  0.10506400  1
  O  O38  1  0.67018150  0.90196150  0.90173500  1
  O  O39  1  0.81073100  0.08592500  0.97895500  1
  O  O40  1  0.60800450  0.23895550  0.14659600  1
  O  O41  1  0.60346050  0.39610650  0.40688700  1
  O  O42  1  0.32981850  0.90196150  0.59826500  1
  O  O43  1  0.39199550  0.23895550  0.35340400  1
  O  O44  1  0.62679400  0.98189900  0.14919100  1
  O  O45  1  0.39653950  0.39610650  0.09311300  1
  O  O46  1  0.81073100  0.91407500  0.47895500  1
  O  O47  1  0.62679400  0.01810100  0.64919100  1
  O  O48  1  0.87320600  0.48189900  0.35080900  1
  O  O49  1  0.82981850  0.59803850  0.09826500  1
  O  O50  1  0.99487200  0.76767100  0.89493600  1
  O  O51  1  0.17018150  0.59803850  0.40173500  1
  O  O52  1  0.89653950  0.10389350  0.59311300  1
  O  O53  1  0.00512800  0.76767100  0.60506400  1
  O  O54  1  0.10346050  0.10389350  0.90688700  1
  O  O55  1  0.89199550  0.26104450  0.85340400  1
  O  O56  1  0.99487200  0.23232900  0.39493600  1
  O  O57  1  0.10800450  0.26104450  0.64659600  1
  O  O58  1  0.68926900  0.58592500  0.52104500  1
  O  O59  1  0.68926900  0.41407500  0.02104500  1
  O  O60  1  0.87320600  0.51810100  0.85080900  1
  O  O61  1  0.00512800  0.23232900  0.10506400  1
  O  O62  1  0.17018150  0.40196150  0.90173500  1
  O  O63  1  0.31073100  0.58592500  0.97895500  1
  O  O64  1  0.10800450  0.73895550  0.14659600  1
  O  O65  1  0.10346050  0.89610650  0.40688700  1
  O  O66  1  0.82981850  0.40196150  0.59826500  1
  O  O67  1  0.89199550  0.73895550  0.35340400  1
  O  O68  1  0.12679400  0.48189900  0.14919100  1
  O  O69  1  0.89653950  0.89610650  0.09311300  1
  O  O70  1  0.31073100  0.41407500  0.47895500  1
  O  O71  1  0.12679400  0.51810100  0.64919100  1
