# generated using pymatgen
data_NdMg12
_symmetry_space_group_name_H-M   'P 1'
_cell_length_a   10.22895000
_cell_length_b   10.22895000
_cell_length_c   6.01451600
_cell_angle_alpha   90.00000000
_cell_angle_beta   90.00000000
_cell_angle_gamma   90.00000000
_symmetry_Int_Tables_number   1
_chemical_formula_structural   NdMg12
_chemical_formula_sum   'Nd2 Mg24'
_cell_volume   629.30733828
_cell_formula_units_Z   2
loop_
 _symmetry_equiv_pos_site_id
 _symmetry_equiv_pos_as_xyz
  1  'x, y, z'
loop_
 _atom_site_type_symbol
 _atom_site_label
 _atom_site_symmetry_multiplicity
 _atom_site_fract_x
 _atom_site_fract_y
 _atom_site_fract_z
 _atom_site_occupancy
  Nd  Nd0  1  0.00000000  0.00000000  0.00000000  1
  Nd  Nd1  1  0.50000000  0.50000000  0.50000000  1
  Mg  Mg2  1  0.21678300  0.00000000  0.50000000  1
  Mg  Mg3  1  0.50000000  0.14699400  0.50000000  1
  Mg  Mg4  1  0.64699400  0.00000000  0.00000000  1
  Mg  Mg5  1  0.35300600  0.00000000  0.00000000  1
  Mg  Mg6  1  0.50000000  0.28321700  0.00000000  1
  Mg  Mg7  1  0.75000000  0.25000000  0.75000000  1
  Mg  Mg8  1  0.78321700  0.00000000  0.50000000  1
  Mg  Mg9  1  0.75000000  0.75000000  0.75000000  1
  Mg  Mg10  1  0.50000000  0.85300600  0.50000000  1
  Mg  Mg11  1  0.50000000  0.71678300  0.00000000  1
  Mg  Mg12  1  0.75000000  0.75000000  0.25000000  1
  Mg  Mg13  1  0.75000000  0.25000000  0.25000000  1
  Mg  Mg14  1  0.71678300  0.50000000  0.00000000  1
  Mg  Mg15  1  0.00000000  0.64699400  0.00000000  1
  Mg  Mg16  1  0.14699400  0.50000000  0.50000000  1
  Mg  Mg17  1  0.85300600  0.50000000  0.50000000  1
  Mg  Mg18  1  0.00000000  0.78321700  0.50000000  1
  Mg  Mg19  1  0.25000000  0.75000000  0.25000000  1
  Mg  Mg20  1  0.28321700  0.50000000  0.00000000  1
  Mg  Mg21  1  0.25000000  0.25000000  0.25000000  1
  Mg  Mg22  1  0.00000000  0.35300600  0.00000000  1
  Mg  Mg23  1  0.00000000  0.21678300  0.50000000  1
  Mg  Mg24  1  0.25000000  0.25000000  0.75000000  1
  Mg  Mg25  1  0.25000000  0.75000000  0.75000000  1
