# generated using pymatgen
data_Ce2CdS4
_symmetry_space_group_name_H-M   'P 1'
_cell_length_a   8.43552400
_cell_length_b   8.43552400
_cell_length_c   8.85402400
_cell_angle_alpha   90.00000000
_cell_angle_beta   90.00000000
_cell_angle_gamma   90.00000000
_symmetry_Int_Tables_number   1
_chemical_formula_structural   Ce2CdS4
_chemical_formula_sum   'Ce8 Cd4 S16'
_cell_volume   630.03521667
_cell_formula_units_Z   4
loop_
 _symmetry_equiv_pos_site_id
 _symmetry_equiv_pos_as_xyz
  1  'x, y, z'
loop_
 _atom_site_type_symbol
 _atom_site_label
 _atom_site_symmetry_multiplicity
 _atom_site_fract_x
 _atom_site_fract_y
 _atom_site_fract_z
 _atom_site_occupancy
  Ce  Ce0  1  0.36095900  0.75000000  0.62500000  1
  Ce  Ce1  1  0.25000000  0.36095900  0.37500000  1
  Ce  Ce2  1  0.13904100  0.75000000  0.12500000  1
  Ce  Ce3  1  0.25000000  0.13904100  0.87500000  1
  Ce  Ce4  1  0.86095900  0.25000000  0.12500000  1
  Ce  Ce5  1  0.75000000  0.86095900  0.87500000  1
  Ce  Ce6  1  0.63904100  0.25000000  0.62500000  1
  Ce  Ce7  1  0.75000000  0.63904100  0.37500000  1
  Cd  Cd8  1  0.50000000  0.00000000  0.25000000  1
  Cd  Cd9  1  0.00000000  0.00000000  0.50000000  1
  Cd  Cd10  1  0.00000000  0.50000000  0.75000000  1
  Cd  Cd11  1  0.50000000  0.50000000  0.00000000  1
  S  S12  1  0.57068800  0.19219500  0.93817300  1
  S  S13  1  0.80780500  0.92931200  0.18817300  1
  S  S14  1  0.30780500  0.07068800  0.56182700  1
  S  S15  1  0.19219500  0.07068800  0.18817300  1
  S  S16  1  0.57068800  0.30780500  0.31182700  1
  S  S17  1  0.42931200  0.69219500  0.31182700  1
  S  S18  1  0.19219500  0.42931200  0.06182700  1
  S  S19  1  0.92931200  0.30780500  0.43817300  1
  S  S20  1  0.07068800  0.69219500  0.43817300  1
  S  S21  1  0.30780500  0.42931200  0.68817300  1
  S  S22  1  0.80780500  0.57068800  0.06182700  1
  S  S23  1  0.69219500  0.57068800  0.68817300  1
  S  S24  1  0.07068800  0.80780500  0.81182700  1
  S  S25  1  0.92931200  0.19219500  0.81182700  1
  S  S26  1  0.69219500  0.92931200  0.56182700  1
  S  S27  1  0.42931200  0.80780500  0.93817300  1
