# generated using pymatgen
data_Li2(LuGe)3
_symmetry_space_group_name_H-M   'P 1'
_cell_length_a   4.13240800
_cell_length_b   11.16940000
_cell_length_c   13.88789100
_cell_angle_alpha   90.00000000
_cell_angle_beta   90.00000000
_cell_angle_gamma   90.00000000
_symmetry_Int_Tables_number   1
_chemical_formula_structural   Li2(LuGe)3
_chemical_formula_sum   'Li8 Lu12 Ge12'
_cell_volume   641.01668975
_cell_formula_units_Z   4
loop_
 _symmetry_equiv_pos_site_id
 _symmetry_equiv_pos_as_xyz
  1  'x, y, z'
loop_
 _atom_site_type_symbol
 _atom_site_label
 _atom_site_symmetry_multiplicity
 _atom_site_fract_x
 _atom_site_fract_y
 _atom_site_fract_z
 _atom_site_occupancy
  Li  Li0  1  0.00000000  0.27820400  0.92146800  1
  Li  Li1  1  0.50000000  0.22179600  0.07853200  1
  Li  Li2  1  0.00000000  0.27820400  0.57853200  1
  Li  Li3  1  0.50000000  0.22179600  0.42146800  1
  Li  Li4  1  0.50000000  0.77820400  0.92146800  1
  Li  Li5  1  0.00000000  0.72179600  0.07853200  1
  Li  Li6  1  0.50000000  0.77820400  0.57853200  1
  Li  Li7  1  0.00000000  0.72179600  0.42146800  1
  Lu  Lu8  1  0.00000000  0.13879900  0.25000000  1
  Lu  Lu9  1  0.50000000  0.36120100  0.75000000  1
  Lu  Lu10  1  0.00000000  0.43042300  0.38123100  1
  Lu  Lu11  1  0.50000000  0.06957700  0.61876900  1
  Lu  Lu12  1  0.50000000  0.06957700  0.88123100  1
  Lu  Lu13  1  0.00000000  0.43042300  0.11876900  1
  Lu  Lu14  1  0.50000000  0.63879900  0.25000000  1
  Lu  Lu15  1  0.00000000  0.86120100  0.75000000  1
  Lu  Lu16  1  0.50000000  0.93042300  0.38123100  1
  Lu  Lu17  1  0.00000000  0.56957700  0.61876900  1
  Lu  Lu18  1  0.00000000  0.56957700  0.88123100  1
  Lu  Lu19  1  0.50000000  0.93042300  0.11876900  1
  Ge  Ge20  1  0.50000000  0.33217500  0.25000000  1
  Ge  Ge21  1  0.00000000  0.09949200  0.04519200  1
  Ge  Ge22  1  0.50000000  0.40050800  0.54519200  1
  Ge  Ge23  1  0.00000000  0.09949200  0.45480800  1
  Ge  Ge24  1  0.00000000  0.16782500  0.75000000  1
  Ge  Ge25  1  0.50000000  0.40050800  0.95480800  1
  Ge  Ge26  1  0.00000000  0.83217500  0.25000000  1
  Ge  Ge27  1  0.50000000  0.59949200  0.04519200  1
  Ge  Ge28  1  0.00000000  0.90050800  0.54519200  1
  Ge  Ge29  1  0.50000000  0.59949200  0.45480800  1
  Ge  Ge30  1  0.50000000  0.66782500  0.75000000  1
  Ge  Ge31  1  0.00000000  0.90050800  0.95480800  1
