# generated using pymatgen
data_LaMnSi2
_symmetry_space_group_name_H-M   'P 1'
_cell_length_a   4.16333800
_cell_length_b   17.73626800
_cell_length_c   4.02692500
_cell_angle_alpha   90.00000000
_cell_angle_beta   90.00000000
_cell_angle_gamma   90.00000000
_symmetry_Int_Tables_number   1
_chemical_formula_structural   LaMnSi2
_chemical_formula_sum   'La4 Mn4 Si8'
_cell_volume   297.35651214
_cell_formula_units_Z   4
loop_
 _symmetry_equiv_pos_site_id
 _symmetry_equiv_pos_as_xyz
  1  'x, y, z'
loop_
 _atom_site_type_symbol
 _atom_site_label
 _atom_site_symmetry_multiplicity
 _atom_site_fract_x
 _atom_site_fract_y
 _atom_site_fract_z
 _atom_site_occupancy
  La  La0  1  0.50000000  0.39747200  0.75000000  1
  La  La1  1  0.00000000  0.10252800  0.25000000  1
  La  La2  1  0.00000000  0.89747200  0.75000000  1
  La  La3  1  0.50000000  0.60252800  0.25000000  1
  Mn  Mn4  1  0.50000000  0.25082000  0.25000000  1
  Mn  Mn5  1  0.00000000  0.24918000  0.75000000  1
  Mn  Mn6  1  0.00000000  0.75082000  0.25000000  1
  Mn  Mn7  1  0.50000000  0.74918000  0.75000000  1
  Si  Si8  1  0.50000000  0.17986400  0.75000000  1
  Si  Si9  1  0.00000000  0.32013600  0.25000000  1
  Si  Si10  1  0.00000000  0.46375500  0.25000000  1
  Si  Si11  1  0.50000000  0.03624500  0.75000000  1
  Si  Si12  1  0.00000000  0.67986400  0.75000000  1
  Si  Si13  1  0.50000000  0.82013600  0.25000000  1
  Si  Si14  1  0.50000000  0.96375500  0.25000000  1
  Si  Si15  1  0.00000000  0.53624500  0.75000000  1
