# generated using pymatgen
data_Lu6Ni2Sn
_symmetry_space_group_name_H-M   'P 1'
_cell_length_a   9.12724600
_cell_length_b   9.41139000
_cell_length_c   9.94632400
_cell_angle_alpha   90.00000000
_cell_angle_beta   90.00000000
_cell_angle_gamma   90.00000000
_symmetry_Int_Tables_number   1
_chemical_formula_structural   Lu6Ni2Sn
_chemical_formula_sum   'Lu24 Ni8 Sn4'
_cell_volume   854.38994507
_cell_formula_units_Z   4
loop_
 _symmetry_equiv_pos_site_id
 _symmetry_equiv_pos_as_xyz
  1  'x, y, z'
loop_
 _atom_site_type_symbol
 _atom_site_label
 _atom_site_symmetry_multiplicity
 _atom_site_fract_x
 _atom_site_fract_y
 _atom_site_fract_z
 _atom_site_occupancy
  Lu  Lu0  1  0.19171900  0.00000000  0.67418800  1
  Lu  Lu1  1  0.19171900  0.00000000  0.32581200  1
  Lu  Lu2  1  0.29155400  0.31705100  0.50000000  1
  Lu  Lu3  1  0.79155400  0.18294900  0.00000000  1
  Lu  Lu4  1  0.70844600  0.31705100  0.50000000  1
  Lu  Lu5  1  0.20844600  0.18294900  0.00000000  1
  Lu  Lu6  1  0.30828100  0.50000000  0.17418800  1
  Lu  Lu7  1  0.30828100  0.50000000  0.82581200  1
  Lu  Lu8  1  0.00000000  0.29343050  0.26567650  1
  Lu  Lu9  1  0.50000000  0.20656950  0.23432350  1
  Lu  Lu10  1  0.50000000  0.79343050  0.23432350  1
  Lu  Lu11  1  0.00000000  0.70656950  0.26567650  1
  Lu  Lu12  1  0.69171900  0.50000000  0.17418800  1
  Lu  Lu13  1  0.69171900  0.50000000  0.82581200  1
  Lu  Lu14  1  0.79155400  0.81705100  0.00000000  1
  Lu  Lu15  1  0.29155400  0.68294900  0.50000000  1
  Lu  Lu16  1  0.20844600  0.81705100  0.00000000  1
  Lu  Lu17  1  0.70844600  0.68294900  0.50000000  1
  Lu  Lu18  1  0.80828100  0.00000000  0.67418800  1
  Lu  Lu19  1  0.80828100  0.00000000  0.32581200  1
  Lu  Lu20  1  0.50000000  0.79343050  0.76567650  1
  Lu  Lu21  1  0.00000000  0.70656950  0.73432350  1
  Lu  Lu22  1  0.00000000  0.29343050  0.73432350  1
  Lu  Lu23  1  0.50000000  0.20656950  0.76567650  1
  Ni  Ni24  1  0.50000000  0.34903300  0.00000000  1
  Ni  Ni25  1  0.00000000  0.15096700  0.50000000  1
  Ni  Ni26  1  0.00000000  0.00000000  0.87547600  1
  Ni  Ni27  1  0.00000000  0.00000000  0.12452400  1
  Ni  Ni28  1  0.00000000  0.84903300  0.50000000  1
  Ni  Ni29  1  0.50000000  0.65096700  0.00000000  1
  Ni  Ni30  1  0.50000000  0.50000000  0.37547600  1
  Ni  Ni31  1  0.50000000  0.50000000  0.62452400  1
  Sn  Sn32  1  0.50000000  0.00000000  0.00000000  1
  Sn  Sn33  1  0.00000000  0.50000000  0.00000000  1
  Sn  Sn34  1  0.00000000  0.50000000  0.50000000  1
  Sn  Sn35  1  0.50000000  0.00000000  0.50000000  1
