# generated using pymatgen
data_Na4TlAu
_symmetry_space_group_name_H-M   'P 1'
_cell_length_a   5.53742600
_cell_length_b   10.09882800
_cell_length_c   23.79856800
_cell_angle_alpha   90.00000000
_cell_angle_beta   90.00000000
_cell_angle_gamma   90.00000000
_symmetry_Int_Tables_number   1
_chemical_formula_structural   Na4TlAu
_chemical_formula_sum   'Na32 Tl8 Au8'
_cell_volume   1330.85192353
_cell_formula_units_Z   8
loop_
 _symmetry_equiv_pos_site_id
 _symmetry_equiv_pos_as_xyz
  1  'x, y, z'
loop_
 _atom_site_type_symbol
 _atom_site_label
 _atom_site_symmetry_multiplicity
 _atom_site_fract_x
 _atom_site_fract_y
 _atom_site_fract_z
 _atom_site_occupancy
  Na  Na0  1  0.50000000  0.00000000  0.70549200  1
  Na  Na1  1  0.00000000  0.66377900  0.00000000  1
  Na  Na2  1  0.00000000  0.83303150  0.63766850  1
  Na  Na3  1  0.00000000  0.66696850  0.86233150  1
  Na  Na4  1  0.50000000  0.83303150  0.86233150  1
  Na  Na5  1  0.50000000  0.66696850  0.63766850  1
  Na  Na6  1  0.00000000  0.00000000  0.79450800  1
  Na  Na7  1  0.50000000  0.83622100  0.00000000  1
  Na  Na8  1  0.50000000  0.50000000  0.20549200  1
  Na  Na9  1  0.00000000  0.16377900  0.50000000  1
  Na  Na10  1  0.00000000  0.33303150  0.13766850  1
  Na  Na11  1  0.00000000  0.16696850  0.36233150  1
  Na  Na12  1  0.50000000  0.33303150  0.36233150  1
  Na  Na13  1  0.50000000  0.16696850  0.13766850  1
  Na  Na14  1  0.00000000  0.50000000  0.29450800  1
  Na  Na15  1  0.50000000  0.33622100  0.50000000  1
  Na  Na16  1  0.00000000  0.00000000  0.20549200  1
  Na  Na17  1  0.50000000  0.66377900  0.50000000  1
  Na  Na18  1  0.50000000  0.83303150  0.13766850  1
  Na  Na19  1  0.50000000  0.66696850  0.36233150  1
  Na  Na20  1  0.00000000  0.83303150  0.36233150  1
  Na  Na21  1  0.00000000  0.66696850  0.13766850  1
  Na  Na22  1  0.50000000  0.00000000  0.29450800  1
  Na  Na23  1  0.00000000  0.83622100  0.50000000  1
  Na  Na24  1  0.00000000  0.50000000  0.70549200  1
  Na  Na25  1  0.50000000  0.16377900  0.00000000  1
  Na  Na26  1  0.50000000  0.33303150  0.63766850  1
  Na  Na27  1  0.50000000  0.16696850  0.86233150  1
  Na  Na28  1  0.00000000  0.33303150  0.86233150  1
  Na  Na29  1  0.00000000  0.16696850  0.63766850  1
  Na  Na30  1  0.50000000  0.50000000  0.79450800  1
  Na  Na31  1  0.00000000  0.33622100  0.00000000  1
  Tl  Tl32  1  0.50000000  0.00000000  0.56629600  1
  Tl  Tl33  1  0.00000000  0.00000000  0.93370400  1
  Tl  Tl34  1  0.50000000  0.50000000  0.06629600  1
  Tl  Tl35  1  0.00000000  0.50000000  0.43370400  1
  Tl  Tl36  1  0.00000000  0.00000000  0.06629600  1
  Tl  Tl37  1  0.50000000  0.00000000  0.43370400  1
  Tl  Tl38  1  0.00000000  0.50000000  0.56629600  1
  Tl  Tl39  1  0.50000000  0.50000000  0.93370400  1
  Au  Au40  1  0.25000000  0.75000000  0.75000000  1
  Au  Au41  1  0.75000000  0.75000000  0.75000000  1
  Au  Au42  1  0.25000000  0.25000000  0.25000000  1
  Au  Au43  1  0.75000000  0.25000000  0.25000000  1
  Au  Au44  1  0.75000000  0.75000000  0.25000000  1
  Au  Au45  1  0.25000000  0.75000000  0.25000000  1
  Au  Au46  1  0.75000000  0.25000000  0.75000000  1
  Au  Au47  1  0.25000000  0.25000000  0.75000000  1
