# generated using pymatgen
data_Li13(Ga7Cu2)3
_symmetry_space_group_name_H-M   'P 1'
_cell_length_a   13.64385200
_cell_length_b   13.64385200
_cell_length_c   13.64385200
_cell_angle_alpha   90.00000000
_cell_angle_beta   90.00000000
_cell_angle_gamma   90.00000000
_symmetry_Int_Tables_number   1
_chemical_formula_structural   Li13(Ga7Cu2)3
_chemical_formula_sum   'Li52 Ga84 Cu24'
_cell_volume   2539.86714040
_cell_formula_units_Z   4
loop_
 _symmetry_equiv_pos_site_id
 _symmetry_equiv_pos_as_xyz
  1  'x, y, z'
loop_
 _atom_site_type_symbol
 _atom_site_label
 _atom_site_symmetry_multiplicity
 _atom_site_fract_x
 _atom_site_fract_y
 _atom_site_fract_z
 _atom_site_occupancy
  Li  Li0  1  0.00000000  0.50000000  0.29516500  1
  Li  Li1  1  0.20483500  0.50000000  0.00000000  1
  Li  Li2  1  0.50000000  0.29516500  0.00000000  1
  Li  Li3  1  0.29516500  0.00000000  0.50000000  1
  Li  Li4  1  0.00000000  0.20483500  0.50000000  1
  Li  Li5  1  0.50000000  0.00000000  0.20483500  1
  Li  Li6  1  0.31370450  0.31370450  0.68629550  1
  Li  Li7  1  0.31370450  0.68629550  0.31370450  1
  Li  Li8  1  0.18629550  0.18629550  0.18629550  1
  Li  Li9  1  0.68629550  0.31370450  0.31370450  1
  Li  Li10  1  0.18629550  0.18629550  0.81370450  1
  Li  Li11  1  0.18629550  0.81370450  0.18629550  1
  Li  Li12  1  0.31370450  0.31370450  0.31370450  1
  Li  Li13  1  0.81370450  0.18629550  0.18629550  1
  Li  Li14  1  0.50000000  0.38428500  0.19550200  1
  Li  Li15  1  0.80449800  0.50000000  0.38428500  1
  Li  Li16  1  0.11571500  0.69550200  0.00000000  1
  Li  Li17  1  0.69550200  0.00000000  0.11571500  1
  Li  Li18  1  0.11571500  0.30449800  0.00000000  1
  Li  Li19  1  0.19550200  0.50000000  0.38428500  1
  Li  Li20  1  0.38428500  0.19550200  0.50000000  1
  Li  Li21  1  0.38428500  0.80449800  0.50000000  1
  Li  Li22  1  0.30449800  0.00000000  0.11571500  1
  Li  Li23  1  0.00000000  0.11571500  0.69550200  1
  Li  Li24  1  0.00000000  0.11571500  0.30449800  1
  Li  Li25  1  0.50000000  0.38428500  0.80449800  1
  Li  Li26  1  0.50000000  0.00000000  0.79516500  1
  Li  Li27  1  0.70483500  0.00000000  0.50000000  1
  Li  Li28  1  0.00000000  0.79516500  0.50000000  1
  Li  Li29  1  0.79516500  0.50000000  0.00000000  1
  Li  Li30  1  0.50000000  0.70483500  0.00000000  1
  Li  Li31  1  0.00000000  0.50000000  0.70483500  1
  Li  Li32  1  0.81370450  0.81370450  0.18629550  1
  Li  Li33  1  0.81370450  0.18629550  0.81370450  1
  Li  Li34  1  0.68629550  0.68629550  0.68629550  1
  Li  Li35  1  0.18629550  0.81370450  0.81370450  1
  Li  Li36  1  0.68629550  0.68629550  0.31370450  1
  Li  Li37  1  0.68629550  0.31370450  0.68629550  1
  Li  Li38  1  0.81370450  0.81370450  0.81370450  1
  Li  Li39  1  0.31370450  0.68629550  0.68629550  1
  Li  Li40  1  0.00000000  0.88428500  0.69550200  1
  Li  Li41  1  0.30449800  0.00000000  0.88428500  1
  Li  Li42  1  0.61571500  0.19550200  0.50000000  1
  Li  Li43  1  0.19550200  0.50000000  0.61571500  1
  Li  Li44  1  0.61571500  0.80449800  0.50000000  1
  Li  Li45  1  0.69550200  0.00000000  0.88428500  1
  Li  Li46  1  0.88428500  0.69550200  0.00000000  1
  Li  Li47  1  0.88428500  0.30449800  0.00000000  1
  Li  Li48  1  0.80449800  0.50000000  0.61571500  1
  Li  Li49  1  0.50000000  0.61571500  0.19550200  1
  Li  Li50  1  0.50000000  0.61571500  0.80449800  1
  Li  Li51  1  0.00000000  0.88428500  0.30449800  1
  Ga  Ga52  1  0.50000000  0.09310700  0.00000000  1
  Ga  Ga53  1  0.00000000  0.50000000  0.09310700  1
  Ga  Ga54  1  0.40689300  0.50000000  0.00000000  1
  Ga  Ga55  1  0.50000000  0.00000000  0.40689300  1
  Ga  Ga56  1  0.09310700  0.00000000  0.50000000  1
  Ga  Ga57  1  0.00000000  0.40689300  0.50000000  1
  Ga  Ga58  1  0.15952000  0.09734100  0.00000000  1
  Ga  Ga59  1  0.00000000  0.84048000  0.09734100  1
  Ga  Ga60  1  0.40265900  0.50000000  0.34048000  1
  Ga  Ga61  1  0.50000000  0.34048000  0.40265900  1
  Ga  Ga62  1  0.40265900  0.50000000  0.65952000  1
  Ga  Ga63  1  0.00000000  0.15952000  0.09734100  1
  Ga  Ga64  1  0.09734100  0.00000000  0.15952000  1
  Ga  Ga65  1  0.09734100  0.00000000  0.84048000  1
  Ga  Ga66  1  0.50000000  0.65952000  0.40265900  1
  Ga  Ga67  1  0.34048000  0.40265900  0.50000000  1
  Ga  Ga68  1  0.65952000  0.40265900  0.50000000  1
  Ga  Ga69  1  0.84048000  0.09734100  0.00000000  1
  Ga  Ga70  1  0.40506900  0.18967800  0.84080900  1
  Ga  Ga71  1  0.15919100  0.59493100  0.18967800  1
  Ga  Ga72  1  0.31032200  0.34080900  0.09493100  1
  Ga  Ga73  1  0.34080900  0.09493100  0.31032200  1
  Ga  Ga74  1  0.31032200  0.65919100  0.90506900  1
  Ga  Ga75  1  0.84080900  0.40506900  0.18967800  1
  Ga  Ga76  1  0.18967800  0.84080900  0.40506900  1
  Ga  Ga77  1  0.18967800  0.15919100  0.59493100  1
  Ga  Ga78  1  0.65919100  0.90506900  0.31032200  1
  Ga  Ga79  1  0.09493100  0.31032200  0.34080900  1
  Ga  Ga80  1  0.90506900  0.31032200  0.65919100  1
  Ga  Ga81  1  0.59493100  0.18967800  0.15919100  1
  Ga  Ga82  1  0.09493100  0.31032200  0.65919100  1
  Ga  Ga83  1  0.34080900  0.90506900  0.31032200  1
  Ga  Ga84  1  0.18967800  0.15919100  0.40506900  1
  Ga  Ga85  1  0.15919100  0.40506900  0.18967800  1
  Ga  Ga86  1  0.18967800  0.84080900  0.59493100  1
  Ga  Ga87  1  0.65919100  0.09493100  0.31032200  1
  Ga  Ga88  1  0.31032200  0.65919100  0.09493100  1
  Ga  Ga89  1  0.31032200  0.34080900  0.90506900  1
  Ga  Ga90  1  0.84080900  0.59493100  0.18967800  1
  Ga  Ga91  1  0.40506900  0.18967800  0.15919100  1
  Ga  Ga92  1  0.59493100  0.18967800  0.84080900  1
  Ga  Ga93  1  0.90506900  0.31032200  0.34080900  1
  Ga  Ga94  1  0.00000000  0.59310700  0.50000000  1
  Ga  Ga95  1  0.50000000  0.00000000  0.59310700  1
  Ga  Ga96  1  0.90689300  0.00000000  0.50000000  1
  Ga  Ga97  1  0.00000000  0.50000000  0.90689300  1
  Ga  Ga98  1  0.59310700  0.50000000  0.00000000  1
  Ga  Ga99  1  0.50000000  0.90689300  0.00000000  1
  Ga  Ga100  1  0.65952000  0.59734100  0.50000000  1
  Ga  Ga101  1  0.50000000  0.34048000  0.59734100  1
  Ga  Ga102  1  0.90265900  0.00000000  0.84048000  1
  Ga  Ga103  1  0.00000000  0.84048000  0.90265900  1
  Ga  Ga104  1  0.90265900  0.00000000  0.15952000  1
  Ga  Ga105  1  0.50000000  0.65952000  0.59734100  1
  Ga  Ga106  1  0.59734100  0.50000000  0.65952000  1
  Ga  Ga107  1  0.59734100  0.50000000  0.34048000  1
  Ga  Ga108  1  0.00000000  0.15952000  0.90265900  1
  Ga  Ga109  1  0.84048000  0.90265900  0.00000000  1
  Ga  Ga110  1  0.15952000  0.90265900  0.00000000  1
  Ga  Ga111  1  0.34048000  0.59734100  0.50000000  1
  Ga  Ga112  1  0.90506900  0.68967800  0.34080900  1
  Ga  Ga113  1  0.65919100  0.09493100  0.68967800  1
  Ga  Ga114  1  0.81032200  0.84080900  0.59493100  1
  Ga  Ga115  1  0.84080900  0.59493100  0.81032200  1
  Ga  Ga116  1  0.81032200  0.15919100  0.40506900  1
  Ga  Ga117  1  0.34080900  0.90506900  0.68967800  1
  Ga  Ga118  1  0.68967800  0.34080900  0.90506900  1
  Ga  Ga119  1  0.68967800  0.65919100  0.09493100  1
  Ga  Ga120  1  0.15919100  0.40506900  0.81032200  1
  Ga  Ga121  1  0.59493100  0.81032200  0.84080900  1
  Ga  Ga122  1  0.40506900  0.81032200  0.15919100  1
  Ga  Ga123  1  0.09493100  0.68967800  0.65919100  1
  Ga  Ga124  1  0.59493100  0.81032200  0.15919100  1
  Ga  Ga125  1  0.84080900  0.40506900  0.81032200  1
  Ga  Ga126  1  0.68967800  0.65919100  0.90506900  1
  Ga  Ga127  1  0.65919100  0.90506900  0.68967800  1
  Ga  Ga128  1  0.68967800  0.34080900  0.09493100  1
  Ga  Ga129  1  0.15919100  0.59493100  0.81032200  1
  Ga  Ga130  1  0.81032200  0.15919100  0.59493100  1
  Ga  Ga131  1  0.81032200  0.84080900  0.40506900  1
  Ga  Ga132  1  0.34080900  0.09493100  0.68967800  1
  Ga  Ga133  1  0.90506900  0.68967800  0.65919100  1
  Ga  Ga134  1  0.09493100  0.68967800  0.34080900  1
  Ga  Ga135  1  0.40506900  0.81032200  0.84080900  1
  Cu  Cu136  1  0.31755900  0.17751100  0.00000000  1
  Cu  Cu137  1  0.00000000  0.68244100  0.17751100  1
  Cu  Cu138  1  0.32248900  0.50000000  0.18244100  1
  Cu  Cu139  1  0.50000000  0.18244100  0.32248900  1
  Cu  Cu140  1  0.32248900  0.50000000  0.81755900  1
  Cu  Cu141  1  0.00000000  0.31755900  0.17751100  1
  Cu  Cu142  1  0.17751100  0.00000000  0.31755900  1
  Cu  Cu143  1  0.17751100  0.00000000  0.68244100  1
  Cu  Cu144  1  0.50000000  0.81755900  0.32248900  1
  Cu  Cu145  1  0.18244100  0.32248900  0.50000000  1
  Cu  Cu146  1  0.81755900  0.32248900  0.50000000  1
  Cu  Cu147  1  0.68244100  0.17751100  0.00000000  1
  Cu  Cu148  1  0.81755900  0.67751100  0.50000000  1
  Cu  Cu149  1  0.50000000  0.18244100  0.67751100  1
  Cu  Cu150  1  0.82248900  0.00000000  0.68244100  1
  Cu  Cu151  1  0.00000000  0.68244100  0.82248900  1
  Cu  Cu152  1  0.82248900  0.00000000  0.31755900  1
  Cu  Cu153  1  0.50000000  0.81755900  0.67751100  1
  Cu  Cu154  1  0.67751100  0.50000000  0.81755900  1
  Cu  Cu155  1  0.67751100  0.50000000  0.18244100  1
  Cu  Cu156  1  0.00000000  0.31755900  0.82248900  1
  Cu  Cu157  1  0.68244100  0.82248900  0.00000000  1
  Cu  Cu158  1  0.31755900  0.82248900  0.00000000  1
  Cu  Cu159  1  0.18244100  0.67751100  0.50000000  1
