# generated using pymatgen
data_Li2Ni(PO3)4
_symmetry_space_group_name_H-M   'P 1'
_cell_length_a   9.28411400
_cell_length_b   14.22605600
_cell_length_c   7.63358893
_cell_angle_alpha   90.00000000
_cell_angle_beta   103.34229865
_cell_angle_gamma   90.00000000
_symmetry_Int_Tables_number   1
_chemical_formula_structural   Li2Ni(PO3)4
_chemical_formula_sum   'Li8 Ni4 P16 O48'
_cell_volume   981.00338069
_cell_formula_units_Z   4
loop_
 _symmetry_equiv_pos_site_id
 _symmetry_equiv_pos_as_xyz
  1  'x, y, z'
loop_
 _atom_site_type_symbol
 _atom_site_label
 _atom_site_symmetry_multiplicity
 _atom_site_fract_x
 _atom_site_fract_y
 _atom_site_fract_z
 _atom_site_occupancy
  Li  Li0  1  0.33376200  0.85057900  0.75027600  1
  Li  Li1  1  0.33376200  0.14942100  0.25027600  1
  Li  Li2  1  0.66623800  0.85057900  0.74972400  1
  Li  Li3  1  0.66623800  0.14942100  0.24972400  1
  Li  Li4  1  0.83376200  0.35057900  0.75027600  1
  Li  Li5  1  0.83376200  0.64942100  0.25027600  1
  Li  Li6  1  0.16623800  0.35057900  0.74972400  1
  Li  Li7  1  0.16623800  0.64942100  0.24972400  1
  Ni  Ni8  1  0.50000000  0.37215600  0.75000000  1
  Ni  Ni9  1  0.50000000  0.62784400  0.25000000  1
  Ni  Ni10  1  0.00000000  0.87215600  0.75000000  1
  Ni  Ni11  1  0.00000000  0.12784400  0.25000000  1
  P  P12  1  0.86517000  0.92817400  0.32821800  1
  P  P13  1  0.86517000  0.07182600  0.82821800  1
  P  P14  1  0.13483000  0.07182600  0.67178200  1
  P  P15  1  0.13483000  0.92817400  0.17178200  1
  P  P16  1  0.40174050  0.17381950  0.87724200  1
  P  P17  1  0.40174050  0.82618050  0.37724200  1
  P  P18  1  0.59825950  0.17381950  0.62275800  1
  P  P19  1  0.59825950  0.82618050  0.12275800  1
  P  P20  1  0.36517000  0.42817400  0.32821800  1
  P  P21  1  0.36517000  0.57182600  0.82821800  1
  P  P22  1  0.63483000  0.57182600  0.67178200  1
  P  P23  1  0.63483000  0.42817400  0.17178200  1
  P  P24  1  0.90174050  0.67381950  0.87724200  1
  P  P25  1  0.90174050  0.32618050  0.37724200  1
  P  P26  1  0.09825950  0.67381950  0.62275800  1
  P  P27  1  0.09825950  0.32618050  0.12275800  1
  O  O28  1  0.86214150  0.03433850  0.33313600  1
  O  O29  1  0.85629950  0.87320150  0.49307300  1
  O  O30  1  0.13785850  0.96566150  0.66686400  1
  O  O31  1  0.14370050  0.12679850  0.50692700  1
  O  O32  1  0.13785850  0.03433850  0.16686400  1
  O  O33  1  0.14370050  0.87320150  0.00692700  1
  O  O34  1  0.26689000  0.10185700  0.83903900  1
  O  O35  1  0.26689000  0.89814300  0.33903900  1
  O  O36  1  0.35156450  0.27160250  0.81202700  1
  O  O37  1  0.35156450  0.72839750  0.31202700  1
  O  O38  1  0.47550700  0.84091300  0.57123100  1
  O  O39  1  0.50000000  0.12935900  0.75000000  1
  O  O40  1  0.50000000  0.61013600  0.75000000  1
  O  O41  1  0.52449300  0.84091300  0.92876900  1
  O  O42  1  0.47550700  0.15908700  0.07123100  1
  O  O43  1  0.50000000  0.38986400  0.25000000  1
  O  O44  1  0.50000000  0.87064100  0.25000000  1
  O  O45  1  0.52449300  0.15908700  0.42876900  1
  O  O46  1  0.64843550  0.27160250  0.68797300  1
  O  O47  1  0.64843550  0.72839750  0.18797300  1
  O  O48  1  0.73311000  0.10185700  0.66096100  1
  O  O49  1  0.73311000  0.89814300  0.16096100  1
  O  O50  1  0.85629950  0.12679850  0.99307300  1
  O  O51  1  0.86214150  0.96566150  0.83313600  1
  O  O52  1  0.36214150  0.53433850  0.33313600  1
  O  O53  1  0.35629950  0.37320150  0.49307300  1
  O  O54  1  0.63785850  0.46566150  0.66686400  1
  O  O55  1  0.64370050  0.62679850  0.50692700  1
  O  O56  1  0.63785850  0.53433850  0.16686400  1
  O  O57  1  0.64370050  0.37320150  0.00692700  1
  O  O58  1  0.76689000  0.60185700  0.83903900  1
  O  O59  1  0.76689000  0.39814300  0.33903900  1
  O  O60  1  0.85156450  0.77160250  0.81202700  1
  O  O61  1  0.85156450  0.22839750  0.31202700  1
  O  O62  1  0.97550700  0.34091300  0.57123100  1
  O  O63  1  0.00000000  0.62935900  0.75000000  1
  O  O64  1  0.00000000  0.11013600  0.75000000  1
  O  O65  1  0.02449300  0.34091300  0.92876900  1
  O  O66  1  0.97550700  0.65908700  0.07123100  1
  O  O67  1  0.00000000  0.88986400  0.25000000  1
  O  O68  1  0.00000000  0.37064100  0.25000000  1
  O  O69  1  0.02449300  0.65908700  0.42876900  1
  O  O70  1  0.14843550  0.77160250  0.68797300  1
  O  O71  1  0.14843550  0.22839750  0.18797300  1
  O  O72  1  0.23311000  0.60185700  0.66096100  1
  O  O73  1  0.23311000  0.39814300  0.16096100  1
  O  O74  1  0.35629950  0.62679850  0.99307300  1
  O  O75  1  0.36214150  0.46566150  0.83313600  1
