# generated using pymatgen
data_La3RuO7
_symmetry_space_group_name_H-M   'P 1'
_cell_length_a   7.52637200
_cell_length_b   11.19831800
_cell_length_c   7.70202200
_cell_angle_alpha   90.00000000
_cell_angle_beta   90.00000000
_cell_angle_gamma   90.00000000
_symmetry_Int_Tables_number   1
_chemical_formula_structural   La3RuO7
_chemical_formula_sum   'La12 Ru4 O28'
_cell_volume   649.14726386
_cell_formula_units_Z   4
loop_
 _symmetry_equiv_pos_site_id
 _symmetry_equiv_pos_as_xyz
  1  'x, y, z'
loop_
 _atom_site_type_symbol
 _atom_site_label
 _atom_site_symmetry_multiplicity
 _atom_site_fract_x
 _atom_site_fract_y
 _atom_site_fract_z
 _atom_site_occupancy
  La  La0  1  0.68826850  0.77927850  0.75000000  1
  La  La1  1  0.31173150  0.22072150  0.25000000  1
  La  La2  1  0.68826850  0.22072150  0.75000000  1
  La  La3  1  0.31173150  0.77927850  0.25000000  1
  La  La4  1  0.00000000  0.00000000  0.50000000  1
  La  La5  1  0.00000000  0.00000000  0.00000000  1
  La  La6  1  0.18826850  0.27927850  0.75000000  1
  La  La7  1  0.81173150  0.72072150  0.25000000  1
  La  La8  1  0.18826850  0.72072150  0.75000000  1
  La  La9  1  0.81173150  0.27927850  0.25000000  1
  La  La10  1  0.50000000  0.50000000  0.50000000  1
  La  La11  1  0.50000000  0.50000000  0.00000000  1
  Ru  Ru12  1  0.50000000  0.00000000  0.50000000  1
  Ru  Ru13  1  0.50000000  0.00000000  0.00000000  1
  Ru  Ru14  1  0.00000000  0.50000000  0.50000000  1
  Ru  Ru15  1  0.00000000  0.50000000  0.00000000  1
  O  O16  1  0.57937400  0.00000000  0.75000000  1
  O  O17  1  0.42062600  0.00000000  0.25000000  1
  O  O18  1  0.47010150  0.36947750  0.75000000  1
  O  O19  1  0.52989850  0.63052250  0.25000000  1
  O  O20  1  0.47010150  0.63052250  0.75000000  1
  O  O21  1  0.52989850  0.36947750  0.25000000  1
  O  O22  1  0.31661450  0.12446750  0.96020500  1
  O  O23  1  0.68338550  0.87553250  0.46020500  1
  O  O24  1  0.31661450  0.87553250  0.96020500  1
  O  O25  1  0.68338550  0.12446750  0.46020500  1
  O  O26  1  0.31661450  0.12446750  0.53979500  1
  O  O27  1  0.68338550  0.87553250  0.03979500  1
  O  O28  1  0.68338550  0.12446750  0.03979500  1
  O  O29  1  0.31661450  0.87553250  0.53979500  1
  O  O30  1  0.07937400  0.50000000  0.75000000  1
  O  O31  1  0.92062600  0.50000000  0.25000000  1
  O  O32  1  0.97010150  0.86947750  0.75000000  1
  O  O33  1  0.02989850  0.13052250  0.25000000  1
  O  O34  1  0.97010150  0.13052250  0.75000000  1
  O  O35  1  0.02989850  0.86947750  0.25000000  1
  O  O36  1  0.81661450  0.62446750  0.96020500  1
  O  O37  1  0.18338550  0.37553250  0.46020500  1
  O  O38  1  0.81661450  0.37553250  0.96020500  1
  O  O39  1  0.18338550  0.62446750  0.46020500  1
  O  O40  1  0.81661450  0.62446750  0.53979500  1
  O  O41  1  0.18338550  0.37553250  0.03979500  1
  O  O42  1  0.18338550  0.62446750  0.03979500  1
  O  O43  1  0.81661450  0.37553250  0.53979500  1
