# generated using pymatgen
data_LiVPO5
_symmetry_space_group_name_H-M   'P 1'
_cell_length_a   8.82758800
_cell_length_b   9.06726200
_cell_length_c   4.59008400
_cell_angle_alpha   90.00000000
_cell_angle_beta   90.00000000
_cell_angle_gamma   90.00000000
_symmetry_Int_Tables_number   1
_chemical_formula_structural   LiVPO5
_chemical_formula_sum   'Li4 V4 P4 O20'
_cell_volume   367.39974783
_cell_formula_units_Z   4
loop_
 _symmetry_equiv_pos_site_id
 _symmetry_equiv_pos_as_xyz
  1  'x, y, z'
loop_
 _atom_site_type_symbol
 _atom_site_label
 _atom_site_symmetry_multiplicity
 _atom_site_fract_x
 _atom_site_fract_y
 _atom_site_fract_z
 _atom_site_occupancy
  Li  Li0  1  0.75000000  0.23401700  0.01852900  1
  Li  Li1  1  0.25000000  0.23401700  0.98147100  1
  Li  Li2  1  0.25000000  0.73401700  0.01852900  1
  Li  Li3  1  0.75000000  0.73401700  0.98147100  1
  V  V4  1  0.75000000  0.99846300  0.57932200  1
  V  V5  1  0.25000000  0.99846300  0.42067800  1
  V  V6  1  0.25000000  0.49846300  0.57932200  1
  V  V7  1  0.75000000  0.49846300  0.42067800  1
  P  P8  1  0.50000000  0.24737900  0.50000000  1
  P  P9  1  0.50000000  0.74737900  0.50000000  1
  P  P10  1  0.00000000  0.74737900  0.50000000  1
  P  P11  1  0.00000000  0.24737900  0.50000000  1
  O  O12  1  0.39964900  0.15117300  0.29714200  1
  O  O13  1  0.39817050  0.34354750  0.69948500  1
  O  O14  1  0.75000000  0.00670000  0.22577800  1
  O  O15  1  0.60035100  0.15117300  0.70285800  1
  O  O16  1  0.60182950  0.34354750  0.30051500  1
  O  O17  1  0.39964900  0.65117300  0.70285800  1
  O  O18  1  0.39817050  0.84354750  0.30051500  1
  O  O19  1  0.60035100  0.65117300  0.29714200  1
  O  O20  1  0.25000000  0.00670000  0.77422200  1
  O  O21  1  0.60182950  0.84354750  0.69948500  1
  O  O22  1  0.89964900  0.65117300  0.29714200  1
  O  O23  1  0.89817050  0.84354750  0.69948500  1
  O  O24  1  0.25000000  0.50670000  0.22577800  1
  O  O25  1  0.10035100  0.65117300  0.70285800  1
  O  O26  1  0.10182950  0.84354750  0.30051500  1
  O  O27  1  0.89964900  0.15117300  0.70285800  1
  O  O28  1  0.89817050  0.34354750  0.30051500  1
  O  O29  1  0.10035100  0.15117300  0.29714200  1
  O  O30  1  0.75000000  0.50670000  0.77422200  1
  O  O31  1  0.10182950  0.34354750  0.69948500  1
