# generated using pymatgen
data_Li3Cr(PO4)2
_symmetry_space_group_name_H-M   'P 1'
_cell_length_a   9.14029200
_cell_length_b   4.72775200
_cell_length_c   13.12562740
_cell_angle_alpha   90.00000000
_cell_angle_beta   97.85008086
_cell_angle_gamma   90.00000000
_symmetry_Int_Tables_number   1
_chemical_formula_structural   Li3Cr(PO4)2
_chemical_formula_sum   'Li12 Cr4 P8 O32'
_cell_volume   561.88287340
_cell_formula_units_Z   4
loop_
 _symmetry_equiv_pos_site_id
 _symmetry_equiv_pos_as_xyz
  1  'x, y, z'
loop_
 _atom_site_type_symbol
 _atom_site_label
 _atom_site_symmetry_multiplicity
 _atom_site_fract_x
 _atom_site_fract_y
 _atom_site_fract_z
 _atom_site_occupancy
  Li  Li0  1  0.66640800  0.03718800  0.64923500  1
  Li  Li1  1  0.00000000  0.94354900  0.25000000  1
  Li  Li2  1  0.00000000  0.05645100  0.75000000  1
  Li  Li3  1  0.66640800  0.96281200  0.14923500  1
  Li  Li4  1  0.83359200  0.53718800  0.85076500  1
  Li  Li5  1  0.83359200  0.46281200  0.35076500  1
  Li  Li6  1  0.16640800  0.53718800  0.64923500  1
  Li  Li7  1  0.50000000  0.44354900  0.25000000  1
  Li  Li8  1  0.50000000  0.55645100  0.75000000  1
  Li  Li9  1  0.16640800  0.46281200  0.14923500  1
  Li  Li10  1  0.33359200  0.03718800  0.85076500  1
  Li  Li11  1  0.33359200  0.96281200  0.35076500  1
  Cr  Cr12  1  0.00000000  0.00000000  0.00000000  1
  Cr  Cr13  1  0.00000000  0.00000000  0.50000000  1
  Cr  Cr14  1  0.50000000  0.50000000  0.00000000  1
  Cr  Cr15  1  0.50000000  0.50000000  0.50000000  1
  P  P16  1  0.66024200  0.97791700  0.38769400  1
  P  P17  1  0.83975800  0.52208300  0.61230600  1
  P  P18  1  0.66024200  0.02208300  0.88769400  1
  P  P19  1  0.83975800  0.47791700  0.11230600  1
  P  P20  1  0.16024200  0.47791700  0.38769400  1
  P  P21  1  0.33975800  0.02208300  0.61230600  1
  P  P22  1  0.16024200  0.52208300  0.88769400  1
  P  P23  1  0.33975800  0.97791700  0.11230600  1
  O  O24  1  0.65949650  0.15375250  0.28901900  1
  O  O25  1  0.95146200  0.22051700  0.12901600  1
  O  O26  1  0.54853800  0.27948300  0.87098400  1
  O  O27  1  0.61373550  0.83718850  0.97444500  1
  O  O28  1  0.54853800  0.72051700  0.37098400  1
  O  O29  1  0.61373550  0.16281150  0.47444500  1
  O  O30  1  0.95146200  0.77948300  0.62901600  1
  O  O31  1  0.68164900  0.64906500  0.58383000  1
  O  O32  1  0.65949650  0.84624750  0.78901900  1
  O  O33  1  0.68164900  0.35093500  0.08383000  1
  O  O34  1  0.81835100  0.14906500  0.91617000  1
  O  O35  1  0.84050350  0.34624750  0.71098100  1
  O  O36  1  0.81835100  0.85093500  0.41617000  1
  O  O37  1  0.84050350  0.65375250  0.21098100  1
  O  O38  1  0.88626450  0.33718850  0.52555500  1
  O  O39  1  0.88626450  0.66281150  0.02555500  1
  O  O40  1  0.15949650  0.65375250  0.28901900  1
  O  O41  1  0.45146200  0.72051700  0.12901600  1
  O  O42  1  0.04853800  0.77948300  0.87098400  1
  O  O43  1  0.11373550  0.33718850  0.97444500  1
  O  O44  1  0.04853800  0.22051700  0.37098400  1
  O  O45  1  0.11373550  0.66281150  0.47444500  1
  O  O46  1  0.45146200  0.27948300  0.62901600  1
  O  O47  1  0.18164900  0.14906500  0.58383000  1
  O  O48  1  0.15949650  0.34624750  0.78901900  1
  O  O49  1  0.18164900  0.85093500  0.08383000  1
  O  O50  1  0.31835100  0.64906500  0.91617000  1
  O  O51  1  0.34050350  0.84624750  0.71098100  1
  O  O52  1  0.31835100  0.35093500  0.41617000  1
  O  O53  1  0.34050350  0.15375250  0.21098100  1
  O  O54  1  0.38626450  0.83718850  0.52555500  1
  O  O55  1  0.38626450  0.16281150  0.02555500  1
