# generated using pymatgen
data_Mn4(PO4)3
_symmetry_space_group_name_H-M   'P 1'
_cell_length_a   12.07994800
_cell_length_b   13.23774800
_cell_length_c   6.46573912
_cell_angle_alpha   90.00000000
_cell_angle_beta   115.69439942
_cell_angle_gamma   90.00000000
_symmetry_Int_Tables_number   1
_chemical_formula_structural   Mn4(PO4)3
_chemical_formula_sum   'Mn16 P12 O48'
_cell_volume   931.70772162
_cell_formula_units_Z   4
loop_
 _symmetry_equiv_pos_site_id
 _symmetry_equiv_pos_as_xyz
  1  'x, y, z'
loop_
 _atom_site_type_symbol
 _atom_site_label
 _atom_site_symmetry_multiplicity
 _atom_site_fract_x
 _atom_site_fract_y
 _atom_site_fract_z
 _atom_site_occupancy
  Mn  Mn0  1  0.79541400  0.14590700  0.38733400  1
  Mn  Mn1  1  0.20539500  0.14883200  0.11003000  1
  Mn  Mn2  1  0.47978200  0.99553700  0.04388700  1
  Mn  Mn3  1  0.20539500  0.85116800  0.61003000  1
  Mn  Mn4  1  0.50427200  0.76349000  0.25832800  1
  Mn  Mn5  1  0.47978200  0.00446300  0.54388700  1
  Mn  Mn6  1  0.50427200  0.23651000  0.75832800  1
  Mn  Mn7  1  0.79541400  0.85409300  0.88733400  1
  Mn  Mn8  1  0.29541400  0.64590700  0.38733400  1
  Mn  Mn9  1  0.70539500  0.64883200  0.11003000  1
  Mn  Mn10  1  0.97978200  0.49553700  0.04388700  1
  Mn  Mn11  1  0.70539500  0.35116800  0.61003000  1
  Mn  Mn12  1  0.00427200  0.26349000  0.25832800  1
  Mn  Mn13  1  0.97978200  0.50446300  0.54388700  1
  Mn  Mn14  1  0.00427200  0.73651000  0.75832800  1
  Mn  Mn15  1  0.29541400  0.35409300  0.88733400  1
  P  P16  1  0.50163700  0.19761500  0.25017400  1
  P  P17  1  0.23353150  0.10469850  0.62920100  1
  P  P18  1  0.50163700  0.80238500  0.75017400  1
  P  P19  1  0.76443050  0.10746550  0.86611600  1
  P  P20  1  0.76443050  0.89253450  0.36611600  1
  P  P21  1  0.23353150  0.89530150  0.12920100  1
  P  P22  1  0.00163700  0.69761500  0.25017400  1
  P  P23  1  0.73353150  0.60469850  0.62920100  1
  P  P24  1  0.00163700  0.30238500  0.75017400  1
  P  P25  1  0.26443050  0.60746550  0.86611600  1
  P  P26  1  0.26443050  0.39253450  0.36611600  1
  P  P27  1  0.73353150  0.39530150  0.12920100  1
  O  O28  1  0.82249050  0.00432350  0.87991000  1
  O  O29  1  0.54293050  0.73658550  0.96701600  1
  O  O30  1  0.82249050  0.99567650  0.37991000  1
  O  O31  1  0.59964600  0.12574200  0.23306400  1
  O  O32  1  0.78305350  0.17653150  0.68694100  1
  O  O33  1  0.45434050  0.26463350  0.03236700  1
  O  O34  1  0.82771550  0.83456150  0.60096100  1
  O  O35  1  0.62240100  0.90161400  0.29563400  1
  O  O36  1  0.37761450  0.09189650  0.70362300  1
  O  O37  1  0.40478050  0.11947950  0.25674200  1
  O  O38  1  0.17361100  0.16386700  0.39760200  1
  O  O39  1  0.78305350  0.82346850  0.18694100  1
  O  O40  1  0.21732750  0.17304750  0.80908200  1
  O  O41  1  0.21732750  0.82695250  0.30908200  1
  O  O42  1  0.62240100  0.09838600  0.79563400  1
  O  O43  1  0.17361100  0.83613300  0.89760200  1
  O  O44  1  0.54293050  0.26341450  0.46701600  1
  O  O45  1  0.40478050  0.88052050  0.75674200  1
  O  O46  1  0.17569300  0.99854600  0.11282900  1
  O  O47  1  0.82771550  0.16543850  0.10096100  1
  O  O48  1  0.37761450  0.90810350  0.20362300  1
  O  O49  1  0.17569300  0.00145400  0.61282900  1
  O  O50  1  0.45434050  0.73536650  0.53236700  1
  O  O51  1  0.59964600  0.87425800  0.73306400  1
  O  O52  1  0.32249050  0.50432350  0.87991000  1
  O  O53  1  0.04293050  0.23658550  0.96701600  1
  O  O54  1  0.32249050  0.49567650  0.37991000  1
  O  O55  1  0.09964600  0.62574200  0.23306400  1
  O  O56  1  0.28305350  0.67653150  0.68694100  1
  O  O57  1  0.95434050  0.76463350  0.03236700  1
  O  O58  1  0.32771550  0.33456150  0.60096100  1
  O  O59  1  0.12240100  0.40161400  0.29563400  1
  O  O60  1  0.87761450  0.59189650  0.70362300  1
  O  O61  1  0.90478050  0.61947950  0.25674200  1
  O  O62  1  0.67361100  0.66386700  0.39760200  1
  O  O63  1  0.28305350  0.32346850  0.18694100  1
  O  O64  1  0.71732750  0.67304750  0.80908200  1
  O  O65  1  0.71732750  0.32695250  0.30908200  1
  O  O66  1  0.12240100  0.59838600  0.79563400  1
  O  O67  1  0.67361100  0.33613300  0.89760200  1
  O  O68  1  0.04293050  0.76341450  0.46701600  1
  O  O69  1  0.90478050  0.38052050  0.75674200  1
  O  O70  1  0.67569300  0.49854600  0.11282900  1
  O  O71  1  0.32771550  0.66543850  0.10096100  1
  O  O72  1  0.87761450  0.40810350  0.20362300  1
  O  O73  1  0.67569300  0.50145400  0.61282900  1
  O  O74  1  0.95434050  0.23536650  0.53236700  1
  O  O75  1  0.09964600  0.37425800  0.73306400  1
