# generated using pymatgen
data_LiFe(PO3)4
_symmetry_space_group_name_H-M   'P 1'
_cell_length_a   11.97272342
_cell_length_b   8.43301800
_cell_length_c   9.96479627
_cell_angle_alpha   90.00000000
_cell_angle_beta   117.91513994
_cell_angle_gamma   90.00000000
_symmetry_Int_Tables_number   1
_chemical_formula_structural   LiFe(PO3)4
_chemical_formula_sum   'Li4 Fe4 P16 O48'
_cell_volume   889.03882615
_cell_formula_units_Z   4
loop_
 _symmetry_equiv_pos_site_id
 _symmetry_equiv_pos_as_xyz
  1  'x, y, z'
loop_
 _atom_site_type_symbol
 _atom_site_label
 _atom_site_symmetry_multiplicity
 _atom_site_fract_x
 _atom_site_fract_y
 _atom_site_fract_z
 _atom_site_occupancy
  Li  Li0  1  0.50000000  0.53277100  0.75000000  1
  Li  Li1  1  0.50000000  0.46722900  0.25000000  1
  Li  Li2  1  0.00000000  0.03277100  0.75000000  1
  Li  Li3  1  0.00000000  0.96722900  0.25000000  1
  Fe  Fe4  1  0.75000000  0.75000000  0.00000000  1
  Fe  Fe5  1  0.75000000  0.25000000  0.50000000  1
  Fe  Fe6  1  0.25000000  0.25000000  0.00000000  1
  Fe  Fe7  1  0.25000000  0.75000000  0.50000000  1
  P  P8  1  0.49476100  0.23498600  0.52785900  1
  P  P9  1  0.00523900  0.73498600  0.97214100  1
  P  P10  1  0.18951750  0.50726550  0.19550800  1
  P  P11  1  0.99476100  0.26501400  0.02785900  1
  P  P12  1  0.50523900  0.76501400  0.47214100  1
  P  P13  1  0.81048250  0.49273450  0.80449200  1
  P  P14  1  0.31048250  0.00726550  0.30449200  1
  P  P15  1  0.68951750  0.99273450  0.69550800  1
  P  P16  1  0.99476100  0.73498600  0.52785900  1
  P  P17  1  0.50523900  0.23498600  0.97214100  1
  P  P18  1  0.68951750  0.00726550  0.19550800  1
  P  P19  1  0.49476100  0.76501400  0.02785900  1
  P  P20  1  0.00523900  0.26501400  0.47214100  1
  P  P21  1  0.31048250  0.99273450  0.80449200  1
  P  P22  1  0.81048250  0.50726550  0.30449200  1
  P  P23  1  0.18951750  0.49273450  0.69550800  1
  O  O24  1  0.57072800  0.10413800  0.66041400  1
  O  O25  1  0.76766350  0.42284750  0.65008200  1
  O  O26  1  0.23233650  0.57715250  0.34991800  1
  O  O27  1  0.56252100  0.75472800  0.93044800  1
  O  O28  1  0.07072800  0.39586200  0.16041400  1
  O  O29  1  0.47020150  0.62189450  0.09340600  1
  O  O30  1  0.28642050  0.58528850  0.66914000  1
  O  O31  1  0.56252100  0.24527200  0.43044800  1
  O  O32  1  0.36216850  0.85589950  0.93074600  1
  O  O33  1  0.52979850  0.62189450  0.40659400  1
  O  O34  1  0.63783150  0.85589950  0.56925400  1
  O  O35  1  0.42927200  0.89586200  0.33958600  1
  O  O36  1  0.73233650  0.92284750  0.84991800  1
  O  O37  1  0.71357950  0.58528850  0.83086000  1
  O  O38  1  0.92927200  0.60413800  0.83958600  1
  O  O39  1  0.26766350  0.07715250  0.15008200  1
  O  O40  1  0.28642050  0.41471150  0.16914000  1
  O  O41  1  0.36216850  0.14410050  0.43074600  1
  O  O42  1  0.47020150  0.37810550  0.59340600  1
  O  O43  1  0.63783150  0.14410050  0.06925400  1
  O  O44  1  0.43747900  0.75472800  0.56955200  1
  O  O45  1  0.71357950  0.41471150  0.33086000  1
  O  O46  1  0.52979850  0.37810550  0.90659400  1
  O  O47  1  0.43747900  0.24527200  0.06955200  1
  O  O48  1  0.07072800  0.60413800  0.66041400  1
  O  O49  1  0.26766350  0.92284750  0.65008200  1
  O  O50  1  0.73233650  0.07715250  0.34991800  1
  O  O51  1  0.06252100  0.25472800  0.93044800  1
  O  O52  1  0.57072800  0.89586200  0.16041400  1
  O  O53  1  0.97020150  0.12189450  0.09340600  1
  O  O54  1  0.78642050  0.08528850  0.66914000  1
  O  O55  1  0.06252100  0.74527200  0.43044800  1
  O  O56  1  0.86216850  0.35589950  0.93074600  1
  O  O57  1  0.02979850  0.12189450  0.40659400  1
  O  O58  1  0.13783150  0.35589950  0.56925400  1
  O  O59  1  0.92927200  0.39586200  0.33958600  1
  O  O60  1  0.23233650  0.42284750  0.84991800  1
  O  O61  1  0.21357950  0.08528850  0.83086000  1
  O  O62  1  0.42927200  0.10413800  0.83958600  1
  O  O63  1  0.76766350  0.57715250  0.15008200  1
  O  O64  1  0.78642050  0.91471150  0.16914000  1
  O  O65  1  0.86216850  0.64410050  0.43074600  1
  O  O66  1  0.97020150  0.87810550  0.59340600  1
  O  O67  1  0.13783150  0.64410050  0.06925400  1
  O  O68  1  0.93747900  0.25472800  0.56955200  1
  O  O69  1  0.21357950  0.91471150  0.33086000  1
  O  O70  1  0.02979850  0.87810550  0.90659400  1
  O  O71  1  0.93747900  0.74527200  0.06955200  1
