# generated using pymatgen
data_Ca2FeReO6
_symmetry_space_group_name_H-M   'P 1'
_cell_length_a   5.47567263
_cell_length_b   5.72336350
_cell_length_c   9.44893938
_cell_angle_alpha   90.00000000
_cell_angle_beta   125.07024503
_cell_angle_gamma   90.00000000
_symmetry_Int_Tables_number   1
_chemical_formula_structural   Ca2FeReO6
_chemical_formula_sum   'Ca4 Fe2 Re2 O12'
_cell_volume   242.36118993
_cell_formula_units_Z   2
loop_
 _symmetry_equiv_pos_site_id
 _symmetry_equiv_pos_as_xyz
  1  'x, y, z'
loop_
 _atom_site_type_symbol
 _atom_site_label
 _atom_site_symmetry_multiplicity
 _atom_site_fract_x
 _atom_site_fract_y
 _atom_site_fract_z
 _atom_site_occupancy
  Ca  Ca0  1  0.23374425  0.06056100  0.24760775  1
  Ca  Ca1  1  0.76625575  0.56056100  0.25239225  1
  Ca  Ca2  1  0.76625575  0.93943900  0.75239225  1
  Ca  Ca3  1  0.23374425  0.43943900  0.74760775  1
  Fe  Fe4  1  0.00000000  0.50000000  0.00000000  1
  Fe  Fe5  1  0.00000000  0.00000000  0.50000000  1
  Re  Re6  1  0.50000000  0.00000000  0.00000000  1
  Re  Re7  1  0.50000000  0.50000000  0.50000000  1
  O  O8  1  0.64572825  0.53299600  0.74408075  1
  O  O9  1  0.35427175  0.03299600  0.75591925  1
  O  O10  1  0.35427175  0.46700400  0.25591925  1
  O  O11  1  0.64572825  0.96700400  0.24408075  1
  O  O12  1  0.16516325  0.18508150  0.95349025  1
  O  O13  1  0.83483675  0.68508150  0.54650975  1
  O  O14  1  0.83483675  0.81491850  0.04650975  1
  O  O15  1  0.16516325  0.31491850  0.45349025  1
  O  O16  1  0.73192725  0.28182850  0.05333225  1
  O  O17  1  0.26807275  0.78182850  0.44666775  1
  O  O18  1  0.73192725  0.21817150  0.55333225  1
  O  O19  1  0.26807275  0.71817150  0.94666775  1
