# generated using pymatgen
data_Ta2MnZn2O8
_symmetry_space_group_name_H-M   'P 1'
_cell_length_a   19.65447600
_cell_length_b   5.97793400
_cell_length_c   5.31981275
_cell_angle_alpha   90.00000000
_cell_angle_beta   90.17475855
_cell_angle_gamma   90.00000000
_symmetry_Int_Tables_number   1
_chemical_formula_structural   Ta2MnZn2O8
_chemical_formula_sum   'Ta8 Mn4 Zn8 O32'
_cell_volume   625.03870442
_cell_formula_units_Z   4
loop_
 _symmetry_equiv_pos_site_id
 _symmetry_equiv_pos_as_xyz
  1  'x, y, z'
loop_
 _atom_site_type_symbol
 _atom_site_label
 _atom_site_symmetry_multiplicity
 _atom_site_fract_x
 _atom_site_fract_y
 _atom_site_fract_z
 _atom_site_occupancy
  Ta  Ta0  1  0.88299400  0.84336000  0.26924600  1
  Ta  Ta1  1  0.61700600  0.34336000  0.23075400  1
  Ta  Ta2  1  0.61700600  0.65664000  0.73075400  1
  Ta  Ta3  1  0.88299400  0.15664000  0.76924600  1
  Ta  Ta4  1  0.38299400  0.34336000  0.26924600  1
  Ta  Ta5  1  0.11700600  0.84336000  0.23075400  1
  Ta  Ta6  1  0.11700600  0.15664000  0.73075400  1
  Ta  Ta7  1  0.38299400  0.65664000  0.76924600  1
  Mn  Mn8  1  0.00000000  0.34571500  0.25000000  1
  Mn  Mn9  1  0.00000000  0.65428500  0.75000000  1
  Mn  Mn10  1  0.50000000  0.84571500  0.25000000  1
  Mn  Mn11  1  0.50000000  0.15428500  0.75000000  1
  Zn  Zn12  1  0.71866350  0.84755550  0.22987400  1
  Zn  Zn13  1  0.78133650  0.34755550  0.27012600  1
  Zn  Zn14  1  0.78133650  0.65244450  0.77012600  1
  Zn  Zn15  1  0.71866350  0.15244450  0.72987400  1
  Zn  Zn16  1  0.21866350  0.34755550  0.22987400  1
  Zn  Zn17  1  0.28133650  0.84755550  0.27012600  1
  Zn  Zn18  1  0.28133650  0.15244450  0.77012600  1
  Zn  Zn19  1  0.21866350  0.65244450  0.72987400  1
  O  O20  1  0.92810200  0.88979000  0.93731300  1
  O  O21  1  0.57189800  0.38979000  0.56268700  1
  O  O22  1  0.57189800  0.61021000  0.06268700  1
  O  O23  1  0.92810200  0.11021000  0.43731300  1
  O  O24  1  0.93945850  0.62741950  0.40505000  1
  O  O25  1  0.56054150  0.12741950  0.09495000  1
  O  O26  1  0.56054150  0.87258050  0.59495000  1
  O  O27  1  0.93945850  0.37258050  0.90505000  1
  O  O28  1  0.82149250  0.89520150  0.56965300  1
  O  O29  1  0.67850750  0.39520150  0.93034700  1
  O  O30  1  0.80573950  0.35063950  0.64092900  1
  O  O31  1  0.69426050  0.85063950  0.85907100  1
  O  O32  1  0.69426050  0.14936050  0.35907100  1
  O  O33  1  0.80573950  0.64936050  0.14092900  1
  O  O34  1  0.82149250  0.10479850  0.06965300  1
  O  O35  1  0.67850750  0.60479850  0.43034700  1
  O  O36  1  0.42810200  0.38979000  0.93731300  1
  O  O37  1  0.07189800  0.88979000  0.56268700  1
  O  O38  1  0.07189800  0.11021000  0.06268700  1
  O  O39  1  0.42810200  0.61021000  0.43731300  1
  O  O40  1  0.43945850  0.12741950  0.40505000  1
  O  O41  1  0.06054150  0.62741950  0.09495000  1
  O  O42  1  0.06054150  0.37258050  0.59495000  1
  O  O43  1  0.43945850  0.87258050  0.90505000  1
  O  O44  1  0.32149250  0.39520150  0.56965300  1
  O  O45  1  0.17850750  0.89520150  0.93034700  1
  O  O46  1  0.30573950  0.85063950  0.64092900  1
  O  O47  1  0.19426050  0.35063950  0.85907100  1
  O  O48  1  0.19426050  0.64936050  0.35907100  1
  O  O49  1  0.30573950  0.14936050  0.14092900  1
  O  O50  1  0.32149250  0.60479850  0.06965300  1
  O  O51  1  0.17850750  0.10479850  0.43034700  1
