# generated using pymatgen
data_LiMo(PO3)4
_symmetry_space_group_name_H-M   'P 1'
_cell_length_a   12.04747247
_cell_length_b   8.44361800
_cell_length_c   10.17658555
_cell_angle_alpha   90.00000000
_cell_angle_beta   119.31972338
_cell_angle_gamma   90.00000000
_symmetry_Int_Tables_number   1
_chemical_formula_structural   LiMo(PO3)4
_chemical_formula_sum   'Li4 Mo4 P16 O48'
_cell_volume   902.59653526
_cell_formula_units_Z   4
loop_
 _symmetry_equiv_pos_site_id
 _symmetry_equiv_pos_as_xyz
  1  'x, y, z'
loop_
 _atom_site_type_symbol
 _atom_site_label
 _atom_site_symmetry_multiplicity
 _atom_site_fract_x
 _atom_site_fract_y
 _atom_site_fract_z
 _atom_site_occupancy
  Li  Li0  1  0.25000000  0.25000000  0.50000000  1
  Li  Li1  1  0.75000000  0.25000000  0.00000000  1
  Li  Li2  1  0.75000000  0.75000000  0.50000000  1
  Li  Li3  1  0.25000000  0.75000000  0.00000000  1
  Mo  Mo4  1  0.50000000  0.55385800  0.25000000  1
  Mo  Mo5  1  0.50000000  0.44614200  0.75000000  1
  Mo  Mo6  1  0.00000000  0.05385800  0.25000000  1
  Mo  Mo7  1  0.00000000  0.94614200  0.75000000  1
  P  P8  1  0.49318150  0.23477350  0.02385700  1
  P  P9  1  0.80129900  0.51153200  0.80363800  1
  P  P10  1  0.50681850  0.76522650  0.97614300  1
  P  P11  1  0.19870100  0.48846800  0.19636200  1
  P  P12  1  0.80129900  0.48846800  0.30363800  1
  P  P13  1  0.49318150  0.76522650  0.52385700  1
  P  P14  1  0.50681850  0.23477350  0.47614300  1
  P  P15  1  0.19870100  0.51153200  0.69636200  1
  P  P16  1  0.99318150  0.73477350  0.02385700  1
  P  P17  1  0.30129900  0.01153200  0.80363800  1
  P  P18  1  0.00681850  0.26522650  0.97614300  1
  P  P19  1  0.69870100  0.98846800  0.19636200  1
  P  P20  1  0.30129900  0.98846800  0.30363800  1
  P  P21  1  0.99318150  0.26522650  0.52385700  1
  P  P22  1  0.00681850  0.73477350  0.47614300  1
  P  P23  1  0.69870100  0.01153200  0.69636200  1
  O  O24  1  0.22874250  0.41326950  0.34047700  1
  O  O25  1  0.04327950  0.76312250  0.91485500  1
  O  O26  1  0.77125750  0.58673050  0.65952300  1
  O  O27  1  0.95672050  0.23687750  0.08514500  1
  O  O28  1  0.41229600  0.88105100  0.84446700  1
  O  O29  1  0.69785650  0.57034750  0.32316900  1
  O  O30  1  0.53413900  0.62500000  0.90744400  1
  O  O31  1  0.13560550  0.36591150  0.05534200  1
  O  O32  1  0.45672050  0.26312250  0.58514500  1
  O  O33  1  0.46586100  0.62500000  0.59255600  1
  O  O34  1  0.86439450  0.36591150  0.44465800  1
  O  O35  1  0.27125750  0.91326950  0.15952300  1
  O  O36  1  0.58770400  0.88105100  0.65553300  1
  O  O37  1  0.30214350  0.57034750  0.17683100  1
  O  O38  1  0.69785650  0.42965250  0.82316900  1
  O  O39  1  0.41229600  0.11894900  0.34446700  1
  O  O40  1  0.72874250  0.08673050  0.84047700  1
  O  O41  1  0.13560550  0.63408850  0.55534200  1
  O  O42  1  0.53413900  0.37500000  0.40744400  1
  O  O43  1  0.54327950  0.73687750  0.41485500  1
  O  O44  1  0.86439450  0.63408850  0.94465800  1
  O  O45  1  0.46586100  0.37500000  0.09255600  1
  O  O46  1  0.30214350  0.42965250  0.67683100  1
  O  O47  1  0.58770400  0.11894900  0.15553300  1
  O  O48  1  0.72874250  0.91326950  0.34047700  1
  O  O49  1  0.54327950  0.26312250  0.91485500  1
  O  O50  1  0.27125750  0.08673050  0.65952300  1
  O  O51  1  0.45672050  0.73687750  0.08514500  1
  O  O52  1  0.91229600  0.38105100  0.84446700  1
  O  O53  1  0.19785650  0.07034750  0.32316900  1
  O  O54  1  0.03413900  0.12500000  0.90744400  1
  O  O55  1  0.63560550  0.86591150  0.05534200  1
  O  O56  1  0.95672050  0.76312250  0.58514500  1
  O  O57  1  0.96586100  0.12500000  0.59255600  1
  O  O58  1  0.36439450  0.86591150  0.44465800  1
  O  O59  1  0.77125750  0.41326950  0.15952300  1
  O  O60  1  0.08770400  0.38105100  0.65553300  1
  O  O61  1  0.80214350  0.07034750  0.17683100  1
  O  O62  1  0.19785650  0.92965250  0.82316900  1
  O  O63  1  0.91229600  0.61894900  0.34446700  1
  O  O64  1  0.22874250  0.58673050  0.84047700  1
  O  O65  1  0.63560550  0.13408850  0.55534200  1
  O  O66  1  0.03413900  0.87500000  0.40744400  1
  O  O67  1  0.04327950  0.23687750  0.41485500  1
  O  O68  1  0.36439450  0.13408850  0.94465800  1
  O  O69  1  0.96586100  0.87500000  0.09255600  1
  O  O70  1  0.80214350  0.92965250  0.67683100  1
  O  O71  1  0.08770400  0.61894900  0.15553300  1
