# generated using pymatgen
data_Li3Ni(PO4)2
_symmetry_space_group_name_H-M   'P 1'
_cell_length_a   4.95176066
_cell_length_b   17.98263760
_cell_length_c   7.85757353
_cell_angle_alpha   90.00000000
_cell_angle_beta   126.59253074
_cell_angle_gamma   90.00000000
_symmetry_Int_Tables_number   1
_chemical_formula_structural   Li3Ni(PO4)2
_chemical_formula_sum   'Li12 Ni4 P8 O32'
_cell_volume   561.77233647
_cell_formula_units_Z   4
loop_
 _symmetry_equiv_pos_site_id
 _symmetry_equiv_pos_as_xyz
  1  'x, y, z'
loop_
 _atom_site_type_symbol
 _atom_site_label
 _atom_site_symmetry_multiplicity
 _atom_site_fract_x
 _atom_site_fract_y
 _atom_site_fract_z
 _atom_site_occupancy
  Li  Li0  1  0.37484093  0.70071013  0.18878909  1
  Li  Li1  1  0.72584663  0.88490622  0.50011314  1
  Li  Li2  1  0.27415337  0.38490622  0.99988686  1
  Li  Li3  1  0.98147879  0.55800855  0.76670757  1
  Li  Li4  1  0.01852121  0.05800855  0.73329243  1
  Li  Li5  1  0.62515907  0.20071013  0.31121091  1
  Li  Li6  1  0.37484093  0.79928987  0.68878909  1
  Li  Li7  1  0.98147879  0.94199145  0.26670757  1
  Li  Li8  1  0.01852121  0.44199145  0.23329243  1
  Li  Li9  1  0.72584663  0.61509378  0.00011314  1
  Li  Li10  1  0.27415337  0.11509378  0.49988686  1
  Li  Li11  1  0.62515907  0.29928987  0.81121091  1
  Ni  Ni12  1  0.17189407  0.87267428  0.97442122  1
  Ni  Ni13  1  0.82810593  0.37267428  0.52557878  1
  Ni  Ni14  1  0.17189407  0.62732572  0.47442122  1
  Ni  Ni15  1  0.82810593  0.12732572  0.02557878  1
  P  P16  1  0.12190168  0.28384023  0.29976386  1
  P  P17  1  0.52119843  0.46675567  0.73475413  1
  P  P18  1  0.47880157  0.96675567  0.76524587  1
  P  P19  1  0.87809832  0.78384023  0.20023614  1
  P  P20  1  0.87809832  0.71615977  0.70023614  1
  P  P21  1  0.47880157  0.53324433  0.26524587  1
  P  P22  1  0.12190168  0.21615977  0.79976386  1
  P  P23  1  0.52119843  0.03324433  0.23475413  1
  O  O24  1  0.58145773  0.05800701  0.44399604  1
  O  O25  1  0.46451484  0.31030256  0.50206953  1
  O  O26  1  0.03358119  0.32761664  0.10435597  1
  O  O27  1  0.17040490  0.56063375  0.25577805  1
  O  O28  1  0.83784782  0.20160153  0.82526897  1
  O  O29  1  0.53548516  0.68969744  0.49793047  1
  O  O30  1  0.96641881  0.67238336  0.89564403  1
  O  O31  1  0.82959510  0.43936625  0.74422195  1
  O  O32  1  0.18851905  0.06588520  0.04163344  1
  O  O33  1  0.16215218  0.79839847  0.17473103  1
  O  O34  1  0.82936744  0.80097014  0.72045709  1
  O  O35  1  0.47987603  0.44675246  0.27545366  1
  O  O36  1  0.52012397  0.94675246  0.22454634  1
  O  O37  1  0.41854227  0.55800701  0.05600396  1
  O  O38  1  0.81148095  0.56588520  0.45836656  1
  O  O39  1  0.17063256  0.30097014  0.77954291  1
  O  O40  1  0.81148095  0.93411480  0.95836656  1
  O  O41  1  0.03358119  0.17238336  0.60435597  1
  O  O42  1  0.46451484  0.18969744  0.00206953  1
  O  O43  1  0.83784782  0.29839847  0.32526897  1
  O  O44  1  0.16215218  0.70160153  0.67473103  1
  O  O45  1  0.53548516  0.81030256  0.99793047  1
  O  O46  1  0.96641881  0.82761664  0.39564403  1
  O  O47  1  0.82959510  0.06063375  0.24422195  1
  O  O48  1  0.82936744  0.69902986  0.22045709  1
  O  O49  1  0.18851905  0.43411480  0.54163344  1
  O  O50  1  0.58145773  0.44199299  0.94399605  1
  O  O51  1  0.47987603  0.05324754  0.77545366  1
  O  O52  1  0.52012397  0.55324754  0.72454634  1
  O  O53  1  0.17063256  0.19902986  0.27954291  1
  O  O54  1  0.41854227  0.94199299  0.55600396  1
  O  O55  1  0.17040490  0.93936625  0.75577805  1
