# generated using pymatgen
data_CsWCl6
_symmetry_space_group_name_H-M   'P 1'
_cell_length_a   12.51902600
_cell_length_b   6.59259400
_cell_length_c   12.76027030
_cell_angle_alpha   90.00000000
_cell_angle_beta   102.25880170
_cell_angle_gamma   90.00000000
_symmetry_Int_Tables_number   1
_chemical_formula_structural   CsWCl6
_chemical_formula_sum   'Cs4 W4 Cl24'
_cell_volume   1029.12834056
_cell_formula_units_Z   4
loop_
 _symmetry_equiv_pos_site_id
 _symmetry_equiv_pos_as_xyz
  1  'x, y, z'
loop_
 _atom_site_type_symbol
 _atom_site_label
 _atom_site_symmetry_multiplicity
 _atom_site_fract_x
 _atom_site_fract_y
 _atom_site_fract_z
 _atom_site_occupancy
  Cs  Cs0  1  0.00000000  0.88317300  0.75000000  1
  Cs  Cs1  1  0.00000000  0.11682700  0.25000000  1
  Cs  Cs2  1  0.50000000  0.38317300  0.75000000  1
  Cs  Cs3  1  0.50000000  0.61682700  0.25000000  1
  W  W4  1  0.75000000  0.75000000  0.00000000  1
  W  W5  1  0.75000000  0.25000000  0.50000000  1
  W  W6  1  0.25000000  0.25000000  0.00000000  1
  W  W7  1  0.25000000  0.75000000  0.50000000  1
  Cl  Cl8  1  0.78425350  0.58907450  0.84589100  1
  Cl  Cl9  1  0.71574650  0.08907450  0.65410900  1
  Cl  Cl10  1  0.71574650  0.91092550  0.15410900  1
  Cl  Cl11  1  0.78425350  0.41092550  0.34589100  1
  Cl  Cl12  1  0.84176200  0.04155700  0.96079000  1
  Cl  Cl13  1  0.65823800  0.54155700  0.53921000  1
  Cl  Cl14  1  0.65823800  0.45844300  0.03921000  1
  Cl  Cl15  1  0.84176200  0.95844300  0.46079000  1
  Cl  Cl16  1  0.58489450  0.87786950  0.89917000  1
  Cl  Cl17  1  0.91510550  0.37786950  0.60083000  1
  Cl  Cl18  1  0.91510550  0.62213050  0.10083000  1
  Cl  Cl19  1  0.58489450  0.12213050  0.39917000  1
  Cl  Cl20  1  0.28425350  0.08907450  0.84589100  1
  Cl  Cl21  1  0.21574650  0.58907450  0.65410900  1
  Cl  Cl22  1  0.21574650  0.41092550  0.15410900  1
  Cl  Cl23  1  0.28425350  0.91092550  0.34589100  1
  Cl  Cl24  1  0.34176200  0.54155700  0.96079000  1
  Cl  Cl25  1  0.15823800  0.04155700  0.53921000  1
  Cl  Cl26  1  0.15823800  0.95844300  0.03921000  1
  Cl  Cl27  1  0.34176200  0.45844300  0.46079000  1
  Cl  Cl28  1  0.08489450  0.37786950  0.89917000  1
  Cl  Cl29  1  0.41510550  0.87786950  0.60083000  1
  Cl  Cl30  1  0.41510550  0.12213050  0.10083000  1
  Cl  Cl31  1  0.08489450  0.62213050  0.39917000  1
