# generated using pymatgen
data_UMo13P9
_symmetry_space_group_name_H-M   'P 1'
_cell_length_a   10.88371776
_cell_length_b   10.88371776
_cell_length_c   3.31508700
_cell_angle_alpha   90.00000000
_cell_angle_beta   90.00000000
_cell_angle_gamma   120.00000000
_symmetry_Int_Tables_number   1
_chemical_formula_structural   UMo13P9
_chemical_formula_sum   'U1 Mo13 P9'
_cell_volume   340.07922648
_cell_formula_units_Z   1
loop_
 _symmetry_equiv_pos_site_id
 _symmetry_equiv_pos_as_xyz
  1  'x, y, z'
loop_
 _atom_site_type_symbol
 _atom_site_label
 _atom_site_symmetry_multiplicity
 _atom_site_fract_x
 _atom_site_fract_y
 _atom_site_fract_z
 _atom_site_occupancy
  U  U0  1  0.66666667  0.33333333  0.00000000  1
  Mo  Mo1  1  0.24089967  0.48179933  0.50000000  1
  Mo  Mo2  1  0.24089967  0.75910033  0.50000000  1
  Mo  Mo3  1  0.52632767  0.05265533  0.50000000  1
  Mo  Mo4  1  0.52632767  0.47367233  0.50000000  1
  Mo  Mo5  1  0.94734467  0.47367233  0.50000000  1
  Mo  Mo6  1  0.99484467  0.27922133  0.00000000  1
  Mo  Mo7  1  0.72077867  0.71562333  0.00000000  1
  Mo  Mo8  1  0.72077867  0.00515533  0.00000000  1
  Mo  Mo9  1  0.99484467  0.71562333  0.00000000  1
  Mo  Mo10  1  0.28437667  0.27922133  0.00000000  1
  Mo  Mo11  1  0.00000000  0.00000000  0.00000000  1
  Mo  Mo12  1  0.51820067  0.75910033  0.50000000  1
  Mo  Mo13  1  0.28437667  0.00515533  0.00000000  1
  P  P14  1  0.41232467  0.20616233  0.50000000  1
  P  P15  1  0.13229267  0.56614633  0.00000000  1
  P  P16  1  0.43385367  0.56614633  0.00000000  1
  P  P17  1  0.43385367  0.86770733  0.00000000  1
  P  P18  1  0.80630967  0.90315483  0.50000000  1
  P  P19  1  0.09684517  0.90315483  0.50000000  1
  P  P20  1  0.09684517  0.19369033  0.50000000  1
  P  P21  1  0.79383767  0.20616233  0.50000000  1
  P  P22  1  0.79383767  0.58767533  0.50000000  1
