# generated using pymatgen
data_Ce10Ga5Cl4
_symmetry_space_group_name_H-M   'P 1'
_cell_length_a   7.78373200
_cell_length_b   7.78373200
_cell_length_c   31.27465400
_cell_angle_alpha   90.00000000
_cell_angle_beta   90.00000000
_cell_angle_gamma   90.00000000
_symmetry_Int_Tables_number   1
_chemical_formula_structural   Ce10Ga5Cl4
_chemical_formula_sum   'Ce40 Ga20 Cl16'
_cell_volume   1894.82131942
_cell_formula_units_Z   4
loop_
 _symmetry_equiv_pos_site_id
 _symmetry_equiv_pos_as_xyz
  1  'x, y, z'
loop_
 _atom_site_type_symbol
 _atom_site_label
 _atom_site_symmetry_multiplicity
 _atom_site_fract_x
 _atom_site_fract_y
 _atom_site_fract_z
 _atom_site_occupancy
  Ce  Ce0  1  0.00000000  0.00000000  0.15342400  1
  Ce  Ce1  1  0.00000000  0.00000000  0.34657600  1
  Ce  Ce2  1  0.50000000  0.50000000  0.15342400  1
  Ce  Ce3  1  0.50000000  0.50000000  0.34657600  1
  Ce  Ce4  1  0.67123350  0.17123350  0.29680550  1
  Ce  Ce5  1  0.82876650  0.32876650  0.20319450  1
  Ce  Ce6  1  0.17123350  0.67123350  0.20319450  1
  Ce  Ce7  1  0.32876650  0.17123350  0.20319450  1
  Ce  Ce8  1  0.67123350  0.82876650  0.20319450  1
  Ce  Ce9  1  0.82876650  0.67123350  0.29680550  1
  Ce  Ce10  1  0.17123350  0.32876650  0.29680550  1
  Ce  Ce11  1  0.32876650  0.82876650  0.29680550  1
  Ce  Ce12  1  0.67142450  0.17142450  0.43134050  1
  Ce  Ce13  1  0.82857550  0.32857550  0.06865950  1
  Ce  Ce14  1  0.17142450  0.67142450  0.06865950  1
  Ce  Ce15  1  0.32857550  0.17142450  0.06865950  1
  Ce  Ce16  1  0.67142450  0.82857550  0.06865950  1
  Ce  Ce17  1  0.82857550  0.67142450  0.43134050  1
  Ce  Ce18  1  0.17142450  0.32857550  0.43134050  1
  Ce  Ce19  1  0.32857550  0.82857550  0.43134050  1
  Ce  Ce20  1  0.50000000  0.50000000  0.65342400  1
  Ce  Ce21  1  0.50000000  0.50000000  0.84657600  1
  Ce  Ce22  1  0.00000000  0.00000000  0.65342400  1
  Ce  Ce23  1  0.00000000  0.00000000  0.84657600  1
  Ce  Ce24  1  0.17123350  0.67123350  0.79680550  1
  Ce  Ce25  1  0.32876650  0.82876650  0.70319450  1
  Ce  Ce26  1  0.67123350  0.17123350  0.70319450  1
  Ce  Ce27  1  0.82876650  0.67123350  0.70319450  1
  Ce  Ce28  1  0.17123350  0.32876650  0.70319450  1
  Ce  Ce29  1  0.32876650  0.17123350  0.79680550  1
  Ce  Ce30  1  0.67123350  0.82876650  0.79680550  1
  Ce  Ce31  1  0.82876650  0.32876650  0.79680550  1
  Ce  Ce32  1  0.17142450  0.67142450  0.93134050  1
  Ce  Ce33  1  0.32857550  0.82857550  0.56865950  1
  Ce  Ce34  1  0.67142450  0.17142450  0.56865950  1
  Ce  Ce35  1  0.82857550  0.67142450  0.56865950  1
  Ce  Ce36  1  0.17142450  0.32857550  0.56865950  1
  Ce  Ce37  1  0.32857550  0.17142450  0.93134050  1
  Ce  Ce38  1  0.67142450  0.82857550  0.93134050  1
  Ce  Ce39  1  0.82857550  0.32857550  0.93134050  1
  Ga  Ga40  1  0.00000000  0.00000000  0.25000000  1
  Ga  Ga41  1  0.50000000  0.50000000  0.25000000  1
  Ga  Ga42  1  0.37701350  0.12298650  0.36623850  1
  Ga  Ga43  1  0.87701350  0.62298650  0.13376150  1
  Ga  Ga44  1  0.12298650  0.37701350  0.13376150  1
  Ga  Ga45  1  0.62298650  0.12298650  0.13376150  1
  Ga  Ga46  1  0.37701350  0.87701350  0.13376150  1
  Ga  Ga47  1  0.87701350  0.37701350  0.36623850  1
  Ga  Ga48  1  0.12298650  0.62298650  0.36623850  1
  Ga  Ga49  1  0.62298650  0.87701350  0.36623850  1
  Ga  Ga50  1  0.50000000  0.50000000  0.75000000  1
  Ga  Ga51  1  0.00000000  0.00000000  0.75000000  1
  Ga  Ga52  1  0.87701350  0.62298650  0.86623850  1
  Ga  Ga53  1  0.37701350  0.12298650  0.63376150  1
  Ga  Ga54  1  0.62298650  0.87701350  0.63376150  1
  Ga  Ga55  1  0.12298650  0.62298650  0.63376150  1
  Ga  Ga56  1  0.87701350  0.37701350  0.63376150  1
  Ga  Ga57  1  0.37701350  0.87701350  0.86623850  1
  Ga  Ga58  1  0.62298650  0.12298650  0.86623850  1
  Ga  Ga59  1  0.12298650  0.37701350  0.86623850  1
  Cl  Cl60  1  0.36001400  0.86001400  0.00000000  1
  Cl  Cl61  1  0.13998600  0.36001400  0.00000000  1
  Cl  Cl62  1  0.86001400  0.63998600  0.00000000  1
  Cl  Cl63  1  0.63998600  0.13998600  0.00000000  1
  Cl  Cl64  1  0.00000000  0.00000000  0.44307400  1
  Cl  Cl65  1  0.00000000  0.00000000  0.05692600  1
  Cl  Cl66  1  0.50000000  0.50000000  0.05692600  1
  Cl  Cl67  1  0.50000000  0.50000000  0.44307400  1
  Cl  Cl68  1  0.86001400  0.36001400  0.50000000  1
  Cl  Cl69  1  0.63998600  0.86001400  0.50000000  1
  Cl  Cl70  1  0.36001400  0.13998600  0.50000000  1
  Cl  Cl71  1  0.13998600  0.63998600  0.50000000  1
  Cl  Cl72  1  0.50000000  0.50000000  0.94307400  1
  Cl  Cl73  1  0.50000000  0.50000000  0.55692600  1
  Cl  Cl74  1  0.00000000  0.00000000  0.55692600  1
  Cl  Cl75  1  0.00000000  0.00000000  0.94307400  1
