# generated using pymatgen
data_Li3Cr2(PO4)3
_symmetry_space_group_name_H-M   'P 1'
_cell_length_a   11.79855400
_cell_length_b   12.23200400
_cell_length_c   6.34893837
_cell_angle_alpha   90.00000000
_cell_angle_beta   114.12520315
_cell_angle_gamma   90.00000000
_symmetry_Int_Tables_number   1
_chemical_formula_structural   Li3Cr2(PO4)3
_chemical_formula_sum   'Li12 Cr8 P12 O48'
_cell_volume   836.24569845
_cell_formula_units_Z   4
loop_
 _symmetry_equiv_pos_site_id
 _symmetry_equiv_pos_as_xyz
  1  'x, y, z'
loop_
 _atom_site_type_symbol
 _atom_site_label
 _atom_site_symmetry_multiplicity
 _atom_site_fract_x
 _atom_site_fract_y
 _atom_site_fract_z
 _atom_site_occupancy
  Li  Li0  1  0.50000000  0.22032500  0.75000000  1
  Li  Li1  1  0.50000000  0.00000000  0.00000000  1
  Li  Li2  1  0.50000000  0.77967500  0.25000000  1
  Li  Li3  1  0.50000000  0.47342700  0.25000000  1
  Li  Li4  1  0.50000000  0.00000000  0.50000000  1
  Li  Li5  1  0.50000000  0.52657300  0.75000000  1
  Li  Li6  1  0.00000000  0.72032500  0.75000000  1
  Li  Li7  1  0.00000000  0.50000000  0.00000000  1
  Li  Li8  1  0.00000000  0.27967500  0.25000000  1
  Li  Li9  1  0.00000000  0.97342700  0.25000000  1
  Li  Li10  1  0.00000000  0.50000000  0.50000000  1
  Li  Li11  1  0.00000000  0.02657300  0.75000000  1
  Cr  Cr12  1  0.78072850  0.16123750  0.36152000  1
  Cr  Cr13  1  0.78072850  0.83876250  0.86152000  1
  Cr  Cr14  1  0.21927150  0.16123750  0.13848000  1
  Cr  Cr15  1  0.21927150  0.83876250  0.63848000  1
  Cr  Cr16  1  0.28072850  0.66123750  0.36152000  1
  Cr  Cr17  1  0.28072850  0.33876250  0.86152000  1
  Cr  Cr18  1  0.71927150  0.66123750  0.13848000  1
  Cr  Cr19  1  0.71927150  0.33876250  0.63848000  1
  P  P20  1  0.24229750  0.89728850  0.13235100  1
  P  P21  1  0.50000000  0.78400800  0.75000000  1
  P  P22  1  0.50000000  0.21599200  0.25000000  1
  P  P23  1  0.75770250  0.10271150  0.86764900  1
  P  P24  1  0.24229750  0.10271150  0.63235100  1
  P  P25  1  0.75770250  0.89728850  0.36764900  1
  P  P26  1  0.74229750  0.39728850  0.13235100  1
  P  P27  1  0.00000000  0.28400800  0.75000000  1
  P  P28  1  0.00000000  0.71599200  0.25000000  1
  P  P29  1  0.25770250  0.60271150  0.86764900  1
  P  P30  1  0.74229750  0.60271150  0.63235100  1
  P  P31  1  0.25770250  0.39728850  0.36764900  1
  O  O32  1  0.54514000  0.70799700  0.96700900  1
  O  O33  1  0.77155700  0.82303600  0.17307600  1
  O  O34  1  0.83790500  0.00370700  0.39453200  1
  O  O35  1  0.82475400  0.16596600  0.09757000  1
  O  O36  1  0.17524600  0.83403400  0.90243000  1
  O  O37  1  0.16209500  0.99629300  0.60546800  1
  O  O38  1  0.22844300  0.17696400  0.82692400  1
  O  O39  1  0.17524600  0.16596600  0.40243000  1
  O  O40  1  0.16209500  0.00370700  0.10546800  1
  O  O41  1  0.22844300  0.82303600  0.32692400  1
  O  O42  1  0.37902800  0.08240900  0.69968800  1
  O  O43  1  0.83790500  0.99629300  0.89453200  1
  O  O44  1  0.37902800  0.91759100  0.19968800  1
  O  O45  1  0.45486000  0.70799700  0.53299100  1
  O  O46  1  0.40134750  0.86180850  0.77120800  1
  O  O47  1  0.40134750  0.13819150  0.27120800  1
  O  O48  1  0.59865250  0.86180850  0.72879200  1
  O  O49  1  0.45486000  0.29200300  0.03299100  1
  O  O50  1  0.54514000  0.29200300  0.46700900  1
  O  O51  1  0.62097200  0.08240900  0.80031200  1
  O  O52  1  0.59865250  0.13819150  0.22879200  1
  O  O53  1  0.62097200  0.91759100  0.30031200  1
  O  O54  1  0.77155700  0.17696400  0.67307600  1
  O  O55  1  0.82475400  0.83403400  0.59757000  1
  O  O56  1  0.04514000  0.20799700  0.96700900  1
  O  O57  1  0.27155700  0.32303600  0.17307600  1
  O  O58  1  0.33790500  0.50370700  0.39453200  1
  O  O59  1  0.32475400  0.66596600  0.09757000  1
  O  O60  1  0.67524600  0.33403400  0.90243000  1
  O  O61  1  0.66209500  0.49629300  0.60546800  1
  O  O62  1  0.72844300  0.67696400  0.82692400  1
  O  O63  1  0.67524600  0.66596600  0.40243000  1
  O  O64  1  0.66209500  0.50370700  0.10546800  1
  O  O65  1  0.72844300  0.32303600  0.32692400  1
  O  O66  1  0.87902800  0.58240900  0.69968800  1
  O  O67  1  0.33790500  0.49629300  0.89453200  1
  O  O68  1  0.87902800  0.41759100  0.19968800  1
  O  O69  1  0.95486000  0.20799700  0.53299100  1
  O  O70  1  0.90134750  0.36180850  0.77120800  1
  O  O71  1  0.90134750  0.63819150  0.27120800  1
  O  O72  1  0.09865250  0.36180850  0.72879200  1
  O  O73  1  0.95486000  0.79200300  0.03299100  1
  O  O74  1  0.04514000  0.79200300  0.46700900  1
  O  O75  1  0.12097200  0.58240900  0.80031200  1
  O  O76  1  0.09865250  0.63819150  0.22879200  1
  O  O77  1  0.12097200  0.41759100  0.30031200  1
  O  O78  1  0.27155700  0.67696400  0.67307600  1
  O  O79  1  0.32475400  0.33403400  0.59757000  1
