# generated using pymatgen
data_Rb5Hg19
_symmetry_space_group_name_H-M   'P 1'
_cell_length_a   12.29520600
_cell_length_b   12.29520600
_cell_length_c   10.95639800
_cell_angle_alpha   90.00000000
_cell_angle_beta   90.00000000
_cell_angle_gamma   90.00000000
_symmetry_Int_Tables_number   1
_chemical_formula_structural   Rb5Hg19
_chemical_formula_sum   'Rb10 Hg38'
_cell_volume   1656.30159091
_cell_formula_units_Z   2
loop_
 _symmetry_equiv_pos_site_id
 _symmetry_equiv_pos_as_xyz
  1  'x, y, z'
loop_
 _atom_site_type_symbol
 _atom_site_label
 _atom_site_symmetry_multiplicity
 _atom_site_fract_x
 _atom_site_fract_y
 _atom_site_fract_z
 _atom_site_occupancy
  Rb  Rb0  1  0.00000000  0.00000000  0.50000000  1
  Rb  Rb1  1  0.67588850  0.12034050  0.00000000  1
  Rb  Rb2  1  0.37965950  0.17588850  0.50000000  1
  Rb  Rb3  1  0.12034050  0.32411150  0.00000000  1
  Rb  Rb4  1  0.82411150  0.37965950  0.50000000  1
  Rb  Rb5  1  0.50000000  0.50000000  0.00000000  1
  Rb  Rb6  1  0.17588850  0.62034050  0.50000000  1
  Rb  Rb7  1  0.87965950  0.67588850  0.00000000  1
  Rb  Rb8  1  0.62034050  0.82411150  0.50000000  1
  Rb  Rb9  1  0.32411150  0.87965950  0.00000000  1
  Hg  Hg10  1  0.11320750  0.29497050  0.35953650  1
  Hg  Hg11  1  0.38679250  0.20502950  0.85953650  1
  Hg  Hg12  1  0.20502950  0.61320750  0.85953650  1
  Hg  Hg13  1  0.50000000  0.00000000  0.25000000  1
  Hg  Hg14  1  0.00000000  0.50000000  0.25000000  1
  Hg  Hg15  1  0.57960150  0.32689050  0.71377150  1
  Hg  Hg16  1  0.17310950  0.07960150  0.21377150  1
  Hg  Hg17  1  0.32689050  0.42039850  0.71377150  1
  Hg  Hg18  1  0.92039850  0.17310950  0.21377150  1
  Hg  Hg19  1  0.92039850  0.17310950  0.78622850  1
  Hg  Hg20  1  0.32689050  0.42039850  0.28622850  1
  Hg  Hg21  1  0.17310950  0.07960150  0.78622850  1
  Hg  Hg22  1  0.57960150  0.32689050  0.28622850  1
  Hg  Hg23  1  0.00000000  0.00000000  0.00000000  1
  Hg  Hg24  1  0.29497050  0.88679250  0.35953650  1
  Hg  Hg25  1  0.29497050  0.88679250  0.64046350  1
  Hg  Hg26  1  0.11320750  0.29497050  0.64046350  1
  Hg  Hg27  1  0.38679250  0.20502950  0.14046350  1
  Hg  Hg28  1  0.20502950  0.61320750  0.14046350  1
  Hg  Hg29  1  0.61320750  0.79497050  0.85953650  1
  Hg  Hg30  1  0.88679250  0.70502950  0.35953650  1
  Hg  Hg31  1  0.70502950  0.11320750  0.35953650  1
  Hg  Hg32  1  0.00000000  0.50000000  0.75000000  1
  Hg  Hg33  1  0.50000000  0.00000000  0.75000000  1
  Hg  Hg34  1  0.07960150  0.82689050  0.21377150  1
  Hg  Hg35  1  0.67310950  0.57960150  0.71377150  1
  Hg  Hg36  1  0.82689050  0.92039850  0.21377150  1
  Hg  Hg37  1  0.42039850  0.67310950  0.71377150  1
  Hg  Hg38  1  0.42039850  0.67310950  0.28622850  1
  Hg  Hg39  1  0.82689050  0.92039850  0.78622850  1
  Hg  Hg40  1  0.67310950  0.57960150  0.28622850  1
  Hg  Hg41  1  0.07960150  0.82689050  0.78622850  1
  Hg  Hg42  1  0.50000000  0.50000000  0.50000000  1
  Hg  Hg43  1  0.79497050  0.38679250  0.85953650  1
  Hg  Hg44  1  0.79497050  0.38679250  0.14046350  1
  Hg  Hg45  1  0.61320750  0.79497050  0.14046350  1
  Hg  Hg46  1  0.88679250  0.70502950  0.64046350  1
  Hg  Hg47  1  0.70502950  0.11320750  0.64046350  1
