# generated using pymatgen
data_CoPO4
_symmetry_space_group_name_H-M   'P 1'
_cell_length_a   5.29572245
_cell_length_b   7.77035630
_cell_length_c   6.41133900
_cell_angle_alpha   90.00000000
_cell_angle_beta   90.00000000
_cell_angle_gamma   90.00000000
_symmetry_Int_Tables_number   1
_chemical_formula_structural   CoPO4
_chemical_formula_sum   'Co4 P4 O16'
_cell_volume   263.82435782
_cell_formula_units_Z   4
loop_
 _symmetry_equiv_pos_site_id
 _symmetry_equiv_pos_as_xyz
  1  'x, y, z'
loop_
 _atom_site_type_symbol
 _atom_site_label
 _atom_site_symmetry_multiplicity
 _atom_site_fract_x
 _atom_site_fract_y
 _atom_site_fract_z
 _atom_site_occupancy
  Co  Co0  1  0.00000000  0.00000000  0.50000000  1
  Co  Co1  1  0.00000000  0.00000000  0.00000000  1
  Co  Co2  1  0.50000000  0.50000000  0.50000000  1
  Co  Co3  1  0.50000000  0.50000000  0.00000000  1
  P  P4  1  0.50000000  0.15137450  0.25000000  1
  P  P5  1  0.50000000  0.84862550  0.75000000  1
  P  P6  1  0.00000000  0.65137450  0.25000000  1
  P  P7  1  0.00000000  0.34862550  0.75000000  1
  O  O8  1  0.25718150  0.03764750  0.25000000  1
  O  O9  1  0.74281850  0.96235250  0.75000000  1
  O  O10  1  0.74281850  0.03764750  0.25000000  1
  O  O11  1  0.25718150  0.96235250  0.75000000  1
  O  O12  1  0.50000000  0.26345000  0.05126000  1
  O  O13  1  0.50000000  0.73655000  0.55126000  1
  O  O14  1  0.50000000  0.73655000  0.94874000  1
  O  O15  1  0.50000000  0.26345000  0.44874000  1
  O  O16  1  0.75718150  0.53764750  0.25000000  1
  O  O17  1  0.24281850  0.46235250  0.75000000  1
  O  O18  1  0.24281850  0.53764750  0.25000000  1
  O  O19  1  0.75718150  0.46235250  0.75000000  1
  O  O20  1  0.00000000  0.76345000  0.05126000  1
  O  O21  1  0.00000000  0.23655000  0.55126000  1
  O  O22  1  0.00000000  0.23655000  0.94874000  1
  O  O23  1  0.00000000  0.76345000  0.44874000  1
