# generated using pymatgen
data_La2Zn17
_symmetry_space_group_name_H-M   'P 1'
_cell_length_a   9.13026139
_cell_length_b   9.13026139
_cell_length_c   13.40360473
_cell_angle_alpha   90.00000000
_cell_angle_beta   90.00000000
_cell_angle_gamma   120.00000000
_symmetry_Int_Tables_number   1
_chemical_formula_structural   La2Zn17
_chemical_formula_sum   'La6 Zn51'
_cell_volume   967.65081361
_cell_formula_units_Z   3
loop_
 _symmetry_equiv_pos_site_id
 _symmetry_equiv_pos_as_xyz
  1  'x, y, z'
loop_
 _atom_site_type_symbol
 _atom_site_label
 _atom_site_symmetry_multiplicity
 _atom_site_fract_x
 _atom_site_fract_y
 _atom_site_fract_z
 _atom_site_occupancy
  La  La0  1  0.33333333  0.66666667  0.33018067  1
  La  La1  1  0.33333333  0.66666667  0.00315267  1
  La  La2  1  0.00000000  0.00000000  0.66351400  1
  La  La3  1  0.00000000  0.00000000  0.33648600  1
  La  La4  1  0.66666667  0.33333333  0.99684733  1
  La  La5  1  0.66666667  0.33333333  0.66981933  1
  Zn  Zn6  1  0.16960600  0.83039400  0.17894400  1
  Zn  Zn7  1  0.16960600  0.33921200  0.17894400  1
  Zn  Zn8  1  0.33333333  0.66666667  0.76504467  1
  Zn  Zn9  1  0.33333333  0.66666667  0.56828867  1
  Zn  Zn10  1  0.16666667  0.83333333  0.83333333  1
  Zn  Zn11  1  0.33333333  0.16666667  0.16666667  1
  Zn  Zn12  1  0.83333333  0.66666667  0.16666667  1
  Zn  Zn13  1  0.37614467  0.04281133  0.33333333  1
  Zn  Zn14  1  0.00000000  0.29052200  0.00000000  1
  Zn  Zn15  1  0.29052200  1.00000000  0.00000000  1
  Zn  Zn16  1  0.95718867  0.62385533  0.33333333  1
  Zn  Zn17  1  0.00000000  0.70947800  0.00000000  1
  Zn  Zn18  1  0.70947800  1.00000000  0.00000000  1
  Zn  Zn19  1  0.49706067  0.99412133  0.15438933  1
  Zn  Zn20  1  0.49706067  0.50293933  0.15438933  1
  Zn  Zn21  1  0.00587867  0.50293933  0.15438933  1
  Zn  Zn22  1  0.66078800  0.83039400  0.17894400  1
  Zn  Zn23  1  0.83627267  0.16372733  0.51227733  1
  Zn  Zn24  1  0.83627267  0.67254533  0.51227733  1
  Zn  Zn25  1  0.00000000  0.00000000  0.09837800  1
  Zn  Zn26  1  0.00000000  0.00000000  0.90162200  1
  Zn  Zn27  1  0.83333333  0.16666667  0.16666667  1
  Zn  Zn28  1  0.00000000  0.50000000  0.50000000  1
  Zn  Zn29  1  0.50000000  0.00000000  0.50000000  1
  Zn  Zn30  1  0.04281133  0.37614467  0.66666667  1
  Zn  Zn31  1  0.66666667  0.62385533  0.33333333  1
  Zn  Zn32  1  0.95718867  0.33333333  0.33333333  1
  Zn  Zn33  1  0.62385533  0.95718867  0.66666667  1
  Zn  Zn34  1  0.66666667  0.04281133  0.33333333  1
  Zn  Zn35  1  0.37614467  0.33333333  0.33333333  1
  Zn  Zn36  1  0.16372733  0.32745467  0.48772267  1
  Zn  Zn37  1  0.16372733  0.83627267  0.48772267  1
  Zn  Zn38  1  0.67254533  0.83627267  0.48772267  1
  Zn  Zn39  1  0.32745467  0.16372733  0.51227733  1
  Zn  Zn40  1  0.50293933  0.49706067  0.84561067  1
  Zn  Zn41  1  0.50293933  0.00587867  0.84561067  1
  Zn  Zn42  1  0.66666667  0.33333333  0.43171133  1
  Zn  Zn43  1  0.66666667  0.33333333  0.23495533  1
  Zn  Zn44  1  0.50000000  0.50000000  0.50000000  1
  Zn  Zn45  1  0.66666667  0.83333333  0.83333333  1
  Zn  Zn46  1  0.16666667  0.33333333  0.83333333  1
  Zn  Zn47  1  0.70947800  0.70947800  0.00000000  1
  Zn  Zn48  1  0.33333333  0.95718867  0.66666667  1
  Zn  Zn49  1  0.62385533  0.66666667  0.66666667  1
  Zn  Zn50  1  0.29052200  0.29052200  0.00000000  1
  Zn  Zn51  1  0.33333333  0.37614467  0.66666667  1
  Zn  Zn52  1  0.04281133  0.66666667  0.66666667  1
  Zn  Zn53  1  0.83039400  0.66078800  0.82105600  1
  Zn  Zn54  1  0.83039400  0.16960600  0.82105600  1
  Zn  Zn55  1  0.33921200  0.16960600  0.82105600  1
  Zn  Zn56  1  0.99412133  0.49706067  0.84561067  1
