# generated using pymatgen
data_Na10Mn4O9
_symmetry_space_group_name_H-M   'P 1'
_cell_length_a   13.70370200
_cell_length_b   11.28419800
_cell_length_c   8.90709323
_cell_angle_alpha   90.00000000
_cell_angle_beta   105.87042363
_cell_angle_gamma   90.00000000
_symmetry_Int_Tables_number   1
_chemical_formula_structural   Na10Mn4O9
_chemical_formula_sum   'Na40 Mn16 O36'
_cell_volume   1324.84988036
_cell_formula_units_Z   4
loop_
 _symmetry_equiv_pos_site_id
 _symmetry_equiv_pos_as_xyz
  1  'x, y, z'
loop_
 _atom_site_type_symbol
 _atom_site_label
 _atom_site_symmetry_multiplicity
 _atom_site_fract_x
 _atom_site_fract_y
 _atom_site_fract_z
 _atom_site_occupancy
  Na  Na0  1  0.99676200  0.26568800  0.01985900  1
  Na  Na1  1  0.21953800  0.34246000  0.11124700  1
  Na  Na2  1  0.21953800  0.65754000  0.11124700  1
  Na  Na3  1  0.63929700  0.63024000  0.26908300  1
  Na  Na4  1  0.63929700  0.36976000  0.26908300  1
  Na  Na5  1  0.83060950  0.62924850  0.18679900  1
  Na  Na6  1  0.83060950  0.37075150  0.18679900  1
  Na  Na7  1  0.36096700  0.50000000  0.44624500  1
  Na  Na8  1  0.97208250  0.19130750  0.38869400  1
  Na  Na9  1  0.97208250  0.80869250  0.38869400  1
  Na  Na10  1  0.00067700  0.50000000  0.50055900  1
  Na  Na11  1  0.87176150  0.13250550  0.73515400  1
  Na  Na12  1  0.07778000  0.77727900  0.74676300  1
  Na  Na13  1  0.07778000  0.22272100  0.74676300  1
  Na  Na14  1  0.61607000  0.50000000  0.56429200  1
  Na  Na15  1  0.21820100  0.50000000  0.84747600  1
  Na  Na16  1  0.87176150  0.86749450  0.73515400  1
  Na  Na17  1  0.78597100  0.33621200  0.86476100  1
  Na  Na18  1  0.78597100  0.66378800  0.86476100  1
  Na  Na19  1  0.99676200  0.73431200  0.01985900  1
  Na  Na20  1  0.49676200  0.76568800  0.01985900  1
  Na  Na21  1  0.71953800  0.84246000  0.11124700  1
  Na  Na22  1  0.71953800  0.15754000  0.11124700  1
  Na  Na23  1  0.13929700  0.13024000  0.26908300  1
  Na  Na24  1  0.13929700  0.86976000  0.26908300  1
  Na  Na25  1  0.33060950  0.12924850  0.18679900  1
  Na  Na26  1  0.33060950  0.87075150  0.18679900  1
  Na  Na27  1  0.86096700  0.00000000  0.44624500  1
  Na  Na28  1  0.47208250  0.69130750  0.38869400  1
  Na  Na29  1  0.47208250  0.30869250  0.38869400  1
  Na  Na30  1  0.50067700  0.00000000  0.50055900  1
  Na  Na31  1  0.37176150  0.63250550  0.73515400  1
  Na  Na32  1  0.57778000  0.27727900  0.74676300  1
  Na  Na33  1  0.57778000  0.72272100  0.74676300  1
  Na  Na34  1  0.11607000  0.00000000  0.56429200  1
  Na  Na35  1  0.71820100  0.00000000  0.84747600  1
  Na  Na36  1  0.37176150  0.36749450  0.73515400  1
  Na  Na37  1  0.28597100  0.83621200  0.86476100  1
  Na  Na38  1  0.28597100  0.16378800  0.86476100  1
  Na  Na39  1  0.49676200  0.23431200  0.01985900  1
  Mn  Mn40  1  0.41242900  0.50000000  0.09247400  1
  Mn  Mn41  1  0.03177500  0.50000000  0.17432000  1
  Mn  Mn42  1  0.17935800  0.34642700  0.46581200  1
  Mn  Mn43  1  0.17935800  0.65357300  0.46581200  1
  Mn  Mn44  1  0.81876950  0.64710650  0.53073800  1
  Mn  Mn45  1  0.81876950  0.35289350  0.53073800  1
  Mn  Mn46  1  0.96989700  0.50000000  0.83951800  1
  Mn  Mn47  1  0.59955500  0.50000000  0.92867900  1
  Mn  Mn48  1  0.91242900  0.00000000  0.09247400  1
  Mn  Mn49  1  0.53177500  0.00000000  0.17432000  1
  Mn  Mn50  1  0.67935800  0.84642700  0.46581200  1
  Mn  Mn51  1  0.67935800  0.15357300  0.46581200  1
  Mn  Mn52  1  0.31876950  0.14710650  0.53073800  1
  Mn  Mn53  1  0.31876950  0.85289350  0.53073800  1
  Mn  Mn54  1  0.46989700  0.00000000  0.83951800  1
  Mn  Mn55  1  0.09955500  0.00000000  0.92867900  1
  O  O56  1  0.14774850  0.83993250  0.01257700  1
  O  O57  1  0.14774850  0.16006750  0.01257700  1
  O  O58  1  0.88461500  0.50000000  0.00777600  1
  O  O59  1  0.04105000  0.65605600  0.29596900  1
  O  O60  1  0.04105000  0.34394400  0.29596900  1
  O  O61  1  0.80256750  0.20432450  0.37753300  1
  O  O62  1  0.80256750  0.79567550  0.37753300  1
  O  O63  1  0.80290000  0.50000000  0.38407400  1
  O  O64  1  0.49856000  0.50000000  0.71054400  1
  O  O65  1  0.50930300  0.50000000  0.30695200  1
  O  O66  1  0.22319900  0.50000000  0.59313200  1
  O  O67  1  0.18631600  0.18915500  0.59650900  1
  O  O68  1  0.18631600  0.81084500  0.59650900  1
  O  O69  1  0.94228550  0.34057550  0.72024600  1
  O  O70  1  0.94228550  0.65942450  0.72024600  1
  O  O71  1  0.11166200  0.50000000  0.00657600  1
  O  O72  1  0.85039750  0.15010950  0.98474900  1
  O  O73  1  0.85039750  0.84989050  0.98474900  1
  O  O74  1  0.64774850  0.33993250  0.01257700  1
  O  O75  1  0.64774850  0.66006750  0.01257700  1
  O  O76  1  0.38461500  0.00000000  0.00777600  1
  O  O77  1  0.54105000  0.15605600  0.29596900  1
  O  O78  1  0.54105000  0.84394400  0.29596900  1
  O  O79  1  0.30256750  0.70432450  0.37753300  1
  O  O80  1  0.30256750  0.29567550  0.37753300  1
  O  O81  1  0.30290000  0.00000000  0.38407400  1
  O  O82  1  0.99856000  0.00000000  0.71054400  1
  O  O83  1  0.00930300  0.00000000  0.30695200  1
  O  O84  1  0.72319900  0.00000000  0.59313200  1
  O  O85  1  0.68631600  0.68915500  0.59650900  1
  O  O86  1  0.68631600  0.31084500  0.59650900  1
  O  O87  1  0.44228550  0.84057550  0.72024600  1
  O  O88  1  0.44228550  0.15942450  0.72024600  1
  O  O89  1  0.61166200  0.00000000  0.00657600  1
  O  O90  1  0.35039750  0.65010950  0.98474900  1
  O  O91  1  0.35039750  0.34989050  0.98474900  1
