# generated using pymatgen
data_LiFe2(PO4)3
_symmetry_space_group_name_H-M   'P 1'
_cell_length_a   8.66897995
_cell_length_b   8.66897995
_cell_length_c   21.33783382
_cell_angle_alpha   90.00000000
_cell_angle_beta   90.00000000
_cell_angle_gamma   120.00000000
_symmetry_Int_Tables_number   1
_chemical_formula_structural   LiFe2(PO4)3
_chemical_formula_sum   'Li6 Fe12 P18 O72'
_cell_volume   1388.72724796
_cell_formula_units_Z   6
loop_
 _symmetry_equiv_pos_site_id
 _symmetry_equiv_pos_as_xyz
  1  'x, y, z'
loop_
 _atom_site_type_symbol
 _atom_site_label
 _atom_site_symmetry_multiplicity
 _atom_site_fract_x
 _atom_site_fract_y
 _atom_site_fract_z
 _atom_site_occupancy
  Li  Li0  1  0.33333333  0.66666667  0.16666667  1
  Li  Li1  1  0.00000000  0.00000000  0.00000000  1
  Li  Li2  1  1.00000000  0.00000000  0.50000000  1
  Li  Li3  1  0.66666667  0.33333333  0.33333333  1
  Li  Li4  1  0.66666667  0.33333333  0.83333333  1
  Li  Li5  1  0.33333333  0.66666667  0.66666667  1
  Fe  Fe6  1  0.33333333  0.66666667  0.02331267  1
  Fe  Fe7  1  0.00000000  0.00000000  0.14335400  1
  Fe  Fe8  1  0.66666667  0.33333333  0.18997933  1
  Fe  Fe9  1  0.33333333  0.66666667  0.31002067  1
  Fe  Fe10  1  0.00000000  0.00000000  0.35664600  1
  Fe  Fe11  1  0.66666667  0.33333333  0.47668733  1
  Fe  Fe12  1  0.33333333  0.66666667  0.52331267  1
  Fe  Fe13  1  0.00000000  0.00000000  0.64335400  1
  Fe  Fe14  1  0.66666667  0.33333333  0.68997933  1
  Fe  Fe15  1  0.33333333  0.66666667  0.81002067  1
  Fe  Fe16  1  0.00000000  0.00000000  0.85664600  1
  Fe  Fe17  1  0.66666667  0.33333333  0.97668733  1
  P  P18  1  0.29159500  0.00000000  0.25000000  1
  P  P19  1  0.00000000  0.29159500  0.25000000  1
  P  P20  1  0.66666667  0.04173833  0.08333333  1
  P  P21  1  0.37507167  0.33333333  0.08333333  1
  P  P22  1  0.70840500  0.70840500  0.25000000  1
  P  P23  1  0.95826167  0.62492833  0.08333333  1
  P  P24  1  0.95826167  0.33333333  0.58333333  1
  P  P25  1  0.66666667  0.62492833  0.58333333  1
  P  P26  1  0.33333333  0.37507167  0.41666667  1
  P  P27  1  0.04173833  0.66666667  0.41666667  1
  P  P28  1  0.37507167  0.04173833  0.58333333  1
  P  P29  1  0.62492833  0.95826167  0.41666667  1
  P  P30  1  0.62492833  0.66666667  0.91666667  1
  P  P31  1  0.33333333  0.95826167  0.91666667  1
  P  P32  1  0.00000000  0.70840500  0.75000000  1
  P  P33  1  0.70840500  0.00000000  0.75000000  1
  P  P34  1  0.04173833  0.37507167  0.91666667  1
  P  P35  1  0.29159500  0.29159500  0.75000000  1
  O  O36  1  0.16547200  0.48059600  0.24606300  1
  O  O37  1  0.19749000  0.00876200  0.30954500  1
  O  O38  1  0.99123800  0.18872800  0.30954500  1
  O  O39  1  0.80251000  0.81127200  0.19045500  1
  O  O40  1  0.86415667  0.52206133  0.14287833  1
  O  O41  1  0.85539467  0.53082333  0.02378833  1
  O  O42  1  0.46917667  0.32457133  0.02378833  1
  O  O43  1  0.51940400  0.68487600  0.24606300  1
  O  O44  1  0.48059600  0.16547200  0.25393700  1
  O  O45  1  0.83452800  0.31512400  0.25393700  1
  O  O46  1  0.81127200  0.80251000  0.30954500  1
  O  O47  1  0.18872800  0.99123800  0.19045500  1
  O  O48  1  0.35154267  0.49880533  0.08727033  1
  O  O49  1  0.18607067  0.16786133  0.07939633  1
  O  O50  1  0.98179067  0.81392933  0.07939633  1
  O  O51  1  0.67542867  0.14460533  0.02378833  1
  O  O52  1  0.14726267  0.64845733  0.08727033  1
  O  O53  1  0.68487600  0.51940400  0.25393700  1
  O  O54  1  0.00876200  0.19749000  0.19045500  1
  O  O55  1  0.31512400  0.83452800  0.24606300  1
  O  O56  1  0.47793867  0.34209533  0.14287833  1
  O  O57  1  0.50119467  0.85273733  0.08727033  1
  O  O58  1  0.83213867  0.01820933  0.07939633  1
  O  O59  1  0.65790467  0.13584333  0.14287833  1
  O  O60  1  0.83213867  0.81392933  0.57939633  1
  O  O61  1  0.86415667  0.34209533  0.64287833  1
  O  O62  1  0.65790467  0.52206133  0.64287833  1
  O  O63  1  0.46917667  0.14460533  0.52378833  1
  O  O64  1  0.53082333  0.85539467  0.47621167  1
  O  O65  1  0.52206133  0.86415667  0.35712167  1
  O  O66  1  0.13584333  0.65790467  0.35712167  1
  O  O67  1  0.18607067  0.01820933  0.57939633  1
  O  O68  1  0.14726267  0.49880533  0.58727033  1
  O  O69  1  0.50119467  0.64845733  0.58727033  1
  O  O70  1  0.47793867  0.13584333  0.64287833  1
  O  O71  1  0.85539467  0.32457133  0.52378833  1
  O  O72  1  0.01820933  0.83213867  0.42060367  1
  O  O73  1  0.85273733  0.50119467  0.41272967  1
  O  O74  1  0.64845733  0.14726267  0.41272967  1
  O  O75  1  0.34209533  0.47793867  0.35712167  1
  O  O76  1  0.81392933  0.98179067  0.42060367  1
  O  O77  1  0.35154267  0.85273733  0.58727033  1
  O  O78  1  0.67542867  0.53082333  0.52378833  1
  O  O79  1  0.98179067  0.16786133  0.57939633  1
  O  O80  1  0.14460533  0.67542867  0.47621167  1
  O  O81  1  0.16786133  0.18607067  0.42060367  1
  O  O82  1  0.49880533  0.35154267  0.41272967  1
  O  O83  1  0.32457133  0.46917667  0.47621167  1
  O  O84  1  0.49880533  0.14726267  0.91272967  1
  O  O85  1  0.53082333  0.67542867  0.97621167  1
  O  O86  1  0.32457133  0.85539467  0.97621167  1
  O  O87  1  0.13584333  0.47793867  0.85712167  1
  O  O88  1  0.19749000  0.18872800  0.80954500  1
  O  O89  1  0.18872800  0.19749000  0.69045500  1
  O  O90  1  0.80251000  0.99123800  0.69045500  1
  O  O91  1  0.85273733  0.35154267  0.91272967  1
  O  O92  1  0.81392933  0.83213867  0.92060367  1
  O  O93  1  0.16786133  0.98179067  0.92060367  1
  O  O94  1  0.14460533  0.46917667  0.97621167  1
  O  O95  1  0.52206133  0.65790467  0.85712167  1
  O  O96  1  0.68487600  0.16547200  0.75393700  1
  O  O97  1  0.51940400  0.83452800  0.74606300  1
  O  O98  1  0.31512400  0.48059600  0.74606300  1
  O  O99  1  0.00876200  0.81127200  0.69045500  1
  O  O100  1  0.48059600  0.31512400  0.75393700  1
  O  O101  1  0.01820933  0.18607067  0.92060367  1
  O  O102  1  0.34209533  0.86415667  0.85712167  1
  O  O103  1  0.64845733  0.50119467  0.91272967  1
  O  O104  1  0.81127200  0.00876200  0.80954500  1
  O  O105  1  0.83452800  0.51940400  0.75393700  1
  O  O106  1  0.16547200  0.68487600  0.74606300  1
  O  O107  1  0.99123800  0.80251000  0.80954500  1
