# generated using pymatgen
data_Ho3(CuSi)4
_symmetry_space_group_name_H-M   'P 1'
_cell_length_a   4.12562200
_cell_length_b   6.53064800
_cell_length_c   13.65801000
_cell_angle_alpha   90.00000000
_cell_angle_beta   90.00000000
_cell_angle_gamma   90.00000000
_symmetry_Int_Tables_number   1
_chemical_formula_structural   Ho3(CuSi)4
_chemical_formula_sum   'Ho6 Cu8 Si8'
_cell_volume   367.98755942
_cell_formula_units_Z   2
loop_
 _symmetry_equiv_pos_site_id
 _symmetry_equiv_pos_as_xyz
  1  'x, y, z'
loop_
 _atom_site_type_symbol
 _atom_site_label
 _atom_site_symmetry_multiplicity
 _atom_site_fract_x
 _atom_site_fract_y
 _atom_site_fract_z
 _atom_site_occupancy
  Ho  Ho0  1  0.50000000  0.00000000  0.87067500  1
  Ho  Ho1  1  0.00000000  0.50000000  0.62932500  1
  Ho  Ho2  1  0.50000000  0.50000000  0.00000000  1
  Ho  Ho3  1  0.00000000  0.50000000  0.37067500  1
  Ho  Ho4  1  0.50000000  0.00000000  0.12932500  1
  Ho  Ho5  1  0.00000000  0.00000000  0.50000000  1
  Cu  Cu6  1  0.00000000  0.69081100  0.83127400  1
  Cu  Cu7  1  0.50000000  0.19081100  0.66872600  1
  Cu  Cu8  1  0.00000000  0.30918900  0.83127400  1
  Cu  Cu9  1  0.50000000  0.80918900  0.66872600  1
  Cu  Cu10  1  0.50000000  0.19081100  0.33127400  1
  Cu  Cu11  1  0.00000000  0.69081100  0.16872600  1
  Cu  Cu12  1  0.50000000  0.80918900  0.33127400  1
  Cu  Cu13  1  0.00000000  0.30918900  0.16872600  1
  Si  Si14  1  0.00000000  0.81529800  0.00000000  1
  Si  Si15  1  0.00000000  0.18470200  0.00000000  1
  Si  Si16  1  0.50000000  0.50000000  0.78389600  1
  Si  Si17  1  0.00000000  0.00000000  0.71610400  1
  Si  Si18  1  0.50000000  0.31529800  0.50000000  1
  Si  Si19  1  0.50000000  0.68470200  0.50000000  1
  Si  Si20  1  0.00000000  0.00000000  0.28389600  1
  Si  Si21  1  0.50000000  0.50000000  0.21610400  1
