# generated using pymatgen
data_CeNiGe2
_symmetry_space_group_name_H-M   'P 1'
_cell_length_a   4.22345200
_cell_length_b   16.61121600
_cell_length_c   4.22605200
_cell_angle_alpha   90.00000000
_cell_angle_beta   90.00000000
_cell_angle_gamma   90.00000000
_symmetry_Int_Tables_number   1
_chemical_formula_structural   CeNiGe2
_chemical_formula_sum   'Ce4 Ni4 Ge8'
_cell_volume   296.48575009
_cell_formula_units_Z   4
loop_
 _symmetry_equiv_pos_site_id
 _symmetry_equiv_pos_as_xyz
  1  'x, y, z'
loop_
 _atom_site_type_symbol
 _atom_site_label
 _atom_site_symmetry_multiplicity
 _atom_site_fract_x
 _atom_site_fract_y
 _atom_site_fract_z
 _atom_site_occupancy
  Ce  Ce0  1  0.50000000  0.60822100  0.25000000  1
  Ce  Ce1  1  0.00000000  0.89177900  0.75000000  1
  Ce  Ce2  1  0.00000000  0.10822100  0.25000000  1
  Ce  Ce3  1  0.50000000  0.39177900  0.75000000  1
  Ni  Ni4  1  0.50000000  0.81865100  0.25000000  1
  Ni  Ni5  1  0.00000000  0.68134900  0.75000000  1
  Ni  Ni6  1  0.00000000  0.31865100  0.25000000  1
  Ni  Ni7  1  0.50000000  0.18134900  0.75000000  1
  Ge  Ge8  1  0.00000000  0.54188000  0.75000000  1
  Ge  Ge9  1  0.50000000  0.95812000  0.25000000  1
  Ge  Ge10  1  0.50000000  0.74976200  0.75000000  1
  Ge  Ge11  1  0.00000000  0.75023800  0.25000000  1
  Ge  Ge12  1  0.50000000  0.04188000  0.75000000  1
  Ge  Ge13  1  0.00000000  0.45812000  0.25000000  1
  Ge  Ge14  1  0.00000000  0.24976200  0.75000000  1
  Ge  Ge15  1  0.50000000  0.25023800  0.25000000  1
