# generated using pymatgen
data_Ba(RhPb2)3
_symmetry_space_group_name_H-M   'P 1'
_cell_length_a   8.41207600
_cell_length_b   27.53785800
_cell_length_c   4.60179300
_cell_angle_alpha   90.00000000
_cell_angle_beta   90.00000000
_cell_angle_gamma   90.00000000
_symmetry_Int_Tables_number   1
_chemical_formula_structural   Ba(RhPb2)3
_chemical_formula_sum   'Ba4 Rh12 Pb24'
_cell_volume   1066.00789956
_cell_formula_units_Z   4
loop_
 _symmetry_equiv_pos_site_id
 _symmetry_equiv_pos_as_xyz
  1  'x, y, z'
loop_
 _atom_site_type_symbol
 _atom_site_label
 _atom_site_symmetry_multiplicity
 _atom_site_fract_x
 _atom_site_fract_y
 _atom_site_fract_z
 _atom_site_occupancy
  Ba  Ba0  1  0.00000000  0.41072800  0.75000000  1
  Ba  Ba1  1  0.50000000  0.08927200  0.25000000  1
  Ba  Ba2  1  0.50000000  0.91072800  0.75000000  1
  Ba  Ba3  1  0.00000000  0.58927200  0.25000000  1
  Rh  Rh4  1  0.18886150  0.21741350  0.25000000  1
  Rh  Rh5  1  0.00000000  0.03697500  0.25000000  1
  Rh  Rh6  1  0.31113850  0.28258650  0.75000000  1
  Rh  Rh7  1  0.50000000  0.46302500  0.75000000  1
  Rh  Rh8  1  0.68886150  0.28258650  0.75000000  1
  Rh  Rh9  1  0.81113850  0.21741350  0.25000000  1
  Rh  Rh10  1  0.68886150  0.71741350  0.25000000  1
  Rh  Rh11  1  0.50000000  0.53697500  0.25000000  1
  Rh  Rh12  1  0.81113850  0.78258650  0.75000000  1
  Rh  Rh13  1  0.00000000  0.96302500  0.75000000  1
  Rh  Rh14  1  0.18886150  0.78258650  0.75000000  1
  Rh  Rh15  1  0.31113850  0.71741350  0.25000000  1
  Pb  Pb16  1  0.79907650  0.04609750  0.75000000  1
  Pb  Pb17  1  0.29907650  0.45390250  0.25000000  1
  Pb  Pb18  1  0.20092350  0.04609750  0.75000000  1
  Pb  Pb19  1  0.69791450  0.17184850  0.75000000  1
  Pb  Pb20  1  0.30208550  0.17184850  0.75000000  1
  Pb  Pb21  1  0.19791450  0.32815150  0.25000000  1
  Pb  Pb22  1  0.70092350  0.45390250  0.25000000  1
  Pb  Pb23  1  0.00000000  0.25012900  0.75000000  1
  Pb  Pb24  1  0.50000000  0.24987100  0.25000000  1
  Pb  Pb25  1  0.50000000  0.36523800  0.75000000  1
  Pb  Pb26  1  0.00000000  0.13476200  0.25000000  1
  Pb  Pb27  1  0.80208550  0.32815150  0.25000000  1
  Pb  Pb28  1  0.29907650  0.54609750  0.75000000  1
  Pb  Pb29  1  0.79907650  0.95390250  0.25000000  1
  Pb  Pb30  1  0.70092350  0.54609750  0.75000000  1
  Pb  Pb31  1  0.19791450  0.67184850  0.75000000  1
  Pb  Pb32  1  0.80208550  0.67184850  0.75000000  1
  Pb  Pb33  1  0.69791450  0.82815150  0.25000000  1
  Pb  Pb34  1  0.20092350  0.95390250  0.25000000  1
  Pb  Pb35  1  0.50000000  0.75012900  0.75000000  1
  Pb  Pb36  1  0.00000000  0.74987100  0.25000000  1
  Pb  Pb37  1  0.00000000  0.86523800  0.75000000  1
  Pb  Pb38  1  0.50000000  0.63476200  0.25000000  1
  Pb  Pb39  1  0.30208550  0.82815150  0.25000000  1
