# generated using pymatgen
data_Li3Fe3(PO4)4
_symmetry_space_group_name_H-M   'P 1'
_cell_length_a   19.17203200
_cell_length_b   6.40408000
_cell_length_c   10.61628770
_cell_angle_alpha   90.00000000
_cell_angle_beta   91.09866362
_cell_angle_gamma   90.00000000
_symmetry_Int_Tables_number   1
_chemical_formula_structural   Li3Fe3(PO4)4
_chemical_formula_sum   'Li12 Fe12 P16 O64'
_cell_volume   1303.21996591
_cell_formula_units_Z   4
loop_
 _symmetry_equiv_pos_site_id
 _symmetry_equiv_pos_as_xyz
  1  'x, y, z'
loop_
 _atom_site_type_symbol
 _atom_site_label
 _atom_site_symmetry_multiplicity
 _atom_site_fract_x
 _atom_site_fract_y
 _atom_site_fract_z
 _atom_site_occupancy
  Li  Li0  1  0.00000000  0.41145200  0.25000000  1
  Li  Li1  1  0.57069200  0.36019900  0.46655400  1
  Li  Li2  1  0.00000000  0.58854800  0.75000000  1
  Li  Li3  1  0.57069200  0.63980100  0.96655400  1
  Li  Li4  1  0.92930800  0.13980100  0.53344600  1
  Li  Li5  1  0.92930800  0.86019900  0.03344600  1
  Li  Li6  1  0.50000000  0.91145200  0.25000000  1
  Li  Li7  1  0.07069200  0.86019900  0.46655400  1
  Li  Li8  1  0.50000000  0.08854800  0.75000000  1
  Li  Li9  1  0.07069200  0.13980100  0.96655400  1
  Li  Li10  1  0.42930800  0.63980100  0.53344600  1
  Li  Li11  1  0.42930800  0.36019900  0.03344600  1
  Fe  Fe12  1  0.65304400  0.97716200  0.74900800  1
  Fe  Fe13  1  0.65304400  0.02283800  0.24900800  1
  Fe  Fe14  1  0.75000000  0.75000000  0.50000000  1
  Fe  Fe15  1  0.84695600  0.52283800  0.25099200  1
  Fe  Fe16  1  0.84695600  0.47716200  0.75099200  1
  Fe  Fe17  1  0.75000000  0.25000000  0.00000000  1
  Fe  Fe18  1  0.15304400  0.47716200  0.74900800  1
  Fe  Fe19  1  0.15304400  0.52283800  0.24900800  1
  Fe  Fe20  1  0.25000000  0.25000000  0.50000000  1
  Fe  Fe21  1  0.34695600  0.02283800  0.25099200  1
  Fe  Fe22  1  0.34695600  0.97716200  0.75099200  1
  Fe  Fe23  1  0.25000000  0.75000000  0.00000000  1
  P  P24  1  0.69964050  0.47952550  0.74381000  1
  P  P25  1  0.58077400  0.83634200  0.49215600  1
  P  P26  1  0.80035950  0.97952550  0.75619000  1
  P  P27  1  0.91922600  0.66365800  0.50784400  1
  P  P28  1  0.58077400  0.16365800  0.99215600  1
  P  P29  1  0.80035950  0.02047450  0.25619000  1
  P  P30  1  0.91922600  0.33634200  0.00784400  1
  P  P31  1  0.69964050  0.52047450  0.24381000  1
  P  P32  1  0.19964050  0.97952550  0.74381000  1
  P  P33  1  0.08077400  0.33634200  0.49215600  1
  P  P34  1  0.30035950  0.47952550  0.75619000  1
  P  P35  1  0.41922600  0.16365800  0.50784400  1
  P  P36  1  0.08077400  0.66365800  0.99215600  1
  P  P37  1  0.30035950  0.52047450  0.25619000  1
  P  P38  1  0.41922600  0.83634200  0.00784400  1
  P  P39  1  0.19964050  0.02047450  0.24381000  1
  O  O40  1  0.65328800  0.66493400  0.77756200  1
  O  O41  1  0.85210400  0.79877100  0.50605200  1
  O  O42  1  0.98128500  0.19842800  0.04034700  1
  O  O43  1  0.65461800  0.28877300  0.71439700  1
  O  O44  1  0.58635750  0.98931850  0.88761000  1
  O  O45  1  0.85210400  0.20122900  0.00605200  1
  O  O46  1  0.74392900  0.94708700  0.64582200  1
  O  O47  1  0.91364250  0.48931850  0.61239000  1
  O  O48  1  0.75607100  0.44708700  0.85417800  1
  O  O49  1  0.84538200  0.21122700  0.28560300  1
  O  O50  1  0.75361450  0.52008350  0.63560300  1
  O  O51  1  0.98128500  0.80157200  0.54034700  1
  O  O52  1  0.74638550  0.02008350  0.86439700  1
  O  O53  1  0.64789600  0.29877100  0.99394800  1
  O  O54  1  0.84538200  0.78877300  0.78560300  1
  O  O55  1  0.51871500  0.30157200  0.95965300  1
  O  O56  1  0.58635750  0.01068150  0.38761000  1
  O  O57  1  0.84671200  0.83506600  0.22243800  1
  O  O58  1  0.51871500  0.69842800  0.45965300  1
  O  O59  1  0.92407200  0.54779800  0.37822500  1
  O  O60  1  0.65461800  0.71122700  0.21439700  1
  O  O61  1  0.75361450  0.47991650  0.13560300  1
  O  O62  1  0.92407200  0.45220200  0.87822500  1
  O  O63  1  0.74638550  0.97991650  0.36439700  1
  O  O64  1  0.65328800  0.33506600  0.27756200  1
  O  O65  1  0.57592800  0.04779800  0.12177500  1
  O  O66  1  0.74392900  0.05291300  0.14582200  1
  O  O67  1  0.57592800  0.95220200  0.62177500  1
  O  O68  1  0.64789600  0.70122900  0.49394800  1
  O  O69  1  0.84671200  0.16493400  0.72243800  1
  O  O70  1  0.75607100  0.55291300  0.35417800  1
  O  O71  1  0.91364250  0.51068150  0.11239000  1
  O  O72  1  0.15328800  0.16493400  0.77756200  1
  O  O73  1  0.35210400  0.29877100  0.50605200  1
  O  O74  1  0.48128500  0.69842800  0.04034700  1
  O  O75  1  0.15461800  0.78877300  0.71439700  1
  O  O76  1  0.08635750  0.48931850  0.88761000  1
  O  O77  1  0.35210400  0.70122900  0.00605200  1
  O  O78  1  0.24392900  0.44708700  0.64582200  1
  O  O79  1  0.41364250  0.98931850  0.61239000  1
  O  O80  1  0.25607100  0.94708700  0.85417800  1
  O  O81  1  0.34538200  0.71122700  0.28560300  1
  O  O82  1  0.25361450  0.02008350  0.63560300  1
  O  O83  1  0.48128500  0.30157200  0.54034700  1
  O  O84  1  0.24638550  0.52008350  0.86439700  1
  O  O85  1  0.14789600  0.79877100  0.99394800  1
  O  O86  1  0.34538200  0.28877300  0.78560300  1
  O  O87  1  0.01871500  0.80157200  0.95965300  1
  O  O88  1  0.08635750  0.51068150  0.38761000  1
  O  O89  1  0.34671200  0.33506600  0.22243800  1
  O  O90  1  0.01871500  0.19842800  0.45965300  1
  O  O91  1  0.42407200  0.04779800  0.37822500  1
  O  O92  1  0.15461800  0.21122700  0.21439700  1
  O  O93  1  0.25361450  0.97991650  0.13560300  1
  O  O94  1  0.42407200  0.95220200  0.87822500  1
  O  O95  1  0.24638550  0.47991650  0.36439700  1
  O  O96  1  0.15328800  0.83506600  0.27756200  1
  O  O97  1  0.07592800  0.54779800  0.12177500  1
  O  O98  1  0.24392900  0.55291300  0.14582200  1
  O  O99  1  0.07592800  0.45220200  0.62177500  1
  O  O100  1  0.14789600  0.20122900  0.49394800  1
  O  O101  1  0.34671200  0.66493400  0.72243800  1
  O  O102  1  0.25607100  0.05291300  0.35417800  1
  O  O103  1  0.41364250  0.01068150  0.11239000  1
