# generated using pymatgen
data_CrP2O7
_symmetry_space_group_name_H-M   'P 1'
_cell_length_a   9.93597031
_cell_length_b   8.32528800
_cell_length_c   6.79353733
_cell_angle_alpha   90.00000000
_cell_angle_beta   117.38099988
_cell_angle_gamma   90.00000000
_symmetry_Int_Tables_number   1
_chemical_formula_structural   CrP2O7
_chemical_formula_sum   'Cr4 P8 O28'
_cell_volume   499.00259713
_cell_formula_units_Z   4
loop_
 _symmetry_equiv_pos_site_id
 _symmetry_equiv_pos_as_xyz
  1  'x, y, z'
loop_
 _atom_site_type_symbol
 _atom_site_label
 _atom_site_symmetry_multiplicity
 _atom_site_fract_x
 _atom_site_fract_y
 _atom_site_fract_z
 _atom_site_occupancy
  Cr  Cr0  1  0.50000000  0.81389000  0.50000000  1
  Cr  Cr1  1  0.00000000  0.68611000  0.50000000  1
  Cr  Cr2  1  0.00000000  0.31389000  0.50000000  1
  Cr  Cr3  1  0.50000000  0.18611000  0.50000000  1
  P  P4  1  0.72381500  0.50000000  0.55864950  1
  P  P5  1  0.80609400  0.50000000  0.05483750  1
  P  P6  1  0.77618500  0.00000000  0.44135050  1
  P  P7  1  0.69390600  0.00000000  0.94516250  1
  P  P8  1  0.22381500  0.00000000  0.55864950  1
  P  P9  1  0.30609400  0.00000000  0.05483750  1
  P  P10  1  0.27618500  0.50000000  0.44135050  1
  P  P11  1  0.19390600  0.50000000  0.94516250  1
  O  O12  1  0.85569800  0.00000000  0.97862200  1
  O  O13  1  0.68818350  0.00000000  0.17589200  1
  O  O14  1  0.63855900  0.00000000  0.49640200  1
  O  O15  1  0.89010300  0.65503600  0.17275550  1
  O  O16  1  0.39010300  0.84496400  0.17275550  1
  O  O17  1  0.60989700  0.84496400  0.82724450  1
  O  O18  1  0.36728900  0.65244350  0.52581400  1
  O  O19  1  0.64430200  0.50000000  0.02137800  1
  O  O20  1  0.86144100  0.50000000  0.50359800  1
  O  O21  1  0.81181650  0.50000000  0.82410800  1
  O  O22  1  0.13271100  0.84755650  0.47418600  1
  O  O23  1  0.86728900  0.84755650  0.52581400  1
  O  O24  1  0.63271100  0.65244350  0.47418600  1
  O  O25  1  0.10989700  0.65503600  0.82724450  1
  O  O26  1  0.35569800  0.50000000  0.97862200  1
  O  O27  1  0.18818350  0.50000000  0.17589200  1
  O  O28  1  0.13855900  0.50000000  0.49640200  1
  O  O29  1  0.39010300  0.15503600  0.17275550  1
  O  O30  1  0.89010300  0.34496400  0.17275550  1
  O  O31  1  0.10989700  0.34496400  0.82724450  1
  O  O32  1  0.86728900  0.15244350  0.52581400  1
  O  O33  1  0.14430200  0.00000000  0.02137800  1
  O  O34  1  0.36144100  0.00000000  0.50359800  1
  O  O35  1  0.31181650  0.00000000  0.82410800  1
  O  O36  1  0.63271100  0.34755650  0.47418600  1
  O  O37  1  0.36728900  0.34755650  0.52581400  1
  O  O38  1  0.13271100  0.15244350  0.47418600  1
  O  O39  1  0.60989700  0.15503600  0.82724450  1
