# generated using pymatgen
data_LiFe(PO3)4
_symmetry_space_group_name_H-M   'P 1'
_cell_length_a   9.41906600
_cell_length_b   14.21352400
_cell_length_c   7.74518243
_cell_angle_alpha   90.00000000
_cell_angle_beta   103.64244610
_cell_angle_gamma   90.00000000
_symmetry_Int_Tables_number   1
_chemical_formula_structural   LiFe(PO3)4
_chemical_formula_sum   'Li4 Fe4 P16 O48'
_cell_volume   1007.65563107
_cell_formula_units_Z   4
loop_
 _symmetry_equiv_pos_site_id
 _symmetry_equiv_pos_as_xyz
  1  'x, y, z'
loop_
 _atom_site_type_symbol
 _atom_site_label
 _atom_site_symmetry_multiplicity
 _atom_site_fract_x
 _atom_site_fract_y
 _atom_site_fract_z
 _atom_site_occupancy
  Li  Li0  1  0.33332550  0.15431650  0.77233100  1
  Li  Li1  1  0.33332550  0.84568350  0.27233100  1
  Li  Li2  1  0.83332550  0.65431650  0.77233100  1
  Li  Li3  1  0.83332550  0.34568350  0.27233100  1
  Fe  Fe4  1  0.49114050  0.63043050  0.73720400  1
  Fe  Fe5  1  0.49114050  0.36956950  0.23720400  1
  Fe  Fe6  1  0.99114050  0.13043050  0.73720400  1
  Fe  Fe7  1  0.99114050  0.86956950  0.23720400  1
  P  P8  1  0.59123550  0.83142050  0.64862700  1
  P  P9  1  0.40612250  0.82805650  0.89120300  1
  P  P10  1  0.87573300  0.07889100  0.31328200  1
  P  P11  1  0.59123550  0.16857950  0.14862700  1
  P  P12  1  0.40612250  0.17194350  0.39120300  1
  P  P13  1  0.13573750  0.92564550  0.65685000  1
  P  P14  1  0.13573750  0.07435450  0.15685000  1
  P  P15  1  0.87573300  0.92110900  0.81328200  1
  P  P16  1  0.09123550  0.33142050  0.64862700  1
  P  P17  1  0.90612250  0.32805650  0.89120300  1
  P  P18  1  0.37573300  0.57889100  0.31328200  1
  P  P19  1  0.09123550  0.66857950  0.14862700  1
  P  P20  1  0.90612250  0.67194350  0.39120300  1
  P  P21  1  0.63573750  0.42564550  0.65685000  1
  P  P22  1  0.63573750  0.57435450  0.15685000  1
  P  P23  1  0.37573300  0.42110900  0.81328200  1
  O  O24  1  0.48369050  0.85477950  0.48273700  1
  O  O25  1  0.37240900  0.63049400  0.48199200  1
  O  O26  1  0.50715500  0.38047300  0.73618000  1
  O  O27  1  0.63732100  0.27161900  0.18640100  1
  O  O28  1  0.37240900  0.36950600  0.98199200  1
  O  O29  1  0.73763300  0.10854600  0.15996800  1
  O  O30  1  0.37193650  0.26824750  0.30364300  1
  O  O31  1  0.88036700  0.02722000  0.81812600  1
  O  O32  1  0.88036700  0.97278000  0.31812600  1
  O  O33  1  0.54140550  0.12871150  0.32201400  1
  O  O34  1  0.48369050  0.14522050  0.98273700  1
  O  O35  1  0.43261500  0.16270100  0.58578800  1
  O  O36  1  0.27715800  0.09962000  0.30447300  1
  O  O37  1  0.73763300  0.89145400  0.65996800  1
  O  O38  1  0.37193650  0.73175250  0.80364300  1
  O  O39  1  0.54140550  0.87128850  0.82201400  1
  O  O40  1  0.13642200  0.12410100  0.98557400  1
  O  O41  1  0.12553850  0.03199450  0.65609800  1
  O  O42  1  0.43261500  0.83729900  0.08578800  1
  O  O43  1  0.12553850  0.96800550  0.15609800  1
  O  O44  1  0.63732100  0.72838100  0.68640100  1
  O  O45  1  0.27715800  0.90038000  0.80447300  1
  O  O46  1  0.13642200  0.87589900  0.48557400  1
  O  O47  1  0.50715500  0.61952700  0.23618000  1
  O  O48  1  0.98369050  0.35477950  0.48273700  1
  O  O49  1  0.87240900  0.13049400  0.48199200  1
  O  O50  1  0.00715500  0.88047300  0.73618000  1
  O  O51  1  0.13732100  0.77161900  0.18640100  1
  O  O52  1  0.87240900  0.86950600  0.98199200  1
  O  O53  1  0.23763300  0.60854600  0.15996800  1
  O  O54  1  0.87193650  0.76824750  0.30364300  1
  O  O55  1  0.38036700  0.52722000  0.81812600  1
  O  O56  1  0.38036700  0.47278000  0.31812600  1
  O  O57  1  0.04140550  0.62871150  0.32201400  1
  O  O58  1  0.98369050  0.64522050  0.98273700  1
  O  O59  1  0.93261500  0.66270100  0.58578800  1
  O  O60  1  0.77715800  0.59962000  0.30447300  1
  O  O61  1  0.23763300  0.39145400  0.65996800  1
  O  O62  1  0.87193650  0.23175250  0.80364300  1
  O  O63  1  0.04140550  0.37128850  0.82201400  1
  O  O64  1  0.63642200  0.62410100  0.98557400  1
  O  O65  1  0.62553850  0.53199450  0.65609800  1
  O  O66  1  0.93261500  0.33729900  0.08578800  1
  O  O67  1  0.62553850  0.46800550  0.15609800  1
  O  O68  1  0.13732100  0.22838100  0.68640100  1
  O  O69  1  0.77715800  0.40038000  0.80447300  1
  O  O70  1  0.63642200  0.37589900  0.48557400  1
  O  O71  1  0.00715500  0.11952700  0.23618000  1
