# generated using pymatgen
data_LiMnPO4
_symmetry_space_group_name_H-M   'P 1'
_cell_length_a   5.13934500
_cell_length_b   10.29236400
_cell_length_c   8.60032404
_cell_angle_alpha   90.00000000
_cell_angle_beta   126.52741433
_cell_angle_gamma   90.00000000
_symmetry_Int_Tables_number   1
_chemical_formula_structural   LiMnPO4
_chemical_formula_sum   'Li4 Mn4 P4 O16'
_cell_volume   365.56331636
_cell_formula_units_Z   4
loop_
 _symmetry_equiv_pos_site_id
 _symmetry_equiv_pos_as_xyz
  1  'x, y, z'
loop_
 _atom_site_type_symbol
 _atom_site_label
 _atom_site_symmetry_multiplicity
 _atom_site_fract_x
 _atom_site_fract_y
 _atom_site_fract_z
 _atom_site_occupancy
  Li  Li0  1  0.80297700  0.84603900  0.99920400  1
  Li  Li1  1  0.19702300  0.34603900  0.50079600  1
  Li  Li2  1  0.80297700  0.65396100  0.49920400  1
  Li  Li3  1  0.19702300  0.15396100  0.00079600  1
  Mn  Mn4  1  0.30137200  0.84745900  0.50024200  1
  Mn  Mn5  1  0.69862800  0.34745900  0.99975800  1
  Mn  Mn6  1  0.30137200  0.65254100  0.00024200  1
  Mn  Mn7  1  0.69862800  0.15254100  0.49975800  1
  P  P8  1  0.94205500  0.40421000  0.74710600  1
  P  P9  1  0.05794500  0.90421000  0.75289400  1
  P  P10  1  0.94205500  0.09579000  0.24710600  1
  P  P11  1  0.05794500  0.59579000  0.25289400  1
  O  O12  1  0.35925800  0.62095800  0.25517600  1
  O  O13  1  0.11406700  0.83902800  0.93343600  1
  O  O14  1  0.75721400  0.84216500  0.56406400  1
  O  O15  1  0.00004700  0.05208100  0.75529800  1
  O  O16  1  0.64074200  0.37904200  0.74482400  1
  O  O17  1  0.88593300  0.16097200  0.06656400  1
  O  O18  1  0.24278600  0.15783500  0.43593600  1
  O  O19  1  0.99995300  0.94791900  0.24470200  1
  O  O20  1  0.00004700  0.44791900  0.25529800  1
  O  O21  1  0.75721400  0.65783500  0.06406400  1
  O  O22  1  0.11406700  0.66097200  0.43343600  1
  O  O23  1  0.35925800  0.87904200  0.75517600  1
  O  O24  1  0.64074200  0.12095800  0.24482400  1
  O  O25  1  0.88593300  0.33902800  0.56656400  1
  O  O26  1  0.24278600  0.34216500  0.93593600  1
  O  O27  1  0.99995300  0.55208100  0.74470200  1
