# generated using pymatgen
data_K3FeO2
_symmetry_space_group_name_H-M   'P 1'
_cell_length_a   6.19234017
_cell_length_b   6.19234017
_cell_length_c   14.64684404
_cell_angle_alpha   90.00000000
_cell_angle_beta   90.00000000
_cell_angle_gamma   90.00000000
_symmetry_Int_Tables_number   1
_chemical_formula_structural   K3FeO2
_chemical_formula_sum   'K12 Fe4 O8'
_cell_volume   561.63435991
_cell_formula_units_Z   4
loop_
 _symmetry_equiv_pos_site_id
 _symmetry_equiv_pos_as_xyz
  1  'x, y, z'
loop_
 _atom_site_type_symbol
 _atom_site_label
 _atom_site_symmetry_multiplicity
 _atom_site_fract_x
 _atom_site_fract_y
 _atom_site_fract_z
 _atom_site_occupancy
  K  K0  1  0.96867000  0.96867000  0.50000000  1
  K  K1  1  0.53133000  0.46867000  0.75000000  1
  K  K2  1  0.46867000  0.53133000  0.25000000  1
  K  K3  1  0.03133000  0.03133000  0.00000000  1
  K  K4  1  0.51131250  0.01534050  0.12525200  1
  K  K5  1  0.51534050  0.98868750  0.87525200  1
  K  K6  1  0.01131250  0.48465950  0.62474800  1
  K  K7  1  0.48868750  0.98465950  0.62525200  1
  K  K8  1  0.01534050  0.51131250  0.87474800  1
  K  K9  1  0.98465950  0.48868750  0.37474800  1
  K  K10  1  0.48465950  0.01131250  0.37525200  1
  K  K11  1  0.98868750  0.51534050  0.12474800  1
  Fe  Fe12  1  0.00417000  0.99583000  0.75000000  1
  Fe  Fe13  1  0.99583000  0.00417000  0.25000000  1
  Fe  Fe14  1  0.49583000  0.49583000  0.50000000  1
  Fe  Fe15  1  0.50417000  0.50417000  0.00000000  1
  O  O16  1  0.78701750  0.79697550  0.25698000  1
  O  O17  1  0.21298250  0.20302450  0.75698000  1
  O  O18  1  0.79697550  0.78701750  0.74302000  1
  O  O19  1  0.29697550  0.71298250  0.00698000  1
  O  O20  1  0.28701750  0.70302450  0.49302000  1
  O  O21  1  0.20302450  0.21298250  0.24302000  1
  O  O22  1  0.70302450  0.28701750  0.50698000  1
  O  O23  1  0.71298250  0.29697550  0.99302000  1
