# generated using pymatgen
data_VP2O7
_symmetry_space_group_name_H-M   'P 1'
_cell_length_a   9.68287600
_cell_length_b   8.03646600
_cell_length_c   13.38142306
_cell_angle_alpha   90.00000000
_cell_angle_beta   110.49185371
_cell_angle_gamma   90.00000000
_symmetry_Int_Tables_number   1
_chemical_formula_structural   VP2O7
_chemical_formula_sum   'V8 P16 O56'
_cell_volume   975.39941472
_cell_formula_units_Z   8
loop_
 _symmetry_equiv_pos_site_id
 _symmetry_equiv_pos_as_xyz
  1  'x, y, z'
loop_
 _atom_site_type_symbol
 _atom_site_label
 _atom_site_symmetry_multiplicity
 _atom_site_fract_x
 _atom_site_fract_y
 _atom_site_fract_z
 _atom_site_occupancy
  V  V0  1  0.64431400  0.75734700  0.64294300  1
  V  V1  1  0.64431400  0.24265300  0.14294300  1
  V  V2  1  0.85568600  0.74265300  0.35705700  1
  V  V3  1  0.85568600  0.25734700  0.85705700  1
  V  V4  1  0.14431400  0.25734700  0.64294300  1
  V  V5  1  0.14431400  0.74265300  0.14294300  1
  V  V6  1  0.35568600  0.24265300  0.35705700  1
  V  V7  1  0.35568600  0.75734700  0.85705700  1
  P  P8  1  0.87581700  0.53982600  0.56887700  1
  P  P9  1  0.66849950  0.57956750  0.86439200  1
  P  P10  1  0.83150050  0.92043250  0.13560800  1
  P  P11  1  0.37581700  0.96017400  0.06887700  1
  P  P12  1  0.12418300  0.53982600  0.93112300  1
  P  P13  1  0.83150050  0.07956750  0.63560800  1
  P  P14  1  0.62418300  0.96017400  0.43112300  1
  P  P15  1  0.66849950  0.42043250  0.36439200  1
  P  P16  1  0.37581700  0.03982600  0.56887700  1
  P  P17  1  0.16849950  0.07956750  0.86439200  1
  P  P18  1  0.33150050  0.42043250  0.13560800  1
  P  P19  1  0.87581700  0.46017400  0.06887700  1
  P  P20  1  0.62418300  0.03982600  0.93112300  1
  P  P21  1  0.33150050  0.57956750  0.63560800  1
  P  P22  1  0.12418300  0.46017400  0.43112300  1
  P  P23  1  0.16849950  0.92043250  0.36439200  1
  O  O24  1  0.79475650  0.59652850  0.98006500  1
  O  O25  1  0.79475650  0.40347150  0.48006500  1
  O  O26  1  0.09244700  0.69341400  0.98741700  1
  O  O27  1  0.97805200  0.89584100  0.11826900  1
  O  O28  1  0.69753650  0.27996350  0.29649600  1
  O  O29  1  0.80246350  0.77996350  0.20350400  1
  O  O30  1  0.40755300  0.80658600  0.01258300  1
  O  O31  1  0.48778100  0.05162900  0.35791100  1
  O  O32  1  0.51221900  0.05162900  0.14208900  1
  O  O33  1  0.70524350  0.09652850  0.51993500  1
  O  O34  1  0.59244700  0.80658600  0.48741700  1
  O  O35  1  0.90755300  0.69341400  0.51258300  1
  O  O36  1  0.68657050  0.59340150  0.32277800  1
  O  O37  1  0.72905600  0.91545900  0.37069700  1
  O  O38  1  0.77094400  0.58454100  0.62930300  1
  O  O39  1  0.68657050  0.40659850  0.82277800  1
  O  O40  1  0.81342950  0.90659850  0.67722200  1
  O  O41  1  0.27094400  0.91545900  0.12930300  1
  O  O42  1  0.47805200  0.60415900  0.61826900  1
  O  O43  1  0.69753650  0.72003650  0.79649600  1
  O  O44  1  0.70524350  0.90347150  0.01993500  1
  O  O45  1  0.52194800  0.60415900  0.88173100  1
  O  O46  1  0.01221900  0.44837100  0.64208900  1
  O  O47  1  0.81342950  0.09340150  0.17722200  1
  O  O48  1  0.80246350  0.22003650  0.70350400  1
  O  O49  1  0.22905600  0.58454100  0.87069700  1
  O  O50  1  0.98778100  0.44837100  0.85791100  1
  O  O51  1  0.02194800  0.89584100  0.38173100  1
  O  O52  1  0.29475650  0.09652850  0.98006500  1
  O  O53  1  0.29475650  0.90347150  0.48006500  1
  O  O54  1  0.59244700  0.19341400  0.98741700  1
  O  O55  1  0.47805200  0.39584100  0.11826900  1
  O  O56  1  0.19753650  0.77996350  0.29649600  1
  O  O57  1  0.30246350  0.27996350  0.20350400  1
  O  O58  1  0.90755300  0.30658600  0.01258300  1
  O  O59  1  0.98778100  0.55162900  0.35791100  1
  O  O60  1  0.01221900  0.55162900  0.14208900  1
  O  O61  1  0.20524350  0.59652850  0.51993500  1
  O  O62  1  0.09244700  0.30658600  0.48741700  1
  O  O63  1  0.40755300  0.19341400  0.51258300  1
  O  O64  1  0.18657050  0.09340150  0.32277800  1
  O  O65  1  0.22905600  0.41545900  0.37069700  1
  O  O66  1  0.27094400  0.08454100  0.62930300  1
  O  O67  1  0.18657050  0.90659850  0.82277800  1
  O  O68  1  0.31342950  0.40659850  0.67722200  1
  O  O69  1  0.77094400  0.41545900  0.12930300  1
  O  O70  1  0.97805200  0.10415900  0.61826900  1
  O  O71  1  0.19753650  0.22003650  0.79649600  1
  O  O72  1  0.20524350  0.40347150  0.01993500  1
  O  O73  1  0.02194800  0.10415900  0.88173100  1
  O  O74  1  0.51221900  0.94837100  0.64208900  1
  O  O75  1  0.31342950  0.59340150  0.17722200  1
  O  O76  1  0.30246350  0.72003650  0.70350400  1
  O  O77  1  0.72905600  0.08454100  0.87069700  1
  O  O78  1  0.48778100  0.94837100  0.85791100  1
  O  O79  1  0.52194800  0.39584100  0.38173100  1
