# generated using pymatgen
data_Sr7Re4O19
_symmetry_space_group_name_H-M   'P 1'
_cell_length_a   13.84731000
_cell_length_b   5.63855400
_cell_length_c   10.51411667
_cell_angle_alpha   90.00000000
_cell_angle_beta   98.64644701
_cell_angle_gamma   90.00000000
_symmetry_Int_Tables_number   1
_chemical_formula_structural   Sr7Re4O19
_chemical_formula_sum   'Sr14 Re8 O38'
_cell_volume   811.59966616
_cell_formula_units_Z   2
loop_
 _symmetry_equiv_pos_site_id
 _symmetry_equiv_pos_as_xyz
  1  'x, y, z'
loop_
 _atom_site_type_symbol
 _atom_site_label
 _atom_site_symmetry_multiplicity
 _atom_site_fract_x
 _atom_site_fract_y
 _atom_site_fract_z
 _atom_site_occupancy
  Sr  Sr0  1  0.71077600  0.50000000  0.58722300  1
  Sr  Sr1  1  0.78922400  0.00000000  0.41277700  1
  Sr  Sr2  1  0.91622400  0.50000000  0.83536400  1
  Sr  Sr3  1  0.58377600  0.00000000  0.16463600  1
  Sr  Sr4  1  0.00000000  0.50000000  0.50000000  1
  Sr  Sr5  1  0.85846700  0.00000000  0.04245600  1
  Sr  Sr6  1  0.64153300  0.50000000  0.95754400  1
  Sr  Sr7  1  0.21077600  0.00000000  0.58722300  1
  Sr  Sr8  1  0.28922400  0.50000000  0.41277700  1
  Sr  Sr9  1  0.41622400  0.00000000  0.83536400  1
  Sr  Sr10  1  0.08377600  0.50000000  0.16463600  1
  Sr  Sr11  1  0.50000000  0.00000000  0.50000000  1
  Sr  Sr12  1  0.35846700  0.50000000  0.04245600  1
  Sr  Sr13  1  0.14153300  0.00000000  0.95754400  1
  Re  Re14  1  0.96685800  0.00000000  0.67718200  1
  Re  Re15  1  0.53314200  0.50000000  0.32281800  1
  Re  Re16  1  0.66923800  0.00000000  0.78020500  1
  Re  Re17  1  0.83076200  0.50000000  0.21979500  1
  Re  Re18  1  0.46685800  0.50000000  0.67718200  1
  Re  Re19  1  0.03314200  0.00000000  0.32281800  1
  Re  Re20  1  0.16923800  0.50000000  0.78020500  1
  Re  Re21  1  0.33076200  0.00000000  0.21979500  1
  O  O22  1  0.00000000  0.00000000  0.50000000  1
  O  O23  1  0.69611200  0.00000000  0.61337900  1
  O  O24  1  0.80388800  0.50000000  0.38662100  1
  O  O25  1  0.54465900  0.50000000  0.14572700  1
  O  O26  1  0.95534100  0.00000000  0.85427300  1
  O  O27  1  0.89821200  0.50000000  0.06960300  1
  O  O28  1  0.60178800  0.00000000  0.93039700  1
  O  O29  1  0.57086300  0.74558500  0.71534800  1
  O  O30  1  0.92913700  0.24558500  0.28465200  1
  O  O31  1  0.92913700  0.75441500  0.28465200  1
  O  O32  1  0.57086300  0.25441500  0.71534800  1
  O  O33  1  0.87589200  0.24548000  0.62678700  1
  O  O34  1  0.62410800  0.74548000  0.37321300  1
  O  O35  1  0.62410800  0.25452000  0.37321300  1
  O  O36  1  0.87589200  0.75452000  0.62678700  1
  O  O37  1  0.75631800  0.76043800  0.84631300  1
  O  O38  1  0.74368200  0.26043800  0.15368700  1
  O  O39  1  0.74368200  0.73956200  0.15368700  1
  O  O40  1  0.75631800  0.23956200  0.84631300  1
  O  O41  1  0.50000000  0.50000000  0.50000000  1
  O  O42  1  0.19611200  0.50000000  0.61337900  1
  O  O43  1  0.30388800  0.00000000  0.38662100  1
  O  O44  1  0.04465900  0.00000000  0.14572700  1
  O  O45  1  0.45534100  0.50000000  0.85427300  1
  O  O46  1  0.39821200  0.00000000  0.06960300  1
  O  O47  1  0.10178800  0.50000000  0.93039700  1
  O  O48  1  0.07086300  0.24558500  0.71534800  1
  O  O49  1  0.42913700  0.74558500  0.28465200  1
  O  O50  1  0.42913700  0.25441500  0.28465200  1
  O  O51  1  0.07086300  0.75441500  0.71534800  1
  O  O52  1  0.37589200  0.74548000  0.62678700  1
  O  O53  1  0.12410800  0.24548000  0.37321300  1
  O  O54  1  0.12410800  0.75452000  0.37321300  1
  O  O55  1  0.37589200  0.25452000  0.62678700  1
  O  O56  1  0.25631800  0.26043800  0.84631300  1
  O  O57  1  0.24368200  0.76043800  0.15368700  1
  O  O58  1  0.24368200  0.23956200  0.15368700  1
  O  O59  1  0.25631800  0.73956200  0.84631300  1
