# generated using pymatgen
data_LiCr2P5O16
_symmetry_space_group_name_H-M   'P 1'
_cell_length_a   5.00446300
_cell_length_b   6.71667100
_cell_length_c   18.70409966
_cell_angle_alpha   90.00000000
_cell_angle_beta   90.36793542
_cell_angle_gamma   90.00000000
_symmetry_Int_Tables_number   1
_chemical_formula_structural   LiCr2P5O16
_chemical_formula_sum   'Li2 Cr4 P10 O32'
_cell_volume   628.69413901
_cell_formula_units_Z   2
loop_
 _symmetry_equiv_pos_site_id
 _symmetry_equiv_pos_as_xyz
  1  'x, y, z'
loop_
 _atom_site_type_symbol
 _atom_site_label
 _atom_site_symmetry_multiplicity
 _atom_site_fract_x
 _atom_site_fract_y
 _atom_site_fract_z
 _atom_site_occupancy
  Li  Li0  1  0.27237100  0.63279900  0.47424600  1
  Li  Li1  1  0.27237100  0.36720100  0.97424600  1
  Cr  Cr2  1  0.25505500  0.81816000  0.90777500  1
  Cr  Cr3  1  0.74666000  0.81981300  0.59259200  1
  Cr  Cr4  1  0.25505500  0.18184000  0.40777500  1
  Cr  Cr5  1  0.74666000  0.18018700  0.09259200  1
  P  P6  1  0.23325300  0.12631200  0.57622000  1
  P  P7  1  0.25978200  0.53465400  0.63090900  1
  P  P8  1  0.99375600  0.74690000  0.74981700  1
  P  P9  1  0.74070000  0.53262800  0.86899500  1
  P  P10  1  0.23325300  0.87368800  0.07622000  1
  P  P11  1  0.25978200  0.46534600  0.13090900  1
  P  P12  1  0.99375600  0.25310000  0.24981700  1
  P  P13  1  0.76599700  0.12429000  0.92134600  1
  P  P14  1  0.76599700  0.87571000  0.42134600  1
  P  P15  1  0.74070000  0.46737200  0.36899500  1
  O  O16  1  0.06308400  0.07275600  0.93041900  1
  O  O17  1  0.95168000  0.61939100  0.91817300  1
  O  O18  1  0.07278000  0.63632500  0.57738500  1
  O  O19  1  0.64459700  0.22538000  0.98785700  1
  O  O20  1  0.33802600  0.77080700  0.00865200  1
  O  O21  1  0.94626300  0.94492500  0.06780700  1
  O  O22  1  0.07278000  0.36367500  0.07738500  1
  O  O23  1  0.42109700  0.02595100  0.10938500  1
  O  O24  1  0.55239800  0.42867500  0.11750600  1
  O  O25  1  0.21190000  0.69679600  0.13604700  1
  O  O26  1  0.84678400  0.13408600  0.19454100  1
  O  O27  1  0.18847000  0.40992100  0.21191900  1
  O  O28  1  0.77930800  0.39771300  0.28810800  1
  O  O29  1  0.15244700  0.14278600  0.30528500  1
  O  O30  1  0.77610000  0.70076800  0.36009300  1
  O  O31  1  0.59255700  0.03773000  0.38914700  1
  O  O32  1  0.45048600  0.43786100  0.38995600  1
  O  O33  1  0.95168000  0.38060900  0.41817300  1
  O  O34  1  0.06308400  0.92724400  0.43041900  1
  O  O35  1  0.59255700  0.96227000  0.88914700  1
  O  O36  1  0.33802600  0.22919300  0.50865200  1
  O  O37  1  0.94626300  0.05507500  0.56780700  1
  O  O38  1  0.64459700  0.77462000  0.48785700  1
  O  O39  1  0.42109700  0.97404900  0.60938500  1
  O  O40  1  0.55239800  0.57132500  0.61750600  1
  O  O41  1  0.21190000  0.30320400  0.63604700  1
  O  O42  1  0.84678400  0.86591400  0.69454100  1
  O  O43  1  0.18847000  0.59007900  0.71191900  1
  O  O44  1  0.77930800  0.60228700  0.78810800  1
  O  O45  1  0.15244700  0.85721400  0.80528500  1
  O  O46  1  0.77610000  0.29923200  0.86009300  1
  O  O47  1  0.45048600  0.56213900  0.88995600  1
