# generated using pymatgen
data_Ta9(NiS3)2
_symmetry_space_group_name_H-M   'P 1'
_cell_length_a   10.19993540
_cell_length_b   10.19993540
_cell_length_c   3.39652500
_cell_angle_alpha   90.00000000
_cell_angle_beta   90.00000000
_cell_angle_gamma   120.00000000
_symmetry_Int_Tables_number   1
_chemical_formula_structural   Ta9(NiS3)2
_chemical_formula_sum   'Ta9 Ni2 S6'
_cell_volume   306.02738388
_cell_formula_units_Z   1
loop_
 _symmetry_equiv_pos_site_id
 _symmetry_equiv_pos_as_xyz
  1  'x, y, z'
loop_
 _atom_site_type_symbol
 _atom_site_label
 _atom_site_symmetry_multiplicity
 _atom_site_fract_x
 _atom_site_fract_y
 _atom_site_fract_z
 _atom_site_occupancy
  Ta  Ta0  1  0.73683067  0.19735933  0.50000000  1
  Ta  Ta1  1  0.80264067  0.53947133  0.50000000  1
  Ta  Ta2  1  0.46052867  0.26316933  0.50000000  1
  Ta  Ta3  1  0.26316933  0.46052867  0.50000000  1
  Ta  Ta4  1  0.53947133  0.80264067  0.50000000  1
  Ta  Ta5  1  0.19735933  0.73683067  0.50000000  1
  Ta  Ta6  1  0.00000000  0.45426050  0.00000000  1
  Ta  Ta7  1  0.54573950  0.54573950  0.00000000  1
  Ta  Ta8  1  0.45426050  0.00000000  0.00000000  1
  Ni  Ni9  1  0.66666667  0.33333333  0.00000000  1
  Ni  Ni10  1  0.33333333  0.66666667  0.00000000  1
  S  S11  1  0.00000000  0.70435250  0.00000000  1
  S  S12  1  0.29564750  0.29564750  0.00000000  1
  S  S13  1  0.70435250  0.00000000  0.00000000  1
  S  S14  1  0.00000000  0.27148950  0.50000000  1
  S  S15  1  0.72851050  0.72851050  0.50000000  1
  S  S16  1  0.27148950  0.00000000  0.50000000  1
