# generated using pymatgen
data_LiCr2P3O11
_symmetry_space_group_name_H-M   'P 1'
_cell_length_a   11.42484600
_cell_length_b   8.61396400
_cell_length_c   8.69306493
_cell_angle_alpha   90.00000000
_cell_angle_beta   115.12513354
_cell_angle_gamma   90.00000000
_symmetry_Int_Tables_number   1
_chemical_formula_structural   LiCr2P3O11
_chemical_formula_sum   'Li4 Cr8 P12 O44'
_cell_volume   774.56610688
_cell_formula_units_Z   4
loop_
 _symmetry_equiv_pos_site_id
 _symmetry_equiv_pos_as_xyz
  1  'x, y, z'
loop_
 _atom_site_type_symbol
 _atom_site_label
 _atom_site_symmetry_multiplicity
 _atom_site_fract_x
 _atom_site_fract_y
 _atom_site_fract_z
 _atom_site_occupancy
  Li  Li0  1  0.74577350  0.26254750  0.76414200  1
  Li  Li1  1  0.25422650  0.26254750  0.23585800  1
  Li  Li2  1  0.24577350  0.76254750  0.76414200  1
  Li  Li3  1  0.75422650  0.76254750  0.23585800  1
  Cr  Cr4  1  0.12419950  0.23932450  0.79502100  1
  Cr  Cr5  1  0.12414600  0.76135400  0.29577300  1
  Cr  Cr6  1  0.87580050  0.23932450  0.20497900  1
  Cr  Cr7  1  0.87585400  0.76135400  0.70422700  1
  Cr  Cr8  1  0.62419950  0.73932450  0.79502100  1
  Cr  Cr9  1  0.62414600  0.26135400  0.29577300  1
  Cr  Cr10  1  0.37580050  0.73932450  0.20497900  1
  Cr  Cr11  1  0.37585400  0.26135400  0.70422700  1
  P  P12  1  0.00000000  0.95750900  0.50000000  1
  P  P13  1  0.88578450  0.56583850  0.03696100  1
  P  P14  1  0.11326900  0.43508900  0.46175600  1
  P  P15  1  0.00000000  0.04292700  0.00000000  1
  P  P16  1  0.88673100  0.43508900  0.53824400  1
  P  P17  1  0.11421550  0.56583850  0.96303900  1
  P  P18  1  0.50000000  0.45750900  0.50000000  1
  P  P19  1  0.38578450  0.06583850  0.03696100  1
  P  P20  1  0.61326900  0.93508900  0.46175600  1
  P  P21  1  0.50000000  0.54292700  0.00000000  1
  P  P22  1  0.38673100  0.93508900  0.53824400  1
  P  P23  1  0.61421550  0.06583850  0.96303900  1
  O  O24  1  0.43099700  0.55198900  0.33792600  1
  O  O25  1  0.19075200  0.42808100  0.94698900  1
  O  O26  1  0.10707150  0.84714850  0.49147300  1
  O  O27  1  0.43257200  0.44775200  0.83832600  1
  O  O28  1  0.56900300  0.55198900  0.66207400  1
  O  O29  1  0.56742800  0.44775200  0.16167400  1
  O  O30  1  0.81060100  0.57044100  0.55940900  1
  O  O31  1  0.80874150  0.33851750  0.37504300  1
  O  O32  1  0.94581050  0.32887050  0.69399500  1
  O  O33  1  0.89292850  0.84714850  0.50852700  1
  O  O34  1  0.80924800  0.42808100  0.05301100  1
  O  O35  1  0.00000000  0.50972300  0.50000000  1
  O  O36  1  0.05753300  0.67178100  0.80667000  1
  O  O37  1  0.94246700  0.67178100  0.19333000  1
  O  O38  1  0.89266650  0.15323850  0.00861800  1
  O  O39  1  0.80881700  0.66306600  0.87442000  1
  O  O40  1  0.05418950  0.32887050  0.30600500  1
  O  O41  1  0.19125850  0.33851750  0.62495700  1
  O  O42  1  0.00000000  0.49273500  0.00000000  1
  O  O43  1  0.18939900  0.57044100  0.44059100  1
  O  O44  1  0.10733350  0.15323850  0.99138200  1
  O  O45  1  0.19118300  0.66306600  0.12558000  1
  O  O46  1  0.93099700  0.05198900  0.33792600  1
  O  O47  1  0.69075200  0.92808100  0.94698900  1
  O  O48  1  0.60707150  0.34714850  0.49147300  1
  O  O49  1  0.93257200  0.94775200  0.83832600  1
  O  O50  1  0.06900300  0.05198900  0.66207400  1
  O  O51  1  0.06742800  0.94775200  0.16167400  1
  O  O52  1  0.31060100  0.07044100  0.55940900  1
  O  O53  1  0.30874150  0.83851750  0.37504300  1
  O  O54  1  0.44581050  0.82887050  0.69399500  1
  O  O55  1  0.39292850  0.34714850  0.50852700  1
  O  O56  1  0.30924800  0.92808100  0.05301100  1
  O  O57  1  0.50000000  0.00972300  0.50000000  1
  O  O58  1  0.55753300  0.17178100  0.80667000  1
  O  O59  1  0.44246700  0.17178100  0.19333000  1
  O  O60  1  0.39266650  0.65323850  0.00861800  1
  O  O61  1  0.30881700  0.16306600  0.87442000  1
  O  O62  1  0.55418950  0.82887050  0.30600500  1
  O  O63  1  0.69125850  0.83851750  0.62495700  1
  O  O64  1  0.50000000  0.99273500  0.00000000  1
  O  O65  1  0.68939900  0.07044100  0.44059100  1
  O  O66  1  0.60733350  0.65323850  0.99138200  1
  O  O67  1  0.69118300  0.16306600  0.12558000  1
