# generated using pymatgen
data_U3Sb4
_symmetry_space_group_name_H-M   'P 1'
_cell_length_a   9.10222800
_cell_length_b   9.10222800
_cell_length_c   9.10222800
_cell_angle_alpha   90.00000000
_cell_angle_beta   90.00000000
_cell_angle_gamma   90.00000000
_symmetry_Int_Tables_number   1
_chemical_formula_structural   U3Sb4
_chemical_formula_sum   'U12 Sb16'
_cell_volume   754.12463757
_cell_formula_units_Z   4
loop_
 _symmetry_equiv_pos_site_id
 _symmetry_equiv_pos_as_xyz
  1  'x, y, z'
loop_
 _atom_site_type_symbol
 _atom_site_label
 _atom_site_symmetry_multiplicity
 _atom_site_fract_x
 _atom_site_fract_y
 _atom_site_fract_z
 _atom_site_occupancy
  U  U0  1  0.75000000  0.37500000  0.50000000  1
  U  U1  1  0.50000000  0.75000000  0.37500000  1
  U  U2  1  0.50000000  0.25000000  0.12500000  1
  U  U3  1  0.37500000  0.50000000  0.75000000  1
  U  U4  1  0.12500000  0.50000000  0.25000000  1
  U  U5  1  0.25000000  0.12500000  0.50000000  1
  U  U6  1  0.25000000  0.87500000  0.00000000  1
  U  U7  1  0.00000000  0.25000000  0.87500000  1
  U  U8  1  0.00000000  0.75000000  0.62500000  1
  U  U9  1  0.87500000  0.00000000  0.25000000  1
  U  U10  1  0.62500000  0.00000000  0.75000000  1
  U  U11  1  0.75000000  0.62500000  0.00000000  1
  Sb  Sb12  1  0.07960500  0.57960500  0.92039500  1
  Sb  Sb13  1  0.17039500  0.82960500  0.32960500  1
  Sb  Sb14  1  0.17039500  0.17039500  0.17039500  1
  Sb  Sb15  1  0.32960500  0.17039500  0.82960500  1
  Sb  Sb16  1  0.42039500  0.42039500  0.42039500  1
  Sb  Sb17  1  0.57960500  0.92039500  0.07960500  1
  Sb  Sb18  1  0.82960500  0.32960500  0.17039500  1
  Sb  Sb19  1  0.92039500  0.07960500  0.57960500  1
  Sb  Sb20  1  0.57960500  0.07960500  0.42039500  1
  Sb  Sb21  1  0.67039500  0.32960500  0.82960500  1
  Sb  Sb22  1  0.67039500  0.67039500  0.67039500  1
  Sb  Sb23  1  0.82960500  0.67039500  0.32960500  1
  Sb  Sb24  1  0.92039500  0.92039500  0.92039500  1
  Sb  Sb25  1  0.07960500  0.42039500  0.57960500  1
  Sb  Sb26  1  0.32960500  0.82960500  0.67039500  1
  Sb  Sb27  1  0.42039500  0.57960500  0.07960500  1
