# generated using pymatgen
data_Mn2(PO4)3
_symmetry_space_group_name_H-M   'P 1'
_cell_length_a   8.15935007
_cell_length_b   8.15935007
_cell_length_c   22.24624072
_cell_angle_alpha   90.00000000
_cell_angle_beta   90.00000000
_cell_angle_gamma   120.00000000
_symmetry_Int_Tables_number   1
_chemical_formula_structural   Mn2(PO4)3
_chemical_formula_sum   'Mn12 P18 O72'
_cell_volume   1282.62115142
_cell_formula_units_Z   6
loop_
 _symmetry_equiv_pos_site_id
 _symmetry_equiv_pos_as_xyz
  1  'x, y, z'
loop_
 _atom_site_type_symbol
 _atom_site_label
 _atom_site_symmetry_multiplicity
 _atom_site_fract_x
 _atom_site_fract_y
 _atom_site_fract_z
 _atom_site_occupancy
  Mn  Mn0  1  0.33333333  0.66666667  0.01642067  1
  Mn  Mn1  1  0.33333333  0.66666667  0.31691267  1
  Mn  Mn2  1  0.00000000  0.00000000  0.14294000  1
  Mn  Mn3  1  0.66666667  0.33333333  0.19039333  1
  Mn  Mn4  1  0.00000000  0.00000000  0.34975400  1
  Mn  Mn5  1  0.00000000  0.00000000  0.65024600  1
  Mn  Mn6  1  0.66666667  0.33333333  0.47627333  1
  Mn  Mn7  1  0.33333333  0.66666667  0.52372667  1
  Mn  Mn8  1  0.66666667  0.33333333  0.68308733  1
  Mn  Mn9  1  0.66666667  0.33333333  0.98357933  1
  Mn  Mn10  1  0.33333333  0.66666667  0.80960667  1
  Mn  Mn11  1  0.00000000  0.00000000  0.85706000  1
  P  P12  1  0.66678200  0.62101700  0.08238800  1
  P  P13  1  0.99988467  0.71231633  0.25094533  1
  P  P14  1  0.28768367  0.28756833  0.25094533  1
  P  P15  1  0.37898300  0.04576500  0.08238800  1
  P  P16  1  0.95423500  0.33321800  0.08238800  1
  P  P17  1  0.71243167  0.00011533  0.25094533  1
  P  P18  1  0.33344867  0.95435033  0.41572133  1
  P  P19  1  0.66655133  0.04564967  0.58427867  1
  P  P20  1  0.95435033  0.62090167  0.58427867  1
  P  P21  1  0.04564967  0.37909833  0.41572133  1
  P  P22  1  0.62090167  0.66655133  0.41572133  1
  P  P23  1  0.37909833  0.33344867  0.58427867  1
  P  P24  1  0.00011533  0.28768367  0.74905467  1
  P  P25  1  0.33321800  0.37898300  0.91761200  1
  P  P26  1  0.62101700  0.95423500  0.91761200  1
  P  P27  1  0.71231633  0.71243167  0.74905467  1
  P  P28  1  0.28756833  0.99988467  0.74905467  1
  P  P29  1  0.04576500  0.66678200  0.91761200  1
  O  O30  1  0.44250800  0.19938200  0.03229900  1
  O  O31  1  0.79566067  0.83680333  0.09005933  1
  O  O32  1  0.80061800  0.24312600  0.03229900  1
  O  O33  1  0.00947400  0.80979900  0.19081400  1
  O  O34  1  0.19020100  0.19967500  0.19081400  1
  O  O35  1  0.16319667  0.95885733  0.09005933  1
  O  O36  1  0.22415867  0.13395133  0.30103433  1
  O  O37  1  0.04114267  0.20433933  0.09005933  1
  O  O38  1  0.50347000  0.37447600  0.24327400  1
  O  O39  1  0.75687400  0.55749200  0.03229900  1
  O  O40  1  0.87100600  0.49653000  0.24327400  1
  O  O41  1  0.20233933  0.75849167  0.26677367  1
  O  O42  1  0.86604867  0.09020733  0.30103433  1
  O  O43  1  0.46432733  0.57484167  0.06655967  1
  O  O44  1  0.42515833  0.88948567  0.06655967  1
  O  O45  1  0.65719267  0.52353433  0.14251933  1
  O  O46  1  0.24150833  0.44384767  0.26677367  1
  O  O47  1  0.90979267  0.77584133  0.30103433  1
  O  O48  1  0.47646567  0.13365833  0.14251933  1
  O  O49  1  0.62552400  0.12899400  0.24327400  1
  O  O50  1  0.55615233  0.79766067  0.26677367  1
  O  O51  1  0.11051433  0.53567267  0.06655967  1
  O  O52  1  0.86634167  0.34280733  0.14251933  1
  O  O53  1  0.80032500  0.99052600  0.19081400  1
  O  O54  1  0.10917467  0.53271533  0.36563233  1
  O  O55  1  0.46232733  0.17013667  0.42339267  1
  O  O56  1  0.46728467  0.57645933  0.36563233  1
  O  O57  1  0.67614067  0.14313233  0.52414733  1
  O  O58  1  0.85686767  0.53300833  0.52414733  1
  O  O59  1  0.82986333  0.29219067  0.42339267  1
  O  O60  1  0.89082533  0.46728467  0.63436767  1
  O  O61  1  0.70780933  0.53767267  0.42339267  1
  O  O62  1  0.17013667  0.70780933  0.57660733  1
  O  O63  1  0.42354067  0.89082533  0.36563233  1
  O  O64  1  0.53767267  0.82986333  0.57660733  1
  O  O65  1  0.86900600  0.09182500  0.60010700  1
  O  O66  1  0.53271533  0.42354067  0.63436767  1
  O  O67  1  0.13099400  0.90817500  0.39989300  1
  O  O68  1  0.09182500  0.22281900  0.39989300  1
  O  O69  1  0.32385933  0.85686767  0.47585267  1
  O  O70  1  0.90817500  0.77718100  0.60010700  1
  O  O71  1  0.57645933  0.10917467  0.63436767  1
  O  O72  1  0.14313233  0.46699167  0.47585267  1
  O  O73  1  0.29219067  0.46232733  0.57660733  1
  O  O74  1  0.22281900  0.13099400  0.60010700  1
  O  O75  1  0.77718100  0.86900600  0.39989300  1
  O  O76  1  0.53300833  0.67614067  0.47585267  1
  O  O77  1  0.46699167  0.32385933  0.52414733  1
  O  O78  1  0.77584133  0.86604867  0.69896567  1
  O  O79  1  0.12899400  0.50347000  0.75672600  1
  O  O80  1  0.13395133  0.90979267  0.69896567  1
  O  O81  1  0.34280733  0.47646567  0.85748067  1
  O  O82  1  0.52353433  0.86634167  0.85748067  1
  O  O83  1  0.49653000  0.62552400  0.75672600  1
  O  O84  1  0.55749200  0.80061800  0.96770100  1
  O  O85  1  0.37447600  0.87100600  0.75672600  1
  O  O86  1  0.83680333  0.04114267  0.90994067  1
  O  O87  1  0.09020733  0.22415867  0.69896567  1
  O  O88  1  0.20433933  0.16319667  0.90994067  1
  O  O89  1  0.53567267  0.42515833  0.93344033  1
  O  O90  1  0.19938200  0.75687400  0.96770100  1
  O  O91  1  0.79766067  0.24150833  0.73322633  1
  O  O92  1  0.75849167  0.55615233  0.73322633  1
  O  O93  1  0.99052600  0.19020100  0.80918600  1
  O  O94  1  0.57484167  0.11051433  0.93344033  1
  O  O95  1  0.24312600  0.44250800  0.96770100  1
  O  O96  1  0.80979900  0.80032500  0.80918600  1
  O  O97  1  0.95885733  0.79566067  0.90994067  1
  O  O98  1  0.88948567  0.46432733  0.93344033  1
  O  O99  1  0.44384767  0.20233933  0.73322633  1
  O  O100  1  0.19967500  0.00947400  0.80918600  1
  O  O101  1  0.13365833  0.65719267  0.85748067  1
