# generated using pymatgen
data_Ag7NO11
_symmetry_space_group_name_H-M   'P 1'
_cell_length_a   9.78907400
_cell_length_b   10.16623200
_cell_length_c   10.24505400
_cell_angle_alpha   90.00000000
_cell_angle_beta   90.00000000
_cell_angle_gamma   90.00000000
_symmetry_Int_Tables_number   1
_chemical_formula_structural   Ag7NO11
_chemical_formula_sum   'Ag28 N4 O44'
_cell_volume   1019.56725681
_cell_formula_units_Z   4
loop_
 _symmetry_equiv_pos_site_id
 _symmetry_equiv_pos_as_xyz
  1  'x, y, z'
loop_
 _atom_site_type_symbol
 _atom_site_label
 _atom_site_symmetry_multiplicity
 _atom_site_fract_x
 _atom_site_fract_y
 _atom_site_fract_z
 _atom_site_occupancy
  Ag  Ag0  1  0.25258300  0.00000000  0.75047900  1
  Ag  Ag1  1  0.50000000  0.74555200  0.75615600  1
  Ag  Ag2  1  0.50000000  0.25444800  0.75615600  1
  Ag  Ag3  1  0.74741700  0.00000000  0.75047900  1
  Ag  Ag4  1  0.25000000  0.25000000  0.50195600  1
  Ag  Ag5  1  0.00000000  0.00000000  0.50218300  1
  Ag  Ag6  1  0.25000000  0.75000000  0.50195600  1
  Ag  Ag7  1  0.25258300  0.50000000  0.25047900  1
  Ag  Ag8  1  0.50000000  0.24555200  0.25615600  1
  Ag  Ag9  1  0.50000000  0.75444800  0.25615600  1
  Ag  Ag10  1  0.74741700  0.50000000  0.25047900  1
  Ag  Ag11  1  0.25000000  0.75000000  0.00195600  1
  Ag  Ag12  1  0.00000000  0.50000000  0.00218300  1
  Ag  Ag13  1  0.25000000  0.25000000  0.00195600  1
  Ag  Ag14  1  0.75258300  0.00000000  0.25047900  1
  Ag  Ag15  1  0.00000000  0.74555200  0.25615600  1
  Ag  Ag16  1  0.00000000  0.25444800  0.25615600  1
  Ag  Ag17  1  0.24741700  0.00000000  0.25047900  1
  Ag  Ag18  1  0.75000000  0.25000000  0.00195600  1
  Ag  Ag19  1  0.50000000  0.00000000  0.00218300  1
  Ag  Ag20  1  0.75000000  0.75000000  0.00195600  1
  Ag  Ag21  1  0.75258300  0.50000000  0.75047900  1
  Ag  Ag22  1  0.00000000  0.24555200  0.75615600  1
  Ag  Ag23  1  0.00000000  0.75444800  0.75615600  1
  Ag  Ag24  1  0.24741700  0.50000000  0.75047900  1
  Ag  Ag25  1  0.75000000  0.75000000  0.50195600  1
  Ag  Ag26  1  0.50000000  0.50000000  0.50218300  1
  Ag  Ag27  1  0.75000000  0.25000000  0.50195600  1
  N  N28  1  0.00000000  0.00000000  0.98975600  1
  N  N29  1  0.00000000  0.50000000  0.48975600  1
  N  N30  1  0.50000000  0.00000000  0.48975600  1
  N  N31  1  0.50000000  0.50000000  0.98975600  1
  O  O32  1  0.00000000  0.39166500  0.55027500  1
  O  O33  1  0.64123900  0.13822850  0.86447050  1
  O  O34  1  0.35876100  0.13822850  0.86447050  1
  O  O35  1  0.64123900  0.86177150  0.86447050  1
  O  O36  1  0.14277550  0.13719700  0.63920050  1
  O  O37  1  0.35876100  0.86177150  0.86447050  1
  O  O38  1  0.85722450  0.13719700  0.63920050  1
  O  O39  1  0.14277550  0.86280300  0.63920050  1
  O  O40  1  0.85722450  0.86280300  0.63920050  1
  O  O41  1  0.00000000  0.00000000  0.86564600  1
  O  O42  1  0.00000000  0.60833500  0.55027500  1
  O  O43  1  0.00000000  0.89166500  0.05027500  1
  O  O44  1  0.64123900  0.63822850  0.36447050  1
  O  O45  1  0.35876100  0.63822850  0.36447050  1
  O  O46  1  0.64123900  0.36177150  0.36447050  1
  O  O47  1  0.14277550  0.63719700  0.13920050  1
  O  O48  1  0.35876100  0.36177150  0.36447050  1
  O  O49  1  0.85722450  0.63719700  0.13920050  1
  O  O50  1  0.14277550  0.36280300  0.13920050  1
  O  O51  1  0.85722450  0.36280300  0.13920050  1
  O  O52  1  0.00000000  0.50000000  0.36564600  1
  O  O53  1  0.00000000  0.10833500  0.05027500  1
  O  O54  1  0.50000000  0.39166500  0.05027500  1
  O  O55  1  0.14123900  0.13822850  0.36447050  1
  O  O56  1  0.85876100  0.13822850  0.36447050  1
  O  O57  1  0.14123900  0.86177150  0.36447050  1
  O  O58  1  0.64277550  0.13719700  0.13920050  1
  O  O59  1  0.85876100  0.86177150  0.36447050  1
  O  O60  1  0.35722450  0.13719700  0.13920050  1
  O  O61  1  0.64277550  0.86280300  0.13920050  1
  O  O62  1  0.35722450  0.86280300  0.13920050  1
  O  O63  1  0.50000000  0.00000000  0.36564600  1
  O  O64  1  0.50000000  0.60833500  0.05027500  1
  O  O65  1  0.50000000  0.89166500  0.55027500  1
  O  O66  1  0.14123900  0.63822850  0.86447050  1
  O  O67  1  0.85876100  0.63822850  0.86447050  1
  O  O68  1  0.14123900  0.36177150  0.86447050  1
  O  O69  1  0.64277550  0.63719700  0.63920050  1
  O  O70  1  0.85876100  0.36177150  0.86447050  1
  O  O71  1  0.35722450  0.63719700  0.63920050  1
  O  O72  1  0.64277550  0.36280300  0.63920050  1
  O  O73  1  0.35722450  0.36280300  0.63920050  1
  O  O74  1  0.50000000  0.50000000  0.86564600  1
  O  O75  1  0.50000000  0.10833500  0.55027500  1
