# generated using pymatgen
data_Sm2Cr2Fe15
_symmetry_space_group_name_H-M   'P 1'
_cell_length_a   8.42272751
_cell_length_b   8.42272751
_cell_length_c   12.48622736
_cell_angle_alpha   90.00000000
_cell_angle_beta   90.00000000
_cell_angle_gamma   120.00000000
_symmetry_Int_Tables_number   1
_chemical_formula_structural   Sm2Cr2Fe15
_chemical_formula_sum   'Sm6 Cr6 Fe45'
_cell_volume   767.12718211
_cell_formula_units_Z   3
loop_
 _symmetry_equiv_pos_site_id
 _symmetry_equiv_pos_as_xyz
  1  'x, y, z'
loop_
 _atom_site_type_symbol
 _atom_site_label
 _atom_site_symmetry_multiplicity
 _atom_site_fract_x
 _atom_site_fract_y
 _atom_site_fract_z
 _atom_site_occupancy
  Sm  Sm0  1  0.33333333  0.66666667  0.32418267  1
  Sm  Sm1  1  0.33333333  0.66666667  0.00915067  1
  Sm  Sm2  1  0.00000000  0.00000000  0.65751600  1
  Sm  Sm3  1  0.00000000  0.00000000  0.34248400  1
  Sm  Sm4  1  0.66666667  0.33333333  0.99084933  1
  Sm  Sm5  1  0.66666667  0.33333333  0.67581733  1
  Cr  Cr6  1  0.33333333  0.66666667  0.75273367  1
  Cr  Cr7  1  0.33333333  0.66666667  0.58059967  1
  Cr  Cr8  1  0.00000000  0.00000000  0.08606700  1
  Cr  Cr9  1  0.00000000  0.00000000  0.91393300  1
  Cr  Cr10  1  0.66666667  0.33333333  0.41940033  1
  Cr  Cr11  1  0.66666667  0.33333333  0.24726633  1
  Fe  Fe12  1  0.16467967  0.83532033  0.17387933  1
  Fe  Fe13  1  0.16467967  0.32935933  0.17387933  1
  Fe  Fe14  1  0.16666667  0.83333333  0.83333333  1
  Fe  Fe15  1  0.33333333  0.16666667  0.16666667  1
  Fe  Fe16  1  0.83333333  0.66666667  0.16666667  1
  Fe  Fe17  1  0.96476067  0.63142733  0.33333333  1
  Fe  Fe18  1  1.00000000  0.70190600  0.00000000  1
  Fe  Fe19  1  0.70190600  0.00000000  0.00000000  1
  Fe  Fe20  1  0.36857267  0.03523933  0.33333333  1
  Fe  Fe21  1  1.00000000  0.29809400  0.00000000  1
  Fe  Fe22  1  0.29809400  0.00000000  0.00000000  1
  Fe  Fe23  1  0.50198700  0.00397400  0.15945400  1
  Fe  Fe24  1  0.50198700  0.49801300  0.15945400  1
  Fe  Fe25  1  0.99602600  0.49801300  0.15945400  1
  Fe  Fe26  1  0.67064067  0.83532033  0.17387933  1
  Fe  Fe27  1  0.83134633  0.16865367  0.50721267  1
  Fe  Fe28  1  0.83134633  0.66269267  0.50721267  1
  Fe  Fe29  1  0.83333333  0.16666667  0.16666667  1
  Fe  Fe30  1  0.00000000  0.50000000  0.50000000  1
  Fe  Fe31  1  0.50000000  0.00000000  0.50000000  1
  Fe  Fe32  1  0.63142733  0.96476067  0.66666667  1
  Fe  Fe33  1  0.66666667  0.03523933  0.33333333  1
  Fe  Fe34  1  0.36857267  0.33333333  0.33333333  1
  Fe  Fe35  1  0.03523933  0.36857267  0.66666667  1
  Fe  Fe36  1  0.66666667  0.63142733  0.33333333  1
  Fe  Fe37  1  0.96476067  0.33333333  0.33333333  1
  Fe  Fe38  1  0.16865367  0.33730733  0.49278733  1
  Fe  Fe39  1  0.16865367  0.83134633  0.49278733  1
  Fe  Fe40  1  0.66269267  0.83134633  0.49278733  1
  Fe  Fe41  1  0.33730733  0.16865367  0.50721267  1
  Fe  Fe42  1  0.49801300  0.50198700  0.84054600  1
  Fe  Fe43  1  0.49801300  0.99602600  0.84054600  1
  Fe  Fe44  1  0.50000000  0.50000000  0.50000000  1
  Fe  Fe45  1  0.66666667  0.83333333  0.83333333  1
  Fe  Fe46  1  0.16666667  0.33333333  0.83333333  1
  Fe  Fe47  1  0.29809400  0.29809400  0.00000000  1
  Fe  Fe48  1  0.33333333  0.36857267  0.66666667  1
  Fe  Fe49  1  0.03523933  0.66666667  0.66666667  1
  Fe  Fe50  1  0.70190600  0.70190600  0.00000000  1
  Fe  Fe51  1  0.33333333  0.96476067  0.66666667  1
  Fe  Fe52  1  0.63142733  0.66666667  0.66666667  1
  Fe  Fe53  1  0.83532033  0.67064067  0.82612067  1
  Fe  Fe54  1  0.83532033  0.16467967  0.82612067  1
  Fe  Fe55  1  0.32935933  0.16467967  0.82612067  1
  Fe  Fe56  1  0.00397400  0.50198700  0.84054600  1
