# generated using pymatgen
data_Ni5(PO4)4
_symmetry_space_group_name_H-M   'P 1'
_cell_length_a   5.06309607
_cell_length_b   7.93195203
_cell_length_c   8.24676580
_cell_angle_alpha   112.07338328
_cell_angle_beta   90.30913046
_cell_angle_gamma   100.74186982
_symmetry_Int_Tables_number   1
_chemical_formula_structural   Ni5(PO4)4
_chemical_formula_sum   'Ni5 P4 O16'
_cell_volume   300.50179116
_cell_formula_units_Z   1
loop_
 _symmetry_equiv_pos_site_id
 _symmetry_equiv_pos_as_xyz
  1  'x, y, z'
loop_
 _atom_site_type_symbol
 _atom_site_label
 _atom_site_symmetry_multiplicity
 _atom_site_fract_x
 _atom_site_fract_y
 _atom_site_fract_z
 _atom_site_occupancy
  Ni  Ni0  1  0.65006400  0.40646200  0.67846100  1
  Ni  Ni1  1  0.34993600  0.59353800  0.32153900  1
  Ni  Ni2  1  0.10192800  0.23687150  0.76523200  1
  Ni  Ni3  1  0.89807200  0.76312850  0.23476800  1
  Ni  Ni4  1  0.00000000  0.00000000  0.00000000  1
  P  P5  1  0.38208750  0.70101500  0.97475150  1
  P  P6  1  0.61791250  0.29898500  0.02524850  1
  P  P7  1  0.14805850  0.21163800  0.42568450  1
  P  P8  1  0.85194150  0.78836200  0.57431550  1
  O  O9  1  0.92780350  0.97014250  0.73775150  1
  O  O10  1  0.07219650  0.02985750  0.26224850  1
  O  O11  1  0.22901750  0.67267100  0.13014350  1
  O  O12  1  0.77098250  0.32732900  0.86985650  1
  O  O13  1  0.08629750  0.75322150  0.44897050  1
  O  O14  1  0.91370250  0.24677850  0.55102950  1
  O  O15  1  0.64857300  0.81534450  0.44302700  1
  O  O16  1  0.35142700  0.18465550  0.55697300  1
  O  O17  1  0.25739050  0.37455900  0.37714150  1
  O  O18  1  0.74260950  0.62544100  0.62285850  1
  O  O19  1  0.31149300  0.21945450  0.96713800  1
  O  O20  1  0.68850700  0.78054550  0.03286200  1
  O  O21  1  0.35085700  0.50447000  0.82475300  1
  O  O22  1  0.64914300  0.49553000  0.17524700  1
  O  O23  1  0.25398650  0.82660450  0.91188650  1
  O  O24  1  0.74601350  0.17339550  0.08811350  1
