# generated using pymatgen
data_DyAl4Ni
_symmetry_space_group_name_H-M   'P 1'
_cell_length_a   4.05864400
_cell_length_b   15.41613400
_cell_length_c   6.61447800
_cell_angle_alpha   90.00000000
_cell_angle_beta   90.00000000
_cell_angle_gamma   90.00000000
_symmetry_Int_Tables_number   1
_chemical_formula_structural   DyAl4Ni
_chemical_formula_sum   'Dy4 Al16 Ni4'
_cell_volume   413.85862662
_cell_formula_units_Z   4
loop_
 _symmetry_equiv_pos_site_id
 _symmetry_equiv_pos_as_xyz
  1  'x, y, z'
loop_
 _atom_site_type_symbol
 _atom_site_label
 _atom_site_symmetry_multiplicity
 _atom_site_fract_x
 _atom_site_fract_y
 _atom_site_fract_z
 _atom_site_occupancy
  Dy  Dy0  1  0.00000000  0.88259100  0.75000000  1
  Dy  Dy1  1  0.50000000  0.61740900  0.25000000  1
  Dy  Dy2  1  0.50000000  0.38259100  0.75000000  1
  Dy  Dy3  1  0.00000000  0.11740900  0.25000000  1
  Al  Al4  1  0.50000000  0.00000000  0.00000000  1
  Al  Al5  1  0.50000000  0.00000000  0.50000000  1
  Al  Al6  1  0.50000000  0.57625100  0.75000000  1
  Al  Al7  1  0.00000000  0.92374900  0.25000000  1
  Al  Al8  1  0.00000000  0.68852400  0.94726500  1
  Al  Al9  1  0.50000000  0.81147600  0.05273500  1
  Al  Al10  1  0.50000000  0.81147600  0.44726500  1
  Al  Al11  1  0.00000000  0.68852400  0.55273500  1
  Al  Al12  1  0.00000000  0.50000000  0.00000000  1
  Al  Al13  1  0.00000000  0.50000000  0.50000000  1
  Al  Al14  1  0.00000000  0.07625100  0.75000000  1
  Al  Al15  1  0.50000000  0.42374900  0.25000000  1
  Al  Al16  1  0.50000000  0.18852400  0.94726500  1
  Al  Al17  1  0.00000000  0.31147600  0.05273500  1
  Al  Al18  1  0.00000000  0.31147600  0.44726500  1
  Al  Al19  1  0.50000000  0.18852400  0.55273500  1
  Ni  Ni20  1  0.50000000  0.72643200  0.75000000  1
  Ni  Ni21  1  0.00000000  0.77356800  0.25000000  1
  Ni  Ni22  1  0.00000000  0.22643200  0.75000000  1
  Ni  Ni23  1  0.50000000  0.27356800  0.25000000  1
