# generated using pymatgen
data_Mg29Ir4
_symmetry_space_group_name_H-M   'P 1'
_cell_length_a   20.09455800
_cell_length_b   20.09455800
_cell_length_c   20.09455800
_cell_angle_alpha   90.00000000
_cell_angle_beta   90.00000000
_cell_angle_gamma   90.00000000
_symmetry_Int_Tables_number   1
_chemical_formula_structural   Mg29Ir4
_chemical_formula_sum   'Mg348 Ir48'
_cell_volume   8114.00691839
_cell_formula_units_Z   12
loop_
 _symmetry_equiv_pos_site_id
 _symmetry_equiv_pos_as_xyz
  1  'x, y, z'
loop_
 _atom_site_type_symbol
 _atom_site_label
 _atom_site_symmetry_multiplicity
 _atom_site_fract_x
 _atom_site_fract_y
 _atom_site_fract_z
 _atom_site_occupancy
  Mg  Mg0  1  0.65951525  0.44865325  0.55134675  1
  Mg  Mg1  1  0.55134675  0.55134675  0.34048475  1
  Mg  Mg2  1  0.44865325  0.55134675  0.65951525  1
  Mg  Mg3  1  0.44865325  0.34048475  0.44865325  1
  Mg  Mg4  1  0.55134675  0.65951525  0.44865325  1
  Mg  Mg5  1  0.34048475  0.44865325  0.44865325  1
  Mg  Mg6  1  0.34048475  0.55134675  0.55134675  1
  Mg  Mg7  1  0.55134675  0.44865325  0.65951525  1
  Mg  Mg8  1  0.55134675  0.34048475  0.55134675  1
  Mg  Mg9  1  0.44865325  0.65951525  0.55134675  1
  Mg  Mg10  1  0.44865325  0.44865325  0.34048475  1
  Mg  Mg11  1  0.65951525  0.55134675  0.44865325  1
  Mg  Mg12  1  0.76886725  0.39998075  0.10001925  1
  Mg  Mg13  1  0.10001925  0.60001925  0.23113275  1
  Mg  Mg14  1  0.39998075  0.60001925  0.26886725  1
  Mg  Mg15  1  0.39998075  0.73113275  0.39998075  1
  Mg  Mg16  1  0.60001925  0.26886725  0.39998075  1
  Mg  Mg17  1  0.73113275  0.39998075  0.39998075  1
  Mg  Mg18  1  0.23113275  0.60001925  0.10001925  1
  Mg  Mg19  1  0.60001925  0.39998075  0.26886725  1
  Mg  Mg20  1  0.10001925  0.73113275  0.10001925  1
  Mg  Mg21  1  0.89998075  0.26886725  0.10001925  1
  Mg  Mg22  1  0.89998075  0.39998075  0.23113275  1
  Mg  Mg23  1  0.26886725  0.60001925  0.39998075  1
  Mg  Mg24  1  0.28395725  0.39271875  0.10728125  1
  Mg  Mg25  1  0.60728125  0.60728125  0.21604275  1
  Mg  Mg26  1  0.39271875  0.60728125  0.78395725  1
  Mg  Mg27  1  0.39271875  0.71604275  0.89271875  1
  Mg  Mg28  1  0.60728125  0.28395725  0.89271875  1
  Mg  Mg29  1  0.71604275  0.39271875  0.89271875  1
  Mg  Mg30  1  0.71604275  0.60728125  0.10728125  1
  Mg  Mg31  1  0.60728125  0.39271875  0.78395725  1
  Mg  Mg32  1  0.60728125  0.71604275  0.10728125  1
  Mg  Mg33  1  0.39271875  0.28395725  0.10728125  1
  Mg  Mg34  1  0.39271875  0.39271875  0.21604275  1
  Mg  Mg35  1  0.28395725  0.60728125  0.89271875  1
  Mg  Mg36  1  0.52094625  0.34679375  0.15320625  1
  Mg  Mg37  1  0.15320625  0.65320625  0.47905375  1
  Mg  Mg38  1  0.34679375  0.65320625  0.02094625  1
  Mg  Mg39  1  0.84679375  0.47905375  0.34679375  1
  Mg  Mg40  1  0.15320625  0.52094625  0.34679375  1
  Mg  Mg41  1  0.97905375  0.34679375  0.34679375  1
  Mg  Mg42  1  0.47905375  0.65320625  0.15320625  1
  Mg  Mg43  1  0.65320625  0.34679375  0.02094625  1
  Mg  Mg44  1  0.65320625  0.47905375  0.15320625  1
  Mg  Mg45  1  0.34679375  0.52094625  0.15320625  1
  Mg  Mg46  1  0.84679375  0.34679375  0.47905375  1
  Mg  Mg47  1  0.02094625  0.65320625  0.34679375  1
  Mg  Mg48  1  0.01971225  0.30702825  0.19297175  1
  Mg  Mg49  1  0.19297175  0.69297175  0.98028775  1
  Mg  Mg50  1  0.30702825  0.69297175  0.51971225  1
  Mg  Mg51  1  0.30702825  0.48028775  0.30702825  1
  Mg  Mg52  1  0.69297175  0.51971225  0.30702825  1
  Mg  Mg53  1  0.48028775  0.30702825  0.30702825  1
  Mg  Mg54  1  0.98028775  0.69297175  0.19297175  1
  Mg  Mg55  1  0.69297175  0.30702825  0.51971225  1
  Mg  Mg56  1  0.19297175  0.48028775  0.19297175  1
  Mg  Mg57  1  0.80702825  0.51971225  0.19297175  1
  Mg  Mg58  1  0.80702825  0.30702825  0.98028775  1
  Mg  Mg59  1  0.51971225  0.69297175  0.30702825  1
  Mg  Mg60  1  0.75000000  0.25000000  0.64337725  1
  Mg  Mg61  1  0.14337725  0.25000000  0.25000000  1
  Mg  Mg62  1  0.35662275  0.25000000  0.25000000  1
  Mg  Mg63  1  0.75000000  0.25000000  0.85662275  1
  Mg  Mg64  1  0.25000000  0.35662275  0.25000000  1
  Mg  Mg65  1  0.75000000  0.64337725  0.25000000  1
  Mg  Mg66  1  0.75000000  0.25000000  0.13353525  1
  Mg  Mg67  1  0.63353525  0.25000000  0.25000000  1
  Mg  Mg68  1  0.86646475  0.25000000  0.25000000  1
  Mg  Mg69  1  0.75000000  0.25000000  0.36646475  1
  Mg  Mg70  1  0.75000000  0.36646475  0.25000000  1
  Mg  Mg71  1  0.25000000  0.63353525  0.25000000  1
  Mg  Mg72  1  0.50000000  0.50000000  0.81995425  1
  Mg  Mg73  1  0.31995425  0.50000000  0.00000000  1
  Mg  Mg74  1  0.68004575  0.50000000  0.00000000  1
  Mg  Mg75  1  0.50000000  0.50000000  0.18004575  1
  Mg  Mg76  1  0.50000000  0.68004575  0.00000000  1
  Mg  Mg77  1  0.50000000  0.31995425  0.00000000  1
  Mg  Mg78  1  0.55156225  0.44843775  0.05156225  1
  Mg  Mg79  1  0.55156225  0.55156225  0.94843775  1
  Mg  Mg80  1  0.44843775  0.55156225  0.05156225  1
  Mg  Mg81  1  0.44843775  0.44843775  0.94843775  1
  Mg  Mg82  1  0.41502925  0.58497075  0.41502925  1
  Mg  Mg83  1  0.91502925  0.41502925  0.08497075  1
  Mg  Mg84  1  0.58497075  0.41502925  0.41502925  1
  Mg  Mg85  1  0.08497075  0.58497075  0.08497075  1
  Mg  Mg86  1  0.50000000  0.50000000  0.50000000  1
  Mg  Mg87  1  0.65951525  0.94865325  0.05134675  1
  Mg  Mg88  1  0.55134675  0.05134675  0.84048475  1
  Mg  Mg89  1  0.44865325  0.05134675  0.15951525  1
  Mg  Mg90  1  0.44865325  0.84048475  0.94865325  1
  Mg  Mg91  1  0.55134675  0.15951525  0.94865325  1
  Mg  Mg92  1  0.34048475  0.94865325  0.94865325  1
  Mg  Mg93  1  0.34048475  0.05134675  0.05134675  1
  Mg  Mg94  1  0.55134675  0.94865325  0.15951525  1
  Mg  Mg95  1  0.55134675  0.84048475  0.05134675  1
  Mg  Mg96  1  0.44865325  0.15951525  0.05134675  1
  Mg  Mg97  1  0.44865325  0.94865325  0.84048475  1
  Mg  Mg98  1  0.65951525  0.05134675  0.94865325  1
  Mg  Mg99  1  0.76886725  0.89998075  0.60001925  1
  Mg  Mg100  1  0.10001925  0.10001925  0.73113275  1
  Mg  Mg101  1  0.39998075  0.10001925  0.76886725  1
  Mg  Mg102  1  0.39998075  0.23113275  0.89998075  1
  Mg  Mg103  1  0.60001925  0.76886725  0.89998075  1
  Mg  Mg104  1  0.73113275  0.89998075  0.89998075  1
  Mg  Mg105  1  0.23113275  0.10001925  0.60001925  1
  Mg  Mg106  1  0.60001925  0.89998075  0.76886725  1
  Mg  Mg107  1  0.10001925  0.23113275  0.60001925  1
  Mg  Mg108  1  0.89998075  0.76886725  0.60001925  1
  Mg  Mg109  1  0.89998075  0.89998075  0.73113275  1
  Mg  Mg110  1  0.26886725  0.10001925  0.89998075  1
  Mg  Mg111  1  0.28395725  0.89271875  0.60728125  1
  Mg  Mg112  1  0.60728125  0.10728125  0.71604275  1
  Mg  Mg113  1  0.39271875  0.10728125  0.28395725  1
  Mg  Mg114  1  0.39271875  0.21604275  0.39271875  1
  Mg  Mg115  1  0.60728125  0.78395725  0.39271875  1
  Mg  Mg116  1  0.71604275  0.89271875  0.39271875  1
  Mg  Mg117  1  0.71604275  0.10728125  0.60728125  1
  Mg  Mg118  1  0.60728125  0.89271875  0.28395725  1
  Mg  Mg119  1  0.60728125  0.21604275  0.60728125  1
  Mg  Mg120  1  0.39271875  0.78395725  0.60728125  1
  Mg  Mg121  1  0.39271875  0.89271875  0.71604275  1
  Mg  Mg122  1  0.28395725  0.10728125  0.39271875  1
  Mg  Mg123  1  0.52094625  0.84679375  0.65320625  1
  Mg  Mg124  1  0.15320625  0.15320625  0.97905375  1
  Mg  Mg125  1  0.34679375  0.15320625  0.52094625  1
  Mg  Mg126  1  0.84679375  0.97905375  0.84679375  1
  Mg  Mg127  1  0.15320625  0.02094625  0.84679375  1
  Mg  Mg128  1  0.97905375  0.84679375  0.84679375  1
  Mg  Mg129  1  0.47905375  0.15320625  0.65320625  1
  Mg  Mg130  1  0.65320625  0.84679375  0.52094625  1
  Mg  Mg131  1  0.65320625  0.97905375  0.65320625  1
  Mg  Mg132  1  0.34679375  0.02094625  0.65320625  1
  Mg  Mg133  1  0.84679375  0.84679375  0.97905375  1
  Mg  Mg134  1  0.02094625  0.15320625  0.84679375  1
  Mg  Mg135  1  0.01971225  0.80702825  0.69297175  1
  Mg  Mg136  1  0.19297175  0.19297175  0.48028775  1
  Mg  Mg137  1  0.30702825  0.19297175  0.01971225  1
  Mg  Mg138  1  0.30702825  0.98028775  0.80702825  1
  Mg  Mg139  1  0.69297175  0.01971225  0.80702825  1
  Mg  Mg140  1  0.48028775  0.80702825  0.80702825  1
  Mg  Mg141  1  0.98028775  0.19297175  0.69297175  1
  Mg  Mg142  1  0.69297175  0.80702825  0.01971225  1
  Mg  Mg143  1  0.19297175  0.98028775  0.69297175  1
  Mg  Mg144  1  0.80702825  0.01971225  0.69297175  1
  Mg  Mg145  1  0.80702825  0.80702825  0.48028775  1
  Mg  Mg146  1  0.51971225  0.19297175  0.80702825  1
  Mg  Mg147  1  0.75000000  0.75000000  0.14337725  1
  Mg  Mg148  1  0.14337725  0.75000000  0.75000000  1
  Mg  Mg149  1  0.35662275  0.75000000  0.75000000  1
  Mg  Mg150  1  0.75000000  0.75000000  0.35662275  1
  Mg  Mg151  1  0.25000000  0.85662275  0.75000000  1
  Mg  Mg152  1  0.75000000  0.14337725  0.75000000  1
  Mg  Mg153  1  0.75000000  0.75000000  0.63353525  1
  Mg  Mg154  1  0.63353525  0.75000000  0.75000000  1
  Mg  Mg155  1  0.86646475  0.75000000  0.75000000  1
  Mg  Mg156  1  0.75000000  0.75000000  0.86646475  1
  Mg  Mg157  1  0.75000000  0.86646475  0.75000000  1
  Mg  Mg158  1  0.25000000  0.13353525  0.75000000  1
  Mg  Mg159  1  0.50000000  0.00000000  0.31995425  1
  Mg  Mg160  1  0.31995425  0.00000000  0.50000000  1
  Mg  Mg161  1  0.68004575  0.00000000  0.50000000  1
  Mg  Mg162  1  0.50000000  0.00000000  0.68004575  1
  Mg  Mg163  1  0.50000000  0.18004575  0.50000000  1
  Mg  Mg164  1  0.50000000  0.81995425  0.50000000  1
  Mg  Mg165  1  0.55156225  0.94843775  0.55156225  1
  Mg  Mg166  1  0.55156225  0.05156225  0.44843775  1
  Mg  Mg167  1  0.44843775  0.05156225  0.55156225  1
  Mg  Mg168  1  0.44843775  0.94843775  0.44843775  1
  Mg  Mg169  1  0.41502925  0.08497075  0.91502925  1
  Mg  Mg170  1  0.91502925  0.91502925  0.58497075  1
  Mg  Mg171  1  0.58497075  0.91502925  0.91502925  1
  Mg  Mg172  1  0.08497075  0.08497075  0.58497075  1
  Mg  Mg173  1  0.50000000  0.00000000  0.00000000  1
  Mg  Mg174  1  0.15951525  0.44865325  0.05134675  1
  Mg  Mg175  1  0.05134675  0.55134675  0.84048475  1
  Mg  Mg176  1  0.94865325  0.55134675  0.15951525  1
  Mg  Mg177  1  0.94865325  0.34048475  0.94865325  1
  Mg  Mg178  1  0.05134675  0.65951525  0.94865325  1
  Mg  Mg179  1  0.84048475  0.44865325  0.94865325  1
  Mg  Mg180  1  0.84048475  0.55134675  0.05134675  1
  Mg  Mg181  1  0.05134675  0.44865325  0.15951525  1
  Mg  Mg182  1  0.05134675  0.34048475  0.05134675  1
  Mg  Mg183  1  0.94865325  0.65951525  0.05134675  1
  Mg  Mg184  1  0.94865325  0.44865325  0.84048475  1
  Mg  Mg185  1  0.15951525  0.55134675  0.94865325  1
  Mg  Mg186  1  0.26886725  0.39998075  0.60001925  1
  Mg  Mg187  1  0.60001925  0.60001925  0.73113275  1
  Mg  Mg188  1  0.89998075  0.60001925  0.76886725  1
  Mg  Mg189  1  0.89998075  0.73113275  0.89998075  1
  Mg  Mg190  1  0.10001925  0.26886725  0.89998075  1
  Mg  Mg191  1  0.23113275  0.39998075  0.89998075  1
  Mg  Mg192  1  0.73113275  0.60001925  0.60001925  1
  Mg  Mg193  1  0.10001925  0.39998075  0.76886725  1
  Mg  Mg194  1  0.60001925  0.73113275  0.60001925  1
  Mg  Mg195  1  0.39998075  0.26886725  0.60001925  1
  Mg  Mg196  1  0.39998075  0.39998075  0.73113275  1
  Mg  Mg197  1  0.76886725  0.60001925  0.89998075  1
  Mg  Mg198  1  0.78395725  0.39271875  0.60728125  1
  Mg  Mg199  1  0.10728125  0.60728125  0.71604275  1
  Mg  Mg200  1  0.89271875  0.60728125  0.28395725  1
  Mg  Mg201  1  0.89271875  0.71604275  0.39271875  1
  Mg  Mg202  1  0.10728125  0.28395725  0.39271875  1
  Mg  Mg203  1  0.21604275  0.39271875  0.39271875  1
  Mg  Mg204  1  0.21604275  0.60728125  0.60728125  1
  Mg  Mg205  1  0.10728125  0.39271875  0.28395725  1
  Mg  Mg206  1  0.10728125  0.71604275  0.60728125  1
  Mg  Mg207  1  0.89271875  0.28395725  0.60728125  1
  Mg  Mg208  1  0.89271875  0.39271875  0.71604275  1
  Mg  Mg209  1  0.78395725  0.60728125  0.39271875  1
  Mg  Mg210  1  0.02094625  0.34679375  0.65320625  1
  Mg  Mg211  1  0.65320625  0.65320625  0.97905375  1
  Mg  Mg212  1  0.84679375  0.65320625  0.52094625  1
  Mg  Mg213  1  0.34679375  0.47905375  0.84679375  1
  Mg  Mg214  1  0.65320625  0.52094625  0.84679375  1
  Mg  Mg215  1  0.47905375  0.34679375  0.84679375  1
  Mg  Mg216  1  0.97905375  0.65320625  0.65320625  1
  Mg  Mg217  1  0.15320625  0.34679375  0.52094625  1
  Mg  Mg218  1  0.15320625  0.47905375  0.65320625  1
  Mg  Mg219  1  0.84679375  0.52094625  0.65320625  1
  Mg  Mg220  1  0.34679375  0.34679375  0.97905375  1
  Mg  Mg221  1  0.52094625  0.65320625  0.84679375  1
  Mg  Mg222  1  0.51971225  0.30702825  0.69297175  1
  Mg  Mg223  1  0.69297175  0.69297175  0.48028775  1
  Mg  Mg224  1  0.80702825  0.69297175  0.01971225  1
  Mg  Mg225  1  0.80702825  0.48028775  0.80702825  1
  Mg  Mg226  1  0.19297175  0.51971225  0.80702825  1
  Mg  Mg227  1  0.98028775  0.30702825  0.80702825  1
  Mg  Mg228  1  0.48028775  0.69297175  0.69297175  1
  Mg  Mg229  1  0.19297175  0.30702825  0.01971225  1
  Mg  Mg230  1  0.69297175  0.48028775  0.69297175  1
  Mg  Mg231  1  0.30702825  0.51971225  0.69297175  1
  Mg  Mg232  1  0.30702825  0.30702825  0.48028775  1
  Mg  Mg233  1  0.01971225  0.69297175  0.80702825  1
  Mg  Mg234  1  0.25000000  0.25000000  0.14337725  1
  Mg  Mg235  1  0.64337725  0.25000000  0.75000000  1
  Mg  Mg236  1  0.85662275  0.25000000  0.75000000  1
  Mg  Mg237  1  0.25000000  0.25000000  0.35662275  1
  Mg  Mg238  1  0.75000000  0.35662275  0.75000000  1
  Mg  Mg239  1  0.25000000  0.64337725  0.75000000  1
  Mg  Mg240  1  0.25000000  0.25000000  0.63353525  1
  Mg  Mg241  1  0.13353525  0.25000000  0.75000000  1
  Mg  Mg242  1  0.36646475  0.25000000  0.75000000  1
  Mg  Mg243  1  0.25000000  0.25000000  0.86646475  1
  Mg  Mg244  1  0.25000000  0.36646475  0.75000000  1
  Mg  Mg245  1  0.75000000  0.63353525  0.75000000  1
  Mg  Mg246  1  0.00000000  0.50000000  0.31995425  1
  Mg  Mg247  1  0.81995425  0.50000000  0.50000000  1
  Mg  Mg248  1  0.18004575  0.50000000  0.50000000  1
  Mg  Mg249  1  0.00000000  0.50000000  0.68004575  1
  Mg  Mg250  1  0.00000000  0.68004575  0.50000000  1
  Mg  Mg251  1  0.00000000  0.31995425  0.50000000  1
  Mg  Mg252  1  0.05156225  0.44843775  0.55156225  1
  Mg  Mg253  1  0.05156225  0.55156225  0.44843775  1
  Mg  Mg254  1  0.94843775  0.55156225  0.55156225  1
  Mg  Mg255  1  0.94843775  0.44843775  0.44843775  1
  Mg  Mg256  1  0.91502925  0.58497075  0.91502925  1
  Mg  Mg257  1  0.41502925  0.41502925  0.58497075  1
  Mg  Mg258  1  0.08497075  0.41502925  0.91502925  1
  Mg  Mg259  1  0.58497075  0.58497075  0.58497075  1
  Mg  Mg260  1  0.00000000  0.50000000  0.00000000  1
  Mg  Mg261  1  0.15951525  0.94865325  0.55134675  1
  Mg  Mg262  1  0.05134675  0.05134675  0.34048475  1
  Mg  Mg263  1  0.94865325  0.05134675  0.65951525  1
  Mg  Mg264  1  0.94865325  0.84048475  0.44865325  1
  Mg  Mg265  1  0.05134675  0.15951525  0.44865325  1
  Mg  Mg266  1  0.84048475  0.94865325  0.44865325  1
  Mg  Mg267  1  0.84048475  0.05134675  0.55134675  1
  Mg  Mg268  1  0.05134675  0.94865325  0.65951525  1
  Mg  Mg269  1  0.05134675  0.84048475  0.55134675  1
  Mg  Mg270  1  0.94865325  0.15951525  0.55134675  1
  Mg  Mg271  1  0.94865325  0.94865325  0.34048475  1
  Mg  Mg272  1  0.15951525  0.05134675  0.44865325  1
  Mg  Mg273  1  0.26886725  0.89998075  0.10001925  1
  Mg  Mg274  1  0.60001925  0.10001925  0.23113275  1
  Mg  Mg275  1  0.89998075  0.10001925  0.26886725  1
  Mg  Mg276  1  0.89998075  0.23113275  0.39998075  1
  Mg  Mg277  1  0.10001925  0.76886725  0.39998075  1
  Mg  Mg278  1  0.23113275  0.89998075  0.39998075  1
  Mg  Mg279  1  0.73113275  0.10001925  0.10001925  1
  Mg  Mg280  1  0.10001925  0.89998075  0.26886725  1
  Mg  Mg281  1  0.60001925  0.23113275  0.10001925  1
  Mg  Mg282  1  0.39998075  0.76886725  0.10001925  1
  Mg  Mg283  1  0.39998075  0.89998075  0.23113275  1
  Mg  Mg284  1  0.76886725  0.10001925  0.39998075  1
  Mg  Mg285  1  0.78395725  0.89271875  0.10728125  1
  Mg  Mg286  1  0.10728125  0.10728125  0.21604275  1
  Mg  Mg287  1  0.89271875  0.10728125  0.78395725  1
  Mg  Mg288  1  0.89271875  0.21604275  0.89271875  1
  Mg  Mg289  1  0.10728125  0.78395725  0.89271875  1
  Mg  Mg290  1  0.21604275  0.89271875  0.89271875  1
  Mg  Mg291  1  0.21604275  0.10728125  0.10728125  1
  Mg  Mg292  1  0.10728125  0.89271875  0.78395725  1
  Mg  Mg293  1  0.10728125  0.21604275  0.10728125  1
  Mg  Mg294  1  0.89271875  0.78395725  0.10728125  1
  Mg  Mg295  1  0.89271875  0.89271875  0.21604275  1
  Mg  Mg296  1  0.78395725  0.10728125  0.89271875  1
  Mg  Mg297  1  0.02094625  0.84679375  0.15320625  1
  Mg  Mg298  1  0.65320625  0.15320625  0.47905375  1
  Mg  Mg299  1  0.84679375  0.15320625  0.02094625  1
  Mg  Mg300  1  0.34679375  0.97905375  0.34679375  1
  Mg  Mg301  1  0.65320625  0.02094625  0.34679375  1
  Mg  Mg302  1  0.47905375  0.84679375  0.34679375  1
  Mg  Mg303  1  0.97905375  0.15320625  0.15320625  1
  Mg  Mg304  1  0.15320625  0.84679375  0.02094625  1
  Mg  Mg305  1  0.15320625  0.97905375  0.15320625  1
  Mg  Mg306  1  0.84679375  0.02094625  0.15320625  1
  Mg  Mg307  1  0.34679375  0.84679375  0.47905375  1
  Mg  Mg308  1  0.52094625  0.15320625  0.34679375  1
  Mg  Mg309  1  0.51971225  0.80702825  0.19297175  1
  Mg  Mg310  1  0.69297175  0.19297175  0.98028775  1
  Mg  Mg311  1  0.80702825  0.19297175  0.51971225  1
  Mg  Mg312  1  0.80702825  0.98028775  0.30702825  1
  Mg  Mg313  1  0.19297175  0.01971225  0.30702825  1
  Mg  Mg314  1  0.98028775  0.80702825  0.30702825  1
  Mg  Mg315  1  0.48028775  0.19297175  0.19297175  1
  Mg  Mg316  1  0.19297175  0.80702825  0.51971225  1
  Mg  Mg317  1  0.69297175  0.98028775  0.19297175  1
  Mg  Mg318  1  0.30702825  0.01971225  0.19297175  1
  Mg  Mg319  1  0.30702825  0.80702825  0.98028775  1
  Mg  Mg320  1  0.01971225  0.19297175  0.30702825  1
  Mg  Mg321  1  0.25000000  0.75000000  0.64337725  1
  Mg  Mg322  1  0.64337725  0.75000000  0.25000000  1
  Mg  Mg323  1  0.85662275  0.75000000  0.25000000  1
  Mg  Mg324  1  0.25000000  0.75000000  0.85662275  1
  Mg  Mg325  1  0.75000000  0.85662275  0.25000000  1
  Mg  Mg326  1  0.25000000  0.14337725  0.25000000  1
  Mg  Mg327  1  0.25000000  0.75000000  0.13353525  1
  Mg  Mg328  1  0.13353525  0.75000000  0.25000000  1
  Mg  Mg329  1  0.36646475  0.75000000  0.25000000  1
  Mg  Mg330  1  0.25000000  0.75000000  0.36646475  1
  Mg  Mg331  1  0.25000000  0.86646475  0.25000000  1
  Mg  Mg332  1  0.75000000  0.13353525  0.25000000  1
  Mg  Mg333  1  0.00000000  0.00000000  0.81995425  1
  Mg  Mg334  1  0.81995425  0.00000000  0.00000000  1
  Mg  Mg335  1  0.18004575  0.00000000  0.00000000  1
  Mg  Mg336  1  0.00000000  0.00000000  0.18004575  1
  Mg  Mg337  1  0.00000000  0.18004575  0.00000000  1
  Mg  Mg338  1  0.00000000  0.81995425  0.00000000  1
  Mg  Mg339  1  0.05156225  0.94843775  0.05156225  1
  Mg  Mg340  1  0.05156225  0.05156225  0.94843775  1
  Mg  Mg341  1  0.94843775  0.05156225  0.05156225  1
  Mg  Mg342  1  0.94843775  0.94843775  0.94843775  1
  Mg  Mg343  1  0.91502925  0.08497075  0.41502925  1
  Mg  Mg344  1  0.41502925  0.91502925  0.08497075  1
  Mg  Mg345  1  0.08497075  0.91502925  0.41502925  1
  Mg  Mg346  1  0.58497075  0.08497075  0.08497075  1
  Mg  Mg347  1  0.00000000  0.00000000  0.50000000  1
  Ir  Ir348  1  0.65041725  0.34958275  0.65041725  1
  Ir  Ir349  1  0.65041725  0.65041725  0.34958275  1
  Ir  Ir350  1  0.34958275  0.65041725  0.65041725  1
  Ir  Ir351  1  0.34958275  0.34958275  0.34958275  1
  Ir  Ir352  1  0.41768325  0.58231675  0.91768325  1
  Ir  Ir353  1  0.41768325  0.41768325  0.08231675  1
  Ir  Ir354  1  0.58231675  0.41768325  0.91768325  1
  Ir  Ir355  1  0.58231675  0.58231675  0.08231675  1
  Ir  Ir356  1  0.65500825  0.34499175  0.15500825  1
  Ir  Ir357  1  0.15500825  0.65500825  0.34499175  1
  Ir  Ir358  1  0.34499175  0.65500825  0.15500825  1
  Ir  Ir359  1  0.84499175  0.34499175  0.34499175  1
  Ir  Ir360  1  0.65041725  0.84958275  0.15041725  1
  Ir  Ir361  1  0.65041725  0.15041725  0.84958275  1
  Ir  Ir362  1  0.34958275  0.15041725  0.15041725  1
  Ir  Ir363  1  0.34958275  0.84958275  0.84958275  1
  Ir  Ir364  1  0.41768325  0.08231675  0.41768325  1
  Ir  Ir365  1  0.41768325  0.91768325  0.58231675  1
  Ir  Ir366  1  0.58231675  0.91768325  0.41768325  1
  Ir  Ir367  1  0.58231675  0.08231675  0.58231675  1
  Ir  Ir368  1  0.65500825  0.84499175  0.65500825  1
  Ir  Ir369  1  0.15500825  0.15500825  0.84499175  1
  Ir  Ir370  1  0.34499175  0.15500825  0.65500825  1
  Ir  Ir371  1  0.84499175  0.84499175  0.84499175  1
  Ir  Ir372  1  0.15041725  0.34958275  0.15041725  1
  Ir  Ir373  1  0.15041725  0.65041725  0.84958275  1
  Ir  Ir374  1  0.84958275  0.65041725  0.15041725  1
  Ir  Ir375  1  0.84958275  0.34958275  0.84958275  1
  Ir  Ir376  1  0.91768325  0.58231675  0.41768325  1
  Ir  Ir377  1  0.91768325  0.41768325  0.58231675  1
  Ir  Ir378  1  0.08231675  0.41768325  0.41768325  1
  Ir  Ir379  1  0.08231675  0.58231675  0.58231675  1
  Ir  Ir380  1  0.15500825  0.34499175  0.65500825  1
  Ir  Ir381  1  0.65500825  0.65500825  0.84499175  1
  Ir  Ir382  1  0.84499175  0.65500825  0.65500825  1
  Ir  Ir383  1  0.34499175  0.34499175  0.84499175  1
  Ir  Ir384  1  0.15041725  0.84958275  0.65041725  1
  Ir  Ir385  1  0.15041725  0.15041725  0.34958275  1
  Ir  Ir386  1  0.84958275  0.15041725  0.65041725  1
  Ir  Ir387  1  0.84958275  0.84958275  0.34958275  1
  Ir  Ir388  1  0.91768325  0.08231675  0.91768325  1
  Ir  Ir389  1  0.91768325  0.91768325  0.08231675  1
  Ir  Ir390  1  0.08231675  0.91768325  0.91768325  1
  Ir  Ir391  1  0.08231675  0.08231675  0.08231675  1
  Ir  Ir392  1  0.15500825  0.84499175  0.15500825  1
  Ir  Ir393  1  0.65500825  0.15500825  0.34499175  1
  Ir  Ir394  1  0.84499175  0.15500825  0.15500825  1
  Ir  Ir395  1  0.34499175  0.84499175  0.34499175  1
