# generated using pymatgen
data_Ca(Fe2O3)2
_symmetry_space_group_name_H-M   'P 1'
_cell_length_a   3.06807000
_cell_length_b   10.29720400
_cell_length_c   15.34596400
_cell_angle_alpha   90.00000000
_cell_angle_beta   90.00000000
_cell_angle_gamma   90.00000000
_symmetry_Int_Tables_number   1
_chemical_formula_structural   Ca(Fe2O3)2
_chemical_formula_sum   'Ca4 Fe16 O24'
_cell_volume   484.81802258
_cell_formula_units_Z   4
loop_
 _symmetry_equiv_pos_site_id
 _symmetry_equiv_pos_as_xyz
  1  'x, y, z'
loop_
 _atom_site_type_symbol
 _atom_site_label
 _atom_site_symmetry_multiplicity
 _atom_site_fract_x
 _atom_site_fract_y
 _atom_site_fract_z
 _atom_site_occupancy
  Ca  Ca0  1  0.50000000  0.15524400  0.25000000  1
  Ca  Ca1  1  0.00000000  0.34475600  0.75000000  1
  Ca  Ca2  1  0.00000000  0.65524400  0.25000000  1
  Ca  Ca3  1  0.50000000  0.84475600  0.75000000  1
  Fe  Fe4  1  0.50000000  0.36535100  0.54365200  1
  Fe  Fe5  1  0.00000000  0.13464900  0.45634800  1
  Fe  Fe6  1  0.50000000  0.36535100  0.95634800  1
  Fe  Fe7  1  0.00000000  0.13464900  0.04365200  1
  Fe  Fe8  1  0.00000000  0.40325700  0.13334500  1
  Fe  Fe9  1  0.50000000  0.09674300  0.86665500  1
  Fe  Fe10  1  0.50000000  0.09674300  0.63334500  1
  Fe  Fe11  1  0.00000000  0.40325700  0.36665500  1
  Fe  Fe12  1  0.00000000  0.86535100  0.54365200  1
  Fe  Fe13  1  0.50000000  0.63464900  0.45634800  1
  Fe  Fe14  1  0.00000000  0.86535100  0.95634800  1
  Fe  Fe15  1  0.50000000  0.63464900  0.04365200  1
  Fe  Fe16  1  0.50000000  0.90325700  0.13334500  1
  Fe  Fe17  1  0.00000000  0.59674300  0.86665500  1
  Fe  Fe18  1  0.00000000  0.59674300  0.63334500  1
  Fe  Fe19  1  0.50000000  0.90325700  0.36665500  1
  O  O20  1  0.50000000  0.00000000  0.00000000  1
  O  O21  1  0.50000000  0.00000000  0.50000000  1
  O  O22  1  0.00000000  0.03382300  0.34200400  1
  O  O23  1  0.50000000  0.46617700  0.65799600  1
  O  O24  1  0.50000000  0.46617700  0.84200400  1
  O  O25  1  0.00000000  0.03382300  0.15799600  1
  O  O26  1  0.50000000  0.28555700  0.41523000  1
  O  O27  1  0.00000000  0.21444300  0.58477000  1
  O  O28  1  0.00000000  0.21444300  0.91523000  1
  O  O29  1  0.50000000  0.28555700  0.08477000  1
  O  O30  1  0.00000000  0.32258300  0.25000000  1
  O  O31  1  0.50000000  0.17741700  0.75000000  1
  O  O32  1  0.00000000  0.50000000  0.00000000  1
  O  O33  1  0.00000000  0.50000000  0.50000000  1
  O  O34  1  0.50000000  0.53382300  0.34200400  1
  O  O35  1  0.00000000  0.96617700  0.65799600  1
  O  O36  1  0.00000000  0.96617700  0.84200400  1
  O  O37  1  0.50000000  0.53382300  0.15799600  1
  O  O38  1  0.00000000  0.78555700  0.41523000  1
  O  O39  1  0.50000000  0.71444300  0.58477000  1
  O  O40  1  0.50000000  0.71444300  0.91523000  1
  O  O41  1  0.00000000  0.78555700  0.08477000  1
  O  O42  1  0.50000000  0.82258300  0.25000000  1
  O  O43  1  0.00000000  0.67741700  0.75000000  1
