# generated using pymatgen
data_Pr6Fe13Ag
_symmetry_space_group_name_H-M   'P 1'
_cell_length_a   8.07537400
_cell_length_b   8.07537400
_cell_length_c   23.46379800
_cell_angle_alpha   90.00000000
_cell_angle_beta   90.00000000
_cell_angle_gamma   90.00000000
_symmetry_Int_Tables_number   1
_chemical_formula_structural   Pr6Fe13Ag
_chemical_formula_sum   'Pr24 Fe52 Ag4'
_cell_volume   1530.11334043
_cell_formula_units_Z   4
loop_
 _symmetry_equiv_pos_site_id
 _symmetry_equiv_pos_as_xyz
  1  'x, y, z'
loop_
 _atom_site_type_symbol
 _atom_site_label
 _atom_site_symmetry_multiplicity
 _atom_site_fract_x
 _atom_site_fract_y
 _atom_site_fract_z
 _atom_site_occupancy
  Pr  Pr0  1  0.66276200  0.16276200  0.18445700  1
  Pr  Pr1  1  0.33723800  0.16276200  0.31554300  1
  Pr  Pr2  1  0.66276200  0.83723800  0.31554300  1
  Pr  Pr3  1  0.16276200  0.66276200  0.31554300  1
  Pr  Pr4  1  0.83723800  0.33723800  0.31554300  1
  Pr  Pr5  1  0.16276200  0.33723800  0.18445700  1
  Pr  Pr6  1  0.33723800  0.83723800  0.18445700  1
  Pr  Pr7  1  0.83723800  0.66276200  0.18445700  1
  Pr  Pr8  1  0.00000000  0.00000000  0.10513000  1
  Pr  Pr9  1  0.00000000  0.00000000  0.39487000  1
  Pr  Pr10  1  0.50000000  0.50000000  0.39487000  1
  Pr  Pr11  1  0.50000000  0.50000000  0.10513000  1
  Pr  Pr12  1  0.16276200  0.66276200  0.68445700  1
  Pr  Pr13  1  0.83723800  0.66276200  0.81554300  1
  Pr  Pr14  1  0.16276200  0.33723800  0.81554300  1
  Pr  Pr15  1  0.66276200  0.16276200  0.81554300  1
  Pr  Pr16  1  0.33723800  0.83723800  0.81554300  1
  Pr  Pr17  1  0.66276200  0.83723800  0.68445700  1
  Pr  Pr18  1  0.83723800  0.33723800  0.68445700  1
  Pr  Pr19  1  0.33723800  0.16276200  0.68445700  1
  Pr  Pr20  1  0.50000000  0.50000000  0.60513000  1
  Pr  Pr21  1  0.50000000  0.50000000  0.89487000  1
  Pr  Pr22  1  0.00000000  0.00000000  0.89487000  1
  Pr  Pr23  1  0.00000000  0.00000000  0.60513000  1
  Fe  Fe24  1  0.93347900  0.20999300  0.00000000  1
  Fe  Fe25  1  0.17865700  0.67865700  0.44181400  1
  Fe  Fe26  1  0.38631600  0.11368400  0.09332400  1
  Fe  Fe27  1  0.11368400  0.38631600  0.40667600  1
  Fe  Fe28  1  0.88631600  0.61368400  0.40667600  1
  Fe  Fe29  1  0.38631600  0.88631600  0.40667600  1
  Fe  Fe30  1  0.61368400  0.11368400  0.40667600  1
  Fe  Fe31  1  0.88631600  0.38631600  0.09332400  1
  Fe  Fe32  1  0.11368400  0.61368400  0.09332400  1
  Fe  Fe33  1  0.61368400  0.88631600  0.09332400  1
  Fe  Fe34  1  0.17865700  0.32134300  0.05818600  1
  Fe  Fe35  1  0.32134300  0.17865700  0.44181400  1
  Fe  Fe36  1  0.00000000  0.50000000  0.00000000  1
  Fe  Fe37  1  0.82134300  0.32134300  0.44181400  1
  Fe  Fe38  1  0.29000700  0.56652100  0.00000000  1
  Fe  Fe39  1  0.43347900  0.29000700  0.00000000  1
  Fe  Fe40  1  0.56652100  0.70999300  0.00000000  1
  Fe  Fe41  1  0.79000700  0.93347900  0.00000000  1
  Fe  Fe42  1  0.20999300  0.06652100  0.00000000  1
  Fe  Fe43  1  0.06652100  0.79000700  0.00000000  1
  Fe  Fe44  1  0.50000000  0.00000000  0.00000000  1
  Fe  Fe45  1  0.70999300  0.43347900  0.00000000  1
  Fe  Fe46  1  0.82134300  0.67865700  0.05818600  1
  Fe  Fe47  1  0.32134300  0.82134300  0.05818600  1
  Fe  Fe48  1  0.67865700  0.17865700  0.05818600  1
  Fe  Fe49  1  0.67865700  0.82134300  0.44181400  1
  Fe  Fe50  1  0.43347900  0.70999300  0.50000000  1
  Fe  Fe51  1  0.67865700  0.17865700  0.94181400  1
  Fe  Fe52  1  0.88631600  0.61368400  0.59332400  1
  Fe  Fe53  1  0.61368400  0.88631600  0.90667600  1
  Fe  Fe54  1  0.38631600  0.11368400  0.90667600  1
  Fe  Fe55  1  0.88631600  0.38631600  0.90667600  1
  Fe  Fe56  1  0.11368400  0.61368400  0.90667600  1
  Fe  Fe57  1  0.38631600  0.88631600  0.59332400  1
  Fe  Fe58  1  0.61368400  0.11368400  0.59332400  1
  Fe  Fe59  1  0.11368400  0.38631600  0.59332400  1
  Fe  Fe60  1  0.67865700  0.82134300  0.55818600  1
  Fe  Fe61  1  0.82134300  0.67865700  0.94181400  1
  Fe  Fe62  1  0.50000000  0.00000000  0.50000000  1
  Fe  Fe63  1  0.32134300  0.82134300  0.94181400  1
  Fe  Fe64  1  0.79000700  0.06652100  0.50000000  1
  Fe  Fe65  1  0.93347900  0.79000700  0.50000000  1
  Fe  Fe66  1  0.06652100  0.20999300  0.50000000  1
  Fe  Fe67  1  0.29000700  0.43347900  0.50000000  1
  Fe  Fe68  1  0.70999300  0.56652100  0.50000000  1
  Fe  Fe69  1  0.56652100  0.29000700  0.50000000  1
  Fe  Fe70  1  0.00000000  0.50000000  0.50000000  1
  Fe  Fe71  1  0.20999300  0.93347900  0.50000000  1
  Fe  Fe72  1  0.32134300  0.17865700  0.55818600  1
  Fe  Fe73  1  0.82134300  0.32134300  0.55818600  1
  Fe  Fe74  1  0.17865700  0.67865700  0.55818600  1
  Fe  Fe75  1  0.17865700  0.32134300  0.94181400  1
  Ag  Ag76  1  0.50000000  0.50000000  0.25000000  1
  Ag  Ag77  1  0.00000000  0.00000000  0.25000000  1
  Ag  Ag78  1  0.00000000  0.00000000  0.75000000  1
  Ag  Ag79  1  0.50000000  0.50000000  0.75000000  1
