# generated using pymatgen
data_Co2RuO4
_symmetry_space_group_name_H-M   'P 1'
_cell_length_a   5.62723812
_cell_length_b   5.99251900
_cell_length_c   8.70555176
_cell_angle_alpha   90.00000000
_cell_angle_beta   90.00000000
_cell_angle_gamma   90.00000000
_symmetry_Int_Tables_number   1
_chemical_formula_structural   Co2RuO4
_chemical_formula_sum   'Co8 Ru4 O16'
_cell_volume   293.56279553
_cell_formula_units_Z   4
loop_
 _symmetry_equiv_pos_site_id
 _symmetry_equiv_pos_as_xyz
  1  'x, y, z'
loop_
 _atom_site_type_symbol
 _atom_site_label
 _atom_site_symmetry_multiplicity
 _atom_site_fract_x
 _atom_site_fract_y
 _atom_site_fract_z
 _atom_site_occupancy
  Co  Co0  1  0.50000000  0.25000000  0.62758300  1
  Co  Co1  1  0.00000000  0.25000000  0.87241700  1
  Co  Co2  1  0.50000000  0.00000000  0.00000000  1
  Co  Co3  1  0.50000000  0.50000000  0.00000000  1
  Co  Co4  1  0.00000000  0.75000000  0.12758300  1
  Co  Co5  1  0.50000000  0.75000000  0.37241700  1
  Co  Co6  1  0.00000000  0.50000000  0.50000000  1
  Co  Co7  1  0.00000000  0.00000000  0.50000000  1
  Ru  Ru8  1  0.25000000  0.25000000  0.25000000  1
  Ru  Ru9  1  0.75000000  0.25000000  0.25000000  1
  Ru  Ru10  1  0.75000000  0.75000000  0.75000000  1
  Ru  Ru11  1  0.25000000  0.75000000  0.75000000  1
  O  O12  1  0.50000000  0.00147300  0.22364400  1
  O  O13  1  0.50000000  0.49852700  0.22364400  1
  O  O14  1  0.27529450  0.25000000  0.01163550  1
  O  O15  1  0.72470550  0.25000000  0.01163550  1
  O  O16  1  0.77529450  0.25000000  0.48836450  1
  O  O17  1  0.22470550  0.25000000  0.48836450  1
  O  O18  1  0.00000000  0.00147300  0.27635600  1
  O  O19  1  0.00000000  0.49852700  0.27635600  1
  O  O20  1  0.00000000  0.50147300  0.72364400  1
  O  O21  1  0.00000000  0.99852700  0.72364400  1
  O  O22  1  0.77529450  0.75000000  0.51163550  1
  O  O23  1  0.22470550  0.75000000  0.51163550  1
  O  O24  1  0.27529450  0.75000000  0.98836450  1
  O  O25  1  0.72470550  0.75000000  0.98836450  1
  O  O26  1  0.50000000  0.50147300  0.77635600  1
  O  O27  1  0.50000000  0.99852700  0.77635600  1
