# generated using pymatgen
data_Ta2Mn4O9
_symmetry_space_group_name_H-M   'P 1'
_cell_length_a   5.38111835
_cell_length_b   5.38111835
_cell_length_c   14.53101300
_cell_angle_alpha   90.00000000
_cell_angle_beta   90.00000000
_cell_angle_gamma   120.00000000
_symmetry_Int_Tables_number   1
_chemical_formula_structural   Ta2Mn4O9
_chemical_formula_sum   'Ta4 Mn8 O18'
_cell_volume   364.39432963
_cell_formula_units_Z   2
loop_
 _symmetry_equiv_pos_site_id
 _symmetry_equiv_pos_as_xyz
  1  'x, y, z'
loop_
 _atom_site_type_symbol
 _atom_site_label
 _atom_site_symmetry_multiplicity
 _atom_site_fract_x
 _atom_site_fract_y
 _atom_site_fract_z
 _atom_site_occupancy
  Ta  Ta0  1  0.00000000  0.00000000  0.35629200  1
  Ta  Ta1  1  0.00000000  0.00000000  0.14370800  1
  Ta  Ta2  1  0.00000000  0.00000000  0.64370800  1
  Ta  Ta3  1  0.00000000  0.00000000  0.85629200  1
  Mn  Mn4  1  0.66666667  0.33333333  0.48150100  1
  Mn  Mn5  1  0.66666667  0.33333333  0.98150100  1
  Mn  Mn6  1  0.66666667  0.33333333  0.69540100  1
  Mn  Mn7  1  0.66666667  0.33333333  0.19540100  1
  Mn  Mn8  1  0.33333333  0.66666667  0.01849900  1
  Mn  Mn9  1  0.33333333  0.66666667  0.51849900  1
  Mn  Mn10  1  0.33333333  0.66666667  0.80459900  1
  Mn  Mn11  1  0.33333333  0.66666667  0.30459900  1
  O  O12  1  0.27660650  0.00000000  0.25000000  1
  O  O13  1  0.00000000  0.27660650  0.25000000  1
  O  O14  1  0.72339350  0.72339350  0.25000000  1
  O  O15  1  0.72339350  0.00000000  0.75000000  1
  O  O16  1  0.00000000  0.72339350  0.75000000  1
  O  O17  1  0.27660650  0.27660650  0.75000000  1
  O  O18  1  0.69346600  0.66547000  0.58613500  1
  O  O19  1  0.33453000  0.02799600  0.58613500  1
  O  O20  1  0.97200400  0.30653400  0.58613500  1
  O  O21  1  0.02799600  0.33453000  0.91386500  1
  O  O22  1  0.30653400  0.97200400  0.91386500  1
  O  O23  1  0.66547000  0.69346600  0.91386500  1
  O  O24  1  0.30653400  0.33453000  0.41386500  1
  O  O25  1  0.66547000  0.97200400  0.41386500  1
  O  O26  1  0.02799600  0.69346600  0.41386500  1
  O  O27  1  0.97200400  0.66547000  0.08613500  1
  O  O28  1  0.69346600  0.02799600  0.08613500  1
  O  O29  1  0.33453000  0.30653400  0.08613500  1
