# generated using pymatgen
data_Mn2FeO4
_symmetry_space_group_name_H-M   'P 1'
_cell_length_a   6.16682900
_cell_length_b   6.25266044
_cell_length_c   8.43236473
_cell_angle_alpha   90.00000000
_cell_angle_beta   90.00000000
_cell_angle_gamma   90.00000000
_symmetry_Int_Tables_number   1
_chemical_formula_structural   Mn2FeO4
_chemical_formula_sum   'Mn8 Fe4 O16'
_cell_volume   325.14429108
_cell_formula_units_Z   4
loop_
 _symmetry_equiv_pos_site_id
 _symmetry_equiv_pos_as_xyz
  1  'x, y, z'
loop_
 _atom_site_type_symbol
 _atom_site_label
 _atom_site_symmetry_multiplicity
 _atom_site_fract_x
 _atom_site_fract_y
 _atom_site_fract_z
 _atom_site_occupancy
  Mn  Mn0  1  0.00000000  0.75000000  0.12965200  1
  Mn  Mn1  1  0.50000000  0.75000000  0.37034800  1
  Mn  Mn2  1  0.00000000  0.00000000  0.50000000  1
  Mn  Mn3  1  0.50000000  0.00000000  0.00000000  1
  Mn  Mn4  1  0.50000000  0.25000000  0.62965200  1
  Mn  Mn5  1  0.00000000  0.25000000  0.87034800  1
  Mn  Mn6  1  0.50000000  0.50000000  0.00000000  1
  Mn  Mn7  1  0.00000000  0.50000000  0.50000000  1
  Fe  Fe8  1  0.25000000  0.75000000  0.75000000  1
  Fe  Fe9  1  0.25000000  0.25000000  0.25000000  1
  Fe  Fe10  1  0.75000000  0.25000000  0.25000000  1
  Fe  Fe11  1  0.75000000  0.75000000  0.75000000  1
  O  O12  1  0.23198900  0.75000000  0.51261400  1
  O  O13  1  0.26801100  0.25000000  0.01261400  1
  O  O14  1  0.00000000  0.97482450  0.73333850  1
  O  O15  1  0.00000000  0.47482450  0.26666150  1
  O  O16  1  0.50000000  0.02517550  0.23333850  1
  O  O17  1  0.00000000  0.02517550  0.26666150  1
  O  O18  1  0.23198900  0.25000000  0.48738600  1
  O  O19  1  0.76801100  0.25000000  0.48738600  1
  O  O20  1  0.73198900  0.25000000  0.01261400  1
  O  O21  1  0.76801100  0.75000000  0.51261400  1
  O  O22  1  0.50000000  0.47482450  0.23333850  1
  O  O23  1  0.50000000  0.97482450  0.76666150  1
  O  O24  1  0.00000000  0.52517550  0.73333850  1
  O  O25  1  0.50000000  0.52517550  0.76666150  1
  O  O26  1  0.73198900  0.75000000  0.98738600  1
  O  O27  1  0.26801100  0.75000000  0.98738600  1
