# generated using pymatgen
data_Na2In
_symmetry_space_group_name_H-M   'P 1'
_cell_length_a   8.91779400
_cell_length_b   13.91020800
_cell_length_c   11.74884900
_cell_angle_alpha   90.00000000
_cell_angle_beta   90.00000000
_cell_angle_gamma   90.00000000
_symmetry_Int_Tables_number   1
_chemical_formula_structural   Na2In
_chemical_formula_sum   'Na32 In16'
_cell_volume   1457.42556126
_cell_formula_units_Z   16
loop_
 _symmetry_equiv_pos_site_id
 _symmetry_equiv_pos_as_xyz
  1  'x, y, z'
loop_
 _atom_site_type_symbol
 _atom_site_label
 _atom_site_symmetry_multiplicity
 _atom_site_fract_x
 _atom_site_fract_y
 _atom_site_fract_z
 _atom_site_occupancy
  Na  Na0  1  0.50000000  0.43377800  0.25000000  1
  Na  Na1  1  0.50000000  0.56622200  0.75000000  1
  Na  Na2  1  0.59068600  0.00000000  0.50000000  1
  Na  Na3  1  0.40931400  0.00000000  0.00000000  1
  Na  Na4  1  0.69605200  0.19821900  0.66863300  1
  Na  Na5  1  0.30394800  0.80178100  0.16863300  1
  Na  Na6  1  0.69605200  0.80178100  0.33136700  1
  Na  Na7  1  0.30394800  0.19821900  0.83136700  1
  Na  Na8  1  0.27484800  0.87787300  0.45780900  1
  Na  Na9  1  0.72515200  0.12212700  0.95780900  1
  Na  Na10  1  0.27484800  0.12212700  0.54219100  1
  Na  Na11  1  0.72515200  0.87787300  0.04219100  1
  Na  Na12  1  0.41267550  0.63731750  0.41724800  1
  Na  Na13  1  0.58732450  0.36268250  0.91724800  1
  Na  Na14  1  0.41267550  0.36268250  0.58275200  1
  Na  Na15  1  0.58732450  0.63731750  0.08275200  1
  Na  Na16  1  0.00000000  0.93377800  0.25000000  1
  Na  Na17  1  0.00000000  0.06622200  0.75000000  1
  Na  Na18  1  0.09068600  0.50000000  0.50000000  1
  Na  Na19  1  0.90931400  0.50000000  0.00000000  1
  Na  Na20  1  0.19605200  0.69821900  0.66863300  1
  Na  Na21  1  0.80394800  0.30178100  0.16863300  1
  Na  Na22  1  0.19605200  0.30178100  0.33136700  1
  Na  Na23  1  0.80394800  0.69821900  0.83136700  1
  Na  Na24  1  0.77484800  0.37787300  0.45780900  1
  Na  Na25  1  0.22515200  0.62212700  0.95780900  1
  Na  Na26  1  0.77484800  0.62212700  0.54219100  1
  Na  Na27  1  0.22515200  0.37787300  0.04219100  1
  Na  Na28  1  0.91267550  0.13731750  0.41724800  1
  Na  Na29  1  0.08732450  0.86268250  0.91724800  1
  Na  Na30  1  0.91267550  0.86268250  0.58275200  1
  Na  Na31  1  0.08732450  0.13731750  0.08275200  1
  In  In32  1  0.54430050  0.21348350  0.37851600  1
  In  In33  1  0.45569950  0.78651650  0.87851600  1
  In  In34  1  0.54430050  0.78651650  0.62148400  1
  In  In35  1  0.45569950  0.21348350  0.12148400  1
  In  In36  1  0.67530850  0.94818350  0.77659500  1
  In  In37  1  0.32469150  0.05181650  0.27659500  1
  In  In38  1  0.67530850  0.05181650  0.22340500  1
  In  In39  1  0.32469150  0.94818350  0.72340500  1
  In  In40  1  0.04430050  0.71348350  0.37851600  1
  In  In41  1  0.95569950  0.28651650  0.87851600  1
  In  In42  1  0.04430050  0.28651650  0.62148400  1
  In  In43  1  0.95569950  0.71348350  0.12148400  1
  In  In44  1  0.17530850  0.44818350  0.77659500  1
  In  In45  1  0.82469150  0.55181650  0.27659500  1
  In  In46  1  0.17530850  0.55181650  0.22340500  1
  In  In47  1  0.82469150  0.44818350  0.72340500  1
