# generated using pymatgen
data_Ca(Ce2Se3)4
_symmetry_space_group_name_H-M   'P 1'
_cell_length_a   12.60990400
_cell_length_b   12.59860200
_cell_length_c   14.74649882
_cell_angle_alpha   90.00000000
_cell_angle_beta   115.27925630
_cell_angle_gamma   90.00000000
_symmetry_Int_Tables_number   1
_chemical_formula_structural   Ca(Ce2Se3)4
_chemical_formula_sum   'Ca4 Ce32 Se48'
_cell_volume   2118.38763760
_cell_formula_units_Z   4
loop_
 _symmetry_equiv_pos_site_id
 _symmetry_equiv_pos_as_xyz
  1  'x, y, z'
loop_
 _atom_site_type_symbol
 _atom_site_label
 _atom_site_symmetry_multiplicity
 _atom_site_fract_x
 _atom_site_fract_y
 _atom_site_fract_z
 _atom_site_occupancy
  Ca  Ca0  1  0.52087200  0.93755900  0.16674100  1
  Ca  Ca1  1  0.52087200  0.06244100  0.66674100  1
  Ca  Ca2  1  0.02087200  0.43755900  0.16674100  1
  Ca  Ca3  1  0.02087200  0.56244100  0.66674100  1
  Ce  Ce4  1  0.18764800  0.06237000  0.00003400  1
  Ce  Ce5  1  0.41669400  0.62511300  0.08366000  1
  Ce  Ce6  1  0.22866500  0.18719000  0.33331600  1
  Ce  Ce7  1  0.25026550  0.87522250  0.24989300  1
  Ce  Ce8  1  0.39591700  0.31255700  0.16655900  1
  Ce  Ce9  1  0.85372300  0.06266200  0.33307600  1
  Ce  Ce10  1  0.58377050  0.12516450  0.41662800  1
  Ce  Ce11  1  0.18764800  0.93763000  0.50003400  1
  Ce  Ce12  1  0.39591700  0.68744300  0.66655900  1
  Ce  Ce13  1  0.41669400  0.37488700  0.58366000  1
  Ce  Ce14  1  0.56224800  0.81257900  0.49988600  1
  Ce  Ce15  1  0.25026550  0.12477750  0.74989300  1
  Ce  Ce16  1  0.85372300  0.93733800  0.83307600  1
  Ce  Ce17  1  0.56224800  0.18742100  0.99988600  1
  Ce  Ce18  1  0.58377050  0.87483550  0.91662800  1
  Ce  Ce19  1  0.22866500  0.81281000  0.83331600  1
  Ce  Ce20  1  0.68764800  0.56237000  0.00003400  1
  Ce  Ce21  1  0.91669400  0.12511300  0.08366000  1
  Ce  Ce22  1  0.72866500  0.68719000  0.33331600  1
  Ce  Ce23  1  0.75026550  0.37522250  0.24989300  1
  Ce  Ce24  1  0.89591700  0.81255700  0.16655900  1
  Ce  Ce25  1  0.35372300  0.56266200  0.33307600  1
  Ce  Ce26  1  0.08377050  0.62516450  0.41662800  1
  Ce  Ce27  1  0.68764800  0.43763000  0.50003400  1
  Ce  Ce28  1  0.89591700  0.18744300  0.66655900  1
  Ce  Ce29  1  0.91669400  0.87488700  0.58366000  1
  Ce  Ce30  1  0.06224800  0.31257900  0.49988600  1
  Ce  Ce31  1  0.75026550  0.62477750  0.74989300  1
  Ce  Ce32  1  0.35372300  0.43733800  0.83307600  1
  Ce  Ce33  1  0.06224800  0.68742100  0.99988600  1
  Ce  Ce34  1  0.08377050  0.37483550  0.91662800  1
  Ce  Ce35  1  0.72866500  0.31281000  0.83331600  1
  Se  Se36  1  0.73460800  0.00002100  0.11660500  1
  Se  Se37  1  0.27340750  0.82458250  0.04923200  1
  Se  Se38  1  0.46642000  0.74886600  0.28433200  1
  Se  Se39  1  0.52514200  0.42466800  0.05015300  1
  Se  Se40  1  0.06649700  0.99981700  0.28322600  1
  Se  Se41  1  0.63397900  0.75067400  0.11683100  1
  Se  Se42  1  0.60856600  0.17647100  0.21695200  1
  Se  Se43  1  0.35863200  0.07526900  0.21638800  1
  Se  Se44  1  0.39975550  0.00030850  0.45011100  1
  Se  Se45  1  0.44170400  0.32530600  0.38325900  1
  Se  Se46  1  0.69103450  0.92460550  0.38294600  1
  Se  Se47  1  0.63397900  0.24932600  0.61683100  1
  Se  Se48  1  0.73460800  0.99997900  0.61660500  1
  Se  Se49  1  0.30045000  0.75003100  0.45017200  1
  Se  Se50  1  0.27340750  0.17541750  0.54923200  1
  Se  Se51  1  0.52514200  0.57533200  0.55015300  1
  Se  Se52  1  0.06649700  0.00018300  0.78322600  1
  Se  Se53  1  0.60856600  0.82352900  0.71695200  1
  Se  Se54  1  0.35863200  0.92473100  0.71638800  1
  Se  Se55  1  0.30045000  0.24996900  0.95017200  1
  Se  Se56  1  0.39975550  0.99969150  0.95011100  1
  Se  Se57  1  0.44170400  0.67469400  0.88325900  1
  Se  Se58  1  0.46642000  0.25113400  0.78433200  1
  Se  Se59  1  0.69103450  0.07539450  0.88294600  1
  Se  Se60  1  0.23460800  0.50002100  0.11660500  1
  Se  Se61  1  0.77340750  0.32458250  0.04923200  1
  Se  Se62  1  0.96642000  0.24886600  0.28433200  1
  Se  Se63  1  0.02514200  0.92466800  0.05015300  1
  Se  Se64  1  0.56649700  0.49981700  0.28322600  1
  Se  Se65  1  0.13397900  0.25067400  0.11683100  1
  Se  Se66  1  0.10856600  0.67647100  0.21695200  1
  Se  Se67  1  0.85863200  0.57526900  0.21638800  1
  Se  Se68  1  0.89975550  0.50030850  0.45011100  1
  Se  Se69  1  0.94170400  0.82530600  0.38325900  1
  Se  Se70  1  0.19103450  0.42460550  0.38294600  1
  Se  Se71  1  0.13397900  0.74932600  0.61683100  1
  Se  Se72  1  0.23460800  0.49997900  0.61660500  1
  Se  Se73  1  0.80045000  0.25003100  0.45017200  1
  Se  Se74  1  0.77340750  0.67541750  0.54923200  1
  Se  Se75  1  0.02514200  0.07533200  0.55015300  1
  Se  Se76  1  0.56649700  0.50018300  0.78322600  1
  Se  Se77  1  0.10856600  0.32352900  0.71695200  1
  Se  Se78  1  0.85863200  0.42473100  0.71638800  1
  Se  Se79  1  0.80045000  0.74996900  0.95017200  1
  Se  Se80  1  0.89975550  0.49969150  0.95011100  1
  Se  Se81  1  0.94170400  0.17469400  0.88325900  1
  Se  Se82  1  0.96642000  0.75113400  0.78433200  1
  Se  Se83  1  0.19103450  0.57539450  0.88294600  1
