# generated using pymatgen
data_LiNiP2O7
_symmetry_space_group_name_H-M   'P 1'
_cell_length_a   6.66800800
_cell_length_b   8.23161200
_cell_length_c   4.58207058
_cell_angle_alpha   90.00000000
_cell_angle_beta   103.54975747
_cell_angle_gamma   90.00000000
_symmetry_Int_Tables_number   1
_chemical_formula_structural   LiNiP2O7
_chemical_formula_sum   'Li2 Ni2 P4 O14'
_cell_volume   244.50265220
_cell_formula_units_Z   2
loop_
 _symmetry_equiv_pos_site_id
 _symmetry_equiv_pos_as_xyz
  1  'x, y, z'
loop_
 _atom_site_type_symbol
 _atom_site_label
 _atom_site_symmetry_multiplicity
 _atom_site_fract_x
 _atom_site_fract_y
 _atom_site_fract_z
 _atom_site_occupancy
  Li  Li0  1  0.50000000  0.01175800  0.00000000  1
  Li  Li1  1  0.00000000  0.51175800  0.00000000  1
  Ni  Ni2  1  0.50000000  0.38145600  0.00000000  1
  Ni  Ni3  1  0.00000000  0.88145600  0.00000000  1
  P  P4  1  0.71269650  0.71531650  0.41931900  1
  P  P5  1  0.28730350  0.71531650  0.58068100  1
  P  P6  1  0.21269650  0.21531650  0.41931900  1
  P  P7  1  0.78730350  0.21531650  0.58068100  1
  O  O8  1  0.37237050  0.19903950  0.71510000  1
  O  O9  1  0.74943050  0.85478650  0.21177700  1
  O  O10  1  0.18360100  0.05432400  0.24820000  1
  O  O11  1  0.81639900  0.05432400  0.75180000  1
  O  O12  1  0.62762950  0.19903950  0.28490000  1
  O  O13  1  0.50000000  0.77236400  0.50000000  1
  O  O14  1  0.25056950  0.85478650  0.78822300  1
  O  O15  1  0.87237050  0.69903950  0.71510000  1
  O  O16  1  0.24943050  0.35478650  0.21177700  1
  O  O17  1  0.68360100  0.55432400  0.24820000  1
  O  O18  1  0.31639900  0.55432400  0.75180000  1
  O  O19  1  0.12762950  0.69903950  0.28490000  1
  O  O20  1  0.00000000  0.27236400  0.50000000  1
  O  O21  1  0.75056950  0.35478650  0.78822300  1
