# generated using pymatgen
data_LaCu4
_symmetry_space_group_name_H-M   'P 1'
_cell_length_a   8.89007800
_cell_length_b   8.89007800
_cell_length_c   19.17444400
_cell_angle_alpha   90.00000000
_cell_angle_beta   90.00000000
_cell_angle_gamma   90.00000000
_symmetry_Int_Tables_number   1
_chemical_formula_structural   LaCu4
_chemical_formula_sum   'La18 Cu72'
_cell_volume   1515.42316765
_cell_formula_units_Z   18
loop_
 _symmetry_equiv_pos_site_id
 _symmetry_equiv_pos_as_xyz
  1  'x, y, z'
loop_
 _atom_site_type_symbol
 _atom_site_label
 _atom_site_symmetry_multiplicity
 _atom_site_fract_x
 _atom_site_fract_y
 _atom_site_fract_z
 _atom_site_occupancy
  La  La0  1  0.00000000  0.00000000  0.00000000  1
  La  La1  1  0.00000000  0.00000000  0.20675600  1
  La  La2  1  0.50000000  0.50000000  0.29324400  1
  La  La3  1  0.50000000  0.00000000  0.05182000  1
  La  La4  1  0.50000000  0.00000000  0.44818000  1
  La  La5  1  0.00000000  0.24428250  0.37413150  1
  La  La6  1  0.74428250  0.50000000  0.12586850  1
  La  La7  1  0.25571750  0.50000000  0.12586850  1
  La  La8  1  0.00000000  0.75571750  0.37413150  1
  La  La9  1  0.50000000  0.50000000  0.50000000  1
  La  La10  1  0.50000000  0.50000000  0.70675600  1
  La  La11  1  0.00000000  0.00000000  0.79324400  1
  La  La12  1  0.00000000  0.50000000  0.55182000  1
  La  La13  1  0.00000000  0.50000000  0.94818000  1
  La  La14  1  0.50000000  0.74428250  0.87413150  1
  La  La15  1  0.24428250  0.00000000  0.62586850  1
  La  La16  1  0.75571750  0.00000000  0.62586850  1
  La  La17  1  0.50000000  0.25571750  0.87413150  1
  Cu  Cu18  1  0.75406100  0.24593900  0.00000000  1
  Cu  Cu19  1  0.24593900  0.24593900  0.00000000  1
  Cu  Cu20  1  0.25406100  0.25406100  0.50000000  1
  Cu  Cu21  1  0.24593900  0.75406100  0.00000000  1
  Cu  Cu22  1  0.00000000  0.34390900  0.20904700  1
  Cu  Cu23  1  0.84390900  0.50000000  0.29095300  1
  Cu  Cu24  1  0.15609100  0.50000000  0.29095300  1
  Cu  Cu25  1  0.00000000  0.65609100  0.20904700  1
  Cu  Cu26  1  0.50000000  0.85705050  0.29419050  1
  Cu  Cu27  1  0.35705050  0.00000000  0.20580950  1
  Cu  Cu28  1  0.64294950  0.00000000  0.20580950  1
  Cu  Cu29  1  0.50000000  0.14294950  0.29419050  1
  Cu  Cu30  1  0.50000000  0.75418400  0.16878500  1
  Cu  Cu31  1  0.25418400  0.00000000  0.33121500  1
  Cu  Cu32  1  0.74581600  0.00000000  0.33121500  1
  Cu  Cu33  1  0.50000000  0.24581600  0.16878500  1
  Cu  Cu34  1  0.50000000  0.65636300  0.04144500  1
  Cu  Cu35  1  0.15636300  0.00000000  0.45855500  1
  Cu  Cu36  1  0.84363700  0.00000000  0.45855500  1
  Cu  Cu37  1  0.50000000  0.34363700  0.04144500  1
  Cu  Cu38  1  0.00000000  0.28610250  0.07926150  1
  Cu  Cu39  1  0.78610250  0.50000000  0.42073850  1
  Cu  Cu40  1  0.21389750  0.50000000  0.42073850  1
  Cu  Cu41  1  0.00000000  0.71389750  0.07926150  1
  Cu  Cu42  1  0.74561400  0.75438600  0.25000000  1
  Cu  Cu43  1  0.25438600  0.75438600  0.25000000  1
  Cu  Cu44  1  0.74561400  0.24561400  0.25000000  1
  Cu  Cu45  1  0.25438600  0.24561400  0.25000000  1
  Cu  Cu46  1  0.76618850  0.16117850  0.12108950  1
  Cu  Cu47  1  0.66117850  0.73381150  0.37891050  1
  Cu  Cu48  1  0.33882150  0.26618850  0.37891050  1
  Cu  Cu49  1  0.33882150  0.73381150  0.37891050  1
  Cu  Cu50  1  0.66117850  0.26618850  0.37891050  1
  Cu  Cu51  1  0.23381150  0.83882150  0.12108950  1
  Cu  Cu52  1  0.76618850  0.83882150  0.12108950  1
  Cu  Cu53  1  0.23381150  0.16117850  0.12108950  1
  Cu  Cu54  1  0.25406100  0.74593900  0.50000000  1
  Cu  Cu55  1  0.74593900  0.74593900  0.50000000  1
  Cu  Cu56  1  0.75406100  0.75406100  0.00000000  1
  Cu  Cu57  1  0.74593900  0.25406100  0.50000000  1
  Cu  Cu58  1  0.50000000  0.84390900  0.70904700  1
  Cu  Cu59  1  0.34390900  0.00000000  0.79095300  1
  Cu  Cu60  1  0.65609100  0.00000000  0.79095300  1
  Cu  Cu61  1  0.50000000  0.15609100  0.70904700  1
  Cu  Cu62  1  0.00000000  0.35705050  0.79419050  1
  Cu  Cu63  1  0.85705050  0.50000000  0.70580950  1
  Cu  Cu64  1  0.14294950  0.50000000  0.70580950  1
  Cu  Cu65  1  0.00000000  0.64294950  0.79419050  1
  Cu  Cu66  1  0.00000000  0.25418400  0.66878500  1
  Cu  Cu67  1  0.75418400  0.50000000  0.83121500  1
  Cu  Cu68  1  0.24581600  0.50000000  0.83121500  1
  Cu  Cu69  1  0.00000000  0.74581600  0.66878500  1
  Cu  Cu70  1  0.00000000  0.15636300  0.54144500  1
  Cu  Cu71  1  0.65636300  0.50000000  0.95855500  1
  Cu  Cu72  1  0.34363700  0.50000000  0.95855500  1
  Cu  Cu73  1  0.00000000  0.84363700  0.54144500  1
  Cu  Cu74  1  0.50000000  0.78610250  0.57926150  1
  Cu  Cu75  1  0.28610250  0.00000000  0.92073850  1
  Cu  Cu76  1  0.71389750  0.00000000  0.92073850  1
  Cu  Cu77  1  0.50000000  0.21389750  0.57926150  1
  Cu  Cu78  1  0.24561400  0.25438600  0.75000000  1
  Cu  Cu79  1  0.75438600  0.25438600  0.75000000  1
  Cu  Cu80  1  0.24561400  0.74561400  0.75000000  1
  Cu  Cu81  1  0.75438600  0.74561400  0.75000000  1
  Cu  Cu82  1  0.26618850  0.66117850  0.62108950  1
  Cu  Cu83  1  0.16117850  0.23381150  0.87891050  1
  Cu  Cu84  1  0.83882150  0.76618850  0.87891050  1
  Cu  Cu85  1  0.83882150  0.23381150  0.87891050  1
  Cu  Cu86  1  0.16117850  0.76618850  0.87891050  1
  Cu  Cu87  1  0.73381150  0.33882150  0.62108950  1
  Cu  Cu88  1  0.26618850  0.33882150  0.62108950  1
  Cu  Cu89  1  0.73381150  0.66117850  0.62108950  1
