# generated using pymatgen
data_Ni3(PO4)4
_symmetry_space_group_name_H-M   'P 1'
_cell_length_a   7.67852426
_cell_length_b   7.80988189
_cell_length_c   10.35427899
_cell_angle_alpha   90.00000000
_cell_angle_beta   92.24054160
_cell_angle_gamma   90.00000000
_symmetry_Int_Tables_number   1
_chemical_formula_structural   Ni3(PO4)4
_chemical_formula_sum   'Ni6 P8 O32'
_cell_volume   620.45451020
_cell_formula_units_Z   2
loop_
 _symmetry_equiv_pos_site_id
 _symmetry_equiv_pos_as_xyz
  1  'x, y, z'
loop_
 _atom_site_type_symbol
 _atom_site_label
 _atom_site_symmetry_multiplicity
 _atom_site_fract_x
 _atom_site_fract_y
 _atom_site_fract_z
 _atom_site_occupancy
  Ni  Ni0  1  0.24890689  0.99779375  0.87026647  1
  Ni  Ni1  1  0.25224150  0.01341521  0.37906354  1
  Ni  Ni2  1  0.74775850  0.51341521  0.62093646  1
  Ni  Ni3  1  0.75109311  0.49779375  0.12973353  1
  Ni  Ni4  1  0.84923887  0.13483773  0.67454678  1
  Ni  Ni5  1  0.15076113  0.63483773  0.32545322  1
  P  P6  1  0.05156825  0.81375798  0.11543783  1
  P  P7  1  0.93649335  0.29411899  0.38941054  1
  P  P8  1  0.94843175  0.31375798  0.88456217  1
  P  P9  1  0.55185152  0.70736915  0.36382776  1
  P  P10  1  0.56801648  0.69377582  0.86816828  1
  P  P11  1  0.43198352  0.19377582  0.13183172  1
  P  P12  1  0.06350665  0.79411899  0.61058946  1
  P  P13  1  0.44814848  0.20736915  0.63617224  1
  O  O14  1  0.70673006  0.63210179  0.96625962  1
  O  O15  1  0.29326994  0.13210179  0.03374038  1
  O  O16  1  0.30516801  0.15540823  0.53657398  1
  O  O17  1  0.38004418  0.18161779  0.77311165  1
  O  O18  1  0.42000225  0.55607955  0.85773166  1
  O  O19  1  0.36320373  0.19827262  0.26964400  1
  O  O20  1  0.19664424  0.84690324  0.22313918  1
  O  O21  1  0.20347336  0.85282017  0.71009170  1
  O  O22  1  0.14657993  0.79910621  0.47439133  1
  O  O23  1  0.09556204  0.41650344  0.39164632  1
  O  O24  1  0.11824756  0.81369516  0.97747092  1
  O  O25  1  0.09067321  0.45041553  0.90063206  1
  O  O26  1  0.00858620  0.11556799  0.36293917  1
  O  O27  1  0.98543052  0.63572830  0.16676389  1
  O  O28  1  0.01456948  0.13572830  0.83323611  1
  O  O29  1  0.99141380  0.61556799  0.63706083  1
  O  O30  1  0.90443796  0.91650344  0.60835368  1
  O  O31  1  0.85342007  0.29910621  0.52560867  1
  O  O32  1  0.90932679  0.95041553  0.09936794  1
  O  O33  1  0.47598750  0.85832729  0.90771193  1
  O  O34  1  0.79652664  0.35282017  0.28990830  1
  O  O35  1  0.80335576  0.34690324  0.77686082  1
  O  O36  1  0.69483199  0.65540823  0.46342602  1
  O  O37  1  0.39647602  0.57882324  0.36315502  1
  O  O38  1  0.61995582  0.68161779  0.22688835  1
  O  O39  1  0.57999775  0.05607955  0.14226834  1
  O  O40  1  0.63679627  0.69827262  0.73035600  1
  O  O41  1  0.60352398  0.07882324  0.63684498  1
  O  O42  1  0.50546230  0.39211600  0.61216246  1
  O  O43  1  0.49453770  0.89211600  0.38783754  1
  O  O44  1  0.52401250  0.35832729  0.09228807  1
  O  O45  1  0.88175244  0.31369516  0.02252908  1
