# generated using pymatgen
data_Li2FeP2O7
_symmetry_space_group_name_H-M   'P 1'
_cell_length_a   14.63499061
_cell_length_b   5.70031042
_cell_length_c   7.95372882
_cell_angle_alpha   90.00000000
_cell_angle_beta   118.62189026
_cell_angle_gamma   90.00000000
_symmetry_Int_Tables_number   1
_chemical_formula_structural   Li2FeP2O7
_chemical_formula_sum   'Li8 Fe4 P8 O28'
_cell_volume   582.44821971
_cell_formula_units_Z   4
loop_
 _symmetry_equiv_pos_site_id
 _symmetry_equiv_pos_as_xyz
  1  'x, y, z'
loop_
 _atom_site_type_symbol
 _atom_site_label
 _atom_site_symmetry_multiplicity
 _atom_site_fract_x
 _atom_site_fract_y
 _atom_site_fract_z
 _atom_site_occupancy
  Li  Li0  1  0.27488611  0.67521985  0.69050992  1
  Li  Li1  1  0.22511389  0.82478015  0.30949008  1
  Li  Li2  1  0.27488611  0.32478015  0.19050992  1
  Li  Li3  1  0.22511389  0.17521985  0.80949008  1
  Li  Li4  1  0.77488611  0.17521985  0.69050992  1
  Li  Li5  1  0.72511389  0.32478015  0.30949008  1
  Li  Li6  1  0.77488611  0.82478015  0.19050992  1
  Li  Li7  1  0.72511389  0.67521985  0.80949008  1
  Fe  Fe8  1  0.50000000  0.50000000  0.50000000  1
  Fe  Fe9  1  0.00000000  0.00000000  0.00000000  1
  Fe  Fe10  1  0.00000000  0.00000000  0.50000000  1
  Fe  Fe11  1  0.50000000  0.50000000  0.00000000  1
  P  P12  1  0.38720250  0.85764932  0.13986543  1
  P  P13  1  0.11279750  0.64235068  0.86013457  1
  P  P14  1  0.38720250  0.14235068  0.63986543  1
  P  P15  1  0.11279750  0.35764932  0.36013457  1
  P  P16  1  0.88720249  0.35764932  0.13986543  1
  P  P17  1  0.61279751  0.14235068  0.86013457  1
  P  P18  1  0.88720249  0.64235068  0.63986543  1
  P  P19  1  0.61279751  0.85764932  0.36013457  1
  O  O20  1  0.38763177  0.72465331  0.97107578  1
  O  O21  1  0.50000000  0.98986432  0.25000000  1
  O  O22  1  0.38114845  0.31420604  0.78498506  1
  O  O23  1  0.30648065  0.95084314  0.57504327  1
  O  O24  1  0.11236823  0.22465331  0.52892422  1
  O  O25  1  0.38114845  0.68579396  0.28498506  1
  O  O26  1  0.11885155  0.18579396  0.21501494  1
  O  O27  1  0.38763177  0.27534669  0.47107578  1
  O  O28  1  0.00000000  0.51013568  0.75000000  1
  O  O29  1  0.19351935  0.45084314  0.92495673  1
  O  O30  1  0.11885155  0.81420604  0.71501494  1
  O  O31  1  0.11236823  0.77534669  0.02892422  1
  O  O32  1  0.19351935  0.54915686  0.42495673  1
  O  O33  1  0.30648065  0.04915686  0.07504327  1
  O  O34  1  0.88763177  0.22465331  0.97107578  1
  O  O35  1  0.00000000  0.48986432  0.25000000  1
  O  O36  1  0.88114845  0.81420604  0.78498506  1
  O  O37  1  0.80648065  0.45084314  0.57504327  1
  O  O38  1  0.61236823  0.72465331  0.52892422  1
  O  O39  1  0.88114845  0.18579396  0.28498506  1
  O  O40  1  0.61885155  0.68579396  0.21501494  1
  O  O41  1  0.88763177  0.77534669  0.47107578  1
  O  O42  1  0.50000000  0.01013568  0.75000000  1
  O  O43  1  0.69351935  0.95084314  0.92495673  1
  O  O44  1  0.61885155  0.31420604  0.71501494  1
  O  O45  1  0.61236823  0.27534669  0.02892422  1
  O  O46  1  0.69351935  0.04915686  0.42495673  1
  O  O47  1  0.80648065  0.54915686  0.07504327  1
