# generated using pymatgen
data_LiMn2(PO4)3
_symmetry_space_group_name_H-M   'P 1'
_cell_length_a   14.56454500
_cell_length_b   8.42996400
_cell_length_c   8.42794525
_cell_angle_alpha   90.00000000
_cell_angle_beta   125.26831139
_cell_angle_gamma   90.00000000
_symmetry_Int_Tables_number   1
_chemical_formula_structural   LiMn2(PO4)3
_chemical_formula_sum   'Li4 Mn8 P12 O48'
_cell_volume   844.84628106
_cell_formula_units_Z   4
loop_
 _symmetry_equiv_pos_site_id
 _symmetry_equiv_pos_as_xyz
  1  'x, y, z'
loop_
 _atom_site_type_symbol
 _atom_site_label
 _atom_site_symmetry_multiplicity
 _atom_site_fract_x
 _atom_site_fract_y
 _atom_site_fract_z
 _atom_site_occupancy
  Li  Li0  1  0.75000000  0.25000000  0.00000000  1
  Li  Li1  1  0.25000000  0.25000000  0.50000000  1
  Li  Li2  1  0.25000000  0.75000000  0.00000000  1
  Li  Li3  1  0.75000000  0.75000000  0.50000000  1
  Mn  Mn4  1  0.61129750  0.75009550  0.64198100  1
  Mn  Mn5  1  0.38870250  0.75009550  0.85801900  1
  Mn  Mn6  1  0.61129750  0.24990450  0.14198100  1
  Mn  Mn7  1  0.38870250  0.24990450  0.35801900  1
  Mn  Mn8  1  0.11129750  0.25009550  0.64198100  1
  Mn  Mn9  1  0.88870250  0.25009550  0.85801900  1
  Mn  Mn10  1  0.11129750  0.74990450  0.14198100  1
  Mn  Mn11  1  0.88870250  0.74990450  0.35801900  1
  P  P12  1  0.85587000  0.39471900  0.46390000  1
  P  P13  1  0.50000000  0.46285800  0.75000000  1
  P  P14  1  0.14413000  0.39471900  0.03610000  1
  P  P15  1  0.85587000  0.60528100  0.96390000  1
  P  P16  1  0.14413000  0.60528100  0.53610000  1
  P  P17  1  0.50000000  0.53714200  0.25000000  1
  P  P18  1  0.35587000  0.89471900  0.46390000  1
  P  P19  1  0.00000000  0.96285800  0.75000000  1
  P  P20  1  0.64413000  0.89471900  0.03610000  1
  P  P21  1  0.35587000  0.10528100  0.96390000  1
  P  P22  1  0.64413000  0.10528100  0.53610000  1
  P  P23  1  0.00000000  0.03714200  0.25000000  1
  O  O24  1  0.43081600  0.43829500  0.29874800  1
  O  O25  1  0.53295650  0.16159050  0.49762400  1
  O  O26  1  0.15878900  0.64686600  0.37453000  1
  O  O27  1  0.84252350  0.57804850  0.44715800  1
  O  O28  1  0.56918400  0.56170500  0.70125200  1
  O  O29  1  0.46704350  0.83840950  0.50237600  1
  O  O30  1  0.84121100  0.35313400  0.62547000  1
  O  O31  1  0.15747650  0.42195150  0.55284200  1
  O  O32  1  0.41073850  0.64405350  0.07943000  1
  O  O33  1  0.84252350  0.42195150  0.94715800  1
  O  O34  1  0.76431200  0.68217400  0.76553800  1
  O  O35  1  0.56918400  0.43829500  0.20125200  1
  O  O36  1  0.41073850  0.35594650  0.57943000  1
  O  O37  1  0.76431200  0.31782600  0.26553800  1
  O  O38  1  0.53295650  0.83840950  0.99762400  1
  O  O39  1  0.65878900  0.85313400  0.87453000  1
  O  O40  1  0.34121100  0.14686600  0.12547000  1
  O  O41  1  0.46704350  0.16159050  0.00237600  1
  O  O42  1  0.23568800  0.68217400  0.73446200  1
  O  O43  1  0.58926150  0.64405350  0.42057000  1
  O  O44  1  0.43081600  0.56170500  0.79874800  1
  O  O45  1  0.23568800  0.31782600  0.23446200  1
  O  O46  1  0.15747650  0.57804850  0.05284200  1
  O  O47  1  0.58926150  0.35594650  0.92057000  1
  O  O48  1  0.93081600  0.93829500  0.29874800  1
  O  O49  1  0.03295650  0.66159050  0.49762400  1
  O  O50  1  0.65878900  0.14686600  0.37453000  1
  O  O51  1  0.34252350  0.07804850  0.44715800  1
  O  O52  1  0.06918400  0.06170500  0.70125200  1
  O  O53  1  0.96704350  0.33840950  0.50237600  1
  O  O54  1  0.34121100  0.85313400  0.62547000  1
  O  O55  1  0.65747650  0.92195150  0.55284200  1
  O  O56  1  0.91073850  0.14405350  0.07943000  1
  O  O57  1  0.34252350  0.92195150  0.94715800  1
  O  O58  1  0.26431200  0.18217400  0.76553800  1
  O  O59  1  0.06918400  0.93829500  0.20125200  1
  O  O60  1  0.91073850  0.85594650  0.57943000  1
  O  O61  1  0.26431200  0.81782600  0.26553800  1
  O  O62  1  0.03295650  0.33840950  0.99762400  1
  O  O63  1  0.15878900  0.35313400  0.87453000  1
  O  O64  1  0.84121100  0.64686600  0.12547000  1
  O  O65  1  0.96704350  0.66159050  0.00237600  1
  O  O66  1  0.73568800  0.18217400  0.73446200  1
  O  O67  1  0.08926150  0.14405350  0.42057000  1
  O  O68  1  0.93081600  0.06170500  0.79874800  1
  O  O69  1  0.73568800  0.81782600  0.23446200  1
  O  O70  1  0.65747650  0.07804850  0.05284200  1
  O  O71  1  0.08926150  0.85594650  0.92057000  1
