# generated using pymatgen
data_LiCr2(PO4)3
_symmetry_space_group_name_H-M   'P 1'
_cell_length_a   11.90883200
_cell_length_b   12.32186600
_cell_length_c   6.25904699
_cell_angle_alpha   90.00000000
_cell_angle_beta   113.10200586
_cell_angle_gamma   90.00000000
_symmetry_Int_Tables_number   1
_chemical_formula_structural   LiCr2(PO4)3
_chemical_formula_sum   'Li4 Cr8 P12 O48'
_cell_volume   844.79421660
_cell_formula_units_Z   4
loop_
 _symmetry_equiv_pos_site_id
 _symmetry_equiv_pos_as_xyz
  1  'x, y, z'
loop_
 _atom_site_type_symbol
 _atom_site_label
 _atom_site_symmetry_multiplicity
 _atom_site_fract_x
 _atom_site_fract_y
 _atom_site_fract_z
 _atom_site_occupancy
  Li  Li0  1  0.50000000  0.00000000  0.50000000  1
  Li  Li1  1  0.50000000  0.00000000  0.00000000  1
  Li  Li2  1  0.00000000  0.50000000  0.50000000  1
  Li  Li3  1  0.00000000  0.50000000  0.00000000  1
  Cr  Cr4  1  0.21930650  0.84089250  0.13726400  1
  Cr  Cr5  1  0.21930650  0.15910750  0.63726400  1
  Cr  Cr6  1  0.78069350  0.84089250  0.36273600  1
  Cr  Cr7  1  0.78069350  0.15910750  0.86273600  1
  Cr  Cr8  1  0.71930650  0.34089250  0.13726400  1
  Cr  Cr9  1  0.71930650  0.65910750  0.63726400  1
  Cr  Cr10  1  0.28069350  0.34089250  0.36273600  1
  Cr  Cr11  1  0.28069350  0.65910750  0.86273600  1
  P  P12  1  0.50000000  0.22343200  0.75000000  1
  P  P13  1  0.74205400  0.90366400  0.85508100  1
  P  P14  1  0.25794600  0.09633600  0.14491900  1
  P  P15  1  0.50000000  0.77656800  0.25000000  1
  P  P16  1  0.74205400  0.09633600  0.35508100  1
  P  P17  1  0.25794600  0.90366400  0.64491900  1
  P  P18  1  0.00000000  0.72343200  0.75000000  1
  P  P19  1  0.24205400  0.40366400  0.85508100  1
  P  P20  1  0.75794600  0.59633600  0.14491900  1
  P  P21  1  0.00000000  0.27656800  0.25000000  1
  P  P22  1  0.24205400  0.59633600  0.35508100  1
  P  P23  1  0.75794600  0.40366400  0.64491900  1
  O  O24  1  0.19871350  0.83875250  0.41302800  1
  O  O25  1  0.18249000  0.01026000  0.61308800  1
  O  O26  1  0.60094250  0.85160350  0.22941900  1
  O  O27  1  0.23461400  0.82615200  0.82762300  1
  O  O28  1  0.76538600  0.17384800  0.17237700  1
  O  O29  1  0.80128650  0.16124750  0.58697200  1
  O  O30  1  0.81751000  0.98974000  0.38691200  1
  O  O31  1  0.55644100  0.29576400  0.96944900  1
  O  O32  1  0.44355900  0.29576400  0.53055100  1
  O  O33  1  0.81751000  0.01026000  0.88691200  1
  O  O34  1  0.60961800  0.07244300  0.28394500  1
  O  O35  1  0.80128650  0.83875250  0.08697200  1
  O  O36  1  0.60094250  0.14839650  0.72941900  1
  O  O37  1  0.55644100  0.70423600  0.46944900  1
  O  O38  1  0.39038200  0.07244300  0.21605500  1
  O  O39  1  0.39905750  0.14839650  0.77058100  1
  O  O40  1  0.76538600  0.82615200  0.67237700  1
  O  O41  1  0.60961800  0.92755700  0.78394500  1
  O  O42  1  0.23461400  0.17384800  0.32762300  1
  O  O43  1  0.39905750  0.85160350  0.27058100  1
  O  O44  1  0.19871350  0.16124750  0.91302800  1
  O  O45  1  0.39038200  0.92755700  0.71605500  1
  O  O46  1  0.18249000  0.98974000  0.11308800  1
  O  O47  1  0.44355900  0.70423600  0.03055100  1
  O  O48  1  0.69871350  0.33875250  0.41302800  1
  O  O49  1  0.68249000  0.51026000  0.61308800  1
  O  O50  1  0.10094250  0.35160350  0.22941900  1
  O  O51  1  0.73461400  0.32615200  0.82762300  1
  O  O52  1  0.26538600  0.67384800  0.17237700  1
  O  O53  1  0.30128650  0.66124750  0.58697200  1
  O  O54  1  0.31751000  0.48974000  0.38691200  1
  O  O55  1  0.05644100  0.79576400  0.96944900  1
  O  O56  1  0.94355900  0.79576400  0.53055100  1
  O  O57  1  0.31751000  0.51026000  0.88691200  1
  O  O58  1  0.10961800  0.57244300  0.28394500  1
  O  O59  1  0.30128650  0.33875250  0.08697200  1
  O  O60  1  0.10094250  0.64839650  0.72941900  1
  O  O61  1  0.05644100  0.20423600  0.46944900  1
  O  O62  1  0.89038200  0.57244300  0.21605500  1
  O  O63  1  0.89905750  0.64839650  0.77058100  1
  O  O64  1  0.26538600  0.32615200  0.67237700  1
  O  O65  1  0.10961800  0.42755700  0.78394500  1
  O  O66  1  0.73461400  0.67384800  0.32762300  1
  O  O67  1  0.89905750  0.35160350  0.27058100  1
  O  O68  1  0.69871350  0.66124750  0.91302800  1
  O  O69  1  0.89038200  0.42755700  0.71605500  1
  O  O70  1  0.68249000  0.48974000  0.11308800  1
  O  O71  1  0.94355900  0.20423600  0.03055100  1
