# generated using pymatgen
data_CeSiRh2
_symmetry_space_group_name_H-M   'P 1'
_cell_length_a   3.99073200
_cell_length_b   18.30771800
_cell_length_c   4.03720000
_cell_angle_alpha   90.00000000
_cell_angle_beta   90.00000000
_cell_angle_gamma   90.00000000
_symmetry_Int_Tables_number   1
_chemical_formula_structural   CeSiRh2
_chemical_formula_sum   'Ce4 Si4 Rh8'
_cell_volume   294.96266077
_cell_formula_units_Z   4
loop_
 _symmetry_equiv_pos_site_id
 _symmetry_equiv_pos_as_xyz
  1  'x, y, z'
loop_
 _atom_site_type_symbol
 _atom_site_label
 _atom_site_symmetry_multiplicity
 _atom_site_fract_x
 _atom_site_fract_y
 _atom_site_fract_z
 _atom_site_occupancy
  Ce  Ce0  1  0.00000000  0.90073200  0.75000000  1
  Ce  Ce1  1  0.50000000  0.59926800  0.25000000  1
  Ce  Ce2  1  0.50000000  0.40073200  0.75000000  1
  Ce  Ce3  1  0.00000000  0.09926800  0.25000000  1
  Si  Si4  1  0.00000000  0.67919300  0.75000000  1
  Si  Si5  1  0.50000000  0.82080700  0.25000000  1
  Si  Si6  1  0.50000000  0.17919300  0.75000000  1
  Si  Si7  1  0.00000000  0.32080700  0.25000000  1
  Rh  Rh8  1  0.50000000  0.95016200  0.25000000  1
  Rh  Rh9  1  0.00000000  0.54983800  0.75000000  1
  Rh  Rh10  1  0.00000000  0.74987000  0.25000000  1
  Rh  Rh11  1  0.50000000  0.75013000  0.75000000  1
  Rh  Rh12  1  0.00000000  0.45016200  0.25000000  1
  Rh  Rh13  1  0.50000000  0.04983800  0.75000000  1
  Rh  Rh14  1  0.50000000  0.24987000  0.25000000  1
  Rh  Rh15  1  0.00000000  0.25013000  0.75000000  1
