# generated using pymatgen
data_Zr9Ni11
_symmetry_space_group_name_H-M   'P 1'
_cell_length_a   9.99313000
_cell_length_b   9.99313000
_cell_length_c   6.47517000
_cell_angle_alpha   90.00000000
_cell_angle_beta   90.00000000
_cell_angle_gamma   90.00000000
_symmetry_Int_Tables_number   1
_chemical_formula_structural   Zr9Ni11
_chemical_formula_sum   'Zr18 Ni22'
_cell_volume   646.62761725
_cell_formula_units_Z   2
loop_
 _symmetry_equiv_pos_site_id
 _symmetry_equiv_pos_as_xyz
  1  'x, y, z'
loop_
 _atom_site_type_symbol
 _atom_site_label
 _atom_site_symmetry_multiplicity
 _atom_site_fract_x
 _atom_site_fract_y
 _atom_site_fract_z
 _atom_site_occupancy
  Zr  Zr0  1  0.00000000  0.00000000  0.00000000  1
  Zr  Zr1  1  0.25244100  0.08482100  0.50000000  1
  Zr  Zr2  1  0.58482100  0.24755900  0.00000000  1
  Zr  Zr3  1  0.41517900  0.75244100  0.00000000  1
  Zr  Zr4  1  0.74755900  0.91517900  0.50000000  1
  Zr  Zr5  1  0.68867600  0.90940100  0.00000000  1
  Zr  Zr6  1  0.40940100  0.81132400  0.50000000  1
  Zr  Zr7  1  0.59059900  0.18867600  0.50000000  1
  Zr  Zr8  1  0.31132400  0.09059900  0.00000000  1
  Zr  Zr9  1  0.50000000  0.50000000  0.50000000  1
  Zr  Zr10  1  0.75244100  0.58482100  0.00000000  1
  Zr  Zr11  1  0.08482100  0.74755900  0.50000000  1
  Zr  Zr12  1  0.91517900  0.25244100  0.50000000  1
  Zr  Zr13  1  0.24755900  0.41517900  0.00000000  1
  Zr  Zr14  1  0.18867600  0.40940100  0.50000000  1
  Zr  Zr15  1  0.90940100  0.31132400  0.00000000  1
  Zr  Zr16  1  0.09059900  0.68867600  0.00000000  1
  Zr  Zr17  1  0.81132400  0.59059900  0.50000000  1
  Ni  Ni18  1  0.00000000  0.00000000  0.50000000  1
  Ni  Ni19  1  0.50000000  0.00000000  0.75000000  1
  Ni  Ni20  1  0.50000000  0.00000000  0.25000000  1
  Ni  Ni21  1  0.38111450  0.27624450  0.29432650  1
  Ni  Ni22  1  0.77624450  0.11888550  0.79432650  1
  Ni  Ni23  1  0.22375550  0.88111450  0.79432650  1
  Ni  Ni24  1  0.61888550  0.72375550  0.29432650  1
  Ni  Ni25  1  0.61888550  0.72375550  0.70567350  1
  Ni  Ni26  1  0.22375550  0.88111450  0.20567350  1
  Ni  Ni27  1  0.77624450  0.11888550  0.20567350  1
  Ni  Ni28  1  0.38111450  0.27624450  0.70567350  1
  Ni  Ni29  1  0.50000000  0.50000000  0.00000000  1
  Ni  Ni30  1  0.00000000  0.50000000  0.25000000  1
  Ni  Ni31  1  0.00000000  0.50000000  0.75000000  1
  Ni  Ni32  1  0.88111450  0.77624450  0.79432650  1
  Ni  Ni33  1  0.27624450  0.61888550  0.29432650  1
  Ni  Ni34  1  0.72375550  0.38111450  0.29432650  1
  Ni  Ni35  1  0.11888550  0.22375550  0.79432650  1
  Ni  Ni36  1  0.11888550  0.22375550  0.20567350  1
  Ni  Ni37  1  0.72375550  0.38111450  0.70567350  1
  Ni  Ni38  1  0.27624450  0.61888550  0.70567350  1
  Ni  Ni39  1  0.88111450  0.77624450  0.20567350  1
