# generated using pymatgen
data_Sr11Bi10
_symmetry_space_group_name_H-M   'P 1'
_cell_length_a   13.00563000
_cell_length_b   13.00563000
_cell_length_c   18.57248800
_cell_angle_alpha   90.00000000
_cell_angle_beta   90.00000000
_cell_angle_gamma   90.00000000
_symmetry_Int_Tables_number   1
_chemical_formula_structural   Sr11Bi10
_chemical_formula_sum   'Sr44 Bi40'
_cell_volume   3141.46970148
_cell_formula_units_Z   4
loop_
 _symmetry_equiv_pos_site_id
 _symmetry_equiv_pos_as_xyz
  1  'x, y, z'
loop_
 _atom_site_type_symbol
 _atom_site_label
 _atom_site_symmetry_multiplicity
 _atom_site_fract_x
 _atom_site_fract_y
 _atom_site_fract_z
 _atom_site_occupancy
  Sr  Sr0  1  0.75058600  0.50000000  0.30965100  1
  Sr  Sr1  1  0.24941400  0.50000000  0.30965100  1
  Sr  Sr2  1  0.50000000  0.75058600  0.30965100  1
  Sr  Sr3  1  0.50000000  0.24941400  0.30965100  1
  Sr  Sr4  1  0.74941400  0.00000000  0.19034900  1
  Sr  Sr5  1  0.25058600  0.00000000  0.19034900  1
  Sr  Sr6  1  0.00000000  0.74941400  0.19034900  1
  Sr  Sr7  1  0.00000000  0.25058600  0.19034900  1
  Sr  Sr8  1  0.16534500  0.16534500  0.00000000  1
  Sr  Sr9  1  0.83465500  0.83465500  0.00000000  1
  Sr  Sr10  1  0.83465500  0.16534500  0.00000000  1
  Sr  Sr11  1  0.16534500  0.83465500  0.00000000  1
  Sr  Sr12  1  0.50000000  0.50000000  0.16144600  1
  Sr  Sr13  1  0.00000000  0.00000000  0.33855400  1
  Sr  Sr14  1  0.83885600  0.50000000  0.10387600  1
  Sr  Sr15  1  0.16114400  0.50000000  0.10387600  1
  Sr  Sr16  1  0.50000000  0.83885600  0.10387600  1
  Sr  Sr17  1  0.50000000  0.16114400  0.10387600  1
  Sr  Sr18  1  0.66114400  0.00000000  0.39612400  1
  Sr  Sr19  1  0.33885600  0.00000000  0.39612400  1
  Sr  Sr20  1  0.00000000  0.66114400  0.39612400  1
  Sr  Sr21  1  0.00000000  0.33885600  0.39612400  1
  Sr  Sr22  1  0.25058600  0.00000000  0.80965100  1
  Sr  Sr23  1  0.74941400  0.00000000  0.80965100  1
  Sr  Sr24  1  0.00000000  0.25058600  0.80965100  1
  Sr  Sr25  1  0.00000000  0.74941400  0.80965100  1
  Sr  Sr26  1  0.24941400  0.50000000  0.69034900  1
  Sr  Sr27  1  0.75058600  0.50000000  0.69034900  1
  Sr  Sr28  1  0.50000000  0.24941400  0.69034900  1
  Sr  Sr29  1  0.50000000  0.75058600  0.69034900  1
  Sr  Sr30  1  0.66534500  0.66534500  0.50000000  1
  Sr  Sr31  1  0.33465500  0.33465500  0.50000000  1
  Sr  Sr32  1  0.33465500  0.66534500  0.50000000  1
  Sr  Sr33  1  0.66534500  0.33465500  0.50000000  1
  Sr  Sr34  1  0.00000000  0.00000000  0.66144600  1
  Sr  Sr35  1  0.50000000  0.50000000  0.83855400  1
  Sr  Sr36  1  0.33885600  0.00000000  0.60387600  1
  Sr  Sr37  1  0.66114400  0.00000000  0.60387600  1
  Sr  Sr38  1  0.00000000  0.33885600  0.60387600  1
  Sr  Sr39  1  0.00000000  0.66114400  0.60387600  1
  Sr  Sr40  1  0.16114400  0.50000000  0.89612400  1
  Sr  Sr41  1  0.83885600  0.50000000  0.89612400  1
  Sr  Sr42  1  0.50000000  0.16114400  0.89612400  1
  Sr  Sr43  1  0.50000000  0.83885600  0.89612400  1
  Bi  Bi44  1  0.00000000  0.35040800  0.00000000  1
  Bi  Bi45  1  0.00000000  0.64959200  0.00000000  1
  Bi  Bi46  1  0.64959200  0.00000000  0.00000000  1
  Bi  Bi47  1  0.35040800  0.00000000  0.00000000  1
  Bi  Bi48  1  0.50000000  0.50000000  0.37432400  1
  Bi  Bi49  1  0.00000000  0.00000000  0.12567600  1
  Bi  Bi50  1  0.37220500  0.37220500  0.00000000  1
  Bi  Bi51  1  0.62779500  0.62779500  0.00000000  1
  Bi  Bi52  1  0.62779500  0.37220500  0.00000000  1
  Bi  Bi53  1  0.37220500  0.62779500  0.00000000  1
  Bi  Bi54  1  0.00000000  0.50000000  0.25000000  1
  Bi  Bi55  1  0.50000000  0.00000000  0.25000000  1
  Bi  Bi56  1  0.70626150  0.70626150  0.17349050  1
  Bi  Bi57  1  0.29373850  0.29373850  0.17349050  1
  Bi  Bi58  1  0.29373850  0.70626150  0.17349050  1
  Bi  Bi59  1  0.70626150  0.29373850  0.17349050  1
  Bi  Bi60  1  0.79373850  0.79373850  0.32650950  1
  Bi  Bi61  1  0.20626150  0.20626150  0.32650950  1
  Bi  Bi62  1  0.20626150  0.79373850  0.32650950  1
  Bi  Bi63  1  0.79373850  0.20626150  0.32650950  1
  Bi  Bi64  1  0.50000000  0.85040800  0.50000000  1
  Bi  Bi65  1  0.50000000  0.14959200  0.50000000  1
  Bi  Bi66  1  0.14959200  0.50000000  0.50000000  1
  Bi  Bi67  1  0.85040800  0.50000000  0.50000000  1
  Bi  Bi68  1  0.00000000  0.00000000  0.87432400  1
  Bi  Bi69  1  0.50000000  0.50000000  0.62567600  1
  Bi  Bi70  1  0.87220500  0.87220500  0.50000000  1
  Bi  Bi71  1  0.12779500  0.12779500  0.50000000  1
  Bi  Bi72  1  0.12779500  0.87220500  0.50000000  1
  Bi  Bi73  1  0.87220500  0.12779500  0.50000000  1
  Bi  Bi74  1  0.50000000  0.00000000  0.75000000  1
  Bi  Bi75  1  0.00000000  0.50000000  0.75000000  1
  Bi  Bi76  1  0.20626150  0.20626150  0.67349050  1
  Bi  Bi77  1  0.79373850  0.79373850  0.67349050  1
  Bi  Bi78  1  0.79373850  0.20626150  0.67349050  1
  Bi  Bi79  1  0.20626150  0.79373850  0.67349050  1
  Bi  Bi80  1  0.29373850  0.29373850  0.82650950  1
  Bi  Bi81  1  0.70626150  0.70626150  0.82650950  1
  Bi  Bi82  1  0.70626150  0.29373850  0.82650950  1
  Bi  Bi83  1  0.29373850  0.70626150  0.82650950  1
