# generated using pymatgen
data_Li3Cr3(PO4)4
_symmetry_space_group_name_H-M   'P 1'
_cell_length_a   19.15604000
_cell_length_b   6.35157600
_cell_length_c   10.44066435
_cell_angle_alpha   90.00000000
_cell_angle_beta   90.21622893
_cell_angle_gamma   90.00000000
_symmetry_Int_Tables_number   1
_chemical_formula_structural   Li3Cr3(PO4)4
_chemical_formula_sum   'Li12 Cr12 P16 O64'
_cell_volume   1270.31748443
_cell_formula_units_Z   4
loop_
 _symmetry_equiv_pos_site_id
 _symmetry_equiv_pos_as_xyz
  1  'x, y, z'
loop_
 _atom_site_type_symbol
 _atom_site_label
 _atom_site_symmetry_multiplicity
 _atom_site_fract_x
 _atom_site_fract_y
 _atom_site_fract_z
 _atom_site_occupancy
  Li  Li0  1  0.56621150  0.38563350  0.95186500  1
  Li  Li1  1  0.00000000  0.53367500  0.25000000  1
  Li  Li2  1  0.00000000  0.46632500  0.75000000  1
  Li  Li3  1  0.93378850  0.11436650  0.04813500  1
  Li  Li4  1  0.93378850  0.88563350  0.54813500  1
  Li  Li5  1  0.56621150  0.61436650  0.45186500  1
  Li  Li6  1  0.06621150  0.88563350  0.95186500  1
  Li  Li7  1  0.50000000  0.03367500  0.25000000  1
  Li  Li8  1  0.50000000  0.96632500  0.75000000  1
  Li  Li9  1  0.43378850  0.61436650  0.04813500  1
  Li  Li10  1  0.43378850  0.38563350  0.54813500  1
  Li  Li11  1  0.06621150  0.11436650  0.45186500  1
  Cr  Cr12  1  0.84357500  0.47795800  0.24580300  1
  Cr  Cr13  1  0.84357500  0.52204200  0.74580300  1
  Cr  Cr14  1  0.75000000  0.75000000  0.00000000  1
  Cr  Cr15  1  0.75000000  0.25000000  0.50000000  1
  Cr  Cr16  1  0.65642500  0.97795800  0.25419700  1
  Cr  Cr17  1  0.65642500  0.02204200  0.75419700  1
  Cr  Cr18  1  0.34357500  0.97795800  0.24580300  1
  Cr  Cr19  1  0.34357500  0.02204200  0.74580300  1
  Cr  Cr20  1  0.25000000  0.25000000  0.00000000  1
  Cr  Cr21  1  0.25000000  0.75000000  0.50000000  1
  Cr  Cr22  1  0.15642500  0.47795800  0.25419700  1
  Cr  Cr23  1  0.15642500  0.52204200  0.75419700  1
  P  P24  1  0.58273250  0.16353350  0.49757300  1
  P  P25  1  0.69985600  0.52039900  0.74661400  1
  P  P26  1  0.69985600  0.47960100  0.24661400  1
  P  P27  1  0.80014400  0.02039900  0.75338600  1
  P  P28  1  0.80014400  0.97960100  0.25338600  1
  P  P29  1  0.91726750  0.33646650  0.50242700  1
  P  P30  1  0.58273250  0.83646650  0.99757300  1
  P  P31  1  0.91726750  0.66353350  0.00242700  1
  P  P32  1  0.08273250  0.66353350  0.49757300  1
  P  P33  1  0.19985600  0.02039900  0.74661400  1
  P  P34  1  0.19985600  0.97960100  0.24661400  1
  P  P35  1  0.30014400  0.52039900  0.75338600  1
  P  P36  1  0.30014400  0.47960100  0.25338600  1
  P  P37  1  0.41726750  0.83646650  0.50242700  1
  P  P38  1  0.08273250  0.33646650  0.99757300  1
  P  P39  1  0.41726750  0.16353350  0.00242700  1
  O  O40  1  0.74523950  0.02252150  0.36509200  1
  O  O41  1  0.91357600  0.48675500  0.10840500  1
  O  O42  1  0.92236500  0.55287300  0.86868800  1
  O  O43  1  0.92236500  0.44712700  0.36868800  1
  O  O44  1  0.97861900  0.19236300  0.53022100  1
  O  O45  1  0.97861900  0.80763700  0.03022100  1
  O  O46  1  0.52138100  0.69236300  0.96977900  1
  O  O47  1  0.52138100  0.30763700  0.46977900  1
  O  O48  1  0.57763500  0.05287300  0.63131200  1
  O  O49  1  0.57763500  0.94712700  0.13131200  1
  O  O50  1  0.58642400  0.01324500  0.89159500  1
  O  O51  1  0.58642400  0.98675500  0.39159500  1
  O  O52  1  0.65003900  0.69981900  0.99494600  1
  O  O53  1  0.65003900  0.30018100  0.49494600  1
  O  O54  1  0.65325200  0.33419500  0.78250300  1
  O  O55  1  0.65566350  0.71376350  0.71797300  1
  O  O56  1  0.84996100  0.80018100  0.00505400  1
  O  O57  1  0.65566350  0.28623650  0.21797300  1
  O  O58  1  0.74523950  0.97747850  0.86509200  1
  O  O59  1  0.74232450  0.05232650  0.64406700  1
  O  O60  1  0.65325200  0.66580500  0.28250300  1
  O  O61  1  0.74232450  0.94767350  0.14406700  1
  O  O62  1  0.75767550  0.55232650  0.85593300  1
  O  O63  1  0.75476050  0.47747850  0.63490800  1
  O  O64  1  0.75767550  0.44767350  0.35593300  1
  O  O65  1  0.75476050  0.52252150  0.13490800  1
  O  O66  1  0.84433650  0.21376350  0.78202700  1
  O  O67  1  0.84674800  0.83419500  0.71749700  1
  O  O68  1  0.84433650  0.78623650  0.28202700  1
  O  O69  1  0.84674800  0.16580500  0.21749700  1
  O  O70  1  0.84996100  0.19981900  0.50505400  1
  O  O71  1  0.91357600  0.51324500  0.60840500  1
  O  O72  1  0.24523950  0.52252150  0.36509200  1
  O  O73  1  0.41357600  0.98675500  0.10840500  1
  O  O74  1  0.42236500  0.05287300  0.86868800  1
  O  O75  1  0.42236500  0.94712700  0.36868800  1
  O  O76  1  0.47861900  0.69236300  0.53022100  1
  O  O77  1  0.47861900  0.30763700  0.03022100  1
  O  O78  1  0.02138100  0.19236300  0.96977900  1
  O  O79  1  0.02138100  0.80763700  0.46977900  1
  O  O80  1  0.07763500  0.55287300  0.63131200  1
  O  O81  1  0.07763500  0.44712700  0.13131200  1
  O  O82  1  0.08642400  0.51324500  0.89159500  1
  O  O83  1  0.08642400  0.48675500  0.39159500  1
  O  O84  1  0.15003900  0.19981900  0.99494600  1
  O  O85  1  0.15003900  0.80018100  0.49494600  1
  O  O86  1  0.15325200  0.83419500  0.78250300  1
  O  O87  1  0.15566350  0.21376350  0.71797300  1
  O  O88  1  0.34996100  0.30018100  0.00505400  1
  O  O89  1  0.15566350  0.78623650  0.21797300  1
  O  O90  1  0.24523950  0.47747850  0.86509200  1
  O  O91  1  0.24232450  0.55232650  0.64406700  1
  O  O92  1  0.15325200  0.16580500  0.28250300  1
  O  O93  1  0.24232450  0.44767350  0.14406700  1
  O  O94  1  0.25767550  0.05232650  0.85593300  1
  O  O95  1  0.25476050  0.97747850  0.63490800  1
  O  O96  1  0.25767550  0.94767350  0.35593300  1
  O  O97  1  0.25476050  0.02252150  0.13490800  1
  O  O98  1  0.34433650  0.71376350  0.78202700  1
  O  O99  1  0.34674800  0.33419500  0.71749700  1
  O  O100  1  0.34433650  0.28623650  0.28202700  1
  O  O101  1  0.34674800  0.66580500  0.21749700  1
  O  O102  1  0.34996100  0.69981900  0.50505400  1
  O  O103  1  0.41357600  0.01324500  0.60840500  1
