# generated using pymatgen
data_Li5Cr2P5O18
_symmetry_space_group_name_H-M   'P 1'
_cell_length_a   6.48245929
_cell_length_b   9.31215522
_cell_length_c   10.62896070
_cell_angle_alpha   96.02952778
_cell_angle_beta   93.03929341
_cell_angle_gamma   91.08238408
_symmetry_Int_Tables_number   1
_chemical_formula_structural   Li5Cr2P5O18
_chemical_formula_sum   'Li10 Cr4 P10 O36'
_cell_volume   636.98396004
_cell_formula_units_Z   2
loop_
 _symmetry_equiv_pos_site_id
 _symmetry_equiv_pos_as_xyz
  1  'x, y, z'
loop_
 _atom_site_type_symbol
 _atom_site_label
 _atom_site_symmetry_multiplicity
 _atom_site_fract_x
 _atom_site_fract_y
 _atom_site_fract_z
 _atom_site_occupancy
  Li  Li0  1  0.98277549  0.06200427  0.86998355  1
  Li  Li1  1  0.01722451  0.93799573  0.13001645  1
  Li  Li2  1  0.17760808  0.86893357  0.64438221  1
  Li  Li3  1  0.87975966  0.78455776  0.34318771  1
  Li  Li4  1  0.45049491  0.72406184  0.41437295  1
  Li  Li5  1  0.82239192  0.13106643  0.35561779  1
  Li  Li6  1  0.12024034  0.21544224  0.65681229  1
  Li  Li7  1  0.54950509  0.27593816  0.58562705  1
  Li  Li8  1  0.34200053  0.37230842  0.86107389  1
  Li  Li9  1  0.65799947  0.62769158  0.13892611  1
  Cr  Cr10  1  0.33107368  0.76882139  0.94941261  1
  Cr  Cr11  1  0.76831468  0.64191786  0.59836634  1
  Cr  Cr12  1  0.23168532  0.35808214  0.40163366  1
  Cr  Cr13  1  0.66892632  0.23117861  0.05058739  1
  P  P14  1  0.28101645  0.58159172  0.65310589  1
  P  P15  1  0.16742725  0.58217717  0.17545468  1
  P  P16  1  0.83147070  0.72814613  0.89739899  1
  P  P17  1  0.77623634  0.98547996  0.59851156  1
  P  P18  1  0.48244434  0.04771073  0.80054020  1
  P  P19  1  0.22376366  0.01452004  0.40148844  1
  P  P20  1  0.16852930  0.27185387  0.10260101  1
  P  P21  1  0.83257275  0.41782283  0.82454532  1
  P  P22  1  0.71898355  0.41840828  0.34689411  1
  P  P23  1  0.51755566  0.95228927  0.19945980  1
  O  O24  1  0.01534718  0.31986884  0.81447811  1
  O  O25  1  0.58082787  0.96483634  0.68137340  1
  O  O26  1  0.34038201  0.92313580  0.09617144  1
  O  O27  1  0.02890227  0.98409599  0.31424661  1
  O  O28  1  0.97109773  0.01590401  0.68575339  1
  O  O29  1  0.65961799  0.07686420  0.90382856  1
  O  O30  1  0.41917213  0.03516366  0.31862660  1
  O  O31  1  0.67669601  0.06755846  0.16697255  1
  O  O32  1  0.72961963  0.10930661  0.52128069  1
  O  O33  1  0.38605234  0.18121094  0.75452340  1
  O  O34  1  0.22014808  0.16504688  0.48014211  1
  O  O35  1  0.98314240  0.17534265  0.04542190  1
  O  O36  1  0.27038037  0.89069339  0.47871931  1
  O  O37  1  0.22779279  0.24702698  0.23727485  1
  O  O38  1  0.66759140  0.37235535  0.91396114  1
  O  O39  1  0.35657696  0.25596943  0.02053333  1
  O  O40  1  0.91767513  0.33845908  0.38346929  1
  O  O41  1  0.32330399  0.93244154  0.83302745  1
  O  O42  1  0.25738150  0.42003948  0.59724870  1
  O  O43  1  0.73692401  0.45123385  0.69382218  1
  O  O44  1  0.67805639  0.40365100  0.19992199  1
  O  O45  1  0.07888834  0.42996788  0.10148603  1
  O  O46  1  0.92111166  0.57003212  0.89851397  1
  O  O47  1  0.32194361  0.59634900  0.80007801  1
  O  O48  1  0.26307599  0.54876615  0.30617782  1
  O  O49  1  0.74261850  0.57996052  0.40275130  1
  O  O50  1  0.45926212  0.65214103  0.58662775  1
  O  O51  1  0.08232487  0.66154092  0.61653071  1
  O  O52  1  0.64342304  0.74403057  0.97946667  1
  O  O53  1  0.33240860  0.62764465  0.08603886  1
  O  O54  1  0.77220721  0.75297302  0.76272515  1
  O  O55  1  0.98465282  0.68013116  0.18552189  1
  O  O56  1  0.01685760  0.82465735  0.95457810  1
  O  O57  1  0.77985192  0.83495312  0.51985789  1
  O  O58  1  0.61394766  0.81878906  0.24547660  1
  O  O59  1  0.54073788  0.34785897  0.41337225  1
