# generated using pymatgen
data_Li3Fe(PO4)2
_symmetry_space_group_name_H-M   'P 1'
_cell_length_a   8.22707400
_cell_length_b   5.45638600
_cell_length_c   6.27346495
_cell_angle_alpha   90.00000000
_cell_angle_beta   90.50735590
_cell_angle_gamma   90.00000000
_symmetry_Int_Tables_number   1
_chemical_formula_structural   Li3Fe(PO4)2
_chemical_formula_sum   'Li6 Fe2 P4 O16'
_cell_volume   281.60537425
_cell_formula_units_Z   2
loop_
 _symmetry_equiv_pos_site_id
 _symmetry_equiv_pos_as_xyz
  1  'x, y, z'
loop_
 _atom_site_type_symbol
 _atom_site_label
 _atom_site_symmetry_multiplicity
 _atom_site_fract_x
 _atom_site_fract_y
 _atom_site_fract_z
 _atom_site_occupancy
  Li  Li0  1  0.82646900  0.00000000  0.27139700  1
  Li  Li1  1  0.17353100  0.00000000  0.72860300  1
  Li  Li2  1  0.50000000  0.00000000  0.50000000  1
  Li  Li3  1  0.32646900  0.50000000  0.27139700  1
  Li  Li4  1  0.67353100  0.50000000  0.72860300  1
  Li  Li5  1  0.00000000  0.50000000  0.50000000  1
  Fe  Fe6  1  0.50000000  0.00000000  0.00000000  1
  Fe  Fe7  1  0.00000000  0.50000000  0.00000000  1
  P  P8  1  0.15006000  0.00000000  0.23784500  1
  P  P9  1  0.84994000  0.00000000  0.76215500  1
  P  P10  1  0.65006000  0.50000000  0.23784500  1
  P  P11  1  0.34994000  0.50000000  0.76215500  1
  O  O12  1  0.74144200  0.00000000  0.96466300  1
  O  O13  1  0.74602800  0.00000000  0.56181300  1
  O  O14  1  0.25397200  0.00000000  0.43818700  1
  O  O15  1  0.25855800  0.00000000  0.03533700  1
  O  O16  1  0.46673950  0.72944250  0.76888900  1
  O  O17  1  0.46673950  0.27055750  0.76888900  1
  O  O18  1  0.53326050  0.27055750  0.23111100  1
  O  O19  1  0.53326050  0.72944250  0.23111100  1
  O  O20  1  0.24144200  0.50000000  0.96466300  1
  O  O21  1  0.24602800  0.50000000  0.56181300  1
  O  O22  1  0.75397200  0.50000000  0.43818700  1
  O  O23  1  0.75855800  0.50000000  0.03533700  1
  O  O24  1  0.96673950  0.22944250  0.76888900  1
  O  O25  1  0.96673950  0.77055750  0.76888900  1
  O  O26  1  0.03326050  0.77055750  0.23111100  1
  O  O27  1  0.03326050  0.22944250  0.23111100  1
