# generated using pymatgen
data_Li3V(PO4)2
_symmetry_space_group_name_H-M   'P 1'
_cell_length_a   8.17596400
_cell_length_b   5.46779800
_cell_length_c   6.27619655
_cell_angle_alpha   90.00000000
_cell_angle_beta   90.41991317
_cell_angle_gamma   90.00000000
_symmetry_Int_Tables_number   1
_chemical_formula_structural   Li3V(PO4)2
_chemical_formula_sum   'Li6 V2 P4 O16'
_cell_volume   280.56681678
_cell_formula_units_Z   2
loop_
 _symmetry_equiv_pos_site_id
 _symmetry_equiv_pos_as_xyz
  1  'x, y, z'
loop_
 _atom_site_type_symbol
 _atom_site_label
 _atom_site_symmetry_multiplicity
 _atom_site_fract_x
 _atom_site_fract_y
 _atom_site_fract_z
 _atom_site_occupancy
  Li  Li0  1  0.82515500  0.00000000  0.27319000  1
  Li  Li1  1  0.50000000  0.00000000  0.50000000  1
  Li  Li2  1  0.17484500  0.00000000  0.72681000  1
  Li  Li3  1  0.32515500  0.50000000  0.27319000  1
  Li  Li4  1  0.00000000  0.50000000  0.50000000  1
  Li  Li5  1  0.67484500  0.50000000  0.72681000  1
  V  V6  1  0.50000000  0.00000000  0.00000000  1
  V  V7  1  0.00000000  0.50000000  0.00000000  1
  P  P8  1  0.85018700  0.00000000  0.76330000  1
  P  P9  1  0.14981300  0.00000000  0.23670000  1
  P  P10  1  0.35018700  0.50000000  0.76330000  1
  P  P11  1  0.64981300  0.50000000  0.23670000  1
  O  O12  1  0.25995200  0.00000000  0.03324100  1
  O  O13  1  0.25436600  0.00000000  0.43654100  1
  O  O14  1  0.46648350  0.72943750  0.77070600  1
  O  O15  1  0.46648350  0.27056250  0.77070600  1
  O  O16  1  0.53351650  0.72943750  0.22929400  1
  O  O17  1  0.53351650  0.27056250  0.22929400  1
  O  O18  1  0.74004800  0.00000000  0.96675900  1
  O  O19  1  0.74563400  0.00000000  0.56345900  1
  O  O20  1  0.75995200  0.50000000  0.03324100  1
  O  O21  1  0.75436600  0.50000000  0.43654100  1
  O  O22  1  0.96648350  0.22943750  0.77070600  1
  O  O23  1  0.96648350  0.77056250  0.77070600  1
  O  O24  1  0.03351650  0.22943750  0.22929400  1
  O  O25  1  0.03351650  0.77056250  0.22929400  1
  O  O26  1  0.24004800  0.50000000  0.96675900  1
  O  O27  1  0.24563400  0.50000000  0.56345900  1
