# generated using pymatgen
data_Ta6Be15Cu8
_symmetry_space_group_name_H-M   'P 1'
_cell_length_a   10.81357000
_cell_length_b   10.81357000
_cell_length_c   10.81357000
_cell_angle_alpha   90.00000000
_cell_angle_beta   90.00000000
_cell_angle_gamma   90.00000000
_symmetry_Int_Tables_number   1
_chemical_formula_structural   Ta6Be15Cu8
_chemical_formula_sum   'Ta24 Be60 Cu32'
_cell_volume   1264.46638319
_cell_formula_units_Z   4
loop_
 _symmetry_equiv_pos_site_id
 _symmetry_equiv_pos_as_xyz
  1  'x, y, z'
loop_
 _atom_site_type_symbol
 _atom_site_label
 _atom_site_symmetry_multiplicity
 _atom_site_fract_x
 _atom_site_fract_y
 _atom_site_fract_z
 _atom_site_occupancy
  Ta  Ta0  1  0.50000000  0.00000000  0.69197500  1
  Ta  Ta1  1  0.80802500  0.00000000  0.00000000  1
  Ta  Ta2  1  0.19197500  0.00000000  0.00000000  1
  Ta  Ta3  1  0.50000000  0.69197500  0.00000000  1
  Ta  Ta4  1  0.50000000  0.30802500  0.00000000  1
  Ta  Ta5  1  0.00000000  0.00000000  0.80802500  1
  Ta  Ta6  1  0.50000000  0.50000000  0.19197500  1
  Ta  Ta7  1  0.80802500  0.50000000  0.50000000  1
  Ta  Ta8  1  0.19197500  0.50000000  0.50000000  1
  Ta  Ta9  1  0.50000000  0.19197500  0.50000000  1
  Ta  Ta10  1  0.50000000  0.80802500  0.50000000  1
  Ta  Ta11  1  0.00000000  0.50000000  0.30802500  1
  Ta  Ta12  1  0.00000000  0.00000000  0.19197500  1
  Ta  Ta13  1  0.30802500  0.00000000  0.50000000  1
  Ta  Ta14  1  0.69197500  0.00000000  0.50000000  1
  Ta  Ta15  1  0.00000000  0.69197500  0.50000000  1
  Ta  Ta16  1  0.00000000  0.30802500  0.50000000  1
  Ta  Ta17  1  0.50000000  0.00000000  0.30802500  1
  Ta  Ta18  1  0.00000000  0.50000000  0.69197500  1
  Ta  Ta19  1  0.30802500  0.50000000  0.00000000  1
  Ta  Ta20  1  0.69197500  0.50000000  0.00000000  1
  Ta  Ta21  1  0.00000000  0.19197500  0.00000000  1
  Ta  Ta22  1  0.00000000  0.80802500  0.00000000  1
  Ta  Ta23  1  0.50000000  0.50000000  0.80802500  1
  Be  Be24  1  0.50000000  0.00000000  0.00000000  1
  Be  Be25  1  0.25000000  0.75000000  0.00000000  1
  Be  Be26  1  0.00000000  0.25000000  0.75000000  1
  Be  Be27  1  0.00000000  0.75000000  0.75000000  1
  Be  Be28  1  0.25000000  0.25000000  0.00000000  1
  Be  Be29  1  0.75000000  0.00000000  0.75000000  1
  Be  Be30  1  0.25000000  0.00000000  0.75000000  1
  Be  Be31  1  0.17297133  0.32702867  0.67297133  1
  Be  Be32  1  0.32702867  0.82702867  0.67297133  1
  Be  Be33  1  0.17297133  0.82702867  0.82702867  1
  Be  Be34  1  0.17297133  0.67297133  0.67297133  1
  Be  Be35  1  0.32702867  0.17297133  0.67297133  1
  Be  Be36  1  0.32702867  0.32702867  0.82702867  1
  Be  Be37  1  0.17297133  0.17297133  0.82702867  1
  Be  Be38  1  0.32702867  0.67297133  0.82702867  1
  Be  Be39  1  0.50000000  0.50000000  0.50000000  1
  Be  Be40  1  0.25000000  0.25000000  0.50000000  1
  Be  Be41  1  0.00000000  0.75000000  0.25000000  1
  Be  Be42  1  0.00000000  0.25000000  0.25000000  1
  Be  Be43  1  0.25000000  0.75000000  0.50000000  1
  Be  Be44  1  0.75000000  0.50000000  0.25000000  1
  Be  Be45  1  0.25000000  0.50000000  0.25000000  1
  Be  Be46  1  0.17297133  0.82702867  0.17297133  1
  Be  Be47  1  0.32702867  0.32702867  0.17297133  1
  Be  Be48  1  0.17297133  0.32702867  0.32702867  1
  Be  Be49  1  0.17297133  0.17297133  0.17297133  1
  Be  Be50  1  0.32702867  0.67297133  0.17297133  1
  Be  Be51  1  0.32702867  0.82702867  0.32702867  1
  Be  Be52  1  0.17297133  0.67297133  0.32702867  1
  Be  Be53  1  0.32702867  0.17297133  0.32702867  1
  Be  Be54  1  0.00000000  0.00000000  0.50000000  1
  Be  Be55  1  0.75000000  0.75000000  0.50000000  1
  Be  Be56  1  0.50000000  0.25000000  0.25000000  1
  Be  Be57  1  0.50000000  0.75000000  0.25000000  1
  Be  Be58  1  0.75000000  0.25000000  0.50000000  1
  Be  Be59  1  0.25000000  0.00000000  0.25000000  1
  Be  Be60  1  0.75000000  0.00000000  0.25000000  1
  Be  Be61  1  0.67297133  0.32702867  0.17297133  1
  Be  Be62  1  0.82702867  0.82702867  0.17297133  1
  Be  Be63  1  0.67297133  0.82702867  0.32702867  1
  Be  Be64  1  0.67297133  0.67297133  0.17297133  1
  Be  Be65  1  0.82702867  0.17297133  0.17297133  1
  Be  Be66  1  0.82702867  0.32702867  0.32702867  1
  Be  Be67  1  0.67297133  0.17297133  0.32702867  1
  Be  Be68  1  0.82702867  0.67297133  0.32702867  1
  Be  Be69  1  0.00000000  0.50000000  0.00000000  1
  Be  Be70  1  0.75000000  0.25000000  0.00000000  1
  Be  Be71  1  0.50000000  0.75000000  0.75000000  1
  Be  Be72  1  0.50000000  0.25000000  0.75000000  1
  Be  Be73  1  0.75000000  0.75000000  0.00000000  1
  Be  Be74  1  0.25000000  0.50000000  0.75000000  1
  Be  Be75  1  0.75000000  0.50000000  0.75000000  1
  Be  Be76  1  0.67297133  0.82702867  0.67297133  1
  Be  Be77  1  0.82702867  0.32702867  0.67297133  1
  Be  Be78  1  0.67297133  0.32702867  0.82702867  1
  Be  Be79  1  0.67297133  0.17297133  0.67297133  1
  Be  Be80  1  0.82702867  0.67297133  0.67297133  1
  Be  Be81  1  0.82702867  0.82702867  0.82702867  1
  Be  Be82  1  0.67297133  0.67297133  0.82702867  1
  Be  Be83  1  0.82702867  0.17297133  0.82702867  1
  Cu  Cu84  1  0.37702267  0.12297733  0.87702267  1
  Cu  Cu85  1  0.62297733  0.12297733  0.87702267  1
  Cu  Cu86  1  0.87702267  0.12297733  0.62297733  1
  Cu  Cu87  1  0.37702267  0.87702267  0.87702267  1
  Cu  Cu88  1  0.62297733  0.87702267  0.87702267  1
  Cu  Cu89  1  0.12297733  0.12297733  0.62297733  1
  Cu  Cu90  1  0.87702267  0.87702267  0.62297733  1
  Cu  Cu91  1  0.12297733  0.87702267  0.62297733  1
  Cu  Cu92  1  0.37702267  0.62297733  0.37702267  1
  Cu  Cu93  1  0.62297733  0.62297733  0.37702267  1
  Cu  Cu94  1  0.87702267  0.62297733  0.12297733  1
  Cu  Cu95  1  0.37702267  0.37702267  0.37702267  1
  Cu  Cu96  1  0.62297733  0.37702267  0.37702267  1
  Cu  Cu97  1  0.12297733  0.62297733  0.12297733  1
  Cu  Cu98  1  0.87702267  0.37702267  0.12297733  1
  Cu  Cu99  1  0.12297733  0.37702267  0.12297733  1
  Cu  Cu100  1  0.87702267  0.12297733  0.37702267  1
  Cu  Cu101  1  0.12297733  0.12297733  0.37702267  1
  Cu  Cu102  1  0.37702267  0.12297733  0.12297733  1
  Cu  Cu103  1  0.87702267  0.87702267  0.37702267  1
  Cu  Cu104  1  0.12297733  0.87702267  0.37702267  1
  Cu  Cu105  1  0.62297733  0.12297733  0.12297733  1
  Cu  Cu106  1  0.37702267  0.87702267  0.12297733  1
  Cu  Cu107  1  0.62297733  0.87702267  0.12297733  1
  Cu  Cu108  1  0.87702267  0.62297733  0.87702267  1
  Cu  Cu109  1  0.12297733  0.62297733  0.87702267  1
  Cu  Cu110  1  0.37702267  0.62297733  0.62297733  1
  Cu  Cu111  1  0.87702267  0.37702267  0.87702267  1
  Cu  Cu112  1  0.12297733  0.37702267  0.87702267  1
  Cu  Cu113  1  0.62297733  0.62297733  0.62297733  1
  Cu  Cu114  1  0.37702267  0.37702267  0.62297733  1
  Cu  Cu115  1  0.62297733  0.37702267  0.62297733  1
