# generated using pymatgen
data_LiV(PO3)3
_symmetry_space_group_name_H-M   'P 1'
_cell_length_a   9.46943914
_cell_length_b   9.48129452
_cell_length_c   9.79046000
_cell_angle_alpha   109.92598715
_cell_angle_beta   104.37136781
_cell_angle_gamma   108.54197618
_symmetry_Int_Tables_number   1
_chemical_formula_structural   LiV(PO3)3
_chemical_formula_sum   'Li4 V4 P12 O36'
_cell_volume   718.06349441
_cell_formula_units_Z   4
loop_
 _symmetry_equiv_pos_site_id
 _symmetry_equiv_pos_as_xyz
  1  'x, y, z'
loop_
 _atom_site_type_symbol
 _atom_site_label
 _atom_site_symmetry_multiplicity
 _atom_site_fract_x
 _atom_site_fract_y
 _atom_site_fract_z
 _atom_site_occupancy
  Li  Li0  1  0.65405800  0.06848800  0.49821200  1
  Li  Li1  1  0.64106100  0.84949400  0.66791100  1
  Li  Li2  1  0.35893900  0.15050600  0.33208900  1
  Li  Li3  1  0.34594200  0.93151200  0.50178800  1
  V  V4  1  0.25219200  0.77081100  0.72559800  1
  V  V5  1  0.90224300  0.70154000  0.78659600  1
  V  V6  1  0.09775700  0.29846000  0.21340400  1
  V  V7  1  0.74780800  0.22918900  0.27440200  1
  P  P8  1  0.18929900  0.09115500  0.92243100  1
  P  P9  1  0.51137900  0.15144200  0.89446400  1
  P  P10  1  0.94374900  0.21117700  0.83674700  1
  P  P11  1  0.99824200  0.38927100  0.64670800  1
  P  P12  1  0.56870600  0.33724800  0.70552800  1
  P  P13  1  0.30695200  0.43089000  0.59111900  1
  P  P14  1  0.69304800  0.56911000  0.40888100  1
  P  P15  1  0.43129400  0.66275200  0.29447200  1
  P  P16  1  0.00175800  0.61072900  0.35329200  1
  P  P17  1  0.05625100  0.78882300  0.16325300  1
  P  P18  1  0.48862100  0.84855800  0.10553600  1
  P  P19  1  0.81070100  0.90884500  0.07756900  1
  O  O20  1  0.36413500  0.18861700  0.92734500  1
  O  O21  1  0.04748400  0.72788700  0.99863700  1
  O  O22  1  0.09069500  0.16071400  0.82706800  1
  O  O23  1  0.00162600  0.37196100  0.80330900  1
  O  O24  1  0.59422900  0.30291200  0.85813100  1
  O  O25  1  0.37076100  0.82309900  0.95778100  1
  O  O26  1  0.12200000  0.90492000  0.81533800  1
  O  O27  1  0.03155100  0.56824700  0.68088700  1
  O  O28  1  0.14963000  0.35809400  0.62717400  1
  O  O29  1  0.42820800  0.39892400  0.71042500  1
  O  O30  1  0.78744400  0.07512400  0.70205600  1
  O  O31  1  0.80447700  0.85534300  0.91160200  1
  O  O32  1  0.72209900  0.47826500  0.74331800  1
  O  O33  1  0.50213500  0.17560400  0.55584800  1
  O  O34  1  0.36483300  0.61501200  0.64291400  1
  O  O35  1  0.44086900  0.98626700  0.74625500  1
  O  O36  1  0.27083500  0.31634000  0.42225800  1
  O  O37  1  0.15418100  0.74789000  0.49315500  1
  O  O38  1  0.84581900  0.25211000  0.50684500  1
  O  O39  1  0.72916500  0.68366000  0.57774200  1
  O  O40  1  0.55913100  0.01373300  0.25374500  1
  O  O41  1  0.63516700  0.38498800  0.35708600  1
  O  O42  1  0.49786500  0.82439600  0.44415200  1
  O  O43  1  0.27790100  0.52173500  0.25668200  1
  O  O44  1  0.19552300  0.14465700  0.08839800  1
  O  O45  1  0.21255600  0.92487600  0.29794400  1
  O  O46  1  0.57179200  0.60107600  0.28957500  1
  O  O47  1  0.85037000  0.64190600  0.37282600  1
  O  O48  1  0.96844900  0.43175300  0.31911300  1
  O  O49  1  0.87800000  0.09508000  0.18466200  1
  O  O50  1  0.62923900  0.17690100  0.04221900  1
  O  O51  1  0.40577100  0.69708800  0.14186900  1
  O  O52  1  0.99837400  0.62803900  0.19669100  1
  O  O53  1  0.90930500  0.83928600  0.17293200  1
  O  O54  1  0.95251600  0.27211300  0.00136300  1
  O  O55  1  0.63586500  0.81138300  0.07265500  1
