# generated using pymatgen
data_Cr3(PO4)4
_symmetry_space_group_name_H-M   'P 1'
_cell_length_a   7.58913000
_cell_length_b   7.75564600
_cell_length_c   10.21062836
_cell_angle_alpha   90.00000000
_cell_angle_beta   94.67321337
_cell_angle_gamma   90.00000000
_symmetry_Int_Tables_number   1
_chemical_formula_structural   Cr3(PO4)4
_chemical_formula_sum   'Cr6 P8 O32'
_cell_volume   598.98543117
_cell_formula_units_Z   2
loop_
 _symmetry_equiv_pos_site_id
 _symmetry_equiv_pos_as_xyz
  1  'x, y, z'
loop_
 _atom_site_type_symbol
 _atom_site_label
 _atom_site_symmetry_multiplicity
 _atom_site_fract_x
 _atom_site_fract_y
 _atom_site_fract_z
 _atom_site_occupancy
  Cr  Cr0  1  0.76565500  0.52167500  0.37211700  1
  Cr  Cr1  1  0.23434500  0.02167500  0.62788300  1
  Cr  Cr2  1  0.65060400  0.14065500  0.32573500  1
  Cr  Cr3  1  0.34939600  0.64065500  0.67426500  1
  Cr  Cr4  1  0.75993400  0.48820700  0.87229200  1
  Cr  Cr5  1  0.24006600  0.98820700  0.12770800  1
  P  P6  1  0.05497400  0.18998100  0.86530500  1
  P  P7  1  0.94843500  0.70507900  0.64999200  1
  P  P8  1  0.45373800  0.82041000  0.89723600  1
  P  P9  1  0.43993100  0.79729200  0.38957800  1
  P  P10  1  0.56006900  0.29729200  0.61042200  1
  P  P11  1  0.54626200  0.32041000  0.10276400  1
  P  P12  1  0.94502600  0.68998100  0.13469500  1
  P  P13  1  0.05156500  0.20507900  0.35000800  1
  O  O14  1  0.86197700  0.68249500  0.77843300  1
  O  O15  1  0.09138000  0.55108200  0.15936500  1
  O  O16  1  0.98510700  0.36709500  0.90297100  1
  O  O17  1  0.49668900  0.13152000  0.16350900  1
  O  O18  1  0.80197700  0.62335200  0.03204100  1
  O  O19  1  0.47513300  0.12447700  0.63408900  1
  O  O20  1  0.70901200  0.34776100  0.71121800  1
  O  O21  1  0.19802300  0.12335200  0.96795900  1
  O  O22  1  0.13669900  0.20035900  0.72987900  1
  O  O23  1  0.36094700  0.80647100  0.02432500  1
  O  O24  1  0.90862000  0.05108200  0.84063500  1
  O  O25  1  0.31294000  0.85824200  0.77562900  1
  O  O26  1  0.39248200  0.44090600  0.08384200  1
  O  O27  1  0.63905300  0.30647100  0.97567500  1
  O  O28  1  0.60751800  0.94090600  0.91615800  1
  O  O29  1  0.52486700  0.62447700  0.36591100  1
  O  O30  1  0.68706000  0.35824200  0.22437100  1
  O  O31  1  0.98954800  0.38865700  0.37802900  1
  O  O32  1  0.42020600  0.44234000  0.59261900  1
  O  O33  1  0.35613400  0.79614800  0.53121000  1
  O  O34  1  0.17280300  0.13547200  0.46365900  1
  O  O35  1  0.12151700  0.58187000  0.66276800  1
  O  O36  1  0.87848300  0.08187000  0.33723200  1
  O  O37  1  0.29098800  0.84776100  0.28878200  1
  O  O38  1  0.50331100  0.63152000  0.83649100  1
  O  O39  1  0.57979400  0.94234000  0.40738100  1
  O  O40  1  0.01045200  0.88865700  0.62197100  1
  O  O41  1  0.64386600  0.29614800  0.46879000  1
  O  O42  1  0.82719700  0.63547200  0.53634100  1
  O  O43  1  0.01489300  0.86709500  0.09702900  1
  O  O44  1  0.13802300  0.18249500  0.22156700  1
  O  O45  1  0.86330100  0.70035900  0.27012100  1
