# generated using pymatgen
data_Sr(La2Se3)4
_symmetry_space_group_name_H-M   'P 1'
_cell_length_a   12.90158200
_cell_length_b   12.90676600
_cell_length_c   15.14228863
_cell_angle_alpha   90.00000000
_cell_angle_beta   115.20807149
_cell_angle_gamma   90.00000000
_symmetry_Int_Tables_number   1
_chemical_formula_structural   Sr(La2Se3)4
_chemical_formula_sum   'Sr4 La32 Se48'
_cell_volume   2281.33311900
_cell_formula_units_Z   4
loop_
 _symmetry_equiv_pos_site_id
 _symmetry_equiv_pos_as_xyz
  1  'x, y, z'
loop_
 _atom_site_type_symbol
 _atom_site_label
 _atom_site_symmetry_multiplicity
 _atom_site_fract_x
 _atom_site_fract_y
 _atom_site_fract_z
 _atom_site_occupancy
  Sr  Sr0  1  0.43766700  0.31242400  0.50007100  1
  Sr  Sr1  1  0.43766700  0.68757600  0.00007100  1
  Sr  Sr2  1  0.93766700  0.81242400  0.50007100  1
  Sr  Sr3  1  0.93766700  0.18757600  0.00007100  1
  La  La4  1  0.31184800  0.06154500  0.00003500  1
  La  La5  1  0.58391650  0.12604650  0.91666700  1
  La  La6  1  0.47977350  0.43737450  0.83328700  1
  La  La7  1  0.27067750  0.18740650  0.66641000  1
  La  La8  1  0.24995500  0.87485900  0.75013000  1
  La  La9  1  0.60384900  0.81156700  0.83352800  1
  La  La10  1  0.64546300  0.06323500  0.66693500  1
  La  La11  1  0.41699600  0.62423100  0.58352400  1
  La  La12  1  0.31184800  0.93845500  0.50003500  1
  La  La13  1  0.60384900  0.18843300  0.33352800  1
  La  La14  1  0.58391650  0.87395350  0.41666700  1
  La  La15  1  0.47977350  0.56262550  0.33328700  1
  La  La16  1  0.24995500  0.12514100  0.25013000  1
  La  La17  1  0.64546300  0.93676500  0.16693500  1
  La  La18  1  0.41699600  0.37576900  0.08352400  1
  La  La19  1  0.27067750  0.81259350  0.16641000  1
  La  La20  1  0.81184800  0.56154500  0.00003500  1
  La  La21  1  0.08391650  0.62604650  0.91666700  1
  La  La22  1  0.97977350  0.93737450  0.83328700  1
  La  La23  1  0.77067750  0.68740650  0.66641000  1
  La  La24  1  0.74995500  0.37485900  0.75013000  1
  La  La25  1  0.10384900  0.31156700  0.83352800  1
  La  La26  1  0.14546300  0.56323500  0.66693500  1
  La  La27  1  0.91699600  0.12423100  0.58352400  1
  La  La28  1  0.81184800  0.43845500  0.50003500  1
  La  La29  1  0.10384900  0.68843300  0.33352800  1
  La  La30  1  0.08391650  0.37395350  0.41666700  1
  La  La31  1  0.97977350  0.06262550  0.33328700  1
  La  La32  1  0.74995500  0.62514100  0.25013000  1
  La  La33  1  0.14546300  0.43676500  0.16693500  1
  La  La34  1  0.91699600  0.87576900  0.08352400  1
  La  La35  1  0.77067750  0.31259350  0.16641000  1
  Se  Se36  1  0.47534400  0.92803700  0.94913700  1
  Se  Se37  1  0.76456050  0.99761650  0.88153600  1
  Se  Se38  1  0.22281200  0.82657400  0.94972800  1
  Se  Se39  1  0.53431250  0.24934050  0.71962300  1
  Se  Se40  1  0.43325650  0.99954850  0.71603900  1
  Se  Se41  1  0.36726950  0.24935850  0.88375200  1
  Se  Se42  1  0.39099900  0.67488300  0.78070800  1
  Se  Se43  1  0.80663350  0.92663350  0.61787700  1
  Se  Se44  1  0.14186550  0.07560350  0.78328800  1
  Se  Se45  1  0.10221800  0.00191700  0.55107100  1
  Se  Se46  1  0.55780900  0.82481600  0.61666800  1
  Se  Se47  1  0.36726950  0.75064150  0.38375200  1
  Se  Se48  1  0.76456050  0.00238350  0.38153600  1
  Se  Se49  1  0.70277350  0.24911450  0.54998600  1
  Se  Se50  1  0.22281200  0.17342600  0.44972800  1
  Se  Se51  1  0.14186550  0.92439650  0.28328800  1
  Se  Se52  1  0.47534400  0.07196300  0.44913700  1
  Se  Se53  1  0.43325650  0.00045150  0.21603900  1
  Se  Se54  1  0.39099900  0.32511700  0.28070800  1
  Se  Se55  1  0.70277350  0.75088550  0.04998600  1
  Se  Se56  1  0.10221800  0.99808300  0.05107100  1
  Se  Se57  1  0.55780900  0.17518400  0.11666800  1
  Se  Se58  1  0.53431250  0.75065950  0.21962300  1
  Se  Se59  1  0.80663350  0.07336650  0.11787700  1
  Se  Se60  1  0.97534400  0.42803700  0.94913700  1
  Se  Se61  1  0.26456050  0.49761650  0.88153600  1
  Se  Se62  1  0.72281200  0.32657400  0.94972800  1
  Se  Se63  1  0.03431250  0.74934050  0.71962300  1
  Se  Se64  1  0.93325650  0.49954850  0.71603900  1
  Se  Se65  1  0.86726950  0.74935850  0.88375200  1
  Se  Se66  1  0.89099900  0.17488300  0.78070800  1
  Se  Se67  1  0.30663350  0.42663350  0.61787700  1
  Se  Se68  1  0.64186550  0.57560350  0.78328800  1
  Se  Se69  1  0.60221800  0.50191700  0.55107100  1
  Se  Se70  1  0.05780900  0.32481600  0.61666800  1
  Se  Se71  1  0.86726950  0.25064150  0.38375200  1
  Se  Se72  1  0.26456050  0.50238350  0.38153600  1
  Se  Se73  1  0.20277350  0.74911450  0.54998600  1
  Se  Se74  1  0.72281200  0.67342600  0.44972800  1
  Se  Se75  1  0.64186550  0.42439650  0.28328800  1
  Se  Se76  1  0.97534400  0.57196300  0.44913700  1
  Se  Se77  1  0.93325650  0.50045150  0.21603900  1
  Se  Se78  1  0.89099900  0.82511700  0.28070800  1
  Se  Se79  1  0.20277350  0.25088550  0.04998600  1
  Se  Se80  1  0.60221800  0.49808300  0.05107100  1
  Se  Se81  1  0.05780900  0.67518400  0.11666800  1
  Se  Se82  1  0.03431250  0.25065950  0.21962300  1
  Se  Se83  1  0.30663350  0.57336650  0.11787700  1
