# generated using pymatgen
data_Ag3(AsO4)2
_symmetry_space_group_name_H-M   'P 1'
_cell_length_a   8.31137759
_cell_length_b   8.31137759
_cell_length_c   10.66753931
_cell_angle_alpha   90.00000000
_cell_angle_beta   90.00000000
_cell_angle_gamma   120.00000000
_symmetry_Int_Tables_number   1
_chemical_formula_structural   Ag3(AsO4)2
_chemical_formula_sum   'Ag9 As6 O24'
_cell_volume   638.17665039
_cell_formula_units_Z   3
loop_
 _symmetry_equiv_pos_site_id
 _symmetry_equiv_pos_as_xyz
  1  'x, y, z'
loop_
 _atom_site_type_symbol
 _atom_site_label
 _atom_site_symmetry_multiplicity
 _atom_site_fract_x
 _atom_site_fract_y
 _atom_site_fract_z
 _atom_site_occupancy
  Ag  Ag0  1  0.00287167  0.74537633  0.25568433  1
  Ag  Ag1  1  0.74250467  0.99712833  0.25568433  1
  Ag  Ag2  1  0.25462367  0.25749533  0.25568433  1
  Ag  Ag3  1  0.66953833  0.07870967  0.58901767  1
  Ag  Ag4  1  0.40917133  0.33046167  0.58901767  1
  Ag  Ag5  1  0.92129033  0.59082867  0.58901767  1
  Ag  Ag6  1  0.33620500  0.41204300  0.92235100  1
  Ag  Ag7  1  0.07583800  0.66379500  0.92235100  1
  Ag  Ag8  1  0.58795700  0.92416200  0.92235100  1
  As  As9  1  0.33333333  0.66666667  0.66929267  1
  As  As10  1  0.33333333  0.66666667  0.16460367  1
  As  As11  1  0.00000000  0.00000000  0.00262600  1
  As  As12  1  0.00000000  0.00000000  0.49793700  1
  As  As13  1  0.66666667  0.33333333  0.33595933  1
  As  As14  1  0.66666667  0.33333333  0.83127033  1
  O  O15  1  0.14488500  0.22321000  0.06656700  1
  O  O16  1  0.33333333  0.66666667  0.51331667  1
  O  O17  1  0.44175367  0.54450433  0.20395333  1
  O  O18  1  0.10275067  0.55824633  0.20395333  1
  O  O19  1  0.45549567  0.89724933  0.20395333  1
  O  O20  1  0.33333333  0.66666667  0.99083867  1
  O  O21  1  0.77679000  0.92167500  0.06656700  1
  O  O22  1  0.07832500  0.85511500  0.06656700  1
  O  O23  1  0.81155167  0.55654333  0.39990033  1
  O  O24  1  0.00000000  0.00000000  0.84665000  1
  O  O25  1  0.10842033  0.87783767  0.53728667  1
  O  O26  1  0.76941733  0.89157967  0.53728667  1
  O  O27  1  0.12216233  0.23058267  0.53728667  1
  O  O28  1  0.00000000  0.00000000  0.32417200  1
  O  O29  1  0.44345667  0.25500833  0.39990033  1
  O  O30  1  0.74499167  0.18844833  0.39990033  1
  O  O31  1  0.47821833  0.88987667  0.73323367  1
  O  O32  1  0.66666667  0.33333333  0.17998333  1
  O  O33  1  0.77508700  0.21117100  0.87062000  1
  O  O34  1  0.43608400  0.22491300  0.87062000  1
  O  O35  1  0.78882900  0.56391600  0.87062000  1
  O  O36  1  0.66666667  0.33333333  0.65750533  1
  O  O37  1  0.11012333  0.58834167  0.73323367  1
  O  O38  1  0.41165833  0.52178167  0.73323367  1
