# generated using pymatgen
data_Cr2FeO4
_symmetry_space_group_name_H-M   'P 1'
_cell_length_a   6.12880200
_cell_length_b   6.28931200
_cell_length_c   8.16006200
_cell_angle_alpha   90.00000000
_cell_angle_beta   90.00000000
_cell_angle_gamma   90.00000000
_symmetry_Int_Tables_number   1
_chemical_formula_structural   Cr2FeO4
_chemical_formula_sum   'Cr8 Fe4 O16'
_cell_volume   314.53732524
_cell_formula_units_Z   4
loop_
 _symmetry_equiv_pos_site_id
 _symmetry_equiv_pos_as_xyz
  1  'x, y, z'
loop_
 _atom_site_type_symbol
 _atom_site_label
 _atom_site_symmetry_multiplicity
 _atom_site_fract_x
 _atom_site_fract_y
 _atom_site_fract_z
 _atom_site_occupancy
  Cr  Cr0  1  0.50000000  0.25000000  0.37072300  1
  Cr  Cr1  1  0.00000000  0.25000000  0.12927700  1
  Cr  Cr2  1  0.25000000  0.75000000  0.25000000  1
  Cr  Cr3  1  0.25000000  0.25000000  0.75000000  1
  Cr  Cr4  1  0.00000000  0.75000000  0.87072300  1
  Cr  Cr5  1  0.50000000  0.75000000  0.62927700  1
  Cr  Cr6  1  0.75000000  0.25000000  0.75000000  1
  Cr  Cr7  1  0.75000000  0.75000000  0.25000000  1
  Fe  Fe8  1  0.50000000  0.00000000  0.00000000  1
  Fe  Fe9  1  0.00000000  0.00000000  0.50000000  1
  Fe  Fe10  1  0.00000000  0.50000000  0.50000000  1
  Fe  Fe11  1  0.50000000  0.50000000  0.00000000  1
  O  O12  1  0.73699650  0.25000000  0.99935550  1
  O  O13  1  0.00000000  0.53361000  0.24010000  1
  O  O14  1  0.26300350  0.25000000  0.99935550  1
  O  O15  1  0.50000000  0.46639000  0.74010000  1
  O  O16  1  0.00000000  0.03361000  0.75990000  1
  O  O17  1  0.23699650  0.25000000  0.50064450  1
  O  O18  1  0.50000000  0.96639000  0.25990000  1
  O  O19  1  0.76300350  0.25000000  0.50064450  1
  O  O20  1  0.23699650  0.75000000  0.49935550  1
  O  O21  1  0.50000000  0.03361000  0.74010000  1
  O  O22  1  0.76300350  0.75000000  0.49935550  1
  O  O23  1  0.00000000  0.96639000  0.24010000  1
  O  O24  1  0.50000000  0.53361000  0.25990000  1
  O  O25  1  0.73699650  0.75000000  0.00064450  1
  O  O26  1  0.00000000  0.46639000  0.75990000  1
  O  O27  1  0.26300350  0.75000000  0.00064450  1
