# generated using pymatgen
data_Er6Zn23
_symmetry_space_group_name_H-M   'P 1'
_cell_length_a   12.64459000
_cell_length_b   12.64459000
_cell_length_c   12.64459000
_cell_angle_alpha   90.00000000
_cell_angle_beta   90.00000000
_cell_angle_gamma   90.00000000
_symmetry_Int_Tables_number   1
_chemical_formula_structural   Er6Zn23
_chemical_formula_sum   'Er24 Zn92'
_cell_volume   2021.68857039
_cell_formula_units_Z   4
loop_
 _symmetry_equiv_pos_site_id
 _symmetry_equiv_pos_as_xyz
  1  'x, y, z'
loop_
 _atom_site_type_symbol
 _atom_site_label
 _atom_site_symmetry_multiplicity
 _atom_site_fract_x
 _atom_site_fract_y
 _atom_site_fract_z
 _atom_site_occupancy
  Er  Er0  1  0.50000000  0.29494800  0.00000000  1
  Er  Er1  1  0.50000000  0.00000000  0.70505200  1
  Er  Er2  1  0.00000000  0.00000000  0.79494800  1
  Er  Er3  1  0.20505200  0.00000000  0.00000000  1
  Er  Er4  1  0.79494800  0.00000000  0.00000000  1
  Er  Er5  1  0.50000000  0.70505200  0.00000000  1
  Er  Er6  1  0.50000000  0.79494800  0.50000000  1
  Er  Er7  1  0.50000000  0.50000000  0.20505200  1
  Er  Er8  1  0.00000000  0.50000000  0.29494800  1
  Er  Er9  1  0.20505200  0.50000000  0.50000000  1
  Er  Er10  1  0.79494800  0.50000000  0.50000000  1
  Er  Er11  1  0.50000000  0.20505200  0.50000000  1
  Er  Er12  1  0.00000000  0.29494800  0.50000000  1
  Er  Er13  1  0.00000000  0.00000000  0.20505200  1
  Er  Er14  1  0.50000000  0.00000000  0.29494800  1
  Er  Er15  1  0.70505200  0.00000000  0.50000000  1
  Er  Er16  1  0.29494800  0.00000000  0.50000000  1
  Er  Er17  1  0.00000000  0.70505200  0.50000000  1
  Er  Er18  1  0.00000000  0.79494800  0.00000000  1
  Er  Er19  1  0.00000000  0.50000000  0.70505200  1
  Er  Er20  1  0.50000000  0.50000000  0.79494800  1
  Er  Er21  1  0.70505200  0.50000000  0.00000000  1
  Er  Er22  1  0.29494800  0.50000000  0.00000000  1
  Er  Er23  1  0.00000000  0.20505200  0.00000000  1
  Zn  Zn24  1  0.32951200  0.32951200  0.82951200  1
  Zn  Zn25  1  0.17048800  0.82951200  0.82951200  1
  Zn  Zn26  1  0.32951200  0.82951200  0.67048800  1
  Zn  Zn27  1  0.32951200  0.67048800  0.82951200  1
  Zn  Zn28  1  0.17048800  0.17048800  0.82951200  1
  Zn  Zn29  1  0.17048800  0.32951200  0.67048800  1
  Zn  Zn30  1  0.50000000  0.00000000  0.00000000  1
  Zn  Zn31  1  0.75000000  0.00000000  0.75000000  1
  Zn  Zn32  1  0.00000000  0.75000000  0.75000000  1
  Zn  Zn33  1  0.00000000  0.25000000  0.75000000  1
  Zn  Zn34  1  0.25000000  0.00000000  0.75000000  1
  Zn  Zn35  1  0.25000000  0.25000000  0.00000000  1
  Zn  Zn36  1  0.25000000  0.75000000  0.00000000  1
  Zn  Zn37  1  0.37738600  0.87738600  0.87738600  1
  Zn  Zn38  1  0.62261400  0.87738600  0.87738600  1
  Zn  Zn39  1  0.37738600  0.12261400  0.87738600  1
  Zn  Zn40  1  0.87738600  0.87738600  0.62261400  1
  Zn  Zn41  1  0.12261400  0.87738600  0.62261400  1
  Zn  Zn42  1  0.62261400  0.12261400  0.87738600  1
  Zn  Zn43  1  0.87738600  0.12261400  0.62261400  1
  Zn  Zn44  1  0.12261400  0.12261400  0.62261400  1
  Zn  Zn45  1  0.17048800  0.67048800  0.67048800  1
  Zn  Zn46  1  0.32951200  0.17048800  0.67048800  1
  Zn  Zn47  1  0.32951200  0.82951200  0.32951200  1
  Zn  Zn48  1  0.17048800  0.32951200  0.32951200  1
  Zn  Zn49  1  0.32951200  0.32951200  0.17048800  1
  Zn  Zn50  1  0.32951200  0.17048800  0.32951200  1
  Zn  Zn51  1  0.17048800  0.67048800  0.32951200  1
  Zn  Zn52  1  0.17048800  0.82951200  0.17048800  1
  Zn  Zn53  1  0.50000000  0.50000000  0.50000000  1
  Zn  Zn54  1  0.75000000  0.50000000  0.25000000  1
  Zn  Zn55  1  0.00000000  0.25000000  0.25000000  1
  Zn  Zn56  1  0.00000000  0.75000000  0.25000000  1
  Zn  Zn57  1  0.25000000  0.50000000  0.25000000  1
  Zn  Zn58  1  0.25000000  0.75000000  0.50000000  1
  Zn  Zn59  1  0.25000000  0.25000000  0.50000000  1
  Zn  Zn60  1  0.37738600  0.37738600  0.37738600  1
  Zn  Zn61  1  0.62261400  0.37738600  0.37738600  1
  Zn  Zn62  1  0.37738600  0.62261400  0.37738600  1
  Zn  Zn63  1  0.87738600  0.37738600  0.12261400  1
  Zn  Zn64  1  0.12261400  0.37738600  0.12261400  1
  Zn  Zn65  1  0.62261400  0.62261400  0.37738600  1
  Zn  Zn66  1  0.87738600  0.62261400  0.12261400  1
  Zn  Zn67  1  0.12261400  0.62261400  0.12261400  1
  Zn  Zn68  1  0.17048800  0.17048800  0.17048800  1
  Zn  Zn69  1  0.32951200  0.67048800  0.17048800  1
  Zn  Zn70  1  0.82951200  0.32951200  0.32951200  1
  Zn  Zn71  1  0.67048800  0.82951200  0.32951200  1
  Zn  Zn72  1  0.82951200  0.82951200  0.17048800  1
  Zn  Zn73  1  0.82951200  0.67048800  0.32951200  1
  Zn  Zn74  1  0.67048800  0.17048800  0.32951200  1
  Zn  Zn75  1  0.67048800  0.32951200  0.17048800  1
  Zn  Zn76  1  0.00000000  0.00000000  0.50000000  1
  Zn  Zn77  1  0.25000000  0.00000000  0.25000000  1
  Zn  Zn78  1  0.50000000  0.75000000  0.25000000  1
  Zn  Zn79  1  0.50000000  0.25000000  0.25000000  1
  Zn  Zn80  1  0.75000000  0.00000000  0.25000000  1
  Zn  Zn81  1  0.75000000  0.25000000  0.50000000  1
  Zn  Zn82  1  0.75000000  0.75000000  0.50000000  1
  Zn  Zn83  1  0.87738600  0.87738600  0.37738600  1
  Zn  Zn84  1  0.12261400  0.87738600  0.37738600  1
  Zn  Zn85  1  0.87738600  0.12261400  0.37738600  1
  Zn  Zn86  1  0.37738600  0.87738600  0.12261400  1
  Zn  Zn87  1  0.62261400  0.87738600  0.12261400  1
  Zn  Zn88  1  0.12261400  0.12261400  0.37738600  1
  Zn  Zn89  1  0.37738600  0.12261400  0.12261400  1
  Zn  Zn90  1  0.62261400  0.12261400  0.12261400  1
  Zn  Zn91  1  0.67048800  0.67048800  0.17048800  1
  Zn  Zn92  1  0.82951200  0.17048800  0.17048800  1
  Zn  Zn93  1  0.82951200  0.82951200  0.82951200  1
  Zn  Zn94  1  0.67048800  0.32951200  0.82951200  1
  Zn  Zn95  1  0.82951200  0.32951200  0.67048800  1
  Zn  Zn96  1  0.82951200  0.17048800  0.82951200  1
  Zn  Zn97  1  0.67048800  0.67048800  0.82951200  1
  Zn  Zn98  1  0.67048800  0.82951200  0.67048800  1
  Zn  Zn99  1  0.00000000  0.50000000  0.00000000  1
  Zn  Zn100  1  0.25000000  0.50000000  0.75000000  1
  Zn  Zn101  1  0.50000000  0.25000000  0.75000000  1
  Zn  Zn102  1  0.50000000  0.75000000  0.75000000  1
  Zn  Zn103  1  0.75000000  0.50000000  0.75000000  1
  Zn  Zn104  1  0.75000000  0.75000000  0.00000000  1
  Zn  Zn105  1  0.75000000  0.25000000  0.00000000  1
  Zn  Zn106  1  0.87738600  0.37738600  0.87738600  1
  Zn  Zn107  1  0.12261400  0.37738600  0.87738600  1
  Zn  Zn108  1  0.87738600  0.62261400  0.87738600  1
  Zn  Zn109  1  0.37738600  0.37738600  0.62261400  1
  Zn  Zn110  1  0.62261400  0.37738600  0.62261400  1
  Zn  Zn111  1  0.12261400  0.62261400  0.87738600  1
  Zn  Zn112  1  0.37738600  0.62261400  0.62261400  1
  Zn  Zn113  1  0.62261400  0.62261400  0.62261400  1
  Zn  Zn114  1  0.67048800  0.17048800  0.67048800  1
  Zn  Zn115  1  0.82951200  0.67048800  0.67048800  1
