# generated using pymatgen
data_Fe3(PO4)4
_symmetry_space_group_name_H-M   'P 1'
_cell_length_a   7.73714504
_cell_length_b   7.75348700
_cell_length_c   10.43362949
_cell_angle_alpha   90.00000000
_cell_angle_beta   94.18226493
_cell_angle_gamma   90.00000000
_symmetry_Int_Tables_number   1
_chemical_formula_structural   Fe3(PO4)4
_chemical_formula_sum   'Fe6 P8 O32'
_cell_volume   624.24516271
_cell_formula_units_Z   2
loop_
 _symmetry_equiv_pos_site_id
 _symmetry_equiv_pos_as_xyz
  1  'x, y, z'
loop_
 _atom_site_type_symbol
 _atom_site_label
 _atom_site_symmetry_multiplicity
 _atom_site_fract_x
 _atom_site_fract_y
 _atom_site_fract_z
 _atom_site_occupancy
  Fe  Fe0  1  0.34300900  0.36450200  0.66763800  1
  Fe  Fe1  1  0.75788000  0.46735700  0.37562400  1
  Fe  Fe2  1  0.75686800  0.51358000  0.86860300  1
  Fe  Fe3  1  0.24212000  0.96735700  0.62437600  1
  Fe  Fe4  1  0.24313200  0.01358000  0.13139700  1
  Fe  Fe5  1  0.65699100  0.86450200  0.33236200  1
  P  P6  1  0.93191700  0.30664000  0.13664800  1
  P  P7  1  0.45671100  0.19029600  0.88848100  1
  P  P8  1  0.94729500  0.29723500  0.65070700  1
  P  P9  1  0.05270500  0.79723500  0.34929300  1
  P  P10  1  0.56977500  0.70482000  0.60954300  1
  P  P11  1  0.54328900  0.69029600  0.11151900  1
  P  P12  1  0.43022500  0.20482000  0.39045700  1
  P  P13  1  0.06808300  0.80664000  0.86335200  1
  O  O14  1  0.48266100  0.87936400  0.62624300  1
  O  O15  1  0.99040100  0.60552700  0.35876400  1
  O  O16  1  0.43283000  0.56085500  0.59837200  1
  O  O17  1  0.16526700  0.78710400  0.74103200  1
  O  O18  1  0.97909700  0.64112600  0.90382700  1
  O  O19  1  0.49513500  0.87556500  0.15935700  1
  O  O20  1  0.16098600  0.81968800  0.23296200  1
  O  O21  1  0.38795600  0.56967100  0.08148600  1
  O  O22  1  0.67100200  0.63681600  0.22813500  1
  O  O23  1  0.83901400  0.31968800  0.76703800  1
  O  O24  1  0.61204400  0.06967100  0.91851400  1
  O  O25  1  0.92225800  0.94649000  0.83200200  1
  O  O26  1  0.80841800  0.37735500  0.02791100  1
  O  O27  1  0.33763200  0.20057400  0.52135100  1
  O  O28  1  0.37375100  0.18596600  0.01766700  1
  O  O29  1  0.19158200  0.87735500  0.97208900  1
  O  O30  1  0.66236800  0.70057400  0.47864900  1
  O  O31  1  0.32899800  0.13681600  0.77186500  1
  O  O32  1  0.02090300  0.14112600  0.09617300  1
  O  O33  1  0.51733900  0.37936400  0.37375700  1
  O  O34  1  0.83698300  0.34481000  0.52752100  1
  O  O35  1  0.29429900  0.16527400  0.27972900  1
  O  O36  1  0.07774200  0.44649000  0.16799800  1
  O  O37  1  0.16301700  0.84481000  0.47247900  1
  O  O38  1  0.56717000  0.06085500  0.40162800  1
  O  O39  1  0.89262500  0.91793300  0.33300800  1
  O  O40  1  0.50486500  0.37556500  0.84064300  1
  O  O41  1  0.83473300  0.28710400  0.25896800  1
  O  O42  1  0.10737500  0.41793300  0.66699200  1
  O  O43  1  0.70570100  0.66527400  0.72027100  1
  O  O44  1  0.00959900  0.10552700  0.64123600  1
  O  O45  1  0.62624900  0.68596600  0.98233300  1
