# generated using pymatgen
data_KV4O8
_symmetry_space_group_name_H-M   'P 1'
_cell_length_a   10.23442487
_cell_length_b   10.23442487
_cell_length_c   2.92082820
_cell_angle_alpha   90.00000000
_cell_angle_beta   90.00000000
_cell_angle_gamma   90.00000000
_symmetry_Int_Tables_number   1
_chemical_formula_structural   KV4O8
_chemical_formula_sum   'K2 V8 O16'
_cell_volume   305.93763003
_cell_formula_units_Z   2
loop_
 _symmetry_equiv_pos_site_id
 _symmetry_equiv_pos_as_xyz
  1  'x, y, z'
loop_
 _atom_site_type_symbol
 _atom_site_label
 _atom_site_symmetry_multiplicity
 _atom_site_fract_x
 _atom_site_fract_y
 _atom_site_fract_z
 _atom_site_occupancy
  K  K0  1  0.50000000  0.50000000  0.00000000  1
  K  K1  1  0.00000000  0.00000000  0.50000000  1
  V  V2  1  0.64879302  0.16778931  0.00000000  1
  V  V3  1  0.35120698  0.83221069  0.00000000  1
  V  V4  1  0.33221069  0.14879302  0.50000000  1
  V  V5  1  0.66778931  0.85120698  0.50000000  1
  V  V6  1  0.14879302  0.66778931  0.50000000  1
  V  V7  1  0.85120698  0.33221069  0.50000000  1
  V  V8  1  0.83221069  0.64879302  0.00000000  1
  V  V9  1  0.16778931  0.35120698  0.00000000  1
  O  O10  1  0.20030143  0.15478597  0.00000000  1
  O  O11  1  0.65478597  0.29969857  0.50000000  1
  O  O12  1  0.34521403  0.70030143  0.50000000  1
  O  O13  1  0.79969857  0.84521403  0.00000000  1
  O  O14  1  0.66520426  0.03976890  0.50000000  1
  O  O15  1  0.33479574  0.96023110  0.50000000  1
  O  O16  1  0.53976890  0.83479574  0.00000000  1
  O  O17  1  0.46023110  0.16520425  0.00000000  1
  O  O18  1  0.70030143  0.65478597  0.50000000  1
  O  O19  1  0.15478597  0.79969857  0.00000000  1
  O  O20  1  0.84521403  0.20030143  0.00000000  1
  O  O21  1  0.29969857  0.34521403  0.50000000  1
  O  O22  1  0.16520425  0.53976890  0.00000000  1
  O  O23  1  0.83479574  0.46023110  0.00000000  1
  O  O24  1  0.03976890  0.33479575  0.50000000  1
  O  O25  1  0.96023110  0.66520425  0.50000000  1
