# generated using pymatgen
data_Li2CrP2O7
_symmetry_space_group_name_H-M   'P 1'
_cell_length_a   5.10407000
_cell_length_b   13.70929600
_cell_length_c   9.19951793
_cell_angle_alpha   90.00000000
_cell_angle_beta   120.19705977
_cell_angle_gamma   90.00000000
_symmetry_Int_Tables_number   1
_chemical_formula_structural   Li2CrP2O7
_chemical_formula_sum   'Li8 Cr4 P8 O28'
_cell_volume   556.36739037
_cell_formula_units_Z   4
loop_
 _symmetry_equiv_pos_site_id
 _symmetry_equiv_pos_as_xyz
  1  'x, y, z'
loop_
 _atom_site_type_symbol
 _atom_site_label
 _atom_site_symmetry_multiplicity
 _atom_site_fract_x
 _atom_site_fract_y
 _atom_site_fract_z
 _atom_site_occupancy
  Li  Li0  1  0.94961800  0.10059800  0.14128900  1
  Li  Li1  1  0.05038200  0.89940200  0.85871100  1
  Li  Li2  1  0.56865700  0.30247400  0.82902700  1
  Li  Li3  1  0.43134300  0.80247400  0.67097300  1
  Li  Li4  1  0.94961800  0.39940200  0.64128900  1
  Li  Li5  1  0.43134300  0.69752600  0.17097300  1
  Li  Li6  1  0.56865700  0.19752600  0.32902700  1
  Li  Li7  1  0.05038200  0.60059800  0.35871100  1
  Cr  Cr8  1  0.97118500  0.15323200  0.75868400  1
  Cr  Cr9  1  0.02881500  0.65323200  0.74131600  1
  Cr  Cr10  1  0.97118500  0.34676800  0.25868400  1
  Cr  Cr11  1  0.02881500  0.84676800  0.24131600  1
  P  P12  1  0.73869900  0.82661600  0.46999500  1
  P  P13  1  0.26130100  0.17338400  0.53000500  1
  P  P14  1  0.51187200  0.52492600  0.72372200  1
  P  P15  1  0.48812800  0.02492600  0.77627800  1
  P  P16  1  0.26130100  0.32661600  0.03000500  1
  P  P17  1  0.51187200  0.97507400  0.22372200  1
  P  P18  1  0.73869900  0.67338400  0.96999500  1
  P  P19  1  0.48812800  0.47507400  0.27627800  1
  O  O20  1  0.68756000  0.94174800  0.42326200  1
  O  O21  1  0.74250000  0.10193500  0.87230500  1
  O  O22  1  0.68756000  0.55825200  0.92326200  1
  O  O23  1  0.44052700  0.71071500  0.95341200  1
  O  O24  1  0.55947300  0.28928500  0.04658800  1
  O  O25  1  0.31244000  0.44174800  0.07673800  1
  O  O26  1  0.25750000  0.89806500  0.12769500  1
  O  O27  1  0.20271700  0.27860000  0.16327000  1
  O  O28  1  0.01234000  0.68292900  0.14733300  1
  O  O29  1  0.75787000  0.96949100  0.17315300  1
  O  O30  1  0.38779400  0.07550300  0.21891800  1
  O  O31  1  0.61220600  0.57550300  0.28108200  1
  O  O32  1  0.79728300  0.77860000  0.33673000  1
  O  O33  1  0.98766000  0.31707100  0.85266700  1
  O  O34  1  0.98766000  0.18292900  0.35266700  1
  O  O35  1  0.74250000  0.39806500  0.37230500  1
  O  O36  1  0.24213000  0.46949100  0.32684700  1
  O  O37  1  0.44052700  0.78928500  0.45341200  1
  O  O38  1  0.55947300  0.21071500  0.54658800  1
  O  O39  1  0.31244000  0.05825200  0.57673800  1
  O  O40  1  0.25750000  0.60193500  0.62769500  1
  O  O41  1  0.01234000  0.81707100  0.64733300  1
  O  O42  1  0.75787000  0.53050900  0.67315300  1
  O  O43  1  0.20271700  0.22140000  0.66327000  1
  O  O44  1  0.38779400  0.42449700  0.71891800  1
  O  O45  1  0.61220600  0.92449700  0.78108200  1
  O  O46  1  0.24213000  0.03050900  0.82684700  1
  O  O47  1  0.79728300  0.72140000  0.83673000  1
