# generated using pymatgen
data_La5S8
_symmetry_space_group_name_H-M   'P 1'
_cell_length_a   8.75195000
_cell_length_b   8.75195000
_cell_length_c   8.73895800
_cell_angle_alpha   90.00000000
_cell_angle_beta   90.00000000
_cell_angle_gamma   90.00000000
_symmetry_Int_Tables_number   1
_chemical_formula_structural   La5S8
_chemical_formula_sum   'La10 S16'
_cell_volume   669.37472205
_cell_formula_units_Z   2
loop_
 _symmetry_equiv_pos_site_id
 _symmetry_equiv_pos_as_xyz
  1  'x, y, z'
loop_
 _atom_site_type_symbol
 _atom_site_label
 _atom_site_symmetry_multiplicity
 _atom_site_fract_x
 _atom_site_fract_y
 _atom_site_fract_z
 _atom_site_occupancy
  La  La0  1  0.74788000  0.13223700  0.88299400  1
  La  La1  1  0.00000000  0.00000000  0.50000000  1
  La  La2  1  0.75212000  0.36776300  0.38299400  1
  La  La3  1  0.13223700  0.25212000  0.11700600  1
  La  La4  1  0.36776300  0.24788000  0.61700600  1
  La  La5  1  0.24788000  0.63223700  0.38299400  1
  La  La6  1  0.50000000  0.50000000  0.00000000  1
  La  La7  1  0.25212000  0.86776300  0.88299400  1
  La  La8  1  0.63223700  0.75212000  0.61700600  1
  La  La9  1  0.86776300  0.74788000  0.11700600  1
  S  S10  1  0.31825350  0.91938650  0.56358850  1
  S  S11  1  0.07278600  0.15827800  0.79941700  1
  S  S12  1  0.15827800  0.92721400  0.20058300  1
  S  S13  1  0.42721400  0.34172200  0.29941700  1
  S  S14  1  0.08061350  0.31825350  0.43641150  1
  S  S15  1  0.18174650  0.58061350  0.06358850  1
  S  S16  1  0.41938650  0.18174650  0.93641150  1
  S  S17  1  0.34172200  0.57278600  0.70058300  1
  S  S18  1  0.81825350  0.41938650  0.06358850  1
  S  S19  1  0.57278600  0.65827800  0.29941700  1
  S  S20  1  0.65827800  0.42721400  0.70058300  1
  S  S21  1  0.92721400  0.84172200  0.79941700  1
  S  S22  1  0.58061350  0.81825350  0.93641150  1
  S  S23  1  0.68174650  0.08061350  0.56358850  1
  S  S24  1  0.91938650  0.68174650  0.43641150  1
  S  S25  1  0.84172200  0.07278600  0.20058300  1
