# generated using pymatgen
data_Na15Sn4
_symmetry_space_group_name_H-M   'P 1'
_cell_length_a   13.17194800
_cell_length_b   13.17194800
_cell_length_c   13.17194800
_cell_angle_alpha   90.00000000
_cell_angle_beta   90.00000000
_cell_angle_gamma   90.00000000
_symmetry_Int_Tables_number   1
_chemical_formula_structural   Na15Sn4
_chemical_formula_sum   'Na60 Sn16'
_cell_volume   2285.33579831
_cell_formula_units_Z   4
loop_
 _symmetry_equiv_pos_site_id
 _symmetry_equiv_pos_as_xyz
  1  'x, y, z'
loop_
 _atom_site_type_symbol
 _atom_site_label
 _atom_site_symmetry_multiplicity
 _atom_site_fract_x
 _atom_site_fract_y
 _atom_site_fract_z
 _atom_site_occupancy
  Na  Na0  1  0.00000000  0.25000000  0.37500000  1
  Na  Na1  1  0.37500000  0.00000000  0.25000000  1
  Na  Na2  1  0.12500000  0.00000000  0.75000000  1
  Na  Na3  1  0.75000000  0.12500000  0.00000000  1
  Na  Na4  1  0.25000000  0.37500000  0.00000000  1
  Na  Na5  1  0.00000000  0.75000000  0.12500000  1
  Na  Na6  1  0.15393450  0.96188150  0.12345850  1
  Na  Na7  1  0.12654150  0.78811850  0.90393450  1
  Na  Na8  1  0.87345850  0.28811850  0.59606550  1
  Na  Na9  1  0.59606550  0.87345850  0.28811850  1
  Na  Na10  1  0.59606550  0.12654150  0.21188150  1
  Na  Na11  1  0.21188150  0.59606550  0.12654150  1
  Na  Na12  1  0.78811850  0.90393450  0.12654150  1
  Na  Na13  1  0.46188150  0.37654150  0.84606550  1
  Na  Na14  1  0.37654150  0.15393450  0.03811850  1
  Na  Na15  1  0.03811850  0.62345850  0.34606550  1
  Na  Na16  1  0.37654150  0.84606550  0.46188150  1
  Na  Na17  1  0.03811850  0.37654150  0.15393450  1
  Na  Na18  1  0.62345850  0.34606550  0.03811850  1
  Na  Na19  1  0.12345850  0.15393450  0.96188150  1
  Na  Na20  1  0.96188150  0.12345850  0.15393450  1
  Na  Na21  1  0.84606550  0.46188150  0.37654150  1
  Na  Na22  1  0.15393450  0.03811850  0.37654150  1
  Na  Na23  1  0.34606550  0.03811850  0.62345850  1
  Na  Na24  1  0.37345850  0.21188150  0.40393450  1
  Na  Na25  1  0.40393450  0.37345850  0.21188150  1
  Na  Na26  1  0.21188150  0.40393450  0.37345850  1
  Na  Na27  1  0.12654150  0.21188150  0.59606550  1
  Na  Na28  1  0.90393450  0.12654150  0.78811850  1
  Na  Na29  1  0.28811850  0.59606550  0.87345850  1
  Na  Na30  1  0.50000000  0.75000000  0.87500000  1
  Na  Na31  1  0.87500000  0.50000000  0.75000000  1
  Na  Na32  1  0.62500000  0.50000000  0.25000000  1
  Na  Na33  1  0.25000000  0.62500000  0.50000000  1
  Na  Na34  1  0.75000000  0.87500000  0.50000000  1
  Na  Na35  1  0.50000000  0.25000000  0.62500000  1
  Na  Na36  1  0.65393450  0.46188150  0.62345850  1
  Na  Na37  1  0.62654150  0.28811850  0.40393450  1
  Na  Na38  1  0.37345850  0.78811850  0.09606550  1
  Na  Na39  1  0.09606550  0.37345850  0.78811850  1
  Na  Na40  1  0.09606550  0.62654150  0.71188150  1
  Na  Na41  1  0.71188150  0.09606550  0.62654150  1
  Na  Na42  1  0.28811850  0.40393450  0.62654150  1
  Na  Na43  1  0.96188150  0.87654150  0.34606550  1
  Na  Na44  1  0.87654150  0.65393450  0.53811850  1
  Na  Na45  1  0.53811850  0.12345850  0.84606550  1
  Na  Na46  1  0.87654150  0.34606550  0.96188150  1
  Na  Na47  1  0.53811850  0.87654150  0.65393450  1
  Na  Na48  1  0.12345850  0.84606550  0.53811850  1
  Na  Na49  1  0.62345850  0.65393450  0.46188150  1
  Na  Na50  1  0.46188150  0.62345850  0.65393450  1
  Na  Na51  1  0.34606550  0.96188150  0.87654150  1
  Na  Na52  1  0.65393450  0.53811850  0.87654150  1
  Na  Na53  1  0.84606550  0.53811850  0.12345850  1
  Na  Na54  1  0.87345850  0.71188150  0.90393450  1
  Na  Na55  1  0.90393450  0.87345850  0.71188150  1
  Na  Na56  1  0.71188150  0.90393450  0.87345850  1
  Na  Na57  1  0.62654150  0.71188150  0.09606550  1
  Na  Na58  1  0.40393450  0.62654150  0.28811850  1
  Na  Na59  1  0.78811850  0.09606550  0.37345850  1
  Sn  Sn60  1  0.20908450  0.20908450  0.20908450  1
  Sn  Sn61  1  0.04091550  0.54091550  0.95908450  1
  Sn  Sn62  1  0.95908450  0.04091550  0.54091550  1
  Sn  Sn63  1  0.54091550  0.95908450  0.04091550  1
  Sn  Sn64  1  0.20908450  0.79091550  0.29091550  1
  Sn  Sn65  1  0.29091550  0.20908450  0.79091550  1
  Sn  Sn66  1  0.79091550  0.29091550  0.20908450  1
  Sn  Sn67  1  0.45908450  0.45908450  0.45908450  1
  Sn  Sn68  1  0.70908450  0.70908450  0.70908450  1
  Sn  Sn69  1  0.54091550  0.04091550  0.45908450  1
  Sn  Sn70  1  0.45908450  0.54091550  0.04091550  1
  Sn  Sn71  1  0.04091550  0.45908450  0.54091550  1
  Sn  Sn72  1  0.70908450  0.29091550  0.79091550  1
  Sn  Sn73  1  0.79091550  0.70908450  0.29091550  1
  Sn  Sn74  1  0.29091550  0.79091550  0.70908450  1
  Sn  Sn75  1  0.95908450  0.95908450  0.95908450  1
