# generated using pymatgen
data_Cr(PO3)4
_symmetry_space_group_name_H-M   'P 1'
_cell_length_a   8.16482600
_cell_length_b   11.41386000
_cell_length_c   9.49338510
_cell_angle_alpha   90.00000000
_cell_angle_beta   92.53401392
_cell_angle_gamma   90.00000000
_symmetry_Int_Tables_number   1
_chemical_formula_structural   Cr(PO3)4
_chemical_formula_sum   'Cr4 P16 O48'
_cell_volume   883.84414915
_cell_formula_units_Z   4
loop_
 _symmetry_equiv_pos_site_id
 _symmetry_equiv_pos_as_xyz
  1  'x, y, z'
loop_
 _atom_site_type_symbol
 _atom_site_label
 _atom_site_symmetry_multiplicity
 _atom_site_fract_x
 _atom_site_fract_y
 _atom_site_fract_z
 _atom_site_occupancy
  Cr  Cr0  1  0.50000000  0.10840100  0.25000000  1
  Cr  Cr1  1  0.50000000  0.89159900  0.75000000  1
  Cr  Cr2  1  0.00000000  0.60840100  0.25000000  1
  Cr  Cr3  1  0.00000000  0.39159900  0.75000000  1
  P  P4  1  0.73945100  0.96271400  0.02886200  1
  P  P5  1  0.54547950  0.32196750  0.03309100  1
  P  P6  1  0.45452050  0.67803250  0.96690900  1
  P  P7  1  0.73945100  0.03728600  0.52886200  1
  P  P8  1  0.26054900  0.03728600  0.97113800  1
  P  P9  1  0.54547950  0.67803250  0.53309100  1
  P  P10  1  0.26054900  0.96271400  0.47113800  1
  P  P11  1  0.45452050  0.32196750  0.46690900  1
  P  P12  1  0.23945100  0.46271400  0.02886200  1
  P  P13  1  0.04547950  0.82196750  0.03309100  1
  P  P14  1  0.95452050  0.17803250  0.96690900  1
  P  P15  1  0.23945100  0.53728600  0.52886200  1
  P  P16  1  0.76054900  0.53728600  0.97113800  1
  P  P17  1  0.04547950  0.17803250  0.53309100  1
  P  P18  1  0.76054900  0.46271400  0.47113800  1
  P  P19  1  0.95452050  0.82196750  0.46690900  1
  O  O20  1  0.81319200  0.08202200  0.96968800  1
  O  O21  1  0.62673950  0.01163750  0.64502200  1
  O  O22  1  0.62673950  0.98836250  0.14502200  1
  O  O23  1  0.37326050  0.01163750  0.85497800  1
  O  O24  1  0.60678300  0.76425600  0.64565200  1
  O  O25  1  0.37326050  0.98836250  0.35497800  1
  O  O26  1  0.50234700  0.26862700  0.89277800  1
  O  O27  1  0.39321700  0.23574400  0.35434800  1
  O  O28  1  0.67517900  0.10658900  0.40337300  1
  O  O29  1  0.49765300  0.26862700  0.60722200  1
  O  O30  1  0.81319200  0.91797800  0.46968800  1
  O  O31  1  0.18680800  0.91797800  0.03031200  1
  O  O32  1  0.18680800  0.08202200  0.53031200  1
  O  O33  1  0.49765300  0.73137300  0.10722200  1
  O  O34  1  0.60329600  0.60331200  0.90207300  1
  O  O35  1  0.67517900  0.89341100  0.90337300  1
  O  O36  1  0.60329600  0.39668800  0.40207300  1
  O  O37  1  0.39670400  0.60331200  0.59792700  1
  O  O38  1  0.39321700  0.76425600  0.85434800  1
  O  O39  1  0.39670400  0.39668800  0.09792700  1
  O  O40  1  0.50234700  0.73137300  0.39277800  1
  O  O41  1  0.32482100  0.89341100  0.59662700  1
  O  O42  1  0.32482100  0.10658900  0.09662700  1
  O  O43  1  0.60678300  0.23574400  0.14565200  1
  O  O44  1  0.31319200  0.58202200  0.96968800  1
  O  O45  1  0.12673950  0.51163750  0.64502200  1
  O  O46  1  0.12673950  0.48836250  0.14502200  1
  O  O47  1  0.87326050  0.51163750  0.85497800  1
  O  O48  1  0.10678300  0.26425600  0.64565200  1
  O  O49  1  0.87326050  0.48836250  0.35497800  1
  O  O50  1  0.00234700  0.76862700  0.89277800  1
  O  O51  1  0.89321700  0.73574400  0.35434800  1
  O  O52  1  0.17517900  0.60658900  0.40337300  1
  O  O53  1  0.99765300  0.76862700  0.60722200  1
  O  O54  1  0.31319200  0.41797800  0.46968800  1
  O  O55  1  0.68680800  0.41797800  0.03031200  1
  O  O56  1  0.68680800  0.58202200  0.53031200  1
  O  O57  1  0.99765300  0.23137300  0.10722200  1
  O  O58  1  0.10329600  0.10331200  0.90207300  1
  O  O59  1  0.17517900  0.39341100  0.90337300  1
  O  O60  1  0.10329600  0.89668800  0.40207300  1
  O  O61  1  0.89670400  0.10331200  0.59792700  1
  O  O62  1  0.89321700  0.26425600  0.85434800  1
  O  O63  1  0.89670400  0.89668800  0.09792700  1
  O  O64  1  0.00234700  0.23137300  0.39277800  1
  O  O65  1  0.82482100  0.39341100  0.59662700  1
  O  O66  1  0.82482100  0.60658900  0.09662700  1
  O  O67  1  0.10678300  0.73574400  0.14565200  1
