# generated using pymatgen
data_CaTi2O4
_symmetry_space_group_name_H-M   'P 1'
_cell_length_a   3.07766600
_cell_length_b   9.82437800
_cell_length_c   10.14775000
_cell_angle_alpha   90.00000000
_cell_angle_beta   90.00000000
_cell_angle_gamma   90.00000000
_symmetry_Int_Tables_number   1
_chemical_formula_structural   CaTi2O4
_chemical_formula_sum   'Ca4 Ti8 O16'
_cell_volume   306.82893319
_cell_formula_units_Z   4
loop_
 _symmetry_equiv_pos_site_id
 _symmetry_equiv_pos_as_xyz
  1  'x, y, z'
loop_
 _atom_site_type_symbol
 _atom_site_label
 _atom_site_symmetry_multiplicity
 _atom_site_fract_x
 _atom_site_fract_y
 _atom_site_fract_z
 _atom_site_occupancy
  Ca  Ca0  1  0.00000000  0.37983500  0.25000000  1
  Ca  Ca1  1  0.50000000  0.12016500  0.75000000  1
  Ca  Ca2  1  0.50000000  0.87983500  0.25000000  1
  Ca  Ca3  1  0.00000000  0.62016500  0.75000000  1
  Ti  Ti4  1  0.50000000  0.37587800  0.56464800  1
  Ti  Ti5  1  0.00000000  0.12412200  0.43535200  1
  Ti  Ti6  1  0.50000000  0.37587800  0.93535200  1
  Ti  Ti7  1  0.00000000  0.12412200  0.06464800  1
  Ti  Ti8  1  0.00000000  0.87587800  0.56464800  1
  Ti  Ti9  1  0.50000000  0.62412200  0.43535200  1
  Ti  Ti10  1  0.00000000  0.87587800  0.93535200  1
  Ti  Ti11  1  0.50000000  0.62412200  0.06464800  1
  O  O12  1  0.00000000  0.23297800  0.89348000  1
  O  O13  1  0.50000000  0.26702200  0.10652000  1
  O  O14  1  0.50000000  0.26702200  0.39348000  1
  O  O15  1  0.00000000  0.23297800  0.60652000  1
  O  O16  1  0.50000000  0.43829000  0.75000000  1
  O  O17  1  0.00000000  0.06171000  0.25000000  1
  O  O18  1  0.50000000  0.00000000  0.50000000  1
  O  O19  1  0.50000000  0.00000000  0.00000000  1
  O  O20  1  0.50000000  0.73297800  0.89348000  1
  O  O21  1  0.00000000  0.76702200  0.10652000  1
  O  O22  1  0.00000000  0.76702200  0.39348000  1
  O  O23  1  0.50000000  0.73297800  0.60652000  1
  O  O24  1  0.00000000  0.93829000  0.75000000  1
  O  O25  1  0.50000000  0.56171000  0.25000000  1
  O  O26  1  0.00000000  0.50000000  0.50000000  1
  O  O27  1  0.00000000  0.50000000  0.00000000  1
