# generated using pymatgen
data_Mg5(Si8Pt5)2
_symmetry_space_group_name_H-M   'P 1'
_cell_length_a   12.69350000
_cell_length_b   12.69350000
_cell_length_c   12.69350000
_cell_angle_alpha   90.00000000
_cell_angle_beta   90.00000000
_cell_angle_gamma   90.00000000
_symmetry_Int_Tables_number   1
_chemical_formula_structural   Mg5(Si8Pt5)2
_chemical_formula_sum   'Mg20 Si64 Pt40'
_cell_volume   2045.23945445
_cell_formula_units_Z   4
loop_
 _symmetry_equiv_pos_site_id
 _symmetry_equiv_pos_as_xyz
  1  'x, y, z'
loop_
 _atom_site_type_symbol
 _atom_site_label
 _atom_site_symmetry_multiplicity
 _atom_site_fract_x
 _atom_site_fract_y
 _atom_site_fract_z
 _atom_site_occupancy
  Mg  Mg0  1  0.84419775  0.15580225  0.34419775  1
  Mg  Mg1  1  0.34419775  0.34419775  0.65580225  1
  Mg  Mg2  1  0.65580225  0.34419775  0.34419775  1
  Mg  Mg3  1  0.15580225  0.15580225  0.65580225  1
  Mg  Mg4  1  0.50000000  0.00000000  0.50000000  1
  Mg  Mg5  1  0.84419775  0.65580225  0.84419775  1
  Mg  Mg6  1  0.34419775  0.84419775  0.15580225  1
  Mg  Mg7  1  0.65580225  0.84419775  0.84419775  1
  Mg  Mg8  1  0.15580225  0.65580225  0.15580225  1
  Mg  Mg9  1  0.50000000  0.50000000  0.00000000  1
  Mg  Mg10  1  0.34419775  0.15580225  0.84419775  1
  Mg  Mg11  1  0.84419775  0.34419775  0.15580225  1
  Mg  Mg12  1  0.15580225  0.34419775  0.84419775  1
  Mg  Mg13  1  0.65580225  0.15580225  0.15580225  1
  Mg  Mg14  1  0.00000000  0.00000000  0.00000000  1
  Mg  Mg15  1  0.34419775  0.65580225  0.34419775  1
  Mg  Mg16  1  0.84419775  0.84419775  0.65580225  1
  Mg  Mg17  1  0.15580225  0.84419775  0.34419775  1
  Mg  Mg18  1  0.65580225  0.65580225  0.65580225  1
  Mg  Mg19  1  0.00000000  0.50000000  0.50000000  1
  Si  Si20  1  0.95566375  0.18362775  0.81637225  1
  Si  Si21  1  0.42736392  0.42736392  0.42736392  1
  Si  Si22  1  0.92736392  0.07263608  0.57263608  1
  Si  Si23  1  0.07263608  0.07263608  0.42736392  1
  Si  Si24  1  0.57263608  0.42736392  0.57263608  1
  Si  Si25  1  0.95566375  0.31637225  0.68362775  1
  Si  Si26  1  0.81637225  0.31637225  0.54433625  1
  Si  Si27  1  0.81637225  0.45566375  0.68362775  1
  Si  Si28  1  0.68362775  0.04433625  0.68362775  1
  Si  Si29  1  0.68362775  0.31637225  0.95566375  1
  Si  Si30  1  0.81637225  0.04433625  0.81637225  1
  Si  Si31  1  0.68362775  0.18362775  0.54433625  1
  Si  Si32  1  0.81637225  0.18362775  0.95566375  1
  Si  Si33  1  0.54433625  0.31637225  0.81637225  1
  Si  Si34  1  0.68362775  0.45566375  0.81637225  1
  Si  Si35  1  0.54433625  0.18362775  0.68362775  1
  Si  Si36  1  0.95566375  0.68362775  0.31637225  1
  Si  Si37  1  0.42736392  0.92736392  0.92736392  1
  Si  Si38  1  0.92736392  0.57263608  0.07263608  1
  Si  Si39  1  0.07263608  0.57263608  0.92736392  1
  Si  Si40  1  0.57263608  0.92736392  0.07263608  1
  Si  Si41  1  0.95566375  0.81637225  0.18362775  1
  Si  Si42  1  0.81637225  0.81637225  0.04433625  1
  Si  Si43  1  0.81637225  0.95566375  0.18362775  1
  Si  Si44  1  0.68362775  0.54433625  0.18362775  1
  Si  Si45  1  0.68362775  0.81637225  0.45566375  1
  Si  Si46  1  0.81637225  0.54433625  0.31637225  1
  Si  Si47  1  0.68362775  0.68362775  0.04433625  1
  Si  Si48  1  0.81637225  0.68362775  0.45566375  1
  Si  Si49  1  0.54433625  0.81637225  0.31637225  1
  Si  Si50  1  0.68362775  0.95566375  0.31637225  1
  Si  Si51  1  0.54433625  0.68362775  0.18362775  1
  Si  Si52  1  0.45566375  0.18362775  0.31637225  1
  Si  Si53  1  0.92736392  0.42736392  0.92736392  1
  Si  Si54  1  0.42736392  0.07263608  0.07263608  1
  Si  Si55  1  0.57263608  0.07263608  0.92736392  1
  Si  Si56  1  0.07263608  0.42736392  0.07263608  1
  Si  Si57  1  0.45566375  0.31637225  0.18362775  1
  Si  Si58  1  0.31637225  0.31637225  0.04433625  1
  Si  Si59  1  0.31637225  0.45566375  0.18362775  1
  Si  Si60  1  0.18362775  0.04433625  0.18362775  1
  Si  Si61  1  0.18362775  0.31637225  0.45566375  1
  Si  Si62  1  0.31637225  0.04433625  0.31637225  1
  Si  Si63  1  0.18362775  0.18362775  0.04433625  1
  Si  Si64  1  0.31637225  0.18362775  0.45566375  1
  Si  Si65  1  0.04433625  0.31637225  0.31637225  1
  Si  Si66  1  0.18362775  0.45566375  0.31637225  1
  Si  Si67  1  0.04433625  0.18362775  0.18362775  1
  Si  Si68  1  0.45566375  0.68362775  0.81637225  1
  Si  Si69  1  0.92736392  0.92736392  0.42736392  1
  Si  Si70  1  0.42736392  0.57263608  0.57263608  1
  Si  Si71  1  0.57263608  0.57263608  0.42736392  1
  Si  Si72  1  0.07263608  0.92736392  0.57263608  1
  Si  Si73  1  0.45566375  0.81637225  0.68362775  1
  Si  Si74  1  0.31637225  0.81637225  0.54433625  1
  Si  Si75  1  0.31637225  0.95566375  0.68362775  1
  Si  Si76  1  0.18362775  0.54433625  0.68362775  1
  Si  Si77  1  0.18362775  0.81637225  0.95566375  1
  Si  Si78  1  0.31637225  0.54433625  0.81637225  1
  Si  Si79  1  0.18362775  0.68362775  0.54433625  1
  Si  Si80  1  0.31637225  0.68362775  0.95566375  1
  Si  Si81  1  0.04433625  0.81637225  0.81637225  1
  Si  Si82  1  0.18362775  0.95566375  0.81637225  1
  Si  Si83  1  0.04433625  0.68362775  0.68362775  1
  Pt  Pt84  1  0.62671675  0.37328325  0.12671675  1
  Pt  Pt85  1  0.50000000  0.26787925  0.50000000  1
  Pt  Pt86  1  0.00000000  0.23212075  0.50000000  1
  Pt  Pt87  1  0.00000000  0.00000000  0.73212075  1
  Pt  Pt88  1  0.23212075  0.00000000  0.50000000  1
  Pt  Pt89  1  0.76787925  0.00000000  0.50000000  1
  Pt  Pt90  1  0.00000000  0.00000000  0.26787925  1
  Pt  Pt91  1  0.87328325  0.37328325  0.37328325  1
  Pt  Pt92  1  0.87328325  0.12671675  0.12671675  1
  Pt  Pt93  1  0.62671675  0.12671675  0.37328325  1
  Pt  Pt94  1  0.62671675  0.87328325  0.62671675  1
  Pt  Pt95  1  0.50000000  0.76787925  0.00000000  1
  Pt  Pt96  1  0.00000000  0.73212075  0.00000000  1
  Pt  Pt97  1  0.00000000  0.50000000  0.23212075  1
  Pt  Pt98  1  0.23212075  0.50000000  0.00000000  1
  Pt  Pt99  1  0.76787925  0.50000000  0.00000000  1
  Pt  Pt100  1  0.00000000  0.50000000  0.76787925  1
  Pt  Pt101  1  0.87328325  0.87328325  0.87328325  1
  Pt  Pt102  1  0.87328325  0.62671675  0.62671675  1
  Pt  Pt103  1  0.62671675  0.62671675  0.87328325  1
  Pt  Pt104  1  0.12671675  0.37328325  0.62671675  1
  Pt  Pt105  1  0.00000000  0.26787925  0.00000000  1
  Pt  Pt106  1  0.50000000  0.23212075  0.00000000  1
  Pt  Pt107  1  0.50000000  0.00000000  0.23212075  1
  Pt  Pt108  1  0.73212075  0.00000000  0.00000000  1
  Pt  Pt109  1  0.26787925  0.00000000  0.00000000  1
  Pt  Pt110  1  0.50000000  0.00000000  0.76787925  1
  Pt  Pt111  1  0.37328325  0.37328325  0.87328325  1
  Pt  Pt112  1  0.37328325  0.12671675  0.62671675  1
  Pt  Pt113  1  0.12671675  0.12671675  0.87328325  1
  Pt  Pt114  1  0.12671675  0.87328325  0.12671675  1
  Pt  Pt115  1  0.00000000  0.76787925  0.50000000  1
  Pt  Pt116  1  0.50000000  0.73212075  0.50000000  1
  Pt  Pt117  1  0.50000000  0.50000000  0.73212075  1
  Pt  Pt118  1  0.73212075  0.50000000  0.50000000  1
  Pt  Pt119  1  0.26787925  0.50000000  0.50000000  1
  Pt  Pt120  1  0.50000000  0.50000000  0.26787925  1
  Pt  Pt121  1  0.37328325  0.87328325  0.37328325  1
  Pt  Pt122  1  0.37328325  0.62671675  0.12671675  1
  Pt  Pt123  1  0.12671675  0.62671675  0.37328325  1
