# generated using pymatgen
data_Er2Mo2C3
_symmetry_space_group_name_H-M   'P 1'
_cell_length_a   11.64448000
_cell_length_b   3.32855200
_cell_length_c   5.68890467
_cell_angle_alpha   90.00000000
_cell_angle_beta   111.83488660
_cell_angle_gamma   90.00000000
_symmetry_Int_Tables_number   1
_chemical_formula_structural   Er2Mo2C3
_chemical_formula_sum   'Er4 Mo4 C6'
_cell_volume   204.67911020
_cell_formula_units_Z   2
loop_
 _symmetry_equiv_pos_site_id
 _symmetry_equiv_pos_as_xyz
  1  'x, y, z'
loop_
 _atom_site_type_symbol
 _atom_site_label
 _atom_site_symmetry_multiplicity
 _atom_site_fract_x
 _atom_site_fract_y
 _atom_site_fract_z
 _atom_site_occupancy
  Er  Er0  1  0.11059100  0.50000000  0.82692900  1
  Er  Er1  1  0.38940900  0.00000000  0.17307100  1
  Er  Er2  1  0.61059100  0.00000000  0.82692900  1
  Er  Er3  1  0.88940900  0.50000000  0.17307100  1
  Mo  Mo4  1  0.34335900  0.50000000  0.67341400  1
  Mo  Mo5  1  0.15664100  0.00000000  0.32658600  1
  Mo  Mo6  1  0.84335900  0.00000000  0.67341400  1
  Mo  Mo7  1  0.65664100  0.50000000  0.32658600  1
  C  C8  1  0.24765500  0.00000000  0.73548000  1
  C  C9  1  0.25234500  0.50000000  0.26452000  1
  C  C10  1  0.00000000  0.00000000  0.00000000  1
  C  C11  1  0.74765500  0.50000000  0.73548000  1
  C  C12  1  0.75234500  0.00000000  0.26452000  1
  C  C13  1  0.50000000  0.50000000  0.00000000  1
