# generated using pymatgen
data_Bi4Rh
_symmetry_space_group_name_H-M   'P 1'
_cell_length_a   15.19262200
_cell_length_b   15.19262200
_cell_length_c   15.19262200
_cell_angle_alpha   90.00000000
_cell_angle_beta   90.00000000
_cell_angle_gamma   90.00000000
_symmetry_Int_Tables_number   1
_chemical_formula_structural   Bi4Rh
_chemical_formula_sum   'Bi96 Rh24'
_cell_volume   3506.69664247
_cell_formula_units_Z   24
loop_
 _symmetry_equiv_pos_site_id
 _symmetry_equiv_pos_as_xyz
  1  'x, y, z'
loop_
 _atom_site_type_symbol
 _atom_site_label
 _atom_site_symmetry_multiplicity
 _atom_site_fract_x
 _atom_site_fract_y
 _atom_site_fract_z
 _atom_site_occupancy
  Bi  Bi0  1  0.02397800  0.56334900  0.34764200  1
  Bi  Bi1  1  0.02397800  0.43665100  0.15235800  1
  Bi  Bi2  1  0.15235800  0.02397800  0.43665100  1
  Bi  Bi3  1  0.06334900  0.15235800  0.97602200  1
  Bi  Bi4  1  0.72602200  0.59764200  0.31334900  1
  Bi  Bi5  1  0.43665100  0.84764200  0.47602200  1
  Bi  Bi6  1  0.31334900  0.72602200  0.59764200  1
  Bi  Bi7  1  0.56334900  0.34764200  0.02397800  1
  Bi  Bi8  1  0.59764200  0.31334900  0.72602200  1
  Bi  Bi9  1  0.27397800  0.09764200  0.18665100  1
  Bi  Bi10  1  0.31334900  0.27397800  0.90235800  1
  Bi  Bi11  1  0.90235800  0.68665100  0.22602200  1
  Bi  Bi12  1  0.06334900  0.34764200  0.47602200  1
  Bi  Bi13  1  0.22602200  0.59764200  0.18665100  1
  Bi  Bi14  1  0.27397800  0.59764200  0.81334900  1
  Bi  Bi15  1  0.81334900  0.27397800  0.59764200  1
  Bi  Bi16  1  0.31334900  0.22602200  0.40235800  1
  Bi  Bi17  1  0.40235800  0.31334900  0.22602200  1
  Bi  Bi18  1  0.59764200  0.18665100  0.22602200  1
  Bi  Bi19  1  0.34764200  0.52397800  0.43665100  1
  Bi  Bi20  1  0.02397800  0.06334900  0.65235800  1
  Bi  Bi21  1  0.15235800  0.47602200  0.93665100  1
  Bi  Bi22  1  0.52397800  0.43665100  0.34764200  1
  Bi  Bi23  1  0.65235800  0.02397800  0.06334900  1
  Bi  Bi24  1  0.47602200  0.93665100  0.15235800  1
  Bi  Bi25  1  0.47602200  0.06334900  0.34764200  1
  Bi  Bi26  1  0.34764200  0.47602200  0.06334900  1
  Bi  Bi27  1  0.43665100  0.34764200  0.52397800  1
  Bi  Bi28  1  0.77397800  0.90235800  0.18665100  1
  Bi  Bi29  1  0.06334900  0.65235800  0.02397800  1
  Bi  Bi30  1  0.18665100  0.77397800  0.90235800  1
  Bi  Bi31  1  0.93665100  0.15235800  0.47602200  1
  Bi  Bi32  1  0.90235800  0.18665100  0.77397800  1
  Bi  Bi33  1  0.22602200  0.40235800  0.31334900  1
  Bi  Bi34  1  0.18665100  0.22602200  0.59764200  1
  Bi  Bi35  1  0.59764200  0.81334900  0.27397800  1
  Bi  Bi36  1  0.84764200  0.47602200  0.43665100  1
  Bi  Bi37  1  0.97602200  0.06334900  0.15235800  1
  Bi  Bi38  1  0.34764200  0.02397800  0.56334900  1
  Bi  Bi39  1  0.47602200  0.43665100  0.84764200  1
  Bi  Bi40  1  0.15235800  0.97602200  0.06334900  1
  Bi  Bi41  1  0.90235800  0.31334900  0.27397800  1
  Bi  Bi42  1  0.09764200  0.18665100  0.27397800  1
  Bi  Bi43  1  0.18665100  0.27397800  0.09764200  1
  Bi  Bi44  1  0.68665100  0.22602200  0.90235800  1
  Bi  Bi45  1  0.22602200  0.90235800  0.68665100  1
  Bi  Bi46  1  0.27397800  0.90235800  0.31334900  1
  Bi  Bi47  1  0.43665100  0.15235800  0.02397800  1
  Bi  Bi48  1  0.52397800  0.06334900  0.84764200  1
  Bi  Bi49  1  0.52397800  0.93665100  0.65235800  1
  Bi  Bi50  1  0.65235800  0.52397800  0.93665100  1
  Bi  Bi51  1  0.56334900  0.65235800  0.47602200  1
  Bi  Bi52  1  0.22602200  0.09764200  0.81334900  1
  Bi  Bi53  1  0.93665100  0.34764200  0.97602200  1
  Bi  Bi54  1  0.81334900  0.22602200  0.09764200  1
  Bi  Bi55  1  0.06334900  0.84764200  0.52397800  1
  Bi  Bi56  1  0.09764200  0.81334900  0.22602200  1
  Bi  Bi57  1  0.77397800  0.59764200  0.68665100  1
  Bi  Bi58  1  0.81334900  0.77397800  0.40235800  1
  Bi  Bi59  1  0.40235800  0.18665100  0.72602200  1
  Bi  Bi60  1  0.56334900  0.84764200  0.97602200  1
  Bi  Bi61  1  0.72602200  0.09764200  0.68665100  1
  Bi  Bi62  1  0.77397800  0.09764200  0.31334900  1
  Bi  Bi63  1  0.31334900  0.77397800  0.09764200  1
  Bi  Bi64  1  0.81334900  0.72602200  0.90235800  1
  Bi  Bi65  1  0.90235800  0.81334900  0.72602200  1
  Bi  Bi66  1  0.09764200  0.68665100  0.72602200  1
  Bi  Bi67  1  0.84764200  0.02397800  0.93665100  1
  Bi  Bi68  1  0.52397800  0.56334900  0.15235800  1
  Bi  Bi69  1  0.65235800  0.97602200  0.43665100  1
  Bi  Bi70  1  0.02397800  0.93665100  0.84764200  1
  Bi  Bi71  1  0.15235800  0.52397800  0.56334900  1
  Bi  Bi72  1  0.97602200  0.43665100  0.65235800  1
  Bi  Bi73  1  0.97602200  0.56334900  0.84764200  1
  Bi  Bi74  1  0.84764200  0.97602200  0.56334900  1
  Bi  Bi75  1  0.93665100  0.84764200  0.02397800  1
  Bi  Bi76  1  0.27397800  0.40235800  0.68665100  1
  Bi  Bi77  1  0.56334900  0.15235800  0.52397800  1
  Bi  Bi78  1  0.68665100  0.27397800  0.40235800  1
  Bi  Bi79  1  0.43665100  0.65235800  0.97602200  1
  Bi  Bi80  1  0.40235800  0.68665100  0.27397800  1
  Bi  Bi81  1  0.72602200  0.90235800  0.81334900  1
  Bi  Bi82  1  0.68665100  0.72602200  0.09764200  1
  Bi  Bi83  1  0.09764200  0.31334900  0.77397800  1
  Bi  Bi84  1  0.34764200  0.97602200  0.93665100  1
  Bi  Bi85  1  0.47602200  0.56334900  0.65235800  1
  Bi  Bi86  1  0.84764200  0.52397800  0.06334900  1
  Bi  Bi87  1  0.97602200  0.93665100  0.34764200  1
  Bi  Bi88  1  0.65235800  0.47602200  0.56334900  1
  Bi  Bi89  1  0.40235800  0.81334900  0.77397800  1
  Bi  Bi90  1  0.59764200  0.68665100  0.77397800  1
  Bi  Bi91  1  0.68665100  0.77397800  0.59764200  1
  Bi  Bi92  1  0.18665100  0.72602200  0.40235800  1
  Bi  Bi93  1  0.72602200  0.40235800  0.18665100  1
  Bi  Bi94  1  0.77397800  0.40235800  0.81334900  1
  Bi  Bi95  1  0.93665100  0.65235800  0.52397800  1
  Rh  Rh96  1  0.00000000  0.25000000  0.62500000  1
  Rh  Rh97  1  0.25000000  0.62500000  0.00000000  1
  Rh  Rh98  1  0.25000000  0.37500000  0.50000000  1
  Rh  Rh99  1  0.37500000  0.50000000  0.25000000  1
  Rh  Rh100  1  0.62500000  0.00000000  0.25000000  1
  Rh  Rh101  1  0.50000000  0.25000000  0.37500000  1
  Rh  Rh102  1  0.50000000  0.25000000  0.87500000  1
  Rh  Rh103  1  0.25000000  0.87500000  0.50000000  1
  Rh  Rh104  1  0.25000000  0.12500000  0.00000000  1
  Rh  Rh105  1  0.12500000  0.00000000  0.25000000  1
  Rh  Rh106  1  0.87500000  0.50000000  0.25000000  1
  Rh  Rh107  1  0.00000000  0.25000000  0.12500000  1
  Rh  Rh108  1  0.50000000  0.75000000  0.12500000  1
  Rh  Rh109  1  0.75000000  0.12500000  0.50000000  1
  Rh  Rh110  1  0.75000000  0.87500000  0.00000000  1
  Rh  Rh111  1  0.87500000  0.00000000  0.75000000  1
  Rh  Rh112  1  0.12500000  0.50000000  0.75000000  1
  Rh  Rh113  1  0.00000000  0.75000000  0.87500000  1
  Rh  Rh114  1  0.00000000  0.75000000  0.37500000  1
  Rh  Rh115  1  0.75000000  0.37500000  0.00000000  1
  Rh  Rh116  1  0.75000000  0.62500000  0.50000000  1
  Rh  Rh117  1  0.62500000  0.50000000  0.75000000  1
  Rh  Rh118  1  0.37500000  0.00000000  0.75000000  1
  Rh  Rh119  1  0.50000000  0.75000000  0.62500000  1
