# generated using pymatgen
data_Ho3(CuGe)4
_symmetry_space_group_name_H-M   'P 1'
_cell_length_a   4.18369000
_cell_length_b   6.65291600
_cell_length_c   13.88569800
_cell_angle_alpha   90.00000000
_cell_angle_beta   90.00000000
_cell_angle_gamma   90.00000000
_symmetry_Int_Tables_number   1
_chemical_formula_structural   Ho3(CuGe)4
_chemical_formula_sum   'Ho6 Cu8 Ge8'
_cell_volume   386.49088202
_cell_formula_units_Z   2
loop_
 _symmetry_equiv_pos_site_id
 _symmetry_equiv_pos_as_xyz
  1  'x, y, z'
loop_
 _atom_site_type_symbol
 _atom_site_label
 _atom_site_symmetry_multiplicity
 _atom_site_fract_x
 _atom_site_fract_y
 _atom_site_fract_z
 _atom_site_occupancy
  Ho  Ho0  1  0.00000000  0.00000000  0.87014200  1
  Ho  Ho1  1  0.50000000  0.50000000  0.62985800  1
  Ho  Ho2  1  0.00000000  0.50000000  0.00000000  1
  Ho  Ho3  1  0.50000000  0.50000000  0.37014200  1
  Ho  Ho4  1  0.00000000  0.00000000  0.12985800  1
  Ho  Ho5  1  0.50000000  0.00000000  0.50000000  1
  Cu  Cu6  1  0.00000000  0.19008700  0.66919900  1
  Cu  Cu7  1  0.50000000  0.30991300  0.83080100  1
  Cu  Cu8  1  0.00000000  0.80991300  0.66919900  1
  Cu  Cu9  1  0.50000000  0.69008700  0.83080100  1
  Cu  Cu10  1  0.50000000  0.69008700  0.16919900  1
  Cu  Cu11  1  0.00000000  0.80991300  0.33080100  1
  Cu  Cu12  1  0.50000000  0.30991300  0.16919900  1
  Cu  Cu13  1  0.00000000  0.19008700  0.33080100  1
  Ge  Ge14  1  0.00000000  0.50000000  0.78313600  1
  Ge  Ge15  1  0.50000000  0.80806500  0.00000000  1
  Ge  Ge16  1  0.50000000  0.19193500  0.00000000  1
  Ge  Ge17  1  0.50000000  0.00000000  0.71686400  1
  Ge  Ge18  1  0.50000000  0.00000000  0.28313600  1
  Ge  Ge19  1  0.00000000  0.30806500  0.50000000  1
  Ge  Ge20  1  0.00000000  0.69193500  0.50000000  1
  Ge  Ge21  1  0.00000000  0.50000000  0.21686400  1
