# generated using pymatgen
data_LiCoPO4
_symmetry_space_group_name_H-M   'P 1'
_cell_length_a   13.88578819
_cell_length_b   13.88578819
_cell_length_c   9.25407865
_cell_angle_alpha   90.00000000
_cell_angle_beta   90.00000000
_cell_angle_gamma   120.00000000
_symmetry_Int_Tables_number   1
_chemical_formula_structural   LiCoPO4
_chemical_formula_sum   'Li18 Co18 P18 O72'
_cell_volume   1545.27183976
_cell_formula_units_Z   18
loop_
 _symmetry_equiv_pos_site_id
 _symmetry_equiv_pos_as_xyz
  1  'x, y, z'
loop_
 _atom_site_type_symbol
 _atom_site_label
 _atom_site_symmetry_multiplicity
 _atom_site_fract_x
 _atom_site_fract_y
 _atom_site_fract_z
 _atom_site_occupancy
  Li  Li0  1  0.98725933  0.79508367  0.58319167  1
  Li  Li1  1  0.20491633  0.19217567  0.58319167  1
  Li  Li2  1  0.85795467  0.31215633  0.42004833  1
  Li  Li3  1  0.80782433  0.01274067  0.58319167  1
  Li  Li4  1  0.45420167  0.14204533  0.42004833  1
  Li  Li5  1  0.68784367  0.54579833  0.42004833  1
  Li  Li6  1  0.65392600  0.12841700  0.91652500  1
  Li  Li7  1  0.87158300  0.52550900  0.91652500  1
  Li  Li8  1  0.52462133  0.64548967  0.75338167  1
  Li  Li9  1  0.47449100  0.34607400  0.91652500  1
  Li  Li10  1  0.12086833  0.47537867  0.75338167  1
  Li  Li11  1  0.35451033  0.87913167  0.75338167  1
  Li  Li12  1  0.32059267  0.46175033  0.24985833  1
  Li  Li13  1  0.53824967  0.85884233  0.24985833  1
  Li  Li14  1  0.19128800  0.97882300  0.08671500  1
  Li  Li15  1  0.14115767  0.67940733  0.24985833  1
  Li  Li16  1  0.78753500  0.80871200  0.08671500  1
  Li  Li17  1  0.02117700  0.21246500  0.08671500  1
  Co  Co18  1  0.98053900  0.78504000  0.25012400  1
  Co  Co19  1  0.79128533  0.80381867  0.75246567  1
  Co  Co20  1  0.80450100  0.01946100  0.25012400  1
  Co  Co21  1  0.01253333  0.20871467  0.75246567  1
  Co  Co22  1  0.21496000  0.19549900  0.25012400  1
  Co  Co23  1  0.19618133  0.98746667  0.75246567  1
  Co  Co24  1  0.64720567  0.11837333  0.58345733  1
  Co  Co25  1  0.45795200  0.13715200  0.08579900  1
  Co  Co26  1  0.47116767  0.35279433  0.58345733  1
  Co  Co27  1  0.67920000  0.54204800  0.08579900  1
  Co  Co28  1  0.88162667  0.52883233  0.58345733  1
  Co  Co29  1  0.86284800  0.32080000  0.08579900  1
  Co  Co30  1  0.31387233  0.45170667  0.91679067  1
  Co  Co31  1  0.12461867  0.47048533  0.41913233  1
  Co  Co32  1  0.13783433  0.68612767  0.91679067  1
  Co  Co33  1  0.34586667  0.87538133  0.41913233  1
  Co  Co34  1  0.54829333  0.86216567  0.91679067  1
  Co  Co35  1  0.52951467  0.65413333  0.41913233  1
  P  P36  1  0.32135333  0.45743767  0.58265467  1
  P  P37  1  0.13608433  0.67864667  0.58265467  1
  P  P38  1  0.54256233  0.86391567  0.58265467  1
  P  P39  1  0.19595900  0.98656700  0.41784200  1
  P  P40  1  0.79060800  0.80404100  0.41784200  1
  P  P41  1  0.01343300  0.20939200  0.41784200  1
  P  P42  1  0.98802000  0.79077100  0.91598800  1
  P  P43  1  0.80275100  0.01198000  0.91598800  1
  P  P44  1  0.20922900  0.19724900  0.91598800  1
  P  P45  1  0.86262567  0.31990033  0.75117533  1
  P  P46  1  0.45727467  0.13737433  0.75117533  1
  P  P47  1  0.68009967  0.54272533  0.75117533  1
  P  P48  1  0.65468667  0.12410433  0.24932133  1
  P  P49  1  0.46941767  0.34531333  0.24932133  1
  P  P50  1  0.87589567  0.53058233  0.24932133  1
  P  P51  1  0.52929233  0.65323367  0.08450867  1
  P  P52  1  0.12394133  0.47070767  0.08450867  1
  P  P53  1  0.34676633  0.87605867  0.08450867  1
  O  O54  1  0.00211700  0.31537500  0.41485500  1
  O  O55  1  0.13284867  0.92730833  0.55843333  1
  O  O56  1  0.68462500  0.68674200  0.41485500  1
  O  O57  1  0.20236800  0.13148500  0.77728700  1
  O  O58  1  0.79445967  0.86715133  0.55843333  1
  O  O59  1  0.77601867  0.55217933  0.25037633  1
  O  O60  1  0.92911700  0.79763200  0.77728700  1
  O  O61  1  0.02136767  0.67335433  0.58283733  1
  O  O62  1  0.31325800  0.99788300  0.41485500  1
  O  O63  1  0.44782067  0.22383933  0.25037633  1
  O  O64  1  0.89318567  0.78712033  0.41682433  1
  O  O65  1  0.21287967  0.10606533  0.41682433  1
  O  O66  1  0.86851500  0.07088300  0.77728700  1
  O  O67  1  0.25832833  0.46181867  0.71990667  1
  O  O68  1  0.07880733  0.20714567  0.28234867  1
  O  O69  1  0.77616067  0.22398133  0.25037633  1
  O  O70  1  0.65198667  0.97863233  0.58283733  1
  O  O71  1  0.07269167  0.20554033  0.55843333  1
  O  O72  1  0.89393467  0.10681433  0.41682433  1
  O  O73  1  0.79285433  0.87166167  0.28234867  1
  O  O74  1  0.20349033  0.74167167  0.71990667  1
  O  O75  1  0.32664567  0.34801333  0.58283733  1
  O  O76  1  0.53818133  0.79650967  0.71990667  1
  O  O77  1  0.12833833  0.92119267  0.28234867  1
  O  O78  1  0.66878367  0.64870833  0.74818833  1
  O  O79  1  0.79951533  0.26064167  0.89176667  1
  O  O80  1  0.35129167  0.02007533  0.74818833  1
  O  O81  1  0.86903467  0.46481833  0.11062033  1
  O  O82  1  0.46112633  0.20048467  0.89176667  1
  O  O83  1  0.44268533  0.88551267  0.58370967  1
  O  O84  1  0.59578367  0.13096533  0.11062033  1
  O  O85  1  0.68803433  0.00668767  0.91617067  1
  O  O86  1  0.97992467  0.33121633  0.74818833  1
  O  O87  1  0.11448733  0.55717267  0.58370967  1
  O  O88  1  0.55985233  0.12045367  0.75015767  1
  O  O89  1  0.87954633  0.43939867  0.75015767  1
  O  O90  1  0.53518167  0.40421633  0.11062033  1
  O  O91  1  0.92499500  0.79515200  0.05324000  1
  O  O92  1  0.74547400  0.54047900  0.61568200  1
  O  O93  1  0.44282733  0.55731467  0.58370967  1
  O  O94  1  0.31865333  0.31196567  0.91617067  1
  O  O95  1  0.73935833  0.53887367  0.89176667  1
  O  O96  1  0.56060133  0.44014767  0.75015767  1
  O  O97  1  0.45952100  0.20499500  0.61568200  1
  O  O98  1  0.87015700  0.07500500  0.05324000  1
  O  O99  1  0.99331233  0.68134667  0.91617067  1
  O  O100  1  0.20484800  0.12984300  0.05324000  1
  O  O101  1  0.79500500  0.25452600  0.61568200  1
  O  O102  1  0.33545033  0.98204167  0.08152167  1
  O  O103  1  0.46618200  0.59397500  0.22510000  1
  O  O104  1  0.01795833  0.35340867  0.08152167  1
  O  O105  1  0.53570133  0.79815167  0.44395367  1
  O  O106  1  0.12779300  0.53381800  0.22510000  1
  O  O107  1  0.10935200  0.21884600  0.91704300  1
  O  O108  1  0.26245033  0.46429867  0.44395367  1
  O  O109  1  0.35470100  0.34002100  0.24950400  1
  O  O110  1  0.64659133  0.66454967  0.08152167  1
  O  O111  1  0.78115400  0.89050600  0.91704300  1
  O  O112  1  0.22651900  0.45378700  0.08349100  1
  O  O113  1  0.54621300  0.77273200  0.08349100  1
  O  O114  1  0.20184833  0.73754967  0.44395367  1
  O  O115  1  0.59166167  0.12848533  0.38657333  1
  O  O116  1  0.41214067  0.87381233  0.94901533  1
  O  O117  1  0.10949400  0.89064800  0.91704300  1
  O  O118  1  0.98532000  0.64529900  0.24950400  1
  O  O119  1  0.40602500  0.87220700  0.22510000  1
  O  O120  1  0.22726800  0.77348100  0.08349100  1
  O  O121  1  0.12618767  0.53832833  0.94901533  1
  O  O122  1  0.53682367  0.40833833  0.38657333  1
  O  O123  1  0.65997900  0.01468000  0.24950400  1
  O  O124  1  0.87151467  0.46317633  0.38657333  1
  O  O125  1  0.46167167  0.58785933  0.94901533  1
