# generated using pymatgen
data_CeMgSi2
_symmetry_space_group_name_H-M   'P 1'
_cell_length_a   4.19044400
_cell_length_b   4.19044400
_cell_length_c   37.07021600
_cell_angle_alpha   90.00000000
_cell_angle_beta   90.00000000
_cell_angle_gamma   90.00000000
_symmetry_Int_Tables_number   1
_chemical_formula_structural   CeMgSi2
_chemical_formula_sum   'Ce8 Mg8 Si16'
_cell_volume   650.94635432
_cell_formula_units_Z   8
loop_
 _symmetry_equiv_pos_site_id
 _symmetry_equiv_pos_as_xyz
  1  'x, y, z'
loop_
 _atom_site_type_symbol
 _atom_site_label
 _atom_site_symmetry_multiplicity
 _atom_site_fract_x
 _atom_site_fract_y
 _atom_site_fract_z
 _atom_site_occupancy
  Ce  Ce0  1  0.00000000  0.50000000  0.32814800  1
  Ce  Ce1  1  0.00000000  0.00000000  0.07814800  1
  Ce  Ce2  1  0.50000000  0.50000000  0.42185200  1
  Ce  Ce3  1  0.00000000  0.50000000  0.17185200  1
  Ce  Ce4  1  0.50000000  0.00000000  0.82814800  1
  Ce  Ce5  1  0.50000000  0.50000000  0.57814800  1
  Ce  Ce6  1  0.00000000  0.00000000  0.92185200  1
  Ce  Ce7  1  0.50000000  0.00000000  0.67185200  1
  Mg  Mg8  1  0.00000000  0.00000000  0.24992100  1
  Mg  Mg9  1  0.00000000  0.50000000  0.00007900  1
  Mg  Mg10  1  0.50000000  0.50000000  0.25007900  1
  Mg  Mg11  1  0.00000000  0.50000000  0.49992100  1
  Mg  Mg12  1  0.50000000  0.50000000  0.74992100  1
  Mg  Mg13  1  0.50000000  0.00000000  0.50007900  1
  Mg  Mg14  1  0.00000000  0.00000000  0.75007900  1
  Mg  Mg15  1  0.50000000  0.00000000  0.99992100  1
  Si  Si16  1  0.50000000  0.00000000  0.20169700  1
  Si  Si17  1  0.50000000  0.00000000  0.29830300  1
  Si  Si18  1  0.00000000  0.00000000  0.45169700  1
  Si  Si19  1  0.50000000  0.50000000  0.04830300  1
  Si  Si20  1  0.50000000  0.00000000  0.13925300  1
  Si  Si21  1  0.00000000  0.00000000  0.38925300  1
  Si  Si22  1  0.50000000  0.50000000  0.11074700  1
  Si  Si23  1  0.50000000  0.00000000  0.36074700  1
  Si  Si24  1  0.00000000  0.50000000  0.70169700  1
  Si  Si25  1  0.00000000  0.50000000  0.79830300  1
  Si  Si26  1  0.50000000  0.50000000  0.95169700  1
  Si  Si27  1  0.00000000  0.00000000  0.54830300  1
  Si  Si28  1  0.00000000  0.50000000  0.63925300  1
  Si  Si29  1  0.50000000  0.50000000  0.88925300  1
  Si  Si30  1  0.00000000  0.00000000  0.61074700  1
  Si  Si31  1  0.00000000  0.50000000  0.86074700  1
