# generated using pymatgen
data_LiCr(PO3)4
_symmetry_space_group_name_H-M   'P 1'
_cell_length_a   9.44433200
_cell_length_b   14.04847400
_cell_length_c   7.69549923
_cell_angle_alpha   90.00000000
_cell_angle_beta   104.14967993
_cell_angle_gamma   90.00000000
_symmetry_Int_Tables_number   1
_chemical_formula_structural   LiCr(PO3)4
_chemical_formula_sum   'Li4 Cr4 P16 O48'
_cell_volume   990.04939917
_cell_formula_units_Z   4
loop_
 _symmetry_equiv_pos_site_id
 _symmetry_equiv_pos_as_xyz
  1  'x, y, z'
loop_
 _atom_site_type_symbol
 _atom_site_label
 _atom_site_symmetry_multiplicity
 _atom_site_fract_x
 _atom_site_fract_y
 _atom_site_fract_z
 _atom_site_occupancy
  Li  Li0  1  0.66767150  0.15340150  0.22831400  1
  Li  Li1  1  0.66767150  0.84659850  0.72831400  1
  Li  Li2  1  0.16767150  0.65340150  0.22831400  1
  Li  Li3  1  0.16767150  0.34659850  0.72831400  1
  Cr  Cr4  1  0.50239100  0.62823100  0.26265900  1
  Cr  Cr5  1  0.50239100  0.37176900  0.76265900  1
  Cr  Cr6  1  0.00239100  0.12823100  0.26265900  1
  Cr  Cr7  1  0.00239100  0.87176900  0.76265900  1
  P  P8  1  0.41020650  0.83162450  0.35007100  1
  P  P9  1  0.59270650  0.82484650  0.10811400  1
  P  P10  1  0.12295500  0.07926400  0.68437300  1
  P  P11  1  0.41020650  0.16837550  0.85007100  1
  P  P12  1  0.59270650  0.17515350  0.60811400  1
  P  P13  1  0.86604600  0.92333200  0.34277700  1
  P  P14  1  0.86604600  0.07666800  0.84277700  1
  P  P15  1  0.12295500  0.92073600  0.18437300  1
  P  P16  1  0.91020650  0.33162450  0.35007100  1
  P  P17  1  0.09270650  0.32484650  0.10811400  1
  P  P18  1  0.62295500  0.57926400  0.68437300  1
  P  P19  1  0.91020650  0.66837550  0.85007100  1
  P  P20  1  0.09270650  0.67515350  0.60811400  1
  P  P21  1  0.36604600  0.42333200  0.34277700  1
  P  P22  1  0.36604600  0.57666800  0.84277700  1
  P  P23  1  0.62295500  0.42073600  0.18437300  1
  O  O24  1  0.51860600  0.85786900  0.51572400  1
  O  O25  1  0.62632300  0.63067600  0.51391700  1
  O  O26  1  0.49269750  0.37803250  0.26215200  1
  O  O27  1  0.36535650  0.27342250  0.81696600  1
  O  O28  1  0.62632300  0.36932400  0.01391700  1
  O  O29  1  0.26200700  0.11008900  0.83752800  1
  O  O30  1  0.62694300  0.27160700  0.69839400  1
  O  O31  1  0.11735750  0.02787950  0.18168500  1
  O  O32  1  0.11735750  0.97212050  0.68168500  1
  O  O33  1  0.45686850  0.12977750  0.67336700  1
  O  O34  1  0.51860600  0.14213100  0.01572400  1
  O  O35  1  0.56855350  0.16458550  0.41254900  1
  O  O36  1  0.72236900  0.10192200  0.69862800  1
  O  O37  1  0.26200700  0.88991100  0.33752800  1
  O  O38  1  0.62694300  0.72839300  0.19839400  1
  O  O39  1  0.45686850  0.87022250  0.17336700  1
  O  O40  1  0.86643300  0.12576500  0.01705700  1
  O  O41  1  0.87582550  0.03126550  0.34338600  1
  O  O42  1  0.56855350  0.83541450  0.91254900  1
  O  O43  1  0.87582550  0.96873450  0.84338600  1
  O  O44  1  0.36535650  0.72657750  0.31696600  1
  O  O45  1  0.72236900  0.89807800  0.19862800  1
  O  O46  1  0.86643300  0.87423500  0.51705700  1
  O  O47  1  0.49269750  0.62196750  0.76215200  1
  O  O48  1  0.01860600  0.35786900  0.51572400  1
  O  O49  1  0.12632300  0.13067600  0.51391700  1
  O  O50  1  0.99269750  0.87803250  0.26215200  1
  O  O51  1  0.86535650  0.77342250  0.81696600  1
  O  O52  1  0.12632300  0.86932400  0.01391700  1
  O  O53  1  0.76200700  0.61008900  0.83752800  1
  O  O54  1  0.12694300  0.77160700  0.69839400  1
  O  O55  1  0.61735750  0.52787950  0.18168500  1
  O  O56  1  0.61735750  0.47212050  0.68168500  1
  O  O57  1  0.95686850  0.62977750  0.67336700  1
  O  O58  1  0.01860600  0.64213100  0.01572400  1
  O  O59  1  0.06855350  0.66458550  0.41254900  1
  O  O60  1  0.22236900  0.60192200  0.69862800  1
  O  O61  1  0.76200700  0.38991100  0.33752800  1
  O  O62  1  0.12694300  0.22839300  0.19839400  1
  O  O63  1  0.95686850  0.37022250  0.17336700  1
  O  O64  1  0.36643300  0.62576500  0.01705700  1
  O  O65  1  0.37582550  0.53126550  0.34338600  1
  O  O66  1  0.06855350  0.33541450  0.91254900  1
  O  O67  1  0.37582550  0.46873450  0.84338600  1
  O  O68  1  0.86535650  0.22657750  0.31696600  1
  O  O69  1  0.22236900  0.39807800  0.19862800  1
  O  O70  1  0.36643300  0.37423500  0.51705700  1
  O  O71  1  0.99269750  0.12196750  0.76215200  1
