# generated using pymatgen
data_Co5(P3O11)2
_symmetry_space_group_name_H-M   'P 1'
_cell_length_a   10.39718319
_cell_length_b   6.65219062
_cell_length_c   12.63959858
_cell_angle_alpha   90.00000000
_cell_angle_beta   104.64146671
_cell_angle_gamma   90.00000000
_symmetry_Int_Tables_number   1
_chemical_formula_structural   Co5(P3O11)2
_chemical_formula_sum   'Co10 P12 O44'
_cell_volume   845.81722615
_cell_formula_units_Z   2
loop_
 _symmetry_equiv_pos_site_id
 _symmetry_equiv_pos_as_xyz
  1  'x, y, z'
loop_
 _atom_site_type_symbol
 _atom_site_label
 _atom_site_symmetry_multiplicity
 _atom_site_fract_x
 _atom_site_fract_y
 _atom_site_fract_z
 _atom_site_occupancy
  Co  Co0  1  0.29189548  0.74008124  0.63817656  1
  Co  Co1  1  0.79189548  0.75991876  0.63817656  1
  Co  Co2  1  0.29920670  0.00235024  0.83360322  1
  Co  Co3  1  0.79920670  0.49764976  0.83360322  1
  Co  Co4  1  0.20079330  0.50235024  0.16639678  1
  Co  Co5  1  0.70079330  0.99764976  0.16639678  1
  Co  Co6  1  0.20810452  0.24008124  0.36182344  1
  Co  Co7  1  0.50000000  0.00000000  0.50000000  1
  Co  Co8  1  0.70810452  0.25991876  0.36182344  1
  Co  Co9  1  0.00000000  0.50000000  0.50000000  1
  P  P10  1  0.92440889  0.38116932  0.24417480  1
  P  P11  1  0.42440889  0.11883068  0.24417480  1
  P  P12  1  0.90429883  0.69223725  0.08266357  1
  P  P13  1  0.59570117  0.19223725  0.91733643  1
  P  P14  1  0.40429883  0.80776275  0.08266357  1
  P  P15  1  0.22121730  0.76205898  0.41388699  1
  P  P16  1  0.09570117  0.30776275  0.91733643  1
  P  P17  1  0.57559111  0.88116932  0.75582520  1
  P  P18  1  0.07559111  0.61883068  0.75582520  1
  P  P19  1  0.77878270  0.23794102  0.58611301  1
  P  P20  1  0.72121730  0.73794102  0.41388699  1
  P  P21  1  0.27878270  0.26205898  0.58611301  1
  O  O22  1  0.32946954  0.45465481  0.64796082  1
  O  O23  1  0.35907595  0.79688533  0.50239286  1
  O  O24  1  0.13716285  0.71018709  0.49928851  1
  O  O25  1  0.85907595  0.70311467  0.50239286  1
  O  O26  1  0.63716285  0.78981291  0.49928851  1
  O  O27  1  0.27117055  0.08360036  0.66098178  1
  O  O28  1  0.05524582  0.47258964  0.66050514  1
  O  O29  1  0.44224635  0.80209825  0.77189456  1
  O  O30  1  0.82946954  0.04534519  0.64796082  1
  O  O31  1  0.77117055  0.41639964  0.66098178  1
  O  O32  1  0.64092405  0.20311467  0.49760714  1
  O  O33  1  0.86283715  0.28981291  0.50071149  1
  O  O34  1  0.14092405  0.29688533  0.49760714  1
  O  O35  1  0.36283715  0.21018709  0.50071149  1
  O  O36  1  0.67053046  0.54534519  0.35203918  1
  O  O37  1  0.72882945  0.91639964  0.33901822  1
  O  O38  1  0.94475418  0.52741036  0.33949486  1
  O  O39  1  0.55775365  0.19790175  0.22810544  1
  O  O40  1  0.17053046  0.95465481  0.35203918  1
  O  O41  1  0.22882945  0.58360036  0.33901822  1
  O  O42  1  0.82547171  0.21470003  0.25554903  1
  O  O43  1  0.44475418  0.97258964  0.33949486  1
  O  O44  1  0.05775365  0.30209825  0.22810544  1
  O  O45  1  0.55675665  0.80932286  0.12176424  1
  O  O46  1  0.32547171  0.28529997  0.25554903  1
  O  O47  1  0.84649220  0.87314225  0.13066904  1
  O  O48  1  0.85206571  0.49423310  0.13370596  1
  O  O49  1  0.17452829  0.78529997  0.74445097  1
  O  O50  1  0.05675665  0.69067714  0.12176424  1
  O  O51  1  0.34649220  0.62685775  0.13066904  1
  O  O52  1  0.35206571  0.00576690  0.13370596  1
  O  O53  1  0.15042693  0.32298932  0.03993786  1
  O  O54  1  0.84957307  0.67701068  0.96006214  1
  O  O55  1  0.64793429  0.99423310  0.86629404  1
  O  O56  1  0.65350780  0.37314225  0.86933096  1
  O  O57  1  0.94324335  0.30932286  0.87823576  1
  O  O58  1  0.34957307  0.82298932  0.96006214  1
  O  O59  1  0.14793429  0.50576690  0.86629404  1
  O  O60  1  0.15350780  0.12685775  0.86933096  1
  O  O61  1  0.67452829  0.71470003  0.74445097  1
  O  O62  1  0.44324335  0.19067714  0.87823576  1
  O  O63  1  0.94224635  0.69790175  0.77189456  1
  O  O64  1  0.55524582  0.02741036  0.66050514  1
  O  O65  1  0.65042693  0.17701068  0.03993786  1
