# generated using pymatgen
data_Tb6Br7
_symmetry_space_group_name_H-M   'P 1'
_cell_length_a   21.31246000
_cell_length_b   3.80911000
_cell_length_c   11.74786553
_cell_angle_alpha   90.00000000
_cell_angle_beta   122.89641960
_cell_angle_gamma   90.00000000
_symmetry_Int_Tables_number   1
_chemical_formula_structural   Tb6Br7
_chemical_formula_sum   'Tb12 Br14'
_cell_volume   800.78572590
_cell_formula_units_Z   2
loop_
 _symmetry_equiv_pos_site_id
 _symmetry_equiv_pos_as_xyz
  1  'x, y, z'
loop_
 _atom_site_type_symbol
 _atom_site_label
 _atom_site_symmetry_multiplicity
 _atom_site_fract_x
 _atom_site_fract_y
 _atom_site_fract_z
 _atom_site_occupancy
  Tb  Tb0  1  0.12777300  0.00000000  0.55784000  1
  Tb  Tb1  1  0.87222700  0.00000000  0.44216000  1
  Tb  Tb2  1  0.31793100  0.00000000  0.63695100  1
  Tb  Tb3  1  0.68206900  0.00000000  0.36304900  1
  Tb  Tb4  1  0.27191400  0.50000000  0.84152200  1
  Tb  Tb5  1  0.72808600  0.50000000  0.15847800  1
  Tb  Tb6  1  0.62777300  0.50000000  0.55784000  1
  Tb  Tb7  1  0.37222700  0.50000000  0.44216000  1
  Tb  Tb8  1  0.81793100  0.50000000  0.63695100  1
  Tb  Tb9  1  0.18206900  0.50000000  0.36304900  1
  Tb  Tb10  1  0.77191400  0.00000000  0.84152200  1
  Tb  Tb11  1  0.22808600  0.00000000  0.15847800  1
  Br  Br12  1  0.00000000  0.50000000  0.50000000  1
  Br  Br13  1  0.05337800  0.00000000  0.27315200  1
  Br  Br14  1  0.94662200  0.00000000  0.72684800  1
  Br  Br15  1  0.16665400  0.00000000  0.84490700  1
  Br  Br16  1  0.83334600  0.00000000  0.15509300  1
  Br  Br17  1  0.39188800  0.00000000  0.93902900  1
  Br  Br18  1  0.60811200  0.00000000  0.06097100  1
  Br  Br19  1  0.50000000  0.00000000  0.50000000  1
  Br  Br20  1  0.55337800  0.50000000  0.27315200  1
  Br  Br21  1  0.44662200  0.50000000  0.72684800  1
  Br  Br22  1  0.66665400  0.50000000  0.84490700  1
  Br  Br23  1  0.33334600  0.50000000  0.15509300  1
  Br  Br24  1  0.89188800  0.50000000  0.93902900  1
  Br  Br25  1  0.10811200  0.50000000  0.06097100  1
