# generated using pymatgen
data_Sc5NCl8
_symmetry_space_group_name_H-M   'P 1'
_cell_length_a   18.12571200
_cell_length_b   3.51803800
_cell_length_c   12.13407126
_cell_angle_alpha   90.00000000
_cell_angle_beta   129.79680594
_cell_angle_gamma   90.00000000
_symmetry_Int_Tables_number   1
_chemical_formula_structural   Sc5NCl8
_chemical_formula_sum   'Sc10 N2 Cl16'
_cell_volume   594.48901241
_cell_formula_units_Z   2
loop_
 _symmetry_equiv_pos_site_id
 _symmetry_equiv_pos_as_xyz
  1  'x, y, z'
loop_
 _atom_site_type_symbol
 _atom_site_label
 _atom_site_symmetry_multiplicity
 _atom_site_fract_x
 _atom_site_fract_y
 _atom_site_fract_z
 _atom_site_occupancy
  Sc  Sc0  1  0.84517700  0.00000000  0.33309700  1
  Sc  Sc1  1  0.15482300  0.00000000  0.66690300  1
  Sc  Sc2  1  0.98868000  0.50000000  0.61085700  1
  Sc  Sc3  1  0.01132000  0.50000000  0.38914300  1
  Sc  Sc4  1  0.00000000  0.00000000  0.00000000  1
  Sc  Sc5  1  0.34517700  0.50000000  0.33309700  1
  Sc  Sc6  1  0.65482300  0.50000000  0.66690300  1
  Sc  Sc7  1  0.48868000  0.00000000  0.61085700  1
  Sc  Sc8  1  0.51132000  0.00000000  0.38914300  1
  Sc  Sc9  1  0.50000000  0.50000000  0.00000000  1
  N  N10  1  0.00000000  0.00000000  0.50000000  1
  N  N11  1  0.50000000  0.50000000  0.50000000  1
  Cl  Cl12  1  0.02814300  0.00000000  0.23705100  1
  Cl  Cl13  1  0.97185700  0.00000000  0.76294900  1
  Cl  Cl14  1  0.83135800  0.50000000  0.16906000  1
  Cl  Cl15  1  0.16864200  0.50000000  0.83094000  1
  Cl  Cl16  1  0.19640900  0.50000000  0.56315000  1
  Cl  Cl17  1  0.80359100  0.50000000  0.43685000  1
  Cl  Cl18  1  0.36985700  0.00000000  0.89714800  1
  Cl  Cl19  1  0.63014300  0.00000000  0.10285200  1
  Cl  Cl20  1  0.52814300  0.50000000  0.23705100  1
  Cl  Cl21  1  0.47185700  0.50000000  0.76294900  1
  Cl  Cl22  1  0.33135800  0.00000000  0.16906000  1
  Cl  Cl23  1  0.66864200  0.00000000  0.83094000  1
  Cl  Cl24  1  0.69640900  0.00000000  0.56315000  1
  Cl  Cl25  1  0.30359100  0.00000000  0.43685000  1
  Cl  Cl26  1  0.86985700  0.50000000  0.89714800  1
  Cl  Cl27  1  0.13014300  0.50000000  0.10285200  1
