# generated using pymatgen
data_Nb(NiP4)4
_symmetry_space_group_name_H-M   'P 1'
_cell_length_a   19.76691600
_cell_length_b   5.72517000
_cell_length_c   11.22665851
_cell_angle_alpha   90.00000000
_cell_angle_beta   100.66151241
_cell_angle_gamma   90.00000000
_symmetry_Int_Tables_number   1
_chemical_formula_structural   Nb(NiP4)4
_chemical_formula_sum   'Nb4 Ni16 P64'
_cell_volume   1248.57677840
_cell_formula_units_Z   4
loop_
 _symmetry_equiv_pos_site_id
 _symmetry_equiv_pos_as_xyz
  1  'x, y, z'
loop_
 _atom_site_type_symbol
 _atom_site_label
 _atom_site_symmetry_multiplicity
 _atom_site_fract_x
 _atom_site_fract_y
 _atom_site_fract_z
 _atom_site_occupancy
  Nb  Nb0  1  0.00000000  0.60590300  0.25000000  1
  Nb  Nb1  1  0.00000000  0.39409700  0.75000000  1
  Nb  Nb2  1  0.50000000  0.10590300  0.25000000  1
  Nb  Nb3  1  0.50000000  0.89409700  0.75000000  1
  Ni  Ni4  1  0.75069200  0.55502900  0.37086600  1
  Ni  Ni5  1  0.74930800  0.05502900  0.12913400  1
  Ni  Ni6  1  0.74930800  0.94497100  0.62913400  1
  Ni  Ni7  1  0.75069200  0.44497100  0.87086600  1
  Ni  Ni8  1  0.89270800  0.90520400  0.92647200  1
  Ni  Ni9  1  0.60729200  0.40520400  0.57352800  1
  Ni  Ni10  1  0.60729200  0.59479600  0.07352800  1
  Ni  Ni11  1  0.89270800  0.09479600  0.42647200  1
  Ni  Ni12  1  0.25069200  0.05502900  0.37086600  1
  Ni  Ni13  1  0.24930800  0.55502900  0.12913400  1
  Ni  Ni14  1  0.24930800  0.44497100  0.62913400  1
  Ni  Ni15  1  0.25069200  0.94497100  0.87086600  1
  Ni  Ni16  1  0.39270800  0.40520400  0.92647200  1
  Ni  Ni17  1  0.10729200  0.90520400  0.57352800  1
  Ni  Ni18  1  0.10729200  0.09479600  0.07352800  1
  Ni  Ni19  1  0.39270800  0.59479600  0.42647200  1
  P  P20  1  0.99603200  0.25644800  0.39507300  1
  P  P21  1  0.50396800  0.75644800  0.10492700  1
  P  P22  1  0.50396800  0.24355200  0.60492700  1
  P  P23  1  0.99603200  0.74355200  0.89507300  1
  P  P24  1  0.62325300  0.99737600  0.33904200  1
  P  P25  1  0.87674700  0.49737600  0.16095800  1
  P  P26  1  0.87674700  0.50262400  0.66095800  1
  P  P27  1  0.62325300  0.00262400  0.83904200  1
  P  P28  1  0.64192650  0.63006650  0.28056300  1
  P  P29  1  0.85807350  0.13006650  0.21943700  1
  P  P30  1  0.93694550  0.04885950  0.63126700  1
  P  P31  1  0.56305450  0.54885950  0.86873300  1
  P  P32  1  0.56305450  0.45114050  0.36873300  1
  P  P33  1  0.93694550  0.95114050  0.13126700  1
  P  P34  1  0.93653500  0.27783300  0.92059100  1
  P  P35  1  0.56346500  0.77783300  0.57940900  1
  P  P36  1  0.56346500  0.22216700  0.07940900  1
  P  P37  1  0.93653500  0.72216700  0.42059100  1
  P  P38  1  0.85798200  0.53699700  0.95836500  1
  P  P39  1  0.64201800  0.03699700  0.54163500  1
  P  P40  1  0.64201800  0.96300300  0.04163500  1
  P  P41  1  0.85798200  0.46300300  0.45836500  1
  P  P42  1  0.78745400  0.06605600  0.94658900  1
  P  P43  1  0.71254600  0.56605600  0.55341100  1
  P  P44  1  0.71254600  0.43394400  0.05341100  1
  P  P45  1  0.78745400  0.93394400  0.44658900  1
  P  P46  1  0.77736800  0.33660400  0.68681200  1
  P  P47  1  0.72263200  0.83660400  0.81318800  1
  P  P48  1  0.72263200  0.16339600  0.31318800  1
  P  P49  1  0.77736800  0.66339600  0.18681200  1
  P  P50  1  0.64192650  0.36993350  0.78056300  1
  P  P51  1  0.85807350  0.86993350  0.71943700  1
  P  P52  1  0.49603200  0.75644800  0.39507300  1
  P  P53  1  0.00396800  0.25644800  0.10492700  1
  P  P54  1  0.00396800  0.74355200  0.60492700  1
  P  P55  1  0.49603200  0.24355200  0.89507300  1
  P  P56  1  0.12325300  0.49737600  0.33904200  1
  P  P57  1  0.37674700  0.99737600  0.16095800  1
  P  P58  1  0.37674700  0.00262400  0.66095800  1
  P  P59  1  0.12325300  0.50262400  0.83904200  1
  P  P60  1  0.14192650  0.13006650  0.28056300  1
  P  P61  1  0.35807350  0.63006650  0.21943700  1
  P  P62  1  0.43694550  0.54885950  0.63126700  1
  P  P63  1  0.06305450  0.04885950  0.86873300  1
  P  P64  1  0.06305450  0.95114050  0.36873300  1
  P  P65  1  0.43694550  0.45114050  0.13126700  1
  P  P66  1  0.43653500  0.77783300  0.92059100  1
  P  P67  1  0.06346500  0.27783300  0.57940900  1
  P  P68  1  0.06346500  0.72216700  0.07940900  1
  P  P69  1  0.43653500  0.22216700  0.42059100  1
  P  P70  1  0.35798200  0.03699700  0.95836500  1
  P  P71  1  0.14201800  0.53699700  0.54163500  1
  P  P72  1  0.14201800  0.46300300  0.04163500  1
  P  P73  1  0.35798200  0.96300300  0.45836500  1
  P  P74  1  0.28745400  0.56605600  0.94658900  1
  P  P75  1  0.21254600  0.06605600  0.55341100  1
  P  P76  1  0.21254600  0.93394400  0.05341100  1
  P  P77  1  0.28745400  0.43394400  0.44658900  1
  P  P78  1  0.27736800  0.83660400  0.68681200  1
  P  P79  1  0.22263200  0.33660400  0.81318800  1
  P  P80  1  0.22263200  0.66339600  0.31318800  1
  P  P81  1  0.27736800  0.16339600  0.18681200  1
  P  P82  1  0.14192650  0.86993350  0.78056300  1
  P  P83  1  0.35807350  0.36993350  0.71943700  1
