# generated using pymatgen
data_LiV(PO4)2
_symmetry_space_group_name_H-M   'P 1'
_cell_length_a   5.06730200
_cell_length_b   7.47603100
_cell_length_c   7.67495884
_cell_angle_alpha   90.00000000
_cell_angle_beta   95.43755825
_cell_angle_gamma   90.00000000
_symmetry_Int_Tables_number   1
_chemical_formula_structural   LiV(PO4)2
_chemical_formula_sum   'Li2 V2 P4 O16'
_cell_volume   289.44445100
_cell_formula_units_Z   2
loop_
 _symmetry_equiv_pos_site_id
 _symmetry_equiv_pos_as_xyz
  1  'x, y, z'
loop_
 _atom_site_type_symbol
 _atom_site_label
 _atom_site_symmetry_multiplicity
 _atom_site_fract_x
 _atom_site_fract_y
 _atom_site_fract_z
 _atom_site_occupancy
  Li  Li0  1  0.65898000  0.87587600  0.16894600  1
  Li  Li1  1  0.34102000  0.37587600  0.83105400  1
  V  V2  1  0.25855200  0.98870900  0.74709100  1
  V  V3  1  0.74144800  0.48870900  0.25290900  1
  P  P4  1  0.71449400  0.81089200  0.54308800  1
  P  P5  1  0.28550600  0.31089200  0.45691200  1
  P  P6  1  0.19497200  0.68614500  0.04648000  1
  P  P7  1  0.80502800  0.18614500  0.95352000  1
  O  O8  1  0.96955200  0.86013800  0.67078800  1
  O  O9  1  0.48631100  0.81721400  0.66908600  1
  O  O10  1  0.33152700  0.44629600  0.59815500  1
  O  O11  1  0.24385200  0.11808200  0.52674400  1
  O  O12  1  0.75614800  0.61808200  0.47325600  1
  O  O13  1  0.66847300  0.94629600  0.40184500  1
  O  O14  1  0.03044800  0.36013800  0.32921200  1
  O  O15  1  0.51368900  0.31721400  0.33091400  1
  O  O16  1  0.96130200  0.69002600  0.16505500  1
  O  O17  1  0.45350200  0.63855000  0.17090500  1
  O  O18  1  0.85681700  0.05804200  0.09995900  1
  O  O19  1  0.73033700  0.37819200  0.02350000  1
  O  O20  1  0.26966300  0.87819200  0.97650000  1
  O  O21  1  0.14318300  0.55804200  0.90004100  1
  O  O22  1  0.03869800  0.19002600  0.83494500  1
  O  O23  1  0.54649800  0.13855000  0.82909500  1
