# generated using pymatgen
data_Tb3(CuSi)4
_symmetry_space_group_name_H-M   'P 1'
_cell_length_a   4.15883000
_cell_length_b   6.55806600
_cell_length_c   13.76835800
_cell_angle_alpha   90.00000000
_cell_angle_beta   90.00000000
_cell_angle_gamma   90.00000000
_symmetry_Int_Tables_number   1
_chemical_formula_structural   Tb3(CuSi)4
_chemical_formula_sum   'Tb6 Cu8 Si8'
_cell_volume   375.51656623
_cell_formula_units_Z   2
loop_
 _symmetry_equiv_pos_site_id
 _symmetry_equiv_pos_as_xyz
  1  'x, y, z'
loop_
 _atom_site_type_symbol
 _atom_site_label
 _atom_site_symmetry_multiplicity
 _atom_site_fract_x
 _atom_site_fract_y
 _atom_site_fract_z
 _atom_site_occupancy
  Tb  Tb0  1  0.00000000  0.00000000  0.87002600  1
  Tb  Tb1  1  0.50000000  0.50000000  0.62997400  1
  Tb  Tb2  1  0.00000000  0.50000000  0.00000000  1
  Tb  Tb3  1  0.50000000  0.50000000  0.37002600  1
  Tb  Tb4  1  0.00000000  0.00000000  0.12997400  1
  Tb  Tb5  1  0.50000000  0.00000000  0.50000000  1
  Cu  Cu6  1  0.50000000  0.69010700  0.83196900  1
  Cu  Cu7  1  0.00000000  0.19010700  0.66803100  1
  Cu  Cu8  1  0.50000000  0.30989300  0.83196900  1
  Cu  Cu9  1  0.00000000  0.80989300  0.66803100  1
  Cu  Cu10  1  0.00000000  0.19010700  0.33196900  1
  Cu  Cu11  1  0.50000000  0.69010700  0.16803100  1
  Cu  Cu12  1  0.00000000  0.80989300  0.33196900  1
  Cu  Cu13  1  0.50000000  0.30989300  0.16803100  1
  Si  Si14  1  0.50000000  0.81589700  0.00000000  1
  Si  Si15  1  0.50000000  0.18410300  0.00000000  1
  Si  Si16  1  0.00000000  0.50000000  0.78409100  1
  Si  Si17  1  0.50000000  0.00000000  0.71590900  1
  Si  Si18  1  0.00000000  0.31589700  0.50000000  1
  Si  Si19  1  0.00000000  0.68410300  0.50000000  1
  Si  Si20  1  0.50000000  0.00000000  0.28409100  1
  Si  Si21  1  0.00000000  0.50000000  0.21590900  1
