# generated using pymatgen
data_LiFe2P5O16
_symmetry_space_group_name_H-M   'P 1'
_cell_length_a   5.07744600
_cell_length_b   6.79328600
_cell_length_c   18.80484303
_cell_angle_alpha   90.00000000
_cell_angle_beta   90.01898500
_cell_angle_gamma   90.00000000
_symmetry_Int_Tables_number   1
_chemical_formula_structural   LiFe2P5O16
_chemical_formula_sum   'Li2 Fe4 P10 O32'
_cell_volume   648.62681805
_cell_formula_units_Z   2
loop_
 _symmetry_equiv_pos_site_id
 _symmetry_equiv_pos_as_xyz
  1  'x, y, z'
loop_
 _atom_site_type_symbol
 _atom_site_label
 _atom_site_symmetry_multiplicity
 _atom_site_fract_x
 _atom_site_fract_y
 _atom_site_fract_z
 _atom_site_occupancy
  Li  Li0  1  0.27190500  0.61921400  0.52795500  1
  Li  Li1  1  0.27190500  0.38078600  0.02795500  1
  Fe  Fe2  1  0.26507500  0.82237600  0.09271900  1
  Fe  Fe3  1  0.73385400  0.82575500  0.40673000  1
  Fe  Fe4  1  0.26507500  0.17762400  0.59271900  1
  Fe  Fe5  1  0.73385400  0.17424500  0.90673000  1
  P  P6  1  0.22496100  0.13062900  0.42246700  1
  P  P7  1  0.25571600  0.53503100  0.36963100  1
  P  P8  1  0.99244500  0.74122300  0.24954800  1
  P  P9  1  0.75021500  0.52355000  0.13066300  1
  P  P10  1  0.22496100  0.86937100  0.92246700  1
  P  P11  1  0.25571600  0.46496900  0.86963100  1
  P  P12  1  0.99244500  0.25877700  0.74954800  1
  P  P13  1  0.76982200  0.12358100  0.07973400  1
  P  P14  1  0.76982200  0.87641900  0.57973400  1
  P  P15  1  0.75021500  0.47645000  0.63066300  1
  O  O16  1  0.06178400  0.07222100  0.06917900  1
  O  O17  1  0.96612200  0.60151900  0.08312300  1
  O  O18  1  0.94383000  0.05506000  0.42975500  1
  O  O19  1  0.64364400  0.22257600  0.01431100  1
  O  O20  1  0.32593800  0.77137100  0.99066900  1
  O  O21  1  0.07207500  0.36802600  0.92289100  1
  O  O22  1  0.94383000  0.94494000  0.92975500  1
  O  O23  1  0.54500400  0.42758800  0.88260400  1
  O  O24  1  0.41258200  0.02089900  0.89088500  1
  O  O25  1  0.20726900  0.69543900  0.86331100  1
  O  O26  1  0.84390600  0.14078500  0.80341300  1
  O  O27  1  0.18674200  0.40982600  0.78876000  1
  O  O28  1  0.78537900  0.40416300  0.71119200  1
  O  O29  1  0.15110000  0.15152200  0.69435200  1
  O  O30  1  0.77881700  0.70817200  0.64203800  1
  O  O31  1  0.60308700  0.04105200  0.61115300  1
  O  O32  1  0.46734400  0.44112600  0.60830900  1
  O  O33  1  0.96612200  0.39848100  0.58312300  1
  O  O34  1  0.06178400  0.92777900  0.56917900  1
  O  O35  1  0.60308700  0.95894800  0.11115300  1
  O  O36  1  0.32593800  0.22862900  0.49066900  1
  O  O37  1  0.07207500  0.63197400  0.42289100  1
  O  O38  1  0.64364400  0.77742400  0.51431100  1
  O  O39  1  0.54500400  0.57241200  0.38260400  1
  O  O40  1  0.41258200  0.97910100  0.39088500  1
  O  O41  1  0.20726900  0.30456100  0.36331100  1
  O  O42  1  0.84390600  0.85921500  0.30341300  1
  O  O43  1  0.18674200  0.59017400  0.28876000  1
  O  O44  1  0.78537900  0.59583700  0.21119200  1
  O  O45  1  0.15110000  0.84847800  0.19435200  1
  O  O46  1  0.77881700  0.29182800  0.14203800  1
  O  O47  1  0.46734400  0.55887400  0.10830900  1
