# generated using pymatgen
data_LiMnP2O7
_symmetry_space_group_name_H-M   'P 1'
_cell_length_a   6.79088670
_cell_length_b   8.15274184
_cell_length_c   4.59204685
_cell_angle_alpha   90.00000000
_cell_angle_beta   107.28570769
_cell_angle_gamma   90.00000000
_symmetry_Int_Tables_number   1
_chemical_formula_structural   LiMnP2O7
_chemical_formula_sum   'Li2 Mn2 P4 O14'
_cell_volume   242.75310449
_cell_formula_units_Z   2
loop_
 _symmetry_equiv_pos_site_id
 _symmetry_equiv_pos_as_xyz
  1  'x, y, z'
loop_
 _atom_site_type_symbol
 _atom_site_label
 _atom_site_symmetry_multiplicity
 _atom_site_fract_x
 _atom_site_fract_y
 _atom_site_fract_z
 _atom_site_occupancy
  Li  Li0  1  0.50000000  0.74954050  0.50000000  1
  Li  Li1  1  0.00000000  0.24954050  0.50000000  1
  Mn  Mn2  1  0.50000000  0.37183625  0.50000000  1
  Mn  Mn3  1  0.00000000  0.87183625  0.50000000  1
  P  P4  1  0.69984775  0.03750425  0.90846400  1
  P  P5  1  0.30015225  0.03750425  0.09153600  1
  P  P6  1  0.19984775  0.53750425  0.90846400  1
  P  P7  1  0.80015225  0.53750425  0.09153600  1
  O  O8  1  0.50000000  0.97826075  0.00000000  1
  O  O9  1  0.26763500  0.90550750  0.30599500  1
  O  O10  1  0.73236500  0.90550750  0.69400500  1
  O  O11  1  0.87380575  0.05154725  0.21637900  1
  O  O12  1  0.12619425  0.05154725  0.78362100  1
  O  O13  1  0.66642400  0.20920350  0.76736950  1
  O  O14  1  0.33357600  0.20920350  0.23263050  1
  O  O15  1  0.00000000  0.47826075  0.00000000  1
  O  O16  1  0.76763500  0.40550750  0.30599500  1
  O  O17  1  0.23236500  0.40550750  0.69400500  1
  O  O18  1  0.37380575  0.55154725  0.21637900  1
  O  O19  1  0.62619425  0.55154725  0.78362100  1
  O  O20  1  0.16642400  0.70920350  0.76736950  1
  O  O21  1  0.83357600  0.70920350  0.23263050  1
