# generated using pymatgen
data_MnP2O7
_symmetry_space_group_name_H-M   'P 1'
_cell_length_a   6.50149200
_cell_length_b   7.76873200
_cell_length_c   4.45068267
_cell_angle_alpha   90.00000000
_cell_angle_beta   103.09925922
_cell_angle_gamma   90.00000000
_symmetry_Int_Tables_number   1
_chemical_formula_structural   MnP2O7
_chemical_formula_sum   'Mn2 P4 O14'
_cell_volume   218.94717711
_cell_formula_units_Z   2
loop_
 _symmetry_equiv_pos_site_id
 _symmetry_equiv_pos_as_xyz
  1  'x, y, z'
loop_
 _atom_site_type_symbol
 _atom_site_label
 _atom_site_symmetry_multiplicity
 _atom_site_fract_x
 _atom_site_fract_y
 _atom_site_fract_z
 _atom_site_occupancy
  Mn  Mn0  1  0.50000000  0.38824200  0.00000000  1
  Mn  Mn1  1  0.00000000  0.88824200  0.00000000  1
  P  P2  1  0.29668450  0.03515450  0.59135600  1
  P  P3  1  0.70331550  0.03515450  0.40864400  1
  P  P4  1  0.79668450  0.53515450  0.59135600  1
  P  P5  1  0.20331550  0.53515450  0.40864400  1
  O  O6  1  0.50000000  0.95108700  0.50000000  1
  O  O7  1  0.35384300  0.21146200  0.73292000  1
  O  O8  1  0.12953900  0.05827900  0.28467800  1
  O  O9  1  0.23821950  0.90184950  0.81344800  1
  O  O10  1  0.87046100  0.05827900  0.71532200  1
  O  O11  1  0.64615700  0.21146200  0.26708000  1
  O  O12  1  0.76178050  0.90184950  0.18655200  1
  O  O13  1  0.00000000  0.45108700  0.50000000  1
  O  O14  1  0.85384300  0.71146200  0.73292000  1
  O  O15  1  0.62953900  0.55827900  0.28467800  1
  O  O16  1  0.73821950  0.40184950  0.81344800  1
  O  O17  1  0.37046100  0.55827900  0.71532200  1
  O  O18  1  0.14615700  0.71146200  0.26708000  1
  O  O19  1  0.26178050  0.40184950  0.18655200  1
