# generated using pymatgen
data_LiCr(PO3)4
_symmetry_space_group_name_H-M   'P 1'
_cell_length_a   17.03558600
_cell_length_b   12.21537800
_cell_length_c   5.16811749
_cell_angle_alpha   90.00000000
_cell_angle_beta   100.07893329
_cell_angle_gamma   90.00000000
_symmetry_Int_Tables_number   1
_chemical_formula_structural   LiCr(PO3)4
_chemical_formula_sum   'Li4 Cr4 P16 O48'
_cell_volume   1058.86819368
_cell_formula_units_Z   4
loop_
 _symmetry_equiv_pos_site_id
 _symmetry_equiv_pos_as_xyz
  1  'x, y, z'
loop_
 _atom_site_type_symbol
 _atom_site_label
 _atom_site_symmetry_multiplicity
 _atom_site_fract_x
 _atom_site_fract_y
 _atom_site_fract_z
 _atom_site_occupancy
  Li  Li0  1  0.41738200  0.00000000  0.43584500  1
  Li  Li1  1  0.58261800  0.00000000  0.56415500  1
  Li  Li2  1  0.91738200  0.50000000  0.43584500  1
  Li  Li3  1  0.08261800  0.50000000  0.56415500  1
  Cr  Cr4  1  0.25000000  0.25000000  0.00000000  1
  Cr  Cr5  1  0.25000000  0.75000000  0.00000000  1
  Cr  Cr6  1  0.75000000  0.75000000  0.00000000  1
  Cr  Cr7  1  0.75000000  0.25000000  0.00000000  1
  P  P8  1  0.18233950  0.12167850  0.46694000  1
  P  P9  1  0.42245800  0.78932900  0.82543200  1
  P  P10  1  0.57754200  0.78932900  0.17456800  1
  P  P11  1  0.57754200  0.21067100  0.17456800  1
  P  P12  1  0.81766050  0.87832150  0.53306000  1
  P  P13  1  0.42245800  0.21067100  0.82543200  1
  P  P14  1  0.18233950  0.87832150  0.46694000  1
  P  P15  1  0.81766050  0.12167850  0.53306000  1
  P  P16  1  0.68233950  0.62167850  0.46694000  1
  P  P17  1  0.92245800  0.28932900  0.82543200  1
  P  P18  1  0.07754200  0.28932900  0.17456800  1
  P  P19  1  0.07754200  0.71067100  0.17456800  1
  P  P20  1  0.31766050  0.37832150  0.53306000  1
  P  P21  1  0.92245800  0.71067100  0.82543200  1
  P  P22  1  0.68233950  0.37832150  0.46694000  1
  P  P23  1  0.31766050  0.62167850  0.53306000  1
  O  O24  1  0.75472350  0.15209650  0.69390100  1
  O  O25  1  0.35943000  0.19608700  0.99616100  1
  O  O26  1  0.64057000  0.19608700  0.00383900  1
  O  O27  1  0.64057000  0.80391300  0.00383900  1
  O  O28  1  0.50000000  0.73426200  0.00000000  1
  O  O29  1  0.50000000  0.26573800  0.00000000  1
  O  O30  1  0.79409900  0.87165500  0.23927900  1
  O  O31  1  0.79409900  0.12834500  0.23927900  1
  O  O32  1  0.55526550  0.88533750  0.32107700  1
  O  O33  1  0.55526550  0.11466250  0.32107700  1
  O  O34  1  0.60158400  0.31261500  0.37381900  1
  O  O35  1  0.60158400  0.68738500  0.37381900  1
  O  O36  1  0.84937500  0.00000000  0.60667100  1
  O  O37  1  0.24527650  0.84790350  0.30609900  1
  O  O38  1  0.20590100  0.12834500  0.76072100  1
  O  O39  1  0.75472350  0.84790350  0.69390100  1
  O  O40  1  0.24527650  0.15209650  0.30609900  1
  O  O41  1  0.15062500  0.00000000  0.39332900  1
  O  O42  1  0.39841600  0.68738500  0.62618100  1
  O  O43  1  0.39841600  0.31261500  0.62618100  1
  O  O44  1  0.44473450  0.88533750  0.67892300  1
  O  O45  1  0.44473450  0.11466250  0.67892300  1
  O  O46  1  0.20590100  0.87165500  0.76072100  1
  O  O47  1  0.35943000  0.80391300  0.99616100  1
  O  O48  1  0.25472350  0.65209650  0.69390100  1
  O  O49  1  0.85943000  0.69608700  0.99616100  1
  O  O50  1  0.14057000  0.69608700  0.00383900  1
  O  O51  1  0.14057000  0.30391300  0.00383900  1
  O  O52  1  0.00000000  0.23426200  0.00000000  1
  O  O53  1  0.00000000  0.76573800  0.00000000  1
  O  O54  1  0.29409900  0.37165500  0.23927900  1
  O  O55  1  0.29409900  0.62834500  0.23927900  1
  O  O56  1  0.05526550  0.38533750  0.32107700  1
  O  O57  1  0.05526550  0.61466250  0.32107700  1
  O  O58  1  0.10158400  0.81261500  0.37381900  1
  O  O59  1  0.10158400  0.18738500  0.37381900  1
  O  O60  1  0.34937500  0.50000000  0.60667100  1
  O  O61  1  0.74527650  0.34790350  0.30609900  1
  O  O62  1  0.70590100  0.62834500  0.76072100  1
  O  O63  1  0.25472350  0.34790350  0.69390100  1
  O  O64  1  0.74527650  0.65209650  0.30609900  1
  O  O65  1  0.65062500  0.50000000  0.39332900  1
  O  O66  1  0.89841600  0.18738500  0.62618100  1
  O  O67  1  0.89841600  0.81261500  0.62618100  1
  O  O68  1  0.94473450  0.38533750  0.67892300  1
  O  O69  1  0.94473450  0.61466250  0.67892300  1
  O  O70  1  0.70590100  0.37165500  0.76072100  1
  O  O71  1  0.85943000  0.30391300  0.99616100  1
