# generated using pymatgen
data_Ho3Ge3Ru2
_symmetry_space_group_name_H-M   'P 1'
_cell_length_a   4.26263800
_cell_length_b   10.81906000
_cell_length_c   13.92064600
_cell_angle_alpha   90.00000000
_cell_angle_beta   90.00000000
_cell_angle_gamma   90.00000000
_symmetry_Int_Tables_number   1
_chemical_formula_structural   Ho3Ge3Ru2
_chemical_formula_sum   'Ho12 Ge12 Ru8'
_cell_volume   641.98868108
_cell_formula_units_Z   4
loop_
 _symmetry_equiv_pos_site_id
 _symmetry_equiv_pos_as_xyz
  1  'x, y, z'
loop_
 _atom_site_type_symbol
 _atom_site_label
 _atom_site_symmetry_multiplicity
 _atom_site_fract_x
 _atom_site_fract_y
 _atom_site_fract_z
 _atom_site_occupancy
  Ho  Ho0  1  0.00000000  0.14658000  0.75000000  1
  Ho  Ho1  1  0.50000000  0.35342000  0.25000000  1
  Ho  Ho2  1  0.50000000  0.07820200  0.38687700  1
  Ho  Ho3  1  0.00000000  0.42179800  0.61312300  1
  Ho  Ho4  1  0.00000000  0.42179800  0.88687700  1
  Ho  Ho5  1  0.50000000  0.07820200  0.11312300  1
  Ho  Ho6  1  0.50000000  0.64658000  0.75000000  1
  Ho  Ho7  1  0.00000000  0.85342000  0.25000000  1
  Ho  Ho8  1  0.00000000  0.57820200  0.38687700  1
  Ho  Ho9  1  0.50000000  0.92179800  0.61312300  1
  Ho  Ho10  1  0.50000000  0.92179800  0.88687700  1
  Ho  Ho11  1  0.00000000  0.57820200  0.11312300  1
  Ge  Ge12  1  0.50000000  0.33606700  0.75000000  1
  Ge  Ge13  1  0.00000000  0.16393300  0.25000000  1
  Ge  Ge14  1  0.50000000  0.38432600  0.04056200  1
  Ge  Ge15  1  0.00000000  0.11567400  0.95943800  1
  Ge  Ge16  1  0.00000000  0.11567400  0.54056200  1
  Ge  Ge17  1  0.50000000  0.38432600  0.45943800  1
  Ge  Ge18  1  0.00000000  0.83606700  0.75000000  1
  Ge  Ge19  1  0.50000000  0.66393300  0.25000000  1
  Ge  Ge20  1  0.00000000  0.88432600  0.04056200  1
  Ge  Ge21  1  0.50000000  0.61567400  0.95943800  1
  Ge  Ge22  1  0.50000000  0.61567400  0.54056200  1
  Ge  Ge23  1  0.00000000  0.88432600  0.45943800  1
  Ru  Ru24  1  0.00000000  0.28666800  0.08267100  1
  Ru  Ru25  1  0.50000000  0.21333200  0.91732900  1
  Ru  Ru26  1  0.50000000  0.21333200  0.58267100  1
  Ru  Ru27  1  0.00000000  0.28666800  0.41732900  1
  Ru  Ru28  1  0.50000000  0.78666800  0.08267100  1
  Ru  Ru29  1  0.00000000  0.71333200  0.91732900  1
  Ru  Ru30  1  0.00000000  0.71333200  0.58267100  1
  Ru  Ru31  1  0.50000000  0.78666800  0.41732900  1
