# generated using pymatgen
data_LiFe(PO3)4
_symmetry_space_group_name_H-M   'P 1'
_cell_length_a   15.46146400
_cell_length_b   7.37064400
_cell_length_c   9.71856720
_cell_angle_alpha   90.00000000
_cell_angle_beta   122.16585448
_cell_angle_gamma   90.00000000
_symmetry_Int_Tables_number   1
_chemical_formula_structural   LiFe(PO3)4
_chemical_formula_sum   'Li4 Fe4 P16 O48'
_cell_volume   937.54189492
_cell_formula_units_Z   4
loop_
 _symmetry_equiv_pos_site_id
 _symmetry_equiv_pos_as_xyz
  1  'x, y, z'
loop_
 _atom_site_type_symbol
 _atom_site_label
 _atom_site_symmetry_multiplicity
 _atom_site_fract_x
 _atom_site_fract_y
 _atom_site_fract_z
 _atom_site_occupancy
  Li  Li0  1  0.00000000  0.69663000  0.75000000  1
  Li  Li1  1  0.50000000  0.80337000  0.25000000  1
  Li  Li2  1  0.50000000  0.19663000  0.75000000  1
  Li  Li3  1  0.00000000  0.30337000  0.25000000  1
  Fe  Fe4  1  0.50000000  0.35799500  0.25000000  1
  Fe  Fe5  1  0.00000000  0.14200500  0.75000000  1
  Fe  Fe6  1  0.00000000  0.85799500  0.25000000  1
  Fe  Fe7  1  0.50000000  0.64200500  0.75000000  1
  P  P8  1  0.63182000  0.92096800  0.64004800  1
  P  P9  1  0.86818000  0.42096800  0.85995200  1
  P  P10  1  0.63533050  0.66912850  0.16129700  1
  P  P11  1  0.63182000  0.07903200  0.14004800  1
  P  P12  1  0.86818000  0.57903200  0.35995200  1
  P  P13  1  0.86466950  0.83087150  0.83870300  1
  P  P14  1  0.63533050  0.33087150  0.66129700  1
  P  P15  1  0.86466950  0.16912850  0.33870300  1
  P  P16  1  0.13182000  0.42096800  0.64004800  1
  P  P17  1  0.36818000  0.92096800  0.85995200  1
  P  P18  1  0.13533050  0.16912850  0.16129700  1
  P  P19  1  0.13182000  0.57903200  0.14004800  1
  P  P20  1  0.36818000  0.07903200  0.35995200  1
  P  P21  1  0.36466950  0.33087150  0.83870300  1
  P  P22  1  0.13533050  0.83087150  0.66129700  1
  P  P23  1  0.36466950  0.66912850  0.33870300  1
  O  O24  1  0.38996250  0.35457250  0.00964600  1
  O  O25  1  0.86291550  0.62211750  0.79005800  1
  O  O26  1  0.63708450  0.87788250  0.20994200  1
  O  O27  1  0.90297550  0.29924350  0.77336700  1
  O  O28  1  0.74861100  0.60913300  0.28898600  1
  O  O29  1  0.93271150  0.91910850  0.79045700  1
  O  O30  1  0.75138900  0.10913300  0.21101400  1
  O  O31  1  0.88996250  0.14542750  0.50964600  1
  O  O32  1  0.92162600  0.58422500  0.53911500  1
  O  O33  1  0.07837400  0.58422500  0.96088500  1
  O  O34  1  0.86291550  0.37788250  0.29005800  1
  O  O35  1  0.11003750  0.14542750  0.99035400  1
  O  O36  1  0.40297550  0.20075650  0.27336700  1
  O  O37  1  0.06728850  0.91910850  0.70954300  1
  O  O38  1  0.75138900  0.89086700  0.71101400  1
  O  O39  1  0.09702450  0.29924350  0.72663300  1
  O  O40  1  0.43271150  0.58089150  0.29045700  1
  O  O41  1  0.63708450  0.12211750  0.70994200  1
  O  O42  1  0.42162600  0.91577500  0.03911500  1
  O  O43  1  0.57837400  0.91577500  0.46088500  1
  O  O44  1  0.61003750  0.35457250  0.49035400  1
  O  O45  1  0.74861100  0.39086700  0.78898600  1
  O  O46  1  0.56728850  0.58089150  0.20954300  1
  O  O47  1  0.59702450  0.20075650  0.22663300  1
  O  O48  1  0.88996250  0.85457250  0.00964600  1
  O  O49  1  0.36291550  0.12211750  0.79005800  1
  O  O50  1  0.13708450  0.37788250  0.20994200  1
  O  O51  1  0.40297550  0.79924350  0.77336700  1
  O  O52  1  0.24861100  0.10913300  0.28898600  1
  O  O53  1  0.43271150  0.41910850  0.79045700  1
  O  O54  1  0.25138900  0.60913300  0.21101400  1
  O  O55  1  0.38996250  0.64542750  0.50964600  1
  O  O56  1  0.42162600  0.08422500  0.53911500  1
  O  O57  1  0.57837400  0.08422500  0.96088500  1
  O  O58  1  0.36291550  0.87788250  0.29005800  1
  O  O59  1  0.61003750  0.64542750  0.99035400  1
  O  O60  1  0.90297550  0.70075650  0.27336700  1
  O  O61  1  0.56728850  0.41910850  0.70954300  1
  O  O62  1  0.25138900  0.39086700  0.71101400  1
  O  O63  1  0.59702450  0.79924350  0.72663300  1
  O  O64  1  0.93271150  0.08089150  0.29045700  1
  O  O65  1  0.13708450  0.62211750  0.70994200  1
  O  O66  1  0.92162600  0.41577500  0.03911500  1
  O  O67  1  0.07837400  0.41577500  0.46088500  1
  O  O68  1  0.11003750  0.85457250  0.49035400  1
  O  O69  1  0.24861100  0.89086700  0.78898600  1
  O  O70  1  0.06728850  0.08089150  0.20954300  1
  O  O71  1  0.09702450  0.70075650  0.22663300  1
