# generated using pymatgen
data_LiCr2(PO3)5
_symmetry_space_group_name_H-M   'P 1'
_cell_length_a   5.43152200
_cell_length_b   8.78739900
_cell_length_c   13.50202754
_cell_angle_alpha   90.00000000
_cell_angle_beta   107.64645876
_cell_angle_gamma   90.00000000
_symmetry_Int_Tables_number   1
_chemical_formula_structural   LiCr2(PO3)5
_chemical_formula_sum   'Li2 Cr4 P10 O30'
_cell_volume   614.11371189
_cell_formula_units_Z   2
loop_
 _symmetry_equiv_pos_site_id
 _symmetry_equiv_pos_as_xyz
  1  'x, y, z'
loop_
 _atom_site_type_symbol
 _atom_site_label
 _atom_site_symmetry_multiplicity
 _atom_site_fract_x
 _atom_site_fract_y
 _atom_site_fract_z
 _atom_site_occupancy
  Li  Li0  1  0.82824100  0.00218900  0.43818000  1
  Li  Li1  1  0.82824100  0.99781100  0.93818000  1
  Cr  Cr2  1  0.10889300  0.29084200  0.95312900  1
  Cr  Cr3  1  0.90772400  0.29403300  0.55412000  1
  Cr  Cr4  1  0.10889300  0.70915800  0.45312900  1
  Cr  Cr5  1  0.90772400  0.70596700  0.05412000  1
  P  P6  1  0.70404800  0.82320500  0.59348700  1
  P  P7  1  0.54563000  0.51808400  0.64247800  1
  P  P8  1  0.00273200  0.05088900  0.75006900  1
  P  P9  1  0.46432400  0.51987200  0.86271900  1
  P  P10  1  0.70404800  0.17679500  0.09348700  1
  P  P11  1  0.54563000  0.48191600  0.14247800  1
  P  P12  1  0.00273200  0.94911100  0.25006900  1
  P  P13  1  0.30005100  0.82813400  0.90746100  1
  P  P14  1  0.30005100  0.17186600  0.40746100  1
  P  P15  1  0.46432400  0.48012800  0.36271900  1
  O  O16  1  0.08862900  0.83573400  0.95886600  1
  O  O17  1  0.72189300  0.54249900  0.94462800  1
  O  O18  1  0.28590200  0.54084200  0.56181100  1
  O  O19  1  0.57622300  0.86008600  0.96636100  1
  O  O20  1  0.43108100  0.14567900  0.03361800  1
  O  O21  1  0.90860600  0.16645700  0.03823700  1
  O  O22  1  0.28590200  0.45915800  0.06181100  1
  O  O23  1  0.74036300  0.34214700  0.14689600  1
  O  O24  1  0.69503300  0.62527300  0.14153000  1
  O  O25  1  0.07940200  0.85683500  0.17120100  1
  O  O26  1  0.77579200  0.06761100  0.19545700  1
  O  O27  1  0.50855400  0.46617200  0.25323700  1
  O  O28  1  0.23827400  0.06324000  0.30567500  1
  O  O29  1  0.92108600  0.87076000  0.33545900  1
  O  O30  1  0.31060900  0.62193700  0.36306100  1
  O  O31  1  0.27230900  0.33847800  0.35671800  1
  O  O32  1  0.72189300  0.45750100  0.44462800  1
  O  O33  1  0.57622300  0.13991400  0.46636100  1
  O  O34  1  0.31060900  0.37806300  0.86306100  1
  O  O35  1  0.90860600  0.83354300  0.53823700  1
  O  O36  1  0.43108100  0.85432100  0.53361800  1
  O  O37  1  0.08862900  0.16426600  0.45886600  1
  O  O38  1  0.74036300  0.65785300  0.64689600  1
  O  O39  1  0.69503300  0.37472700  0.64153000  1
  O  O40  1  0.07940200  0.14316500  0.67120100  1
  O  O41  1  0.77579200  0.93238900  0.69545700  1
  O  O42  1  0.50855400  0.53382800  0.75323700  1
  O  O43  1  0.23827400  0.93676000  0.80567500  1
  O  O44  1  0.92108600  0.12924000  0.83545900  1
  O  O45  1  0.27230900  0.66152200  0.85671800  1
