# generated using pymatgen
data_Ca(Sm2Se3)4
_symmetry_space_group_name_H-M   'P 1'
_cell_length_a   12.52230400
_cell_length_b   12.54312800
_cell_length_c   14.68060605
_cell_angle_alpha   90.00000000
_cell_angle_beta   115.21799205
_cell_angle_gamma   90.00000000
_symmetry_Int_Tables_number   1
_chemical_formula_structural   Ca(Sm2Se3)4
_chemical_formula_sum   'Ca4 Sm32 Se48'
_cell_volume   2086.10160796
_cell_formula_units_Z   4
loop_
 _symmetry_equiv_pos_site_id
 _symmetry_equiv_pos_as_xyz
  1  'x, y, z'
loop_
 _atom_site_type_symbol
 _atom_site_label
 _atom_site_symmetry_multiplicity
 _atom_site_fract_x
 _atom_site_fract_y
 _atom_site_fract_z
 _atom_site_occupancy
  Ca  Ca0  1  0.47909500  0.43750600  0.83335900  1
  Ca  Ca1  1  0.47909500  0.56249400  0.33335900  1
  Ca  Ca2  1  0.97909500  0.93750600  0.83335900  1
  Ca  Ca3  1  0.97909500  0.06249400  0.33335900  1
  Sm  Sm4  1  0.43794200  0.68650200  0.00069500  1
  Sm  Sm5  1  0.31229000  0.06287500  0.99873700  1
  Sm  Sm6  1  0.58397200  0.12588100  0.91727800  1
  Sm  Sm7  1  0.24932000  0.87639800  0.75002400  1
  Sm  Sm8  1  0.26942700  0.18671000  0.66660700  1
  Sm  Sm9  1  0.60551150  0.81068650  0.83329900  1
  Sm  Sm10  1  0.64645550  0.06159350  0.66721600  1
  Sm  Sm11  1  0.41709350  0.62459950  0.58364300  1
  Sm  Sm12  1  0.31229000  0.93712500  0.49873700  1
  Sm  Sm13  1  0.60551150  0.18931350  0.33329900  1
  Sm  Sm14  1  0.58397200  0.87411900  0.41727800  1
  Sm  Sm15  1  0.43794200  0.31349800  0.50069500  1
  Sm  Sm16  1  0.24932000  0.12360200  0.25002400  1
  Sm  Sm17  1  0.64645550  0.93840650  0.16721600  1
  Sm  Sm18  1  0.41709350  0.37540050  0.08364300  1
  Sm  Sm19  1  0.26942700  0.81329000  0.16660700  1
  Sm  Sm20  1  0.93794200  0.18650200  0.00069500  1
  Sm  Sm21  1  0.81229000  0.56287500  0.99873700  1
  Sm  Sm22  1  0.08397200  0.62588100  0.91727800  1
  Sm  Sm23  1  0.74932000  0.37639800  0.75002400  1
  Sm  Sm24  1  0.76942700  0.68671000  0.66660700  1
  Sm  Sm25  1  0.10551150  0.31068650  0.83329900  1
  Sm  Sm26  1  0.14645550  0.56159350  0.66721600  1
  Sm  Sm27  1  0.91709350  0.12459950  0.58364300  1
  Sm  Sm28  1  0.81229000  0.43712500  0.49873700  1
  Sm  Sm29  1  0.10551150  0.68931350  0.33329900  1
  Sm  Sm30  1  0.08397200  0.37411900  0.41727800  1
  Sm  Sm31  1  0.93794200  0.81349800  0.50069500  1
  Sm  Sm32  1  0.74932000  0.62360200  0.25002400  1
  Sm  Sm33  1  0.14645550  0.43840650  0.16721600  1
  Sm  Sm34  1  0.91709350  0.87540050  0.08364300  1
  Sm  Sm35  1  0.76942700  0.31329000  0.16660700  1
  Se  Se36  1  0.47585450  0.92575450  0.95044800  1
  Se  Se37  1  0.76271450  0.00120850  0.88243700  1
  Se  Se38  1  0.22803000  0.82225700  0.95149200  1
  Se  Se39  1  0.53424750  0.24780050  0.71461800  1
  Se  Se40  1  0.43203300  0.99937100  0.71649800  1
  Se  Se41  1  0.36700400  0.24990300  0.88369100  1
  Se  Se42  1  0.80785750  0.92560950  0.61632900  1
  Se  Se43  1  0.14213300  0.07478800  0.78378400  1
  Se  Se44  1  0.10035000  0.99985700  0.55054800  1
  Se  Se45  1  0.55803450  0.82491250  0.61706000  1
  Se  Se46  1  0.39047600  0.67873200  0.78324600  1
  Se  Se47  1  0.36700400  0.75009700  0.38369100  1
  Se  Se48  1  0.76271450  0.99879150  0.38243700  1
  Se  Se49  1  0.70015950  0.24940950  0.54899200  1
  Se  Se50  1  0.14213300  0.92521200  0.28378400  1
  Se  Se51  1  0.47585450  0.07424550  0.45044800  1
  Se  Se52  1  0.43203300  0.00062900  0.21649800  1
  Se  Se53  1  0.39047600  0.32126800  0.28324600  1
  Se  Se54  1  0.22803000  0.17774300  0.45149200  1
  Se  Se55  1  0.70015950  0.75059050  0.04899200  1
  Se  Se56  1  0.10035000  0.00014300  0.05054800  1
  Se  Se57  1  0.53424750  0.75219950  0.21461800  1
  Se  Se58  1  0.80785750  0.07439050  0.11632900  1
  Se  Se59  1  0.55803450  0.17508750  0.11706000  1
  Se  Se60  1  0.97585450  0.42575450  0.95044800  1
  Se  Se61  1  0.26271450  0.50120850  0.88243700  1
  Se  Se62  1  0.72803000  0.32225700  0.95149200  1
  Se  Se63  1  0.03424750  0.74780050  0.71461800  1
  Se  Se64  1  0.93203300  0.49937100  0.71649800  1
  Se  Se65  1  0.86700400  0.74990300  0.88369100  1
  Se  Se66  1  0.30785750  0.42560950  0.61632900  1
  Se  Se67  1  0.64213300  0.57478800  0.78378400  1
  Se  Se68  1  0.60035000  0.49985700  0.55054800  1
  Se  Se69  1  0.05803450  0.32491250  0.61706000  1
  Se  Se70  1  0.89047600  0.17873200  0.78324600  1
  Se  Se71  1  0.86700400  0.25009700  0.38369100  1
  Se  Se72  1  0.26271450  0.49879150  0.38243700  1
  Se  Se73  1  0.20015950  0.74940950  0.54899200  1
  Se  Se74  1  0.64213300  0.42521200  0.28378400  1
  Se  Se75  1  0.97585450  0.57424550  0.45044800  1
  Se  Se76  1  0.93203300  0.50062900  0.21649800  1
  Se  Se77  1  0.89047600  0.82126800  0.28324600  1
  Se  Se78  1  0.72803000  0.67774300  0.45149200  1
  Se  Se79  1  0.20015950  0.25059050  0.04899200  1
  Se  Se80  1  0.60035000  0.50014300  0.05054800  1
  Se  Se81  1  0.03424750  0.25219950  0.21461800  1
  Se  Se82  1  0.30785750  0.57439050  0.11632900  1
  Se  Se83  1  0.05803450  0.67508750  0.11706000  1
