# generated using pymatgen
data_Dy5Ru2
_symmetry_space_group_name_H-M   'P 1'
_cell_length_a   15.75871400
_cell_length_b   6.35778800
_cell_length_c   7.27546809
_cell_angle_alpha   90.00000000
_cell_angle_beta   97.32989735
_cell_angle_gamma   90.00000000
_symmetry_Int_Tables_number   1
_chemical_formula_structural   Dy5Ru2
_chemical_formula_sum   'Dy20 Ru8'
_cell_volume   722.97640339
_cell_formula_units_Z   4
loop_
 _symmetry_equiv_pos_site_id
 _symmetry_equiv_pos_as_xyz
  1  'x, y, z'
loop_
 _atom_site_type_symbol
 _atom_site_label
 _atom_site_symmetry_multiplicity
 _atom_site_fract_x
 _atom_site_fract_y
 _atom_site_fract_z
 _atom_site_occupancy
  Dy  Dy0  1  0.90690150  0.88639350  0.58523800  1
  Dy  Dy1  1  0.59309850  0.38639350  0.91476200  1
  Dy  Dy2  1  0.71706750  0.07670650  0.31412800  1
  Dy  Dy3  1  0.78293250  0.57670650  0.18587200  1
  Dy  Dy4  1  0.78293250  0.42329350  0.68587200  1
  Dy  Dy5  1  0.71706750  0.92329350  0.81412800  1
  Dy  Dy6  1  0.90690150  0.11360650  0.08523800  1
  Dy  Dy7  1  0.59309850  0.61360650  0.41476200  1
  Dy  Dy8  1  0.00000000  0.42076100  0.75000000  1
  Dy  Dy9  1  0.00000000  0.57923900  0.25000000  1
  Dy  Dy10  1  0.40690150  0.38639350  0.58523800  1
  Dy  Dy11  1  0.09309850  0.88639350  0.91476200  1
  Dy  Dy12  1  0.21706750  0.57670650  0.31412800  1
  Dy  Dy13  1  0.28293250  0.07670650  0.18587200  1
  Dy  Dy14  1  0.28293250  0.92329350  0.68587200  1
  Dy  Dy15  1  0.21706750  0.42329350  0.81412800  1
  Dy  Dy16  1  0.40690150  0.61360650  0.08523800  1
  Dy  Dy17  1  0.09309850  0.11360650  0.41476200  1
  Dy  Dy18  1  0.50000000  0.92076100  0.75000000  1
  Dy  Dy19  1  0.50000000  0.07923900  0.25000000  1
  Ru  Ru20  1  0.61080050  0.21395450  0.57602700  1
  Ru  Ru21  1  0.88919950  0.71395450  0.92397300  1
  Ru  Ru22  1  0.88919950  0.28604550  0.42397300  1
  Ru  Ru23  1  0.61080050  0.78604550  0.07602700  1
  Ru  Ru24  1  0.11080050  0.71395450  0.57602700  1
  Ru  Ru25  1  0.38919950  0.21395450  0.92397300  1
  Ru  Ru26  1  0.38919950  0.78604550  0.42397300  1
  Ru  Ru27  1  0.11080050  0.28604550  0.07602700  1
