# generated using pymatgen
data_Li2MnP2O7
_symmetry_space_group_name_H-M   'P 1'
_cell_length_a   5.13231700
_cell_length_b   13.87842400
_cell_length_c   9.33770755
_cell_angle_alpha   90.00000000
_cell_angle_beta   120.74099498
_cell_angle_gamma   90.00000000
_symmetry_Int_Tables_number   1
_chemical_formula_structural   Li2MnP2O7
_chemical_formula_sum   'Li8 Mn4 P8 O28'
_cell_volume   571.65378452
_cell_formula_units_Z   4
loop_
 _symmetry_equiv_pos_site_id
 _symmetry_equiv_pos_as_xyz
  1  'x, y, z'
loop_
 _atom_site_type_symbol
 _atom_site_label
 _atom_site_symmetry_multiplicity
 _atom_site_fract_x
 _atom_site_fract_y
 _atom_site_fract_z
 _atom_site_occupancy
  Li  Li0  1  0.95795800  0.09213500  0.13878800  1
  Li  Li1  1  0.42494900  0.69079600  0.16886800  1
  Li  Li2  1  0.57505100  0.19079600  0.33113200  1
  Li  Li3  1  0.04204200  0.59213500  0.36121200  1
  Li  Li4  1  0.95795800  0.40786500  0.63878800  1
  Li  Li5  1  0.42494900  0.80920400  0.66886800  1
  Li  Li6  1  0.57505100  0.30920400  0.83113200  1
  Li  Li7  1  0.04204200  0.90786500  0.86121200  1
  Mn  Mn8  1  0.01900700  0.83639000  0.22938900  1
  Mn  Mn9  1  0.98099300  0.33639000  0.27061100  1
  Mn  Mn10  1  0.01900700  0.66361000  0.72938900  1
  Mn  Mn11  1  0.98099300  0.16361000  0.77061100  1
  P  P12  1  0.72454400  0.67470900  0.96414100  1
  P  P13  1  0.48106100  0.02722200  0.77905200  1
  P  P14  1  0.51893900  0.52722200  0.72094800  1
  P  P15  1  0.27545600  0.17470900  0.53585900  1
  P  P16  1  0.27545600  0.32529100  0.03585900  1
  P  P17  1  0.51893900  0.97277800  0.22094800  1
  P  P18  1  0.48106100  0.47277800  0.27905200  1
  P  P19  1  0.72454400  0.82529100  0.46414100  1
  O  O20  1  0.42664300  0.70343700  0.95523300  1
  O  O21  1  0.69287500  0.56148700  0.91901900  1
  O  O22  1  0.73675300  0.10154200  0.87866800  1
  O  O23  1  0.77200000  0.72749200  0.83458800  1
  O  O24  1  0.57335700  0.29656300  0.04476700  1
  O  O25  1  0.30712500  0.43851300  0.08098100  1
  O  O26  1  0.26324700  0.89845800  0.12133200  1
  O  O27  1  0.22800000  0.27250800  0.16541200  1
  O  O28  1  0.00014900  0.68764300  0.14132800  1
  O  O29  1  0.77084600  0.96841500  0.17736200  1
  O  O30  1  0.39700600  0.07214400  0.21890500  1
  O  O31  1  0.60299400  0.57214400  0.28109500  1
  O  O32  1  0.22915400  0.46841500  0.32263800  1
  O  O33  1  0.77200000  0.77250800  0.33458800  1
  O  O34  1  0.99985100  0.18764300  0.35867200  1
  O  O35  1  0.73675300  0.39845800  0.37866800  1
  O  O36  1  0.69287500  0.93851300  0.41901900  1
  O  O37  1  0.42664300  0.79656300  0.45523300  1
  O  O38  1  0.57335700  0.20343700  0.54476700  1
  O  O39  1  0.30712500  0.06148700  0.58098100  1
  O  O40  1  0.26324700  0.60154200  0.62133200  1
  O  O41  1  0.00014900  0.81235700  0.64132800  1
  O  O42  1  0.22800000  0.22749200  0.66541200  1
  O  O43  1  0.77084600  0.53158500  0.67736200  1
  O  O44  1  0.39700600  0.42785600  0.71890500  1
  O  O45  1  0.60299400  0.92785600  0.78109500  1
  O  O46  1  0.22915400  0.03158500  0.82263800  1
  O  O47  1  0.99985100  0.31235700  0.85867200  1
