# generated using pymatgen
data_Ni(PO3)3
_symmetry_space_group_name_H-M   'P 1'
_cell_length_a   9.83247622
_cell_length_b   9.83247622
_cell_length_c   7.20019162
_cell_angle_alpha   90.00000000
_cell_angle_beta   90.00000000
_cell_angle_gamma   120.00000000
_symmetry_Int_Tables_number   1
_chemical_formula_structural   Ni(PO3)3
_chemical_formula_sum   'Ni3 P9 O27'
_cell_volume   602.83782746
_cell_formula_units_Z   3
loop_
 _symmetry_equiv_pos_site_id
 _symmetry_equiv_pos_as_xyz
  1  'x, y, z'
loop_
 _atom_site_type_symbol
 _atom_site_label
 _atom_site_symmetry_multiplicity
 _atom_site_fract_x
 _atom_site_fract_y
 _atom_site_fract_z
 _atom_site_occupancy
  Ni  Ni0  1  0.00000000  0.00000000  0.00057000  1
  Ni  Ni1  1  0.66666667  0.33333333  0.33390333  1
  Ni  Ni2  1  0.33333333  0.66666667  0.66723667  1
  P  P3  1  0.00873967  0.57410833  0.47481233  1
  P  P4  1  0.56536867  0.99126033  0.47481233  1
  P  P5  1  0.42589167  0.43463133  0.47481233  1
  P  P6  1  0.67540633  0.90744167  0.80814567  1
  P  P7  1  0.23203533  0.32459367  0.80814567  1
  P  P8  1  0.09255833  0.76796467  0.80814567  1
  P  P9  1  0.34207300  0.24077500  0.14147900  1
  P  P10  1  0.89870200  0.65792700  0.14147900  1
  P  P11  1  0.75922500  0.10129800  0.14147900  1
  O  O12  1  0.18469167  0.09370533  0.16110333  1
  O  O13  1  0.69533500  0.98454500  0.60658600  1
  O  O14  1  0.90629467  0.09098633  0.16110333  1
  O  O15  1  0.90901367  0.81530833  0.16110333  1
  O  O16  1  0.81350033  0.88488267  0.84619067  1
  O  O17  1  0.11511733  0.92861767  0.84619067  1
  O  O18  1  0.01545500  0.71079000  0.60658600  1
  O  O19  1  0.07138233  0.18649967  0.84619067  1
  O  O20  1  0.28921000  0.30466500  0.60658600  1
  O  O21  1  0.85135833  0.42703867  0.49443667  1
  O  O22  1  0.36200167  0.31787833  0.93991933  1
  O  O23  1  0.57296133  0.42431967  0.49443667  1
  O  O24  1  0.57568033  0.14864167  0.49443667  1
  O  O25  1  0.48016700  0.21821600  0.17952400  1
  O  O26  1  0.78178400  0.26195100  0.17952400  1
  O  O27  1  0.68212167  0.04412333  0.93991933  1
  O  O28  1  0.73804900  0.51983300  0.17952400  1
  O  O29  1  0.95587667  0.63799833  0.93991933  1
  O  O30  1  0.51802500  0.76037200  0.82777000  1
  O  O31  1  0.02866833  0.65121167  0.27325267  1
  O  O32  1  0.23962800  0.75765300  0.82777000  1
  O  O33  1  0.24234700  0.48197500  0.82777000  1
  O  O34  1  0.14683367  0.55154933  0.51285733  1
  O  O35  1  0.44845067  0.59528433  0.51285733  1
  O  O36  1  0.34878833  0.37745667  0.27325267  1
  O  O37  1  0.40471567  0.85316633  0.51285733  1
  O  O38  1  0.62254333  0.97133167  0.27325267  1
