# generated using pymatgen
data_LiUN2
_symmetry_space_group_name_H-M   'P 1'
_cell_length_a   4.36837800
_cell_length_b   4.36837800
_cell_length_c   11.10558400
_cell_angle_alpha   90.00000000
_cell_angle_beta   90.00000000
_cell_angle_gamma   90.00000000
_symmetry_Int_Tables_number   1
_chemical_formula_structural   LiUN2
_chemical_formula_sum   'Li4 U4 N8'
_cell_volume   211.92482044
_cell_formula_units_Z   4
loop_
 _symmetry_equiv_pos_site_id
 _symmetry_equiv_pos_as_xyz
  1  'x, y, z'
loop_
 _atom_site_type_symbol
 _atom_site_label
 _atom_site_symmetry_multiplicity
 _atom_site_fract_x
 _atom_site_fract_y
 _atom_site_fract_z
 _atom_site_occupancy
  Li  Li0  1  0.50000000  0.00000000  0.25000000  1
  Li  Li1  1  0.50000000  0.50000000  0.00000000  1
  Li  Li2  1  0.00000000  0.50000000  0.75000000  1
  Li  Li3  1  0.00000000  0.00000000  0.50000000  1
  U  U4  1  0.00000000  0.50000000  0.25000000  1
  U  U5  1  0.00000000  0.00000000  0.00000000  1
  U  U6  1  0.50000000  0.00000000  0.75000000  1
  U  U7  1  0.50000000  0.50000000  0.50000000  1
  N  N8  1  0.00000000  0.50000000  0.04053200  1
  N  N9  1  0.50000000  0.50000000  0.29053200  1
  N  N10  1  0.00000000  0.50000000  0.45946800  1
  N  N11  1  0.00000000  0.00000000  0.20946800  1
  N  N12  1  0.50000000  0.00000000  0.54053200  1
  N  N13  1  0.00000000  0.00000000  0.79053200  1
  N  N14  1  0.50000000  0.00000000  0.95946800  1
  N  N15  1  0.50000000  0.50000000  0.70946800  1
