# generated using pymatgen
data_Lu3Ge3Ir2
_symmetry_space_group_name_H-M   'P 1'
_cell_length_a   4.28432600
_cell_length_b   10.27947200
_cell_length_c   14.11160000
_cell_angle_alpha   90.00000000
_cell_angle_beta   90.00000000
_cell_angle_gamma   90.00000000
_symmetry_Int_Tables_number   1
_chemical_formula_structural   Lu3Ge3Ir2
_chemical_formula_sum   'Lu12 Ge12 Ir8'
_cell_volume   621.48346016
_cell_formula_units_Z   4
loop_
 _symmetry_equiv_pos_site_id
 _symmetry_equiv_pos_as_xyz
  1  'x, y, z'
loop_
 _atom_site_type_symbol
 _atom_site_label
 _atom_site_symmetry_multiplicity
 _atom_site_fract_x
 _atom_site_fract_y
 _atom_site_fract_z
 _atom_site_occupancy
  Lu  Lu0  1  0.50000000  0.08427700  0.88970900  1
  Lu  Lu1  1  0.50000000  0.08427700  0.61029100  1
  Lu  Lu2  1  0.00000000  0.14314000  0.25000000  1
  Lu  Lu3  1  0.50000000  0.35686000  0.75000000  1
  Lu  Lu4  1  0.00000000  0.41572300  0.11029100  1
  Lu  Lu5  1  0.00000000  0.41572300  0.38970900  1
  Lu  Lu6  1  0.00000000  0.58427700  0.88970900  1
  Lu  Lu7  1  0.00000000  0.58427700  0.61029100  1
  Lu  Lu8  1  0.50000000  0.64314000  0.25000000  1
  Lu  Lu9  1  0.00000000  0.85686000  0.75000000  1
  Lu  Lu10  1  0.50000000  0.91572300  0.11029100  1
  Lu  Lu11  1  0.50000000  0.91572300  0.38970900  1
  Ge  Ge12  1  0.00000000  0.12166700  0.03514800  1
  Ge  Ge13  1  0.00000000  0.12166700  0.46485200  1
  Ge  Ge14  1  0.00000000  0.15190200  0.75000000  1
  Ge  Ge15  1  0.50000000  0.37833300  0.53514800  1
  Ge  Ge16  1  0.50000000  0.37833300  0.96485200  1
  Ge  Ge17  1  0.50000000  0.34809800  0.25000000  1
  Ge  Ge18  1  0.50000000  0.62166700  0.03514800  1
  Ge  Ge19  1  0.50000000  0.62166700  0.46485200  1
  Ge  Ge20  1  0.50000000  0.65190200  0.75000000  1
  Ge  Ge21  1  0.00000000  0.87833300  0.53514800  1
  Ge  Ge22  1  0.00000000  0.87833300  0.96485200  1
  Ge  Ge23  1  0.00000000  0.84809800  0.25000000  1
  Ir  Ir24  1  0.50000000  0.20024600  0.10321400  1
  Ir  Ir25  1  0.00000000  0.29975400  0.60321400  1
  Ir  Ir26  1  0.50000000  0.20024600  0.39678600  1
  Ir  Ir27  1  0.00000000  0.29975400  0.89678600  1
  Ir  Ir28  1  0.00000000  0.70024600  0.10321400  1
  Ir  Ir29  1  0.50000000  0.79975400  0.60321400  1
  Ir  Ir30  1  0.00000000  0.70024600  0.39678600  1
  Ir  Ir31  1  0.50000000  0.79975400  0.89678600  1
