# generated using pymatgen
data_La5SmS8
_symmetry_space_group_name_H-M   'P 1'
_cell_length_a   8.69977400
_cell_length_b   8.69977400
_cell_length_c   8.70383000
_cell_angle_alpha   90.00000000
_cell_angle_beta   90.00000000
_cell_angle_gamma   90.00000000
_symmetry_Int_Tables_number   1
_chemical_formula_structural   La5SmS8
_chemical_formula_sum   'La10 Sm2 S16'
_cell_volume   658.75866620
_cell_formula_units_Z   2
loop_
 _symmetry_equiv_pos_site_id
 _symmetry_equiv_pos_as_xyz
  1  'x, y, z'
loop_
 _atom_site_type_symbol
 _atom_site_label
 _atom_site_symmetry_multiplicity
 _atom_site_fract_x
 _atom_site_fract_y
 _atom_site_fract_z
 _atom_site_occupancy
  La  La0  1  0.25066000  0.62690700  0.87536300  1
  La  La1  1  0.00000000  0.50000000  0.25000000  1
  La  La2  1  0.24934000  0.87309300  0.37536300  1
  La  La3  1  0.37309300  0.25066000  0.12463700  1
  La  La4  1  0.12690700  0.24934000  0.62463700  1
  La  La5  1  0.75066000  0.12690700  0.37536300  1
  La  La6  1  0.50000000  0.00000000  0.75000000  1
  La  La7  1  0.74934000  0.37309300  0.87536300  1
  La  La8  1  0.87309300  0.75066000  0.62463700  1
  La  La9  1  0.62690700  0.74934000  0.12463700  1
  Sm  Sm10  1  0.00000000  0.00000000  0.00000000  1
  Sm  Sm11  1  0.50000000  0.50000000  0.50000000  1
  S  S12  1  0.17329250  0.92475350  0.70294350  1
  S  S13  1  0.42668600  0.17849100  0.45075600  1
  S  S14  1  0.82150900  0.42668600  0.54924400  1
  S  S15  1  0.07331400  0.32150900  0.95075600  1
  S  S16  1  0.07524650  0.17329250  0.29705650  1
  S  S17  1  0.42475350  0.32670750  0.79705650  1
  S  S18  1  0.32670750  0.57524650  0.20294350  1
  S  S19  1  0.67849100  0.07331400  0.04924400  1
  S  S20  1  0.67329250  0.42475350  0.20294350  1
  S  S21  1  0.92668600  0.67849100  0.95075600  1
  S  S22  1  0.32150900  0.92668600  0.04924400  1
  S  S23  1  0.57331400  0.82150900  0.45075600  1
  S  S24  1  0.57524650  0.67329250  0.79705650  1
  S  S25  1  0.92475350  0.82670750  0.29705650  1
  S  S26  1  0.82670750  0.07524650  0.70294350  1
  S  S27  1  0.17849100  0.57331400  0.54924400  1
