# generated using pymatgen
data_Ni2P3O11
_symmetry_space_group_name_H-M   'P 1'
_cell_length_a   11.53163800
_cell_length_b   8.20765200
_cell_length_c   8.64638737
_cell_angle_alpha   90.00000000
_cell_angle_beta   114.16032950
_cell_angle_gamma   90.00000000
_symmetry_Int_Tables_number   1
_chemical_formula_structural   Ni2P3O11
_chemical_formula_sum   'Ni8 P12 O44'
_cell_volume   746.67510340
_cell_formula_units_Z   4
loop_
 _symmetry_equiv_pos_site_id
 _symmetry_equiv_pos_as_xyz
  1  'x, y, z'
loop_
 _atom_site_type_symbol
 _atom_site_label
 _atom_site_symmetry_multiplicity
 _atom_site_fract_x
 _atom_site_fract_y
 _atom_site_fract_z
 _atom_site_occupancy
  Ni  Ni0  1  0.12534400  0.24137000  0.03864900  1
  Ni  Ni1  1  0.87465600  0.24137000  0.46135100  1
  Ni  Ni2  1  0.12534400  0.75863000  0.53864900  1
  Ni  Ni3  1  0.87465600  0.75863000  0.96135100  1
  Ni  Ni4  1  0.62534400  0.74137000  0.03864900  1
  Ni  Ni5  1  0.37465600  0.74137000  0.46135100  1
  Ni  Ni6  1  0.62534400  0.25863000  0.53864900  1
  Ni  Ni7  1  0.37465600  0.25863000  0.96135100  1
  P  P8  1  0.89097300  0.43290000  0.79241300  1
  P  P9  1  0.89097300  0.56710000  0.29241300  1
  P  P10  1  0.10902700  0.43290000  0.70758700  1
  P  P11  1  0.10902700  0.56710000  0.20758700  1
  P  P12  1  0.00000000  0.95607400  0.75000000  1
  P  P13  1  0.00000000  0.04392600  0.25000000  1
  P  P14  1  0.39097300  0.93290000  0.79241300  1
  P  P15  1  0.39097300  0.06710000  0.29241300  1
  P  P16  1  0.60902700  0.93290000  0.70758700  1
  P  P17  1  0.60902700  0.06710000  0.20758700  1
  P  P18  1  0.50000000  0.45607400  0.75000000  1
  P  P19  1  0.50000000  0.54392600  0.25000000  1
  O  O20  1  0.04425200  0.68034400  0.05477000  1
  O  O21  1  0.10470050  0.14946950  0.22748100  1
  O  O22  1  0.18728450  0.43254550  0.17573000  1
  O  O23  1  0.57983600  0.54721800  0.91466100  1
  O  O24  1  0.89529950  0.85053050  0.77251900  1
  O  O25  1  0.81271550  0.56745450  0.82427000  1
  O  O26  1  0.42016400  0.45278200  0.08533900  1
  O  O27  1  0.10470050  0.85053050  0.72748100  1
  O  O28  1  0.80875200  0.66309200  0.12753900  1
  O  O29  1  0.57983600  0.45278200  0.41466100  1
  O  O30  1  0.80875200  0.33690800  0.62753900  1
  O  O31  1  0.95574800  0.68034400  0.44523000  1
  O  O32  1  0.81271550  0.43254550  0.32427000  1
  O  O33  1  0.19124800  0.33690800  0.87246100  1
  O  O34  1  0.00000000  0.51624800  0.75000000  1
  O  O35  1  0.00000000  0.48375200  0.25000000  1
  O  O36  1  0.95574800  0.31965600  0.94523000  1
  O  O37  1  0.18728450  0.56745450  0.67573000  1
  O  O38  1  0.04425200  0.31965600  0.55477000  1
  O  O39  1  0.19124800  0.66309200  0.37246100  1
  O  O40  1  0.42016400  0.54721800  0.58533900  1
  O  O41  1  0.89529950  0.14946950  0.27251900  1
  O  O42  1  0.54425200  0.18034400  0.05477000  1
  O  O43  1  0.60470050  0.64946950  0.22748100  1
  O  O44  1  0.68728450  0.93254550  0.17573000  1
  O  O45  1  0.07983600  0.04721800  0.91466100  1
  O  O46  1  0.39529950  0.35053050  0.77251900  1
  O  O47  1  0.31271550  0.06745450  0.82427000  1
  O  O48  1  0.92016400  0.95278200  0.08533900  1
  O  O49  1  0.60470050  0.35053050  0.72748100  1
  O  O50  1  0.30875200  0.16309200  0.12753900  1
  O  O51  1  0.07983600  0.95278200  0.41466100  1
  O  O52  1  0.30875200  0.83690800  0.62753900  1
  O  O53  1  0.45574800  0.18034400  0.44523000  1
  O  O54  1  0.31271550  0.93254550  0.32427000  1
  O  O55  1  0.69124800  0.83690800  0.87246100  1
  O  O56  1  0.50000000  0.01624800  0.75000000  1
  O  O57  1  0.50000000  0.98375200  0.25000000  1
  O  O58  1  0.45574800  0.81965600  0.94523000  1
  O  O59  1  0.68728450  0.06745450  0.67573000  1
  O  O60  1  0.54425200  0.81965600  0.55477000  1
  O  O61  1  0.69124800  0.16309200  0.37246100  1
  O  O62  1  0.92016400  0.04721800  0.58533900  1
  O  O63  1  0.39529950  0.64946950  0.27251900  1
