# generated using pymatgen
data_V3(P3O10)2
_symmetry_space_group_name_H-M   'P 1'
_cell_length_a   10.14825800
_cell_length_b   13.77256800
_cell_length_c   12.65201500
_cell_angle_alpha   90.00000000
_cell_angle_beta   90.00000000
_cell_angle_gamma   90.00000000
_symmetry_Int_Tables_number   1
_chemical_formula_structural   V3(P3O10)2
_chemical_formula_sum   'V12 P24 O80'
_cell_volume   1768.34143500
_cell_formula_units_Z   4
loop_
 _symmetry_equiv_pos_site_id
 _symmetry_equiv_pos_as_xyz
  1  'x, y, z'
loop_
 _atom_site_type_symbol
 _atom_site_label
 _atom_site_symmetry_multiplicity
 _atom_site_fract_x
 _atom_site_fract_y
 _atom_site_fract_z
 _atom_site_occupancy
  V  V0  1  0.55073450  0.27181850  0.28760500  1
  V  V1  1  0.55073450  0.22818150  0.78760500  1
  V  V2  1  0.36168400  0.00000000  0.00000000  1
  V  V3  1  0.86168400  0.00000000  0.50000000  1
  V  V4  1  0.55073450  0.77181850  0.21239500  1
  V  V5  1  0.55073450  0.72818150  0.71239500  1
  V  V6  1  0.05073450  0.77181850  0.28760500  1
  V  V7  1  0.05073450  0.72818150  0.78760500  1
  V  V8  1  0.86168400  0.50000000  0.00000000  1
  V  V9  1  0.36168400  0.50000000  0.50000000  1
  V  V10  1  0.05073450  0.27181850  0.21239500  1
  V  V11  1  0.05073450  0.22818150  0.71239500  1
  P  P12  1  0.56240200  0.31453800  0.55072400  1
  P  P13  1  0.27268500  0.13051400  0.30519300  1
  P  P14  1  0.29538750  0.07261750  0.78168600  1
  P  P15  1  0.56240200  0.18546200  0.05072400  1
  P  P16  1  0.29538750  0.92738250  0.21831400  1
  P  P17  1  0.27268500  0.86948600  0.69480700  1
  P  P18  1  0.77268500  0.13051400  0.19480700  1
  P  P19  1  0.79538750  0.07261750  0.71831400  1
  P  P20  1  0.56240200  0.81453800  0.94927600  1
  P  P21  1  0.79538750  0.92738250  0.28168600  1
  P  P22  1  0.77268500  0.86948600  0.80519300  1
  P  P23  1  0.56240200  0.68546200  0.44927600  1
  P  P24  1  0.06240200  0.81453800  0.55072400  1
  P  P25  1  0.77268500  0.63051400  0.30519300  1
  P  P26  1  0.79538750  0.57261750  0.78168600  1
  P  P27  1  0.06240200  0.68546200  0.05072400  1
  P  P28  1  0.79538750  0.42738250  0.21831400  1
  P  P29  1  0.77268500  0.36948600  0.69480700  1
  P  P30  1  0.27268500  0.63051400  0.19480700  1
  P  P31  1  0.29538750  0.57261750  0.71831400  1
  P  P32  1  0.06240200  0.31453800  0.94927600  1
  P  P33  1  0.29538750  0.42738250  0.28168600  1
  P  P34  1  0.27268500  0.36948600  0.80519300  1
  P  P35  1  0.06240200  0.18546200  0.44927600  1
  O  O36  1  0.43411750  0.38894450  0.29486400  1
  O  O37  1  0.46554150  0.40122450  0.55667000  1
  O  O38  1  0.40136550  0.31561450  0.80879100  1
  O  O39  1  0.17486900  0.15777500  0.22051000  1
  O  O40  1  0.20639450  0.13976350  0.42005400  1
  O  O41  1  0.19805650  0.14183450  0.73214400  1
  O  O42  1  0.52725400  0.26143800  0.13349400  1
  O  O43  1  0.40136550  0.18438550  0.30879100  1
  O  O44  1  0.57805550  0.27318550  0.44141700  1
  O  O45  1  0.52725400  0.23856200  0.63349400  1
  O  O46  1  0.57805550  0.22681450  0.94141700  1
  O  O47  1  0.24501400  0.03197000  0.88909500  1
  O  O48  1  0.43411750  0.11105550  0.79486400  1
  O  O49  1  0.30531100  0.01779000  0.29976600  1
  O  O50  1  0.46554150  0.09877550  0.05667000  1
  O  O51  1  0.24501400  0.96803000  0.11090500  1
  O  O52  1  0.30531100  0.98221000  0.70023400  1
  O  O53  1  0.67486900  0.15777500  0.27949000  1
  O  O54  1  0.70639450  0.13976350  0.07994600  1
  O  O55  1  0.69805650  0.14183450  0.76785600  1
  O  O56  1  0.19805650  0.85816550  0.26785600  1
  O  O57  1  0.17486900  0.84222500  0.77949000  1
  O  O58  1  0.20639450  0.86023650  0.57994600  1
  O  O59  1  0.43411750  0.88894450  0.20513600  1
  O  O60  1  0.46554150  0.90122450  0.94333000  1
  O  O61  1  0.74501400  0.03197000  0.61090500  1
  O  O62  1  0.40136550  0.81561450  0.69120900  1
  O  O63  1  0.80531100  0.01779000  0.20023400  1
  O  O64  1  0.74501400  0.96803000  0.38909500  1
  O  O65  1  0.80531100  0.98221000  0.79976600  1
  O  O66  1  0.52725400  0.76143800  0.36650600  1
  O  O67  1  0.69805650  0.85816550  0.23214400  1
  O  O68  1  0.67486900  0.84222500  0.72051000  1
  O  O69  1  0.40136550  0.68438550  0.19120900  1
  O  O70  1  0.70639450  0.86023650  0.92005400  1
  O  O71  1  0.57805550  0.77318550  0.05858300  1
  O  O72  1  0.52725400  0.73856200  0.86650600  1
  O  O73  1  0.57805550  0.72681450  0.55858300  1
  O  O74  1  0.43411750  0.61105550  0.70513600  1
  O  O75  1  0.46554150  0.59877550  0.44333000  1
  O  O76  1  0.93411750  0.88894450  0.29486400  1
  O  O77  1  0.96554150  0.90122450  0.55667000  1
  O  O78  1  0.90136550  0.81561450  0.80879100  1
  O  O79  1  0.67486900  0.65777500  0.22051000  1
  O  O80  1  0.70639450  0.63976350  0.42005400  1
  O  O81  1  0.69805650  0.64183450  0.73214400  1
  O  O82  1  0.02725400  0.76143800  0.13349400  1
  O  O83  1  0.90136550  0.68438550  0.30879100  1
  O  O84  1  0.07805550  0.77318550  0.44141700  1
  O  O85  1  0.02725400  0.73856200  0.63349400  1
  O  O86  1  0.07805550  0.72681450  0.94141700  1
  O  O87  1  0.74501400  0.53197000  0.88909500  1
  O  O88  1  0.93411750  0.61105550  0.79486400  1
  O  O89  1  0.80531100  0.51779000  0.29976600  1
  O  O90  1  0.96554150  0.59877550  0.05667000  1
  O  O91  1  0.74501400  0.46803000  0.11090500  1
  O  O92  1  0.80531100  0.48221000  0.70023400  1
  O  O93  1  0.17486900  0.65777500  0.27949000  1
  O  O94  1  0.20639450  0.63976350  0.07994600  1
  O  O95  1  0.19805650  0.64183450  0.76785600  1
  O  O96  1  0.69805650  0.35816550  0.26785600  1
  O  O97  1  0.67486900  0.34222500  0.77949000  1
  O  O98  1  0.70639450  0.36023650  0.57994600  1
  O  O99  1  0.93411750  0.38894450  0.20513600  1
  O  O100  1  0.96554150  0.40122450  0.94333000  1
  O  O101  1  0.24501400  0.53197000  0.61090500  1
  O  O102  1  0.90136550  0.31561450  0.69120900  1
  O  O103  1  0.30531100  0.51779000  0.20023400  1
  O  O104  1  0.24501400  0.46803000  0.38909500  1
  O  O105  1  0.30531100  0.48221000  0.79976600  1
  O  O106  1  0.02725400  0.26143800  0.36650600  1
  O  O107  1  0.19805650  0.35816550  0.23214400  1
  O  O108  1  0.17486900  0.34222500  0.72051000  1
  O  O109  1  0.90136550  0.18438550  0.19120900  1
  O  O110  1  0.20639450  0.36023650  0.92005400  1
  O  O111  1  0.07805550  0.27318550  0.05858300  1
  O  O112  1  0.02725400  0.23856200  0.86650600  1
  O  O113  1  0.07805550  0.22681450  0.55858300  1
  O  O114  1  0.93411750  0.11105550  0.70513600  1
  O  O115  1  0.96554150  0.09877550  0.44333000  1
