# generated using pymatgen
data_Pr12InPt7
_symmetry_space_group_name_H-M   'P 1'
_cell_length_a   12.22351000
_cell_length_b   12.22351000
_cell_length_c   14.71387400
_cell_angle_alpha   90.00000000
_cell_angle_beta   90.00000000
_cell_angle_gamma   90.00000000
_symmetry_Int_Tables_number   1
_chemical_formula_structural   Pr12InPt7
_chemical_formula_sum   'Pr48 In4 Pt28'
_cell_volume   2198.46166435
_cell_formula_units_Z   4
loop_
 _symmetry_equiv_pos_site_id
 _symmetry_equiv_pos_as_xyz
  1  'x, y, z'
loop_
 _atom_site_type_symbol
 _atom_site_label
 _atom_site_symmetry_multiplicity
 _atom_site_fract_x
 _atom_site_fract_y
 _atom_site_fract_z
 _atom_site_occupancy
  Pr  Pr0  1  0.92656100  0.20749100  0.64269700  1
  Pr  Pr1  1  0.92656100  0.20749100  0.35730300  1
  Pr  Pr2  1  0.57343900  0.29250900  0.85730300  1
  Pr  Pr3  1  0.92656100  0.79250900  0.14269700  1
  Pr  Pr4  1  0.29250900  0.42656100  0.85730300  1
  Pr  Pr5  1  0.20749100  0.07343900  0.35730300  1
  Pr  Pr6  1  0.42656100  0.29250900  0.35730300  1
  Pr  Pr7  1  0.70749100  0.42656100  0.35730300  1
  Pr  Pr8  1  0.29250900  0.57343900  0.35730300  1
  Pr  Pr9  1  0.57343900  0.29250900  0.14269700  1
  Pr  Pr10  1  0.17497700  0.67497700  0.00000000  1
  Pr  Pr11  1  0.57343900  0.70749100  0.35730300  1
  Pr  Pr12  1  0.20749100  0.07343900  0.64269700  1
  Pr  Pr13  1  0.29250900  0.42656100  0.14269700  1
  Pr  Pr14  1  0.00000000  0.50000000  0.13592900  1
  Pr  Pr15  1  0.50000000  0.00000000  0.13592900  1
  Pr  Pr16  1  0.00000000  0.50000000  0.36407100  1
  Pr  Pr17  1  0.50000000  0.00000000  0.36407100  1
  Pr  Pr18  1  0.32502300  0.17497700  0.00000000  1
  Pr  Pr19  1  0.79250900  0.07343900  0.14269700  1
  Pr  Pr20  1  0.17497700  0.32502300  0.50000000  1
  Pr  Pr21  1  0.32502300  0.82502300  0.50000000  1
  Pr  Pr22  1  0.07343900  0.20749100  0.14269700  1
  Pr  Pr23  1  0.20749100  0.92656100  0.14269700  1
  Pr  Pr24  1  0.42656100  0.70749100  0.14269700  1
  Pr  Pr25  1  0.42656100  0.70749100  0.85730300  1
  Pr  Pr26  1  0.07343900  0.79250900  0.35730300  1
  Pr  Pr27  1  0.42656100  0.29250900  0.64269700  1
  Pr  Pr28  1  0.79250900  0.92656100  0.35730300  1
  Pr  Pr29  1  0.70749100  0.57343900  0.85730300  1
  Pr  Pr30  1  0.92656100  0.79250900  0.85730300  1
  Pr  Pr31  1  0.20749100  0.92656100  0.85730300  1
  Pr  Pr32  1  0.79250900  0.07343900  0.85730300  1
  Pr  Pr33  1  0.07343900  0.79250900  0.64269700  1
  Pr  Pr34  1  0.67497700  0.17497700  0.50000000  1
  Pr  Pr35  1  0.07343900  0.20749100  0.85730300  1
  Pr  Pr36  1  0.70749100  0.57343900  0.14269700  1
  Pr  Pr37  1  0.79250900  0.92656100  0.64269700  1
  Pr  Pr38  1  0.50000000  0.00000000  0.63592900  1
  Pr  Pr39  1  0.00000000  0.50000000  0.63592900  1
  Pr  Pr40  1  0.50000000  0.00000000  0.86407100  1
  Pr  Pr41  1  0.00000000  0.50000000  0.86407100  1
  Pr  Pr42  1  0.82502300  0.67497700  0.50000000  1
  Pr  Pr43  1  0.29250900  0.57343900  0.64269700  1
  Pr  Pr44  1  0.67497700  0.82502300  0.00000000  1
  Pr  Pr45  1  0.82502300  0.32502300  0.00000000  1
  Pr  Pr46  1  0.57343900  0.70749100  0.64269700  1
  Pr  Pr47  1  0.70749100  0.42656100  0.64269700  1
  In  In48  1  0.00000000  0.00000000  0.50000000  1
  In  In49  1  0.00000000  0.00000000  0.00000000  1
  In  In50  1  0.50000000  0.50000000  0.00000000  1
  In  In51  1  0.50000000  0.50000000  0.50000000  1
  Pt  Pt52  1  0.67466850  0.82533150  0.19536850  1
  Pt  Pt53  1  0.82533150  0.67466850  0.30463150  1
  Pt  Pt54  1  0.17466850  0.32533150  0.30463150  1
  Pt  Pt55  1  0.82533150  0.32533150  0.19536850  1
  Pt  Pt56  1  0.32533150  0.82533150  0.30463150  1
  Pt  Pt57  1  0.67466850  0.17466850  0.30463150  1
  Pt  Pt58  1  0.62560050  0.12560050  0.00000000  1
  Pt  Pt59  1  0.37439950  0.12560050  0.50000000  1
  Pt  Pt60  1  0.12560050  0.37439950  0.00000000  1
  Pt  Pt61  1  0.87439950  0.37439950  0.50000000  1
  Pt  Pt62  1  0.00000000  0.00000000  0.25000000  1
  Pt  Pt63  1  0.00000000  0.00000000  0.75000000  1
  Pt  Pt64  1  0.32533150  0.17466850  0.19536850  1
  Pt  Pt65  1  0.17466850  0.67466850  0.19536850  1
  Pt  Pt66  1  0.17466850  0.32533150  0.69536850  1
  Pt  Pt67  1  0.32533150  0.17466850  0.80463150  1
  Pt  Pt68  1  0.67466850  0.82533150  0.80463150  1
  Pt  Pt69  1  0.32533150  0.82533150  0.69536850  1
  Pt  Pt70  1  0.82533150  0.32533150  0.80463150  1
  Pt  Pt71  1  0.17466850  0.67466850  0.80463150  1
  Pt  Pt72  1  0.12560050  0.62560050  0.50000000  1
  Pt  Pt73  1  0.87439950  0.62560050  0.00000000  1
  Pt  Pt74  1  0.62560050  0.87439950  0.50000000  1
  Pt  Pt75  1  0.37439950  0.87439950  0.00000000  1
  Pt  Pt76  1  0.50000000  0.50000000  0.75000000  1
  Pt  Pt77  1  0.50000000  0.50000000  0.25000000  1
  Pt  Pt78  1  0.82533150  0.67466850  0.69536850  1
  Pt  Pt79  1  0.67466850  0.17466850  0.69536850  1
