# generated using pymatgen
data_Mn(SeO3)2
_symmetry_space_group_name_H-M   'P 1'
_cell_length_a   5.17340164
_cell_length_b   6.89412300
_cell_length_c   9.01137828
_cell_angle_alpha   90.00000000
_cell_angle_beta   124.31773845
_cell_angle_gamma   90.00000000
_symmetry_Int_Tables_number   1
_chemical_formula_structural   Mn(SeO3)2
_chemical_formula_sum   'Mn2 Se4 O12'
_cell_volume   265.45225630
_cell_formula_units_Z   2
loop_
 _symmetry_equiv_pos_site_id
 _symmetry_equiv_pos_as_xyz
  1  'x, y, z'
loop_
 _atom_site_type_symbol
 _atom_site_label
 _atom_site_symmetry_multiplicity
 _atom_site_fract_x
 _atom_site_fract_y
 _atom_site_fract_z
 _atom_site_occupancy
  Mn  Mn0  1  0.50000000  0.50000000  0.00000000  1
  Mn  Mn1  1  0.50000000  0.00000000  0.50000000  1
  Se  Se2  1  0.18582350  0.17478400  0.69819150  1
  Se  Se3  1  0.81417650  0.67478400  0.80180850  1
  Se  Se4  1  0.18582350  0.32521600  0.19819150  1
  Se  Se5  1  0.81417650  0.82521600  0.30180850  1
  O  O6  1  0.69554350  0.58383300  0.24613550  1
  O  O7  1  0.30445650  0.08383300  0.25386450  1
  O  O8  1  0.30445650  0.41616700  0.75386450  1
  O  O9  1  0.69554350  0.91616700  0.74613550  1
  O  O10  1  0.21400650  0.78026700  0.41638350  1
  O  O11  1  0.78599350  0.28026700  0.08361650  1
  O  O12  1  0.79285350  0.66313300  0.98983450  1
  O  O13  1  0.20714650  0.16313300  0.51016550  1
  O  O14  1  0.20714650  0.33686700  0.01016550  1
  O  O15  1  0.79285350  0.83686700  0.48983450  1
  O  O16  1  0.21400650  0.71973300  0.91638350  1
  O  O17  1  0.78599350  0.21973300  0.58361650  1
