# generated using pymatgen
data_Na3CoO2
_symmetry_space_group_name_H-M   'P 1'
_cell_length_a   9.44719660
_cell_length_b   9.44719660
_cell_length_c   4.67912200
_cell_angle_alpha   90.00000000
_cell_angle_beta   90.00000000
_cell_angle_gamma   90.00000000
_symmetry_Int_Tables_number   1
_chemical_formula_structural   Na3CoO2
_chemical_formula_sum   'Na12 Co4 O8'
_cell_volume   417.60940938
_cell_formula_units_Z   4
loop_
 _symmetry_equiv_pos_site_id
 _symmetry_equiv_pos_as_xyz
  1  'x, y, z'
loop_
 _atom_site_type_symbol
 _atom_site_label
 _atom_site_symmetry_multiplicity
 _atom_site_fract_x
 _atom_site_fract_y
 _atom_site_fract_z
 _atom_site_occupancy
  Na  Na0  1  0.14128800  0.14128800  0.50000000  1
  Na  Na1  1  0.85871200  0.85871200  0.50000000  1
  Na  Na2  1  0.64128800  0.35871200  0.00000000  1
  Na  Na3  1  0.35871200  0.64128800  0.00000000  1
  Na  Na4  1  0.65838450  0.02607450  0.00000000  1
  Na  Na5  1  0.34161550  0.97392550  0.00000000  1
  Na  Na6  1  0.52607450  0.84161550  0.50000000  1
  Na  Na7  1  0.47392550  0.15838450  0.50000000  1
  Na  Na8  1  0.02607450  0.65838450  0.00000000  1
  Na  Na9  1  0.15838450  0.47392550  0.50000000  1
  Na  Na10  1  0.97392550  0.34161550  0.00000000  1
  Na  Na11  1  0.84161550  0.52607450  0.50000000  1
  Co  Co12  1  0.32305950  0.32305950  0.00000000  1
  Co  Co13  1  0.17694050  0.82305950  0.50000000  1
  Co  Co14  1  0.82305950  0.17694050  0.50000000  1
  Co  Co15  1  0.67694050  0.67694050  0.00000000  1
  O  O16  1  0.69523150  0.04009950  0.50000000  1
  O  O17  1  0.54009950  0.80476850  0.00000000  1
  O  O18  1  0.04009950  0.69523150  0.50000000  1
  O  O19  1  0.19523150  0.45990050  0.00000000  1
  O  O20  1  0.95990050  0.30476850  0.50000000  1
  O  O21  1  0.80476850  0.54009950  0.00000000  1
  O  O22  1  0.30476850  0.95990050  0.50000000  1
  O  O23  1  0.45990050  0.19523150  0.00000000  1
