# generated using pymatgen
data_ThZr2H7
_symmetry_space_group_name_H-M   'P 1'
_cell_length_a   9.35380000
_cell_length_b   9.35380000
_cell_length_c   9.35380000
_cell_angle_alpha   90.00000000
_cell_angle_beta   90.00000000
_cell_angle_gamma   90.00000000
_symmetry_Int_Tables_number   1
_chemical_formula_structural   ThZr2H7
_chemical_formula_sum   'Th8 Zr16 H56'
_cell_volume   818.39739660
_cell_formula_units_Z   8
loop_
 _symmetry_equiv_pos_site_id
 _symmetry_equiv_pos_as_xyz
  1  'x, y, z'
loop_
 _atom_site_type_symbol
 _atom_site_label
 _atom_site_symmetry_multiplicity
 _atom_site_fract_x
 _atom_site_fract_y
 _atom_site_fract_z
 _atom_site_occupancy
  Th  Th0  1  0.25000000  0.75000000  0.25000000  1
  Th  Th1  1  0.00000000  0.00000000  0.50000000  1
  Th  Th2  1  0.25000000  0.25000000  0.75000000  1
  Th  Th3  1  0.00000000  0.50000000  0.00000000  1
  Th  Th4  1  0.75000000  0.75000000  0.75000000  1
  Th  Th5  1  0.50000000  0.00000000  0.00000000  1
  Th  Th6  1  0.75000000  0.25000000  0.25000000  1
  Th  Th7  1  0.50000000  0.50000000  0.50000000  1
  Zr  Zr8  1  0.87500000  0.87500000  0.12500000  1
  Zr  Zr9  1  0.37500000  0.12500000  0.37500000  1
  Zr  Zr10  1  0.62500000  0.87500000  0.37500000  1
  Zr  Zr11  1  0.12500000  0.12500000  0.12500000  1
  Zr  Zr12  1  0.87500000  0.37500000  0.62500000  1
  Zr  Zr13  1  0.37500000  0.62500000  0.87500000  1
  Zr  Zr14  1  0.62500000  0.37500000  0.87500000  1
  Zr  Zr15  1  0.12500000  0.62500000  0.62500000  1
  Zr  Zr16  1  0.37500000  0.87500000  0.62500000  1
  Zr  Zr17  1  0.87500000  0.12500000  0.87500000  1
  Zr  Zr18  1  0.12500000  0.87500000  0.87500000  1
  Zr  Zr19  1  0.62500000  0.12500000  0.62500000  1
  Zr  Zr20  1  0.37500000  0.37500000  0.12500000  1
  Zr  Zr21  1  0.87500000  0.62500000  0.37500000  1
  Zr  Zr22  1  0.12500000  0.37500000  0.37500000  1
  Zr  Zr23  1  0.62500000  0.62500000  0.12500000  1
  H  H24  1  0.50000000  0.25180400  0.50000000  1
  H  H25  1  0.25000000  0.50180400  0.25000000  1
  H  H26  1  0.00000000  0.00000000  0.25180400  1
  H  H27  1  0.75180400  0.00000000  0.50000000  1
  H  H28  1  0.24819600  0.00000000  0.50000000  1
  H  H29  1  0.50000000  0.00000000  0.24819600  1
  H  H30  1  0.50000000  0.00000000  0.50000000  1
  H  H31  1  0.25000000  0.25000000  0.25000000  1
  H  H32  1  0.50000000  0.74819600  0.50000000  1
  H  H33  1  0.00180400  0.75000000  0.25000000  1
  H  H34  1  0.49819600  0.75000000  0.25000000  1
  H  H35  1  0.25000000  0.99819600  0.25000000  1
  H  H36  1  0.25000000  0.75000000  0.00180400  1
  H  H37  1  0.25000000  0.75000000  0.49819600  1
  H  H38  1  0.50000000  0.75180400  0.00000000  1
  H  H39  1  0.25000000  0.00180400  0.75000000  1
  H  H40  1  0.00000000  0.50000000  0.75180400  1
  H  H41  1  0.75180400  0.50000000  0.00000000  1
  H  H42  1  0.24819600  0.50000000  0.00000000  1
  H  H43  1  0.50000000  0.50000000  0.74819600  1
  H  H44  1  0.50000000  0.50000000  0.00000000  1
  H  H45  1  0.25000000  0.75000000  0.75000000  1
  H  H46  1  0.50000000  0.24819600  0.00000000  1
  H  H47  1  0.00180400  0.25000000  0.75000000  1
  H  H48  1  0.49819600  0.25000000  0.75000000  1
  H  H49  1  0.25000000  0.49819600  0.75000000  1
  H  H50  1  0.25000000  0.25000000  0.50180400  1
  H  H51  1  0.25000000  0.25000000  0.99819600  1
  H  H52  1  0.00000000  0.25180400  0.00000000  1
  H  H53  1  0.75000000  0.50180400  0.75000000  1
  H  H54  1  0.50000000  0.00000000  0.75180400  1
  H  H55  1  0.25180400  0.00000000  0.00000000  1
  H  H56  1  0.74819600  0.00000000  0.00000000  1
  H  H57  1  0.00000000  0.00000000  0.74819600  1
  H  H58  1  0.00000000  0.00000000  0.00000000  1
  H  H59  1  0.75000000  0.25000000  0.75000000  1
  H  H60  1  0.00000000  0.74819600  0.00000000  1
  H  H61  1  0.50180400  0.75000000  0.75000000  1
  H  H62  1  0.99819600  0.75000000  0.75000000  1
  H  H63  1  0.75000000  0.99819600  0.75000000  1
  H  H64  1  0.75000000  0.75000000  0.50180400  1
  H  H65  1  0.75000000  0.75000000  0.99819600  1
  H  H66  1  0.00000000  0.75180400  0.50000000  1
  H  H67  1  0.75000000  0.00180400  0.25000000  1
  H  H68  1  0.50000000  0.50000000  0.25180400  1
  H  H69  1  0.25180400  0.50000000  0.50000000  1
  H  H70  1  0.74819600  0.50000000  0.50000000  1
  H  H71  1  0.00000000  0.50000000  0.24819600  1
  H  H72  1  0.00000000  0.50000000  0.50000000  1
  H  H73  1  0.75000000  0.75000000  0.25000000  1
  H  H74  1  0.00000000  0.24819600  0.50000000  1
  H  H75  1  0.50180400  0.25000000  0.25000000  1
  H  H76  1  0.99819600  0.25000000  0.25000000  1
  H  H77  1  0.75000000  0.49819600  0.25000000  1
  H  H78  1  0.75000000  0.25000000  0.00180400  1
  H  H79  1  0.75000000  0.25000000  0.49819600  1
