# generated using pymatgen
data_LiNi2P3O11
_symmetry_space_group_name_H-M   'P 1'
_cell_length_a   11.44885800
_cell_length_b   8.75717800
_cell_length_c   8.80379182
_cell_angle_alpha   90.00000000
_cell_angle_beta   115.24657939
_cell_angle_gamma   90.00000000
_symmetry_Int_Tables_number   1
_chemical_formula_structural   LiNi2P3O11
_chemical_formula_sum   'Li4 Ni8 P12 O44'
_cell_volume   798.35375417
_cell_formula_units_Z   4
loop_
 _symmetry_equiv_pos_site_id
 _symmetry_equiv_pos_as_xyz
  1  'x, y, z'
loop_
 _atom_site_type_symbol
 _atom_site_label
 _atom_site_symmetry_multiplicity
 _atom_site_fract_x
 _atom_site_fract_y
 _atom_site_fract_z
 _atom_site_occupancy
  Li  Li0  1  0.74496650  0.73490150  0.26972400  1
  Li  Li1  1  0.25503350  0.73490150  0.73027600  1
  Li  Li2  1  0.24496650  0.23490150  0.26972400  1
  Li  Li3  1  0.75503350  0.23490150  0.73027600  1
  Ni  Ni4  1  0.12560300  0.75410900  0.29486200  1
  Ni  Ni5  1  0.87439700  0.75410900  0.70513800  1
  Ni  Ni6  1  0.12457950  0.24510450  0.79508000  1
  Ni  Ni7  1  0.87542050  0.24510450  0.20492000  1
  Ni  Ni8  1  0.62560300  0.25410900  0.29486200  1
  Ni  Ni9  1  0.37439700  0.25410900  0.70513800  1
  Ni  Ni10  1  0.62457950  0.74510450  0.79508000  1
  Ni  Ni11  1  0.37542050  0.74510450  0.20492000  1
  P  P12  1  0.88294000  0.43298300  0.53172600  1
  P  P13  1  0.00000000  0.04456500  0.00000000  1
  P  P14  1  0.88504800  0.56634300  0.03398000  1
  P  P15  1  0.00000000  0.95417600  0.50000000  1
  P  P16  1  0.11706000  0.43298300  0.46827400  1
  P  P17  1  0.11495200  0.56634300  0.96602000  1
  P  P18  1  0.38294000  0.93298300  0.53172600  1
  P  P19  1  0.50000000  0.54456500  0.00000000  1
  P  P20  1  0.38504800  0.06634300  0.03398000  1
  P  P21  1  0.50000000  0.45417600  0.50000000  1
  P  P22  1  0.61706000  0.93298300  0.46827400  1
  P  P23  1  0.61495200  0.06634300  0.96602000  1
  O  O24  1  0.19147650  0.65948950  0.12671800  1
  O  O25  1  0.10953050  0.84607950  0.50205000  1
  O  O26  1  0.00000000  0.49096800  0.00000000  1
  O  O27  1  0.19164300  0.33852600  0.62858100  1
  O  O28  1  0.80781550  0.43270450  0.05304100  1
  O  O29  1  0.44251300  0.54899400  0.33985900  1
  O  O30  1  0.89081500  0.15464400  0.99723500  1
  O  O31  1  0.44035000  0.45169000  0.83872700  1
  O  O32  1  0.19218450  0.43270450  0.94695900  1
  O  O33  1  0.19413050  0.57040950  0.45794000  1
  O  O34  1  0.94090950  0.66974450  0.19008500  1
  O  O35  1  0.80586950  0.57040950  0.54206000  1
  O  O36  1  0.00000000  0.50553000  0.50000000  1
  O  O37  1  0.55748700  0.54899400  0.66014100  1
  O  O38  1  0.80835700  0.33852600  0.37141900  1
  O  O39  1  0.55965000  0.45169000  0.16127300  1
  O  O40  1  0.80852350  0.65948950  0.87328200  1
  O  O41  1  0.10918500  0.15464400  0.00276500  1
  O  O42  1  0.05909050  0.66974450  0.80991500  1
  O  O43  1  0.89046950  0.84607950  0.49795000  1
  O  O44  1  0.93532200  0.33017200  0.68793400  1
  O  O45  1  0.06467800  0.33017200  0.31206600  1
  O  O46  1  0.69147650  0.15948950  0.12671800  1
  O  O47  1  0.60953050  0.34607950  0.50205000  1
  O  O48  1  0.50000000  0.99096800  0.00000000  1
  O  O49  1  0.69164300  0.83852600  0.62858100  1
  O  O50  1  0.30781550  0.93270450  0.05304100  1
  O  O51  1  0.94251300  0.04899400  0.33985900  1
  O  O52  1  0.39081500  0.65464400  0.99723500  1
  O  O53  1  0.94035000  0.95169000  0.83872700  1
  O  O54  1  0.69218450  0.93270450  0.94695900  1
  O  O55  1  0.69413050  0.07040950  0.45794000  1
  O  O56  1  0.44090950  0.16974450  0.19008500  1
  O  O57  1  0.30586950  0.07040950  0.54206000  1
  O  O58  1  0.50000000  0.00553000  0.50000000  1
  O  O59  1  0.05748700  0.04899400  0.66014100  1
  O  O60  1  0.30835700  0.83852600  0.37141900  1
  O  O61  1  0.05965000  0.95169000  0.16127300  1
  O  O62  1  0.30852350  0.15948950  0.87328200  1
  O  O63  1  0.60918500  0.65464400  0.00276500  1
  O  O64  1  0.55909050  0.16974450  0.80991500  1
  O  O65  1  0.39046950  0.34607950  0.49795000  1
  O  O66  1  0.43532200  0.83017200  0.68793400  1
  O  O67  1  0.56467800  0.83017200  0.31206600  1
