# generated using pymatgen
data_LiMn2(PO4)3
_symmetry_space_group_name_H-M   'P 1'
_cell_length_a   11.83561600
_cell_length_b   12.19655600
_cell_length_c   6.18823470
_cell_angle_alpha   90.00000000
_cell_angle_beta   112.94560568
_cell_angle_gamma   90.00000000
_symmetry_Int_Tables_number   1
_chemical_formula_structural   LiMn2(PO4)3
_chemical_formula_sum   'Li4 Mn8 P12 O48'
_cell_volume   822.61328830
_cell_formula_units_Z   4
loop_
 _symmetry_equiv_pos_site_id
 _symmetry_equiv_pos_as_xyz
  1  'x, y, z'
loop_
 _atom_site_type_symbol
 _atom_site_label
 _atom_site_symmetry_multiplicity
 _atom_site_fract_x
 _atom_site_fract_y
 _atom_site_fract_z
 _atom_site_occupancy
  Li  Li0  1  0.50000000  0.00000000  0.50000000  1
  Li  Li1  1  0.50000000  0.00000000  0.00000000  1
  Li  Li2  1  0.00000000  0.50000000  0.50000000  1
  Li  Li3  1  0.00000000  0.50000000  0.00000000  1
  Mn  Mn4  1  0.78028150  0.16028050  0.36272600  1
  Mn  Mn5  1  0.78028150  0.83971950  0.86272600  1
  Mn  Mn6  1  0.21971850  0.16028050  0.13727400  1
  Mn  Mn7  1  0.21971850  0.83971950  0.63727400  1
  Mn  Mn8  1  0.28028150  0.66028050  0.36272600  1
  Mn  Mn9  1  0.28028150  0.33971950  0.86272600  1
  Mn  Mn10  1  0.71971850  0.66028050  0.13727400  1
  Mn  Mn11  1  0.71971850  0.33971950  0.63727400  1
  P  P12  1  0.50000000  0.77591600  0.75000000  1
  P  P13  1  0.25657550  0.90451950  0.14133600  1
  P  P14  1  0.25657550  0.09548050  0.64133600  1
  P  P15  1  0.74342450  0.90451950  0.35866400  1
  P  P16  1  0.50000000  0.22408400  0.25000000  1
  P  P17  1  0.74342450  0.09548050  0.85866400  1
  P  P18  1  0.00000000  0.27591600  0.75000000  1
  P  P19  1  0.75657550  0.40451950  0.14133600  1
  P  P20  1  0.75657550  0.59548050  0.64133600  1
  P  P21  1  0.24342450  0.40451950  0.35866400  1
  P  P22  1  0.00000000  0.72408400  0.25000000  1
  P  P23  1  0.24342450  0.59548050  0.85866400  1
  O  O24  1  0.19354500  0.83740400  0.91021700  1
  O  O25  1  0.23468450  0.82458550  0.33004300  1
  O  O26  1  0.44606550  0.70317950  0.52597600  1
  O  O27  1  0.55393450  0.70317950  0.97402400  1
  O  O28  1  0.80645500  0.16259600  0.08978300  1
  O  O29  1  0.76531550  0.17541450  0.66995700  1
  O  O30  1  0.55393450  0.29682050  0.47402400  1
  O  O31  1  0.44606550  0.29682050  0.02597600  1
  O  O32  1  0.82202850  0.01100250  0.39172400  1
  O  O33  1  0.60015600  0.14650000  0.22625900  1
  O  O34  1  0.82202850  0.98899750  0.89172400  1
  O  O35  1  0.61079550  0.07231750  0.78747200  1
  O  O36  1  0.76531550  0.82458550  0.16995700  1
  O  O37  1  0.39984400  0.14650000  0.27374100  1
  O  O38  1  0.80645500  0.83740400  0.58978300  1
  O  O39  1  0.61079550  0.92768250  0.28747200  1
  O  O40  1  0.38920450  0.07231750  0.71252800  1
  O  O41  1  0.19354500  0.16259600  0.41021700  1
  O  O42  1  0.60015600  0.85350000  0.72625900  1
  O  O43  1  0.23468450  0.17541450  0.83004300  1
  O  O44  1  0.38920450  0.92768250  0.21252800  1
  O  O45  1  0.17797150  0.01100250  0.10827600  1
  O  O46  1  0.39984400  0.85350000  0.77374100  1
  O  O47  1  0.17797150  0.98899750  0.60827600  1
  O  O48  1  0.69354500  0.33740400  0.91021700  1
  O  O49  1  0.73468450  0.32458550  0.33004300  1
  O  O50  1  0.94606550  0.20317950  0.52597600  1
  O  O51  1  0.05393450  0.20317950  0.97402400  1
  O  O52  1  0.30645500  0.66259600  0.08978300  1
  O  O53  1  0.26531550  0.67541450  0.66995700  1
  O  O54  1  0.05393450  0.79682050  0.47402400  1
  O  O55  1  0.94606550  0.79682050  0.02597600  1
  O  O56  1  0.32202850  0.51100250  0.39172400  1
  O  O57  1  0.10015600  0.64650000  0.22625900  1
  O  O58  1  0.32202850  0.48899750  0.89172400  1
  O  O59  1  0.11079550  0.57231750  0.78747200  1
  O  O60  1  0.26531550  0.32458550  0.16995700  1
  O  O61  1  0.89984400  0.64650000  0.27374100  1
  O  O62  1  0.30645500  0.33740400  0.58978300  1
  O  O63  1  0.11079550  0.42768250  0.28747200  1
  O  O64  1  0.88920450  0.57231750  0.71252800  1
  O  O65  1  0.69354500  0.66259600  0.41021700  1
  O  O66  1  0.10015600  0.35350000  0.72625900  1
  O  O67  1  0.73468450  0.67541450  0.83004300  1
  O  O68  1  0.88920450  0.42768250  0.21252800  1
  O  O69  1  0.67797150  0.51100250  0.10827600  1
  O  O70  1  0.89984400  0.35350000  0.77374100  1
  O  O71  1  0.67797150  0.48899750  0.60827600  1
