# generated using pymatgen
data_LiV2(PO4)3
_symmetry_space_group_name_H-M   'P 1'
_cell_length_a   12.02109600
_cell_length_b   12.48775000
_cell_length_c   6.33284785
_cell_angle_alpha   90.00000000
_cell_angle_beta   113.76328040
_cell_angle_gamma   90.00000000
_symmetry_Int_Tables_number   1
_chemical_formula_structural   LiV2(PO4)3
_chemical_formula_sum   'Li4 V8 P12 O48'
_cell_volume   870.06543803
_cell_formula_units_Z   4
loop_
 _symmetry_equiv_pos_site_id
 _symmetry_equiv_pos_as_xyz
  1  'x, y, z'
loop_
 _atom_site_type_symbol
 _atom_site_label
 _atom_site_symmetry_multiplicity
 _atom_site_fract_x
 _atom_site_fract_y
 _atom_site_fract_z
 _atom_site_occupancy
  Li  Li0  1  0.50000000  0.00000000  0.50000000  1
  Li  Li1  1  0.50000000  0.00000000  0.00000000  1
  Li  Li2  1  0.00000000  0.50000000  0.50000000  1
  Li  Li3  1  0.00000000  0.50000000  0.00000000  1
  V  V4  1  0.21729250  0.15800450  0.63595500  1
  V  V5  1  0.21729250  0.84199550  0.13595500  1
  V  V6  1  0.78270750  0.15800450  0.86404500  1
  V  V7  1  0.78270750  0.84199550  0.36404500  1
  V  V8  1  0.71729250  0.65800450  0.63595500  1
  V  V9  1  0.71729250  0.34199550  0.13595500  1
  V  V10  1  0.28270750  0.65800450  0.86404500  1
  V  V11  1  0.28270750  0.34199550  0.36404500  1
  P  P12  1  0.50000000  0.22069500  0.75000000  1
  P  P13  1  0.25959750  0.09608850  0.15031800  1
  P  P14  1  0.25959750  0.90391150  0.65031800  1
  P  P15  1  0.74040250  0.09608850  0.34968200  1
  P  P16  1  0.74040250  0.90391150  0.84968200  1
  P  P17  1  0.50000000  0.77930500  0.25000000  1
  P  P18  1  0.00000000  0.72069500  0.75000000  1
  P  P19  1  0.75959750  0.59608850  0.15031800  1
  P  P20  1  0.75959750  0.40391150  0.65031800  1
  P  P21  1  0.24040250  0.59608850  0.34968200  1
  P  P22  1  0.24040250  0.40391150  0.84968200  1
  P  P23  1  0.00000000  0.27930500  0.25000000  1
  O  O24  1  0.20505050  0.15772650  0.91561600  1
  O  O25  1  0.23227750  0.17210650  0.32435800  1
  O  O26  1  0.44201150  0.29334050  0.53275300  1
  O  O27  1  0.55798850  0.29334050  0.96724700  1
  O  O28  1  0.18521600  0.01037700  0.61244500  1
  O  O29  1  0.39883900  0.14857600  0.76761700  1
  O  O30  1  0.18521600  0.98962300  0.11244500  1
  O  O31  1  0.23227750  0.82789350  0.82435800  1
  O  O32  1  0.39194950  0.07405550  0.23064800  1
  O  O33  1  0.60116100  0.14857600  0.73238300  1
  O  O34  1  0.20505050  0.84227350  0.41561600  1
  O  O35  1  0.39194950  0.92594450  0.73064800  1
  O  O36  1  0.60805050  0.07405550  0.26935200  1
  O  O37  1  0.79494950  0.15772650  0.58438400  1
  O  O38  1  0.39883900  0.85142400  0.26761700  1
  O  O39  1  0.60805050  0.92594450  0.76935200  1
  O  O40  1  0.76772250  0.17210650  0.17564200  1
  O  O41  1  0.81478400  0.01037700  0.88755500  1
  O  O42  1  0.60116100  0.85142400  0.23238300  1
  O  O43  1  0.81478400  0.98962300  0.38755500  1
  O  O44  1  0.44201150  0.70665950  0.03275300  1
  O  O45  1  0.55798850  0.70665950  0.46724700  1
  O  O46  1  0.76772250  0.82789350  0.67564200  1
  O  O47  1  0.79494950  0.84227350  0.08438400  1
  O  O48  1  0.70505050  0.65772650  0.91561600  1
  O  O49  1  0.73227750  0.67210650  0.32435800  1
  O  O50  1  0.94201150  0.79334050  0.53275300  1
  O  O51  1  0.05798850  0.79334050  0.96724700  1
  O  O52  1  0.68521600  0.51037700  0.61244500  1
  O  O53  1  0.89883900  0.64857600  0.76761700  1
  O  O54  1  0.68521600  0.48962300  0.11244500  1
  O  O55  1  0.73227750  0.32789350  0.82435800  1
  O  O56  1  0.89194950  0.57405550  0.23064800  1
  O  O57  1  0.10116100  0.64857600  0.73238300  1
  O  O58  1  0.70505050  0.34227350  0.41561600  1
  O  O59  1  0.89194950  0.42594450  0.73064800  1
  O  O60  1  0.10805050  0.57405550  0.26935200  1
  O  O61  1  0.29494950  0.65772650  0.58438400  1
  O  O62  1  0.89883900  0.35142400  0.26761700  1
  O  O63  1  0.10805050  0.42594450  0.76935200  1
  O  O64  1  0.26772250  0.67210650  0.17564200  1
  O  O65  1  0.31478400  0.51037700  0.88755500  1
  O  O66  1  0.10116100  0.35142400  0.23238300  1
  O  O67  1  0.31478400  0.48962300  0.38755500  1
  O  O68  1  0.94201150  0.20665950  0.03275300  1
  O  O69  1  0.05798850  0.20665950  0.46724700  1
  O  O70  1  0.26772250  0.32789350  0.67564200  1
  O  O71  1  0.29494950  0.34227350  0.08438400  1
