# generated using pymatgen
data_Er6Ni2Sn
_symmetry_space_group_name_H-M   'P 1'
_cell_length_a   9.19989600
_cell_length_b   9.59545000
_cell_length_c   10.07622800
_cell_angle_alpha   90.00000000
_cell_angle_beta   90.00000000
_cell_angle_gamma   90.00000000
_symmetry_Int_Tables_number   1
_chemical_formula_structural   Er6Ni2Sn
_chemical_formula_sum   'Er24 Ni8 Sn4'
_cell_volume   889.50061072
_cell_formula_units_Z   4
loop_
 _symmetry_equiv_pos_site_id
 _symmetry_equiv_pos_as_xyz
  1  'x, y, z'
loop_
 _atom_site_type_symbol
 _atom_site_label
 _atom_site_symmetry_multiplicity
 _atom_site_fract_x
 _atom_site_fract_y
 _atom_site_fract_z
 _atom_site_occupancy
  Er  Er0  1  0.30936200  0.50000000  0.82546900  1
  Er  Er1  1  0.30936200  0.50000000  0.17453100  1
  Er  Er2  1  0.50000000  0.20444900  0.23334500  1
  Er  Er3  1  0.00000000  0.29555100  0.26665500  1
  Er  Er4  1  0.00000000  0.70444900  0.26665500  1
  Er  Er5  1  0.50000000  0.79555100  0.23334500  1
  Er  Er6  1  0.19063800  0.00000000  0.32546900  1
  Er  Er7  1  0.19063800  0.00000000  0.67453100  1
  Er  Er8  1  0.79198900  0.18254600  0.00000000  1
  Er  Er9  1  0.29198900  0.31745400  0.50000000  1
  Er  Er10  1  0.20801100  0.18254600  0.00000000  1
  Er  Er11  1  0.70801100  0.31745400  0.50000000  1
  Er  Er12  1  0.80936200  0.00000000  0.32546900  1
  Er  Er13  1  0.80936200  0.00000000  0.67453100  1
  Er  Er14  1  0.00000000  0.70444900  0.73334500  1
  Er  Er15  1  0.50000000  0.79555100  0.76665500  1
  Er  Er16  1  0.50000000  0.20444900  0.76665500  1
  Er  Er17  1  0.00000000  0.29555100  0.73334500  1
  Er  Er18  1  0.69063800  0.50000000  0.82546900  1
  Er  Er19  1  0.69063800  0.50000000  0.17453100  1
  Er  Er20  1  0.29198900  0.68254600  0.50000000  1
  Er  Er21  1  0.79198900  0.81745400  0.00000000  1
  Er  Er22  1  0.70801100  0.68254600  0.50000000  1
  Er  Er23  1  0.20801100  0.81745400  0.00000000  1
  Ni  Ni24  1  0.00000000  0.00000000  0.87644600  1
  Ni  Ni25  1  0.00000000  0.00000000  0.12355400  1
  Ni  Ni26  1  0.00000000  0.15055000  0.50000000  1
  Ni  Ni27  1  0.50000000  0.34945000  0.00000000  1
  Ni  Ni28  1  0.50000000  0.50000000  0.37644600  1
  Ni  Ni29  1  0.50000000  0.50000000  0.62355400  1
  Ni  Ni30  1  0.50000000  0.65055000  0.00000000  1
  Ni  Ni31  1  0.00000000  0.84945000  0.50000000  1
  Sn  Sn32  1  0.00000000  0.50000000  0.00000000  1
  Sn  Sn33  1  0.50000000  0.00000000  0.00000000  1
  Sn  Sn34  1  0.50000000  0.00000000  0.50000000  1
  Sn  Sn35  1  0.00000000  0.50000000  0.50000000  1
