# generated using pymatgen
data_Ba3(CrS3)2
_symmetry_space_group_name_H-M   'P 1'
_cell_length_a   11.93731258
_cell_length_b   11.93731258
_cell_length_c   12.93336391
_cell_angle_alpha   90.00000000
_cell_angle_beta   90.00000000
_cell_angle_gamma   120.00000000
_symmetry_Int_Tables_number   1
_chemical_formula_structural   Ba3(CrS3)2
_chemical_formula_sum   'Ba18 Cr12 S36'
_cell_volume   1596.08222630
_cell_formula_units_Z   6
loop_
 _symmetry_equiv_pos_site_id
 _symmetry_equiv_pos_as_xyz
  1  'x, y, z'
loop_
 _atom_site_type_symbol
 _atom_site_label
 _atom_site_symmetry_multiplicity
 _atom_site_fract_x
 _atom_site_fract_y
 _atom_site_fract_z
 _atom_site_occupancy
  Ba  Ba0  1  0.33333333  0.05166267  0.41666667  1
  Ba  Ba1  1  0.94833733  0.28167067  0.41666667  1
  Ba  Ba2  1  0.71832933  0.66666667  0.41666667  1
  Ba  Ba3  1  0.66666667  0.94833733  0.58333333  1
  Ba  Ba4  1  0.05166267  0.71832933  0.58333333  1
  Ba  Ba5  1  0.28167067  0.33333333  0.58333333  1
  Ba  Ba6  1  0.00000000  0.38499600  0.75000000  1
  Ba  Ba7  1  0.61500400  0.61500400  0.75000000  1
  Ba  Ba8  1  0.38499600  0.00000000  0.75000000  1
  Ba  Ba9  1  0.33333333  0.28167067  0.91666667  1
  Ba  Ba10  1  0.71832933  0.05166267  0.91666667  1
  Ba  Ba11  1  0.94833733  0.66666667  0.91666667  1
  Ba  Ba12  1  0.66666667  0.71832933  0.08333333  1
  Ba  Ba13  1  0.28167067  0.94833733  0.08333333  1
  Ba  Ba14  1  0.05166267  0.33333333  0.08333333  1
  Ba  Ba15  1  0.00000000  0.61500400  0.25000000  1
  Ba  Ba16  1  0.38499600  0.38499600  0.25000000  1
  Ba  Ba17  1  0.61500400  0.00000000  0.25000000  1
  Cr  Cr18  1  0.00000000  0.00000000  0.50000000  1
  Cr  Cr19  1  0.00000000  0.00000000  0.00000000  1
  Cr  Cr20  1  0.00000000  0.00000000  0.25000000  1
  Cr  Cr21  1  0.00000000  0.00000000  0.75000000  1
  Cr  Cr22  1  0.66666667  0.33333333  0.83333333  1
  Cr  Cr23  1  0.66666667  0.33333333  0.33333333  1
  Cr  Cr24  1  0.66666667  0.33333333  0.58333333  1
  Cr  Cr25  1  0.66666667  0.33333333  0.08333333  1
  Cr  Cr26  1  0.33333333  0.66666667  0.16666667  1
  Cr  Cr27  1  0.33333333  0.66666667  0.66666667  1
  Cr  Cr28  1  0.33333333  0.66666667  0.91666667  1
  Cr  Cr29  1  0.33333333  0.66666667  0.41666667  1
  S  S30  1  0.03006400  0.86100100  0.37861700  1
  S  S31  1  0.13899900  0.16906300  0.37861700  1
  S  S32  1  0.83093700  0.96993600  0.37861700  1
  S  S33  1  0.83572967  0.47233233  0.45471633  1
  S  S34  1  0.52766767  0.36339733  0.45471633  1
  S  S35  1  0.63660267  0.16427033  0.45471633  1
  S  S36  1  0.96993600  0.13899900  0.62138300  1
  S  S37  1  0.86100100  0.83093700  0.62138300  1
  S  S38  1  0.16906300  0.03006400  0.62138300  1
  S  S39  1  0.16427033  0.52766767  0.54528367  1
  S  S40  1  0.36339733  0.83572967  0.54528367  1
  S  S41  1  0.47233233  0.63660267  0.54528367  1
  S  S42  1  0.69673067  0.19433433  0.71195033  1
  S  S43  1  0.80566567  0.50239633  0.71195033  1
  S  S44  1  0.49760367  0.30326933  0.71195033  1
  S  S45  1  0.50239633  0.80566567  0.78804967  1
  S  S46  1  0.19433433  0.69673067  0.78804967  1
  S  S47  1  0.30326933  0.49760367  0.78804967  1
  S  S48  1  0.63660267  0.47233233  0.95471633  1
  S  S49  1  0.52766767  0.16427033  0.95471633  1
  S  S50  1  0.83572967  0.36339733  0.95471633  1
  S  S51  1  0.83093700  0.86100100  0.87861700  1
  S  S52  1  0.03006400  0.16906300  0.87861700  1
  S  S53  1  0.13899900  0.96993600  0.87861700  1
  S  S54  1  0.36339733  0.52766767  0.04528367  1
  S  S55  1  0.47233233  0.83572967  0.04528367  1
  S  S56  1  0.16427033  0.63660267  0.04528367  1
  S  S57  1  0.16906300  0.13899900  0.12138300  1
  S  S58  1  0.86100100  0.03006400  0.12138300  1
  S  S59  1  0.96993600  0.83093700  0.12138300  1
  S  S60  1  0.30326933  0.80566567  0.28804967  1
  S  S61  1  0.19433433  0.49760367  0.28804967  1
  S  S62  1  0.50239633  0.69673067  0.28804967  1
  S  S63  1  0.49760367  0.19433433  0.21195033  1
  S  S64  1  0.69673067  0.50239633  0.21195033  1
  S  S65  1  0.80566567  0.30326933  0.21195033  1
