# generated using pymatgen
data_Ho2Co12P7
_symmetry_space_group_name_H-M   'P 1'
_cell_length_a   8.99958815
_cell_length_b   8.99958815
_cell_length_c   3.58185300
_cell_angle_alpha   90.00000000
_cell_angle_beta   90.00000000
_cell_angle_gamma   120.00000000
_symmetry_Int_Tables_number   1
_chemical_formula_structural   Ho2Co12P7
_chemical_formula_sum   'Ho2 Co12 P7'
_cell_volume   251.23703536
_cell_formula_units_Z   1
loop_
 _symmetry_equiv_pos_site_id
 _symmetry_equiv_pos_as_xyz
  1  'x, y, z'
loop_
 _atom_site_type_symbol
 _atom_site_label
 _atom_site_symmetry_multiplicity
 _atom_site_fract_x
 _atom_site_fract_y
 _atom_site_fract_z
 _atom_site_occupancy
  Ho  Ho0  1  0.66666667  0.33333333  0.50000000  1
  Ho  Ho1  1  0.33333333  0.66666667  0.00000000  1
  Co  Co2  1  0.11913267  0.84633333  0.00000000  1
  Co  Co3  1  0.38250267  0.43522833  0.50000000  1
  Co  Co4  1  0.72720067  0.88086733  0.00000000  1
  Co  Co5  1  0.56477167  0.94727433  0.50000000  1
  Co  Co6  1  0.23406267  0.10251433  0.50000000  1
  Co  Co7  1  0.86845167  0.76593733  0.50000000  1
  Co  Co8  1  0.89748567  0.13154833  0.50000000  1
  Co  Co9  1  0.93994667  0.37437933  0.00000000  1
  Co  Co10  1  0.62562067  0.56556733  0.00000000  1
  Co  Co11  1  0.43443267  0.06005333  0.00000000  1
  Co  Co12  1  0.05272567  0.61749733  0.50000000  1
  Co  Co13  1  0.15366667  0.27279933  0.00000000  1
  P  P14  1  0.00000000  0.00000000  0.00000000  1
  P  P15  1  0.59731667  0.70869533  0.50000000  1
  P  P16  1  0.70631467  0.11287833  0.00000000  1
  P  P17  1  0.88712167  0.59343633  0.00000000  1
  P  P18  1  0.40656367  0.29368533  0.00000000  1
  P  P19  1  0.29130467  0.88862133  0.50000000  1
  P  P20  1  0.11137867  0.40268333  0.50000000  1
