# generated using pymatgen
data_Co3(PO4)4
_symmetry_space_group_name_H-M   'P 1'
_cell_length_a   7.51424100
_cell_length_b   7.51516900
_cell_length_c   9.96277317
_cell_angle_alpha   90.00000000
_cell_angle_beta   93.60959609
_cell_angle_gamma   90.00000000
_symmetry_Int_Tables_number   1
_chemical_formula_structural   Co3(PO4)4
_chemical_formula_sum   'Co6 P8 O32'
_cell_volume   561.48958337
_cell_formula_units_Z   2
loop_
 _symmetry_equiv_pos_site_id
 _symmetry_equiv_pos_as_xyz
  1  'x, y, z'
loop_
 _atom_site_type_symbol
 _atom_site_label
 _atom_site_symmetry_multiplicity
 _atom_site_fract_x
 _atom_site_fract_y
 _atom_site_fract_z
 _atom_site_occupancy
  Co  Co0  1  0.75935900  0.50976200  0.37658300  1
  Co  Co1  1  0.34001100  0.63560600  0.68473400  1
  Co  Co2  1  0.65998900  0.13560600  0.31526600  1
  Co  Co3  1  0.76236100  0.49185000  0.87164800  1
  Co  Co4  1  0.23763900  0.99185000  0.12835200  1
  Co  Co5  1  0.24064100  0.00976200  0.62341700  1
  P  P6  1  0.05350400  0.19995800  0.35853100  1
  P  P7  1  0.44766900  0.82670100  0.89911300  1
  P  P8  1  0.43732800  0.79919300  0.38712800  1
  P  P9  1  0.94649600  0.69995800  0.64146900  1
  P  P10  1  0.93749500  0.68531800  0.13679900  1
  P  P11  1  0.55233100  0.32670100  0.10088700  1
  P  P12  1  0.56267200  0.29919300  0.61287200  1
  P  P13  1  0.06250500  0.18531800  0.86320100  1
  O  O14  1  0.08658800  0.54688600  0.16059000  1
  O  O15  1  0.98823500  0.38927400  0.39184000  1
  O  O16  1  0.00046200  0.87107500  0.09603600  1
  O  O17  1  0.89015600  0.06802800  0.34734900  1
  O  O18  1  0.91341200  0.04688600  0.83941000  1
  O  O19  1  0.41550400  0.44536700  0.59544900  1
  O  O20  1  0.58449600  0.94536700  0.40455100  1
  O  O21  1  0.10984400  0.56802800  0.65265100  1
  O  O22  1  0.52237200  0.62003700  0.35810700  1
  O  O23  1  0.78487600  0.62887700  0.03366000  1
  O  O24  1  0.85913300  0.68993800  0.77869200  1
  O  O25  1  0.85723100  0.69245500  0.27854700  1
  O  O26  1  0.47762800  0.12003700  0.64189300  1
  O  O27  1  0.01176500  0.88927400  0.60816000  1
  O  O28  1  0.14086700  0.18993800  0.22130800  1
  O  O29  1  0.50195400  0.13328300  0.15973000  1
  O  O30  1  0.59482200  0.95813300  0.90471900  1
  O  O31  1  0.99953800  0.37107500  0.90396400  1
  O  O32  1  0.71810800  0.35081000  0.71156400  1
  O  O33  1  0.29643000  0.85309300  0.77415600  1
  O  O34  1  0.65283000  0.30557500  0.97216900  1
  O  O35  1  0.70357000  0.35309300  0.22584400  1
  O  O36  1  0.19714500  0.13696000  0.46397000  1
  O  O37  1  0.14276900  0.19245500  0.72145300  1
  O  O38  1  0.40517800  0.45813300  0.09528100  1
  O  O39  1  0.80285500  0.63696000  0.53603000  1
  O  O40  1  0.49804600  0.63328300  0.84027000  1
  O  O41  1  0.64515700  0.30148900  0.46871700  1
  O  O42  1  0.21512400  0.12887700  0.96634000  1
  O  O43  1  0.34717000  0.80557500  0.02783100  1
  O  O44  1  0.28189200  0.85081000  0.28843600  1
  O  O45  1  0.35484300  0.80148900  0.53128300  1
