# generated using pymatgen
data_Li5SiAs3
_symmetry_space_group_name_H-M   'P 1'
_cell_length_a   13.36604200
_cell_length_b   6.01019600
_cell_length_c   8.54600969
_cell_angle_alpha   90.00000000
_cell_angle_beta   108.42372282
_cell_angle_gamma   90.00000000
_symmetry_Int_Tables_number   1
_chemical_formula_structural   Li5SiAs3
_chemical_formula_sum   'Li20 Si4 As12'
_cell_volume   651.33504613
_cell_formula_units_Z   4
loop_
 _symmetry_equiv_pos_site_id
 _symmetry_equiv_pos_as_xyz
  1  'x, y, z'
loop_
 _atom_site_type_symbol
 _atom_site_label
 _atom_site_symmetry_multiplicity
 _atom_site_fract_x
 _atom_site_fract_y
 _atom_site_fract_z
 _atom_site_occupancy
  Li  Li0  1  0.00000000  0.24891600  0.75000000  1
  Li  Li1  1  0.83739800  0.74812300  0.92817000  1
  Li  Li2  1  0.66652800  0.24576200  0.08807800  1
  Li  Li3  1  0.66260200  0.75187700  0.07183000  1
  Li  Li4  1  0.83347200  0.74576200  0.41192200  1
  Li  Li5  1  0.00000000  0.75108400  0.25000000  1
  Li  Li6  1  0.83739800  0.25187700  0.42817000  1
  Li  Li7  1  0.66260200  0.24812300  0.57183000  1
  Li  Li8  1  0.66652800  0.75423800  0.58807800  1
  Li  Li9  1  0.83347200  0.25423800  0.91192200  1
  Li  Li10  1  0.50000000  0.74891600  0.75000000  1
  Li  Li11  1  0.33739800  0.24812300  0.92817000  1
  Li  Li12  1  0.16652800  0.74576200  0.08807800  1
  Li  Li13  1  0.16260200  0.25187700  0.07183000  1
  Li  Li14  1  0.33347200  0.24576200  0.41192200  1
  Li  Li15  1  0.50000000  0.25108400  0.25000000  1
  Li  Li16  1  0.33739800  0.75187700  0.42817000  1
  Li  Li17  1  0.16260200  0.74812300  0.57183000  1
  Li  Li18  1  0.16652800  0.25423800  0.58807800  1
  Li  Li19  1  0.33347200  0.75423800  0.91192200  1
  Si  Si20  1  0.00000000  0.73754600  0.75000000  1
  Si  Si21  1  0.00000000  0.26245400  0.25000000  1
  Si  Si22  1  0.50000000  0.23754600  0.75000000  1
  Si  Si23  1  0.50000000  0.76245400  0.25000000  1
  As  As24  1  0.00000000  0.00000000  0.00000000  1
  As  As25  1  0.65710200  0.97142400  0.32385500  1
  As  As26  1  0.00000000  0.00000000  0.50000000  1
  As  As27  1  0.84289800  0.52857600  0.67614500  1
  As  As28  1  0.65710200  0.02857600  0.82385500  1
  As  As29  1  0.84289800  0.47142400  0.17614500  1
  As  As30  1  0.50000000  0.50000000  0.00000000  1
  As  As31  1  0.15710200  0.47142400  0.32385500  1
  As  As32  1  0.50000000  0.50000000  0.50000000  1
  As  As33  1  0.34289800  0.02857600  0.67614500  1
  As  As34  1  0.15710200  0.52857600  0.82385500  1
  As  As35  1  0.34289800  0.97142400  0.17614500  1
