# generated using pymatgen
data_Na3(WO3)4
_symmetry_space_group_name_H-M   'P 1'
_cell_length_a   7.85610400
_cell_length_b   7.87127000
_cell_length_c   7.87440000
_cell_angle_alpha   90.00000000
_cell_angle_beta   90.00000000
_cell_angle_gamma   90.00000000
_symmetry_Int_Tables_number   1
_chemical_formula_structural   Na3(WO3)4
_chemical_formula_sum   'Na6 W8 O24'
_cell_volume   486.93333388
_cell_formula_units_Z   2
loop_
 _symmetry_equiv_pos_site_id
 _symmetry_equiv_pos_as_xyz
  1  'x, y, z'
loop_
 _atom_site_type_symbol
 _atom_site_label
 _atom_site_symmetry_multiplicity
 _atom_site_fract_x
 _atom_site_fract_y
 _atom_site_fract_z
 _atom_site_occupancy
  Na  Na0  1  0.00000000  0.50000000  0.00000000  1
  Na  Na1  1  0.00000000  0.00000000  0.50000000  1
  Na  Na2  1  0.50000000  0.00000000  0.00000000  1
  Na  Na3  1  0.50000000  0.00000000  0.50000000  1
  Na  Na4  1  0.50000000  0.50000000  0.00000000  1
  Na  Na5  1  0.00000000  0.50000000  0.50000000  1
  W  W6  1  0.75000000  0.25000000  0.25000000  1
  W  W7  1  0.25000000  0.75000000  0.25000000  1
  W  W8  1  0.25000000  0.25000000  0.25000000  1
  W  W9  1  0.25000000  0.25000000  0.75000000  1
  W  W10  1  0.25000000  0.75000000  0.75000000  1
  W  W11  1  0.75000000  0.25000000  0.75000000  1
  W  W12  1  0.75000000  0.75000000  0.75000000  1
  W  W13  1  0.75000000  0.75000000  0.25000000  1
  O  O14  1  0.25428800  0.74512800  0.00000000  1
  O  O15  1  0.50000000  0.26648950  0.75094250  1
  O  O16  1  0.77147800  0.50000000  0.24934600  1
  O  O17  1  0.24571200  0.75487200  0.50000000  1
  O  O18  1  0.25428800  0.25487200  0.00000000  1
  O  O19  1  0.27147800  0.00000000  0.25065400  1
  O  O20  1  0.50000000  0.26648950  0.24905750  1
  O  O21  1  0.00000000  0.23351050  0.25094250  1
  O  O22  1  0.22852200  0.50000000  0.24934600  1
  O  O23  1  0.24571200  0.24512800  0.50000000  1
  O  O24  1  0.00000000  0.23351050  0.74905750  1
  O  O25  1  0.72852200  0.00000000  0.25065400  1
  O  O26  1  0.75428800  0.24512800  0.50000000  1
  O  O27  1  0.00000000  0.76648950  0.25094250  1
  O  O28  1  0.27147800  0.00000000  0.74934600  1
  O  O29  1  0.74571200  0.25487200  0.00000000  1
  O  O30  1  0.75428800  0.75487200  0.50000000  1
  O  O31  1  0.77147800  0.50000000  0.75065400  1
  O  O32  1  0.00000000  0.76648950  0.74905750  1
  O  O33  1  0.50000000  0.73351050  0.75094250  1
  O  O34  1  0.72852200  0.00000000  0.74934600  1
  O  O35  1  0.74571200  0.74512800  0.00000000  1
  O  O36  1  0.50000000  0.73351050  0.24905750  1
  O  O37  1  0.22852200  0.50000000  0.75065400  1
