# generated using pymatgen
data_LiFePO4
_symmetry_space_group_name_H-M   'P 1'
_cell_length_a   7.99080179
_cell_length_b   5.43141800
_cell_length_c   8.56640892
_cell_angle_alpha   90.00000000
_cell_angle_beta   104.10683454
_cell_angle_gamma   90.00000000
_symmetry_Int_Tables_number   1
_chemical_formula_structural   LiFePO4
_chemical_formula_sum   'Li4 Fe4 P4 O16'
_cell_volume   360.58179790
_cell_formula_units_Z   4
loop_
 _symmetry_equiv_pos_site_id
 _symmetry_equiv_pos_as_xyz
  1  'x, y, z'
loop_
 _atom_site_type_symbol
 _atom_site_label
 _atom_site_symmetry_multiplicity
 _atom_site_fract_x
 _atom_site_fract_y
 _atom_site_fract_z
 _atom_site_occupancy
  Li  Li0  1  0.03395800  0.65245800  0.43056400  1
  Li  Li1  1  0.03395800  0.34754200  0.93056400  1
  Li  Li2  1  0.49960100  0.16368600  0.22031100  1
  Li  Li3  1  0.49960100  0.83631400  0.72031100  1
  Fe  Fe4  1  0.12972200  0.83658700  0.79819700  1
  Fe  Fe5  1  0.63824300  0.32674000  0.60838500  1
  Fe  Fe6  1  0.12972200  0.16341300  0.29819700  1
  Fe  Fe7  1  0.63824300  0.67326000  0.10838500  1
  P  P8  1  0.25820800  0.33012000  0.67175200  1
  P  P9  1  0.25820800  0.66988000  0.17175200  1
  P  P10  1  0.75350800  0.16979000  0.98736900  1
  P  P11  1  0.75350800  0.83021000  0.48736900  1
  O  O12  1  0.17482300  0.20410700  0.79784500  1
  O  O13  1  0.17482300  0.79589300  0.29784500  1
  O  O14  1  0.12568900  0.33372500  0.50410100  1
  O  O15  1  0.12568900  0.66627500  0.00410100  1
  O  O16  1  0.77985500  0.69183100  0.33652400  1
  O  O17  1  0.77985500  0.30816900  0.83652400  1
  O  O18  1  0.30471300  0.60202300  0.72446100  1
  O  O19  1  0.30471300  0.39797700  0.22446100  1
  O  O20  1  0.67696300  0.90856600  0.94031600  1
  O  O21  1  0.67696300  0.09143400  0.44031600  1
  O  O22  1  0.41873100  0.81962400  0.15743900  1
  O  O23  1  0.41873100  0.18037600  0.65743900  1
  O  O24  1  0.93864000  0.83677600  0.59816800  1
  O  O25  1  0.93864000  0.16322400  0.09816800  1
  O  O26  1  0.62859900  0.30825300  0.07080500  1
  O  O27  1  0.62859900  0.69174700  0.57080500  1
