# generated using pymatgen
data_Sc3Co2Ge3
_symmetry_space_group_name_H-M   'P 1'
_cell_length_a   4.04154200
_cell_length_b   9.90362200
_cell_length_c   13.29105600
_cell_angle_alpha   90.00000000
_cell_angle_beta   90.00000000
_cell_angle_gamma   90.00000000
_symmetry_Int_Tables_number   1
_chemical_formula_structural   Sc3Co2Ge3
_chemical_formula_sum   'Sc12 Co8 Ge12'
_cell_volume   531.98653504
_cell_formula_units_Z   4
loop_
 _symmetry_equiv_pos_site_id
 _symmetry_equiv_pos_as_xyz
  1  'x, y, z'
loop_
 _atom_site_type_symbol
 _atom_site_label
 _atom_site_symmetry_multiplicity
 _atom_site_fract_x
 _atom_site_fract_y
 _atom_site_fract_z
 _atom_site_occupancy
  Sc  Sc0  1  0.00000000  0.42003400  0.38945100  1
  Sc  Sc1  1  0.50000000  0.07996600  0.61054900  1
  Sc  Sc2  1  0.50000000  0.07996600  0.88945100  1
  Sc  Sc3  1  0.00000000  0.42003400  0.11054900  1
  Sc  Sc4  1  0.00000000  0.14656900  0.25000000  1
  Sc  Sc5  1  0.50000000  0.35343100  0.75000000  1
  Sc  Sc6  1  0.50000000  0.92003400  0.38945100  1
  Sc  Sc7  1  0.00000000  0.57996600  0.61054900  1
  Sc  Sc8  1  0.00000000  0.57996600  0.88945100  1
  Sc  Sc9  1  0.50000000  0.92003400  0.11054900  1
  Sc  Sc10  1  0.50000000  0.64656900  0.25000000  1
  Sc  Sc11  1  0.00000000  0.85343100  0.75000000  1
  Co  Co12  1  0.50000000  0.20902700  0.40203500  1
  Co  Co13  1  0.00000000  0.29097300  0.59796500  1
  Co  Co14  1  0.00000000  0.29097300  0.90203500  1
  Co  Co15  1  0.50000000  0.20902700  0.09796500  1
  Co  Co16  1  0.00000000  0.70902700  0.40203500  1
  Co  Co17  1  0.50000000  0.79097300  0.59796500  1
  Co  Co18  1  0.50000000  0.79097300  0.90203500  1
  Co  Co19  1  0.00000000  0.70902700  0.09796500  1
  Ge  Ge20  1  0.00000000  0.12320400  0.46015400  1
  Ge  Ge21  1  0.50000000  0.37679600  0.53984600  1
  Ge  Ge22  1  0.50000000  0.37679600  0.96015400  1
  Ge  Ge23  1  0.00000000  0.12320400  0.03984600  1
  Ge  Ge24  1  0.50000000  0.34645300  0.25000000  1
  Ge  Ge25  1  0.00000000  0.15354700  0.75000000  1
  Ge  Ge26  1  0.50000000  0.62320400  0.46015400  1
  Ge  Ge27  1  0.00000000  0.87679600  0.53984600  1
  Ge  Ge28  1  0.00000000  0.87679600  0.96015400  1
  Ge  Ge29  1  0.50000000  0.62320400  0.03984600  1
  Ge  Ge30  1  0.00000000  0.84645300  0.25000000  1
  Ge  Ge31  1  0.50000000  0.65354700  0.75000000  1
