# generated using pymatgen
data_CdBi3O7
_symmetry_space_group_name_H-M   'P 1'
_cell_length_a   6.44360600
_cell_length_b   3.96743000
_cell_length_c   13.17099773
_cell_angle_alpha   90.00000000
_cell_angle_beta   98.35463445
_cell_angle_gamma   90.00000000
_symmetry_Int_Tables_number   1
_chemical_formula_structural   CdBi3O7
_chemical_formula_sum   'Cd2 Bi6 O14'
_cell_volume   333.13742691
_cell_formula_units_Z   2
loop_
 _symmetry_equiv_pos_site_id
 _symmetry_equiv_pos_as_xyz
  1  'x, y, z'
loop_
 _atom_site_type_symbol
 _atom_site_label
 _atom_site_symmetry_multiplicity
 _atom_site_fract_x
 _atom_site_fract_y
 _atom_site_fract_z
 _atom_site_occupancy
  Cd  Cd0  1  0.73153500  0.00000000  0.24269900  1
  Cd  Cd1  1  0.23153500  0.50000000  0.24269900  1
  Bi  Bi2  1  0.44916300  0.00000000  0.49510000  1
  Bi  Bi3  1  0.20462000  0.00000000  0.73473900  1
  Bi  Bi4  1  0.02930700  0.00000000  0.02355300  1
  Bi  Bi5  1  0.94916300  0.50000000  0.49510000  1
  Bi  Bi6  1  0.70462000  0.50000000  0.73473900  1
  Bi  Bi7  1  0.52930700  0.50000000  0.02355300  1
  O  O8  1  0.39140000  0.00000000  0.07809300  1
  O  O9  1  0.12918000  0.00000000  0.55875300  1
  O  O10  1  0.06789100  0.00000000  0.20319600  1
  O  O11  1  0.87724900  0.00000000  0.76444900  1
  O  O12  1  0.76222800  0.00000000  0.41573400  1
  O  O13  1  0.51267900  0.00000000  0.67042700  1
  O  O14  1  0.26774700  0.00000000  0.89825800  1
  O  O15  1  0.89140000  0.50000000  0.07809300  1
  O  O16  1  0.62918000  0.50000000  0.55875300  1
  O  O17  1  0.56789100  0.50000000  0.20319600  1
  O  O18  1  0.37724900  0.50000000  0.76444900  1
  O  O19  1  0.26222800  0.50000000  0.41573400  1
  O  O20  1  0.01267900  0.50000000  0.67042700  1
  O  O21  1  0.76774700  0.50000000  0.89825800  1
