# generated using pymatgen
data_Ga2Te3
_symmetry_space_group_name_H-M   'P 1'
_cell_length_a   14.21765400
_cell_length_b   4.17563800
_cell_length_c   14.86070449
_cell_angle_alpha   90.00000000
_cell_angle_beta   97.85285801
_cell_angle_gamma   90.00000000
_symmetry_Int_Tables_number   1
_chemical_formula_structural   Ga2Te3
_chemical_formula_sum   'Ga8 Te12'
_cell_volume   873.97345762
_cell_formula_units_Z   4
loop_
 _symmetry_equiv_pos_site_id
 _symmetry_equiv_pos_as_xyz
  1  'x, y, z'
loop_
 _atom_site_type_symbol
 _atom_site_label
 _atom_site_symmetry_multiplicity
 _atom_site_fract_x
 _atom_site_fract_y
 _atom_site_fract_z
 _atom_site_occupancy
  Ga  Ga0  1  0.55414400  0.50000000  0.34889900  1
  Ga  Ga1  1  0.57297000  0.50000000  0.83483800  1
  Ga  Ga2  1  0.80478700  0.50000000  0.72381900  1
  Ga  Ga3  1  0.81934200  0.00000000  0.46786400  1
  Ga  Ga4  1  0.05414400  0.00000000  0.34889900  1
  Ga  Ga5  1  0.07297000  0.00000000  0.83483800  1
  Ga  Ga6  1  0.30478700  0.00000000  0.72381900  1
  Ga  Ga7  1  0.31934200  0.50000000  0.46786400  1
  Te  Te8  1  0.50735800  0.00000000  0.24562600  1
  Te  Te9  1  0.50273000  0.50000000  0.51556000  1
  Te  Te10  1  0.73536900  0.00000000  0.62263200  1
  Te  Te11  1  0.99912300  0.50000000  0.73658900  1
  Te  Te12  1  0.75400500  0.50000000  0.88650800  1
  Te  Te13  1  0.75017200  0.50000000  0.36766600  1
  Te  Te14  1  0.00735800  0.50000000  0.24562600  1
  Te  Te15  1  0.00273000  0.00000000  0.51556000  1
  Te  Te16  1  0.23536900  0.50000000  0.62263200  1
  Te  Te17  1  0.49912300  0.00000000  0.73658900  1
  Te  Te18  1  0.25400500  0.00000000  0.88650800  1
  Te  Te19  1  0.25017200  0.00000000  0.36766600  1
