# generated using pymatgen
data_Na3FeO3
_symmetry_space_group_name_H-M   'P 1'
_cell_length_a   5.81545200
_cell_length_b   12.76013600
_cell_length_c   6.28521532
_cell_angle_alpha   90.00000000
_cell_angle_beta   122.07881933
_cell_angle_gamma   90.00000000
_symmetry_Int_Tables_number   1
_chemical_formula_structural   Na3FeO3
_chemical_formula_sum   'Na12 Fe4 O12'
_cell_volume   395.18961964
_cell_formula_units_Z   4
loop_
 _symmetry_equiv_pos_site_id
 _symmetry_equiv_pos_as_xyz
  1  'x, y, z'
loop_
 _atom_site_type_symbol
 _atom_site_label
 _atom_site_symmetry_multiplicity
 _atom_site_fract_x
 _atom_site_fract_y
 _atom_site_fract_z
 _atom_site_occupancy
  Na  Na0  1  0.44731900  0.22255600  0.30414000  1
  Na  Na1  1  0.55268100  0.72255600  0.19586000  1
  Na  Na2  1  0.55268100  0.77744400  0.69586000  1
  Na  Na3  1  0.44731900  0.27744400  0.80414000  1
  Na  Na4  1  0.53835500  0.98474700  0.28073700  1
  Na  Na5  1  0.46164500  0.48474700  0.21926300  1
  Na  Na6  1  0.06715100  0.40350500  0.35618800  1
  Na  Na7  1  0.93284900  0.90350500  0.14381200  1
  Na  Na8  1  0.93284900  0.59649500  0.64381200  1
  Na  Na9  1  0.06715100  0.09649500  0.85618800  1
  Na  Na10  1  0.46164500  0.01525300  0.71926300  1
  Na  Na11  1  0.53835500  0.51525300  0.78073700  1
  Fe  Fe12  1  0.91852100  0.16391600  0.24189000  1
  Fe  Fe13  1  0.08147900  0.66391600  0.25811000  1
  Fe  Fe14  1  0.08147900  0.83608400  0.75811000  1
  Fe  Fe15  1  0.91852100  0.33608400  0.74189000  1
  O  O16  1  0.97255800  0.22821400  0.54766000  1
  O  O17  1  0.02744200  0.72821400  0.95234000  1
  O  O18  1  0.02744200  0.77178600  0.45234000  1
  O  O19  1  0.97255800  0.27178600  0.04766000  1
  O  O20  1  0.44772300  0.87335500  0.95203900  1
  O  O21  1  0.55227700  0.37335500  0.54796100  1
  O  O22  1  0.17913100  0.06238200  0.30127400  1
  O  O23  1  0.82086900  0.56238200  0.19872600  1
  O  O24  1  0.82086900  0.93761800  0.69872600  1
  O  O25  1  0.17913100  0.43761800  0.80127400  1
  O  O26  1  0.55227700  0.12664500  0.04796100  1
  O  O27  1  0.44772300  0.62664500  0.45203900  1
