# generated using pymatgen
data_Li3Fe(PO3)8
_symmetry_space_group_name_H-M   'P 1'
_cell_length_a   12.14656698
_cell_length_b   8.24934400
_cell_length_c   10.02937646
_cell_angle_alpha   90.00000000
_cell_angle_beta   118.96866025
_cell_angle_gamma   90.00000000
_symmetry_Int_Tables_number   1
_chemical_formula_structural   Li3Fe(PO3)8
_chemical_formula_sum   'Li6 Fe2 P16 O48'
_cell_volume   879.22038187
_cell_formula_units_Z   2
loop_
 _symmetry_equiv_pos_site_id
 _symmetry_equiv_pos_as_xyz
  1  'x, y, z'
loop_
 _atom_site_type_symbol
 _atom_site_label
 _atom_site_symmetry_multiplicity
 _atom_site_fract_x
 _atom_site_fract_y
 _atom_site_fract_z
 _atom_site_occupancy
  Li  Li0  1  0.27141400  0.74564800  0.76761000  1
  Li  Li1  1  0.22858600  0.24564800  0.23239000  1
  Li  Li2  1  0.00000000  0.05395700  0.00000000  1
  Li  Li3  1  0.77141400  0.24564800  0.76761000  1
  Li  Li4  1  0.72858600  0.74564800  0.23239000  1
  Li  Li5  1  0.50000000  0.55395700  0.00000000  1
  Fe  Fe6  1  0.00000000  0.95166500  0.50000000  1
  Fe  Fe7  1  0.50000000  0.45166500  0.50000000  1
  P  P8  1  0.48690600  0.24430200  0.76436200  1
  P  P9  1  0.69311200  0.98688000  0.93043800  1
  P  P10  1  0.49993150  0.76266550  0.71812600  1
  P  P11  1  0.80688800  0.48688000  0.06956200  1
  P  P12  1  0.29630250  0.00899650  0.54522200  1
  P  P13  1  0.01309400  0.74430200  0.23563800  1
  P  P14  1  0.20369750  0.50899650  0.45477800  1
  P  P15  1  0.50006850  0.76266550  0.28187400  1
  P  P16  1  0.98690600  0.74430200  0.76436200  1
  P  P17  1  0.19311200  0.48688000  0.93043800  1
  P  P18  1  0.99993150  0.26266550  0.71812600  1
  P  P19  1  0.30688800  0.98688000  0.06956200  1
  P  P20  1  0.79630250  0.50899650  0.54522200  1
  P  P21  1  0.51309400  0.24430200  0.23563800  1
  P  P22  1  0.70369750  0.00899650  0.45477800  1
  P  P23  1  0.00006850  0.26266550  0.28187400  1
  O  O24  1  0.03444700  0.88321100  0.15912300  1
  O  O25  1  0.45634100  0.74279200  0.83209100  1
  O  O26  1  0.26312800  0.08511900  0.39729600  1
  O  O27  1  0.69959900  0.56738800  0.07672100  1
  O  O28  1  0.40652000  0.87690200  0.57867700  1
  O  O29  1  0.63139350  0.85906050  0.78920100  1
  O  O30  1  0.52404750  0.61147850  0.64726600  1
  O  O31  1  0.86860650  0.35906050  0.21079900  1
  O  O32  1  0.28052850  0.91133150  0.92188000  1
  O  O33  1  0.96495600  0.77749700  0.35082700  1
  O  O34  1  0.47595250  0.61147850  0.35273400  1
  O  O35  1  0.80040100  0.06738800  0.92327900  1
  O  O36  1  0.91874050  0.61722550  0.11368100  1
  O  O37  1  0.09348000  0.37690200  0.42132300  1
  O  O38  1  0.21947150  0.41133150  0.07812000  1
  O  O39  1  0.19473300  0.92936900  0.57035300  1
  O  O40  1  0.04365900  0.24279200  0.16790900  1
  O  O41  1  0.23687200  0.58511900  0.60270400  1
  O  O42  1  0.13901300  0.63732300  0.31673900  1
  O  O43  1  0.96555300  0.88321100  0.84087700  1
  O  O44  1  0.36098700  0.13732300  0.68326100  1
  O  O45  1  0.58125950  0.11722550  0.88631900  1
  O  O46  1  0.30526700  0.42936900  0.42964700  1
  O  O47  1  0.03504400  0.77749700  0.64917300  1
  O  O48  1  0.53444700  0.38321100  0.15912300  1
  O  O49  1  0.95634100  0.24279200  0.83209100  1
  O  O50  1  0.76312800  0.58511900  0.39729600  1
  O  O51  1  0.19959900  0.06738800  0.07672100  1
  O  O52  1  0.90652000  0.37690200  0.57867700  1
  O  O53  1  0.13139350  0.35906050  0.78920100  1
  O  O54  1  0.02404750  0.11147850  0.64726600  1
  O  O55  1  0.36860650  0.85906050  0.21079900  1
  O  O56  1  0.78052850  0.41133150  0.92188000  1
  O  O57  1  0.46495600  0.27749700  0.35082700  1
  O  O58  1  0.97595250  0.11147850  0.35273400  1
  O  O59  1  0.30040100  0.56738800  0.92327900  1
  O  O60  1  0.41874050  0.11722550  0.11368100  1
  O  O61  1  0.59348000  0.87690200  0.42132300  1
  O  O62  1  0.71947150  0.91133150  0.07812000  1
  O  O63  1  0.69473300  0.42936900  0.57035300  1
  O  O64  1  0.54365900  0.74279200  0.16790900  1
  O  O65  1  0.73687200  0.08511900  0.60270400  1
  O  O66  1  0.63901300  0.13732300  0.31673900  1
  O  O67  1  0.46555300  0.38321100  0.84087700  1
  O  O68  1  0.86098700  0.63732300  0.68326100  1
  O  O69  1  0.08125950  0.61722550  0.88631900  1
  O  O70  1  0.80526700  0.92936900  0.42964700  1
  O  O71  1  0.53504400  0.27749700  0.64917300  1
