# generated using pymatgen
data_PrTe2Se
_symmetry_space_group_name_H-M   'P 1'
_cell_length_a   4.31271200
_cell_length_b   26.47541200
_cell_length_c   4.32411300
_cell_angle_alpha   90.00000000
_cell_angle_beta   90.00000000
_cell_angle_gamma   90.00000000
_symmetry_Int_Tables_number   1
_chemical_formula_structural   PrTe2Se
_chemical_formula_sum   'Pr4 Te8 Se4'
_cell_volume   493.73079854
_cell_formula_units_Z   4
loop_
 _symmetry_equiv_pos_site_id
 _symmetry_equiv_pos_as_xyz
  1  'x, y, z'
loop_
 _atom_site_type_symbol
 _atom_site_label
 _atom_site_symmetry_multiplicity
 _atom_site_fract_x
 _atom_site_fract_y
 _atom_site_fract_z
 _atom_site_occupancy
  Pr  Pr0  1  0.50000000  0.67960000  0.25000000  1
  Pr  Pr1  1  0.00000000  0.82040000  0.75000000  1
  Pr  Pr2  1  0.00000000  0.17960000  0.25000000  1
  Pr  Pr3  1  0.50000000  0.32040000  0.75000000  1
  Te  Te4  1  0.50000000  0.57870200  0.75000000  1
  Te  Te5  1  0.00000000  0.92129800  0.25000000  1
  Te  Te6  1  0.50000000  0.92144500  0.75000000  1
  Te  Te7  1  0.00000000  0.57855500  0.25000000  1
  Te  Te8  1  0.00000000  0.07870200  0.75000000  1
  Te  Te9  1  0.50000000  0.42129800  0.25000000  1
  Te  Te10  1  0.00000000  0.42144500  0.75000000  1
  Te  Te11  1  0.50000000  0.07855500  0.25000000  1
  Se  Se12  1  0.50000000  0.79426400  0.25000000  1
  Se  Se13  1  0.00000000  0.70573600  0.75000000  1
  Se  Se14  1  0.00000000  0.29426400  0.25000000  1
  Se  Se15  1  0.50000000  0.20573600  0.75000000  1
