# generated using pymatgen
data_Nb4Cr2Si5
_symmetry_space_group_name_H-M   'P 1'
_cell_length_a   4.95866600
_cell_length_b   7.89281200
_cell_length_c   16.29388000
_cell_angle_alpha   90.00000000
_cell_angle_beta   90.00000000
_cell_angle_gamma   90.00000000
_symmetry_Int_Tables_number   1
_chemical_formula_structural   Nb4Cr2Si5
_chemical_formula_sum   'Nb16 Cr8 Si20'
_cell_volume   637.70691824
_cell_formula_units_Z   4
loop_
 _symmetry_equiv_pos_site_id
 _symmetry_equiv_pos_as_xyz
  1  'x, y, z'
loop_
 _atom_site_type_symbol
 _atom_site_label
 _atom_site_symmetry_multiplicity
 _atom_site_fract_x
 _atom_site_fract_y
 _atom_site_fract_z
 _atom_site_occupancy
  Nb  Nb0  1  0.00000000  0.25576450  0.06364350  1
  Nb  Nb1  1  0.50000000  0.24423550  0.43635650  1
  Nb  Nb2  1  0.00000000  0.75576450  0.43635650  1
  Nb  Nb3  1  0.50000000  0.74423550  0.06364350  1
  Nb  Nb4  1  0.00000000  0.38644300  0.35659800  1
  Nb  Nb5  1  0.50000000  0.11355700  0.14340200  1
  Nb  Nb6  1  0.00000000  0.88644300  0.14340200  1
  Nb  Nb7  1  0.50000000  0.61355700  0.35659800  1
  Nb  Nb8  1  0.50000000  0.75576450  0.56364350  1
  Nb  Nb9  1  0.00000000  0.74423550  0.93635650  1
  Nb  Nb10  1  0.50000000  0.25576450  0.93635650  1
  Nb  Nb11  1  0.00000000  0.24423550  0.56364350  1
  Nb  Nb12  1  0.50000000  0.88644300  0.85659800  1
  Nb  Nb13  1  0.00000000  0.61355700  0.64340200  1
  Nb  Nb14  1  0.50000000  0.38644300  0.64340200  1
  Nb  Nb15  1  0.00000000  0.11355700  0.85659800  1
  Cr  Cr16  1  0.75000000  0.00000000  0.30655000  1
  Cr  Cr17  1  0.25000000  0.50000000  0.19345000  1
  Cr  Cr18  1  0.75000000  0.50000000  0.19345000  1
  Cr  Cr19  1  0.25000000  0.00000000  0.30655000  1
  Cr  Cr20  1  0.25000000  0.50000000  0.80655000  1
  Cr  Cr21  1  0.75000000  0.00000000  0.69345000  1
  Cr  Cr22  1  0.25000000  0.00000000  0.69345000  1
  Cr  Cr23  1  0.75000000  0.50000000  0.80655000  1
  Si  Si24  1  0.75000000  0.00000000  0.00000000  1
  Si  Si25  1  0.25000000  0.00000000  0.00000000  1
  Si  Si26  1  0.00000000  0.08206000  0.42957600  1
  Si  Si27  1  0.50000000  0.41794000  0.07042400  1
  Si  Si28  1  0.00000000  0.58206000  0.07042400  1
  Si  Si29  1  0.50000000  0.91794000  0.42957600  1
  Si  Si30  1  0.00000000  0.20611050  0.21794350  1
  Si  Si31  1  0.50000000  0.29388950  0.28205650  1
  Si  Si32  1  0.50000000  0.79388950  0.21794350  1
  Si  Si33  1  0.00000000  0.70611050  0.28205650  1
  Si  Si34  1  0.25000000  0.50000000  0.50000000  1
  Si  Si35  1  0.75000000  0.50000000  0.50000000  1
  Si  Si36  1  0.50000000  0.58206000  0.92957600  1
  Si  Si37  1  0.00000000  0.91794000  0.57042400  1
  Si  Si38  1  0.50000000  0.08206000  0.57042400  1
  Si  Si39  1  0.00000000  0.41794000  0.92957600  1
  Si  Si40  1  0.50000000  0.70611050  0.71794350  1
  Si  Si41  1  0.00000000  0.79388950  0.78205650  1
  Si  Si42  1  0.00000000  0.29388950  0.71794350  1
  Si  Si43  1  0.50000000  0.20611050  0.78205650  1
