# generated using pymatgen
data_Ba(CeS2)2
_symmetry_space_group_name_H-M   'P 1'
_cell_length_a   8.87429200
_cell_length_b   8.87429200
_cell_length_c   8.82860600
_cell_angle_alpha   90.00000000
_cell_angle_beta   90.00000000
_cell_angle_gamma   90.00000000
_symmetry_Int_Tables_number   1
_chemical_formula_structural   Ba(CeS2)2
_chemical_formula_sum   'Ba4 Ce8 S16'
_cell_volume   695.27972480
_cell_formula_units_Z   4
loop_
 _symmetry_equiv_pos_site_id
 _symmetry_equiv_pos_as_xyz
  1  'x, y, z'
loop_
 _atom_site_type_symbol
 _atom_site_label
 _atom_site_symmetry_multiplicity
 _atom_site_fract_x
 _atom_site_fract_y
 _atom_site_fract_z
 _atom_site_occupancy
  Ba  Ba0  1  0.50000000  0.50000000  0.50000000  1
  Ba  Ba1  1  0.50000000  0.00000000  0.25000000  1
  Ba  Ba2  1  0.00000000  0.00000000  0.00000000  1
  Ba  Ba3  1  0.00000000  0.50000000  0.75000000  1
  Ce  Ce4  1  0.75000000  0.87704800  0.62500000  1
  Ce  Ce5  1  0.87704800  0.25000000  0.37500000  1
  Ce  Ce6  1  0.75000000  0.62295200  0.12500000  1
  Ce  Ce7  1  0.62295200  0.25000000  0.87500000  1
  Ce  Ce8  1  0.25000000  0.37704800  0.12500000  1
  Ce  Ce9  1  0.37704800  0.75000000  0.87500000  1
  Ce  Ce10  1  0.25000000  0.12295200  0.62500000  1
  Ce  Ce11  1  0.12295200  0.75000000  0.37500000  1
  S  S12  1  0.16737650  0.07810450  0.31492950  1
  S  S13  1  0.92189550  0.33262350  0.06492950  1
  S  S14  1  0.57810450  0.33262350  0.18507050  1
  S  S15  1  0.57810450  0.16737650  0.56492950  1
  S  S16  1  0.66737650  0.92189550  0.93507050  1
  S  S17  1  0.83262350  0.57810450  0.43507050  1
  S  S18  1  0.92189550  0.16737650  0.68507050  1
  S  S19  1  0.33262350  0.42189550  0.81492950  1
  S  S20  1  0.66737650  0.57810450  0.81492950  1
  S  S21  1  0.42189550  0.83262350  0.56492950  1
  S  S22  1  0.07810450  0.83262350  0.68507050  1
  S  S23  1  0.07810450  0.66737650  0.06492950  1
  S  S24  1  0.16737650  0.42189550  0.43507050  1
  S  S25  1  0.33262350  0.07810450  0.93507050  1
  S  S26  1  0.42189550  0.66737650  0.18507050  1
  S  S27  1  0.83262350  0.92189550  0.31492950  1
