# generated using pymatgen
data_V(PO3)4
_symmetry_space_group_name_H-M   'P 1'
_cell_length_a   8.14901200
_cell_length_b   11.31767000
_cell_length_c   9.44092087
_cell_angle_alpha   90.00000000
_cell_angle_beta   93.10467507
_cell_angle_gamma   90.00000000
_symmetry_Int_Tables_number   1
_chemical_formula_structural   V(PO3)4
_chemical_formula_sum   'V4 P16 O48'
_cell_volume   869.43764319
_cell_formula_units_Z   4
loop_
 _symmetry_equiv_pos_site_id
 _symmetry_equiv_pos_as_xyz
  1  'x, y, z'
loop_
 _atom_site_type_symbol
 _atom_site_label
 _atom_site_symmetry_multiplicity
 _atom_site_fract_x
 _atom_site_fract_y
 _atom_site_fract_z
 _atom_site_occupancy
  V  V0  1  0.50000000  0.88880800  0.25000000  1
  V  V1  1  0.50000000  0.11119200  0.75000000  1
  V  V2  1  0.00000000  0.38880800  0.25000000  1
  V  V3  1  0.00000000  0.61119200  0.75000000  1
  P  P4  1  0.25825300  0.03247900  0.47137100  1
  P  P5  1  0.25825300  0.96752100  0.97137100  1
  P  P6  1  0.54298750  0.67729450  0.03333900  1
  P  P7  1  0.45701250  0.67729450  0.46666100  1
  P  P8  1  0.54298750  0.32270550  0.53333900  1
  P  P9  1  0.45701250  0.32270550  0.96666100  1
  P  P10  1  0.74174700  0.03247900  0.02862900  1
  P  P11  1  0.74174700  0.96752100  0.52862900  1
  P  P12  1  0.75825300  0.53247900  0.47137100  1
  P  P13  1  0.75825300  0.46752100  0.97137100  1
  P  P14  1  0.04298750  0.17729450  0.03333900  1
  P  P15  1  0.95701250  0.17729450  0.46666100  1
  P  P16  1  0.04298750  0.82270550  0.53333900  1
  P  P17  1  0.95701250  0.82270550  0.96666100  1
  P  P18  1  0.24174700  0.53247900  0.02862900  1
  P  P19  1  0.24174700  0.46752100  0.52862900  1
  O  O20  1  0.33573500  0.10682000  0.58997300  1
  O  O21  1  0.36759450  0.00016750  0.35205200  1
  O  O22  1  0.19313950  0.08325150  0.04405100  1
  O  O23  1  0.36759450  0.99983250  0.85205200  1
  O  O24  1  0.60151050  0.76333050  0.15187800  1
  O  O25  1  0.33573500  0.89318000  0.08997300  1
  O  O26  1  0.19313950  0.91674850  0.54405100  1
  O  O27  1  0.50339750  0.72029650  0.60902100  1
  O  O28  1  0.49660250  0.72029650  0.89097900  1
  O  O29  1  0.39848950  0.76333050  0.34812200  1
  O  O30  1  0.10255050  0.90295350  0.89854300  1
  O  O31  1  0.10255050  0.09704650  0.39854300  1
  O  O32  1  0.89744950  0.90295350  0.60145700  1
  O  O33  1  0.89744950  0.09704650  0.10145700  1
  O  O34  1  0.60151050  0.23666950  0.65187800  1
  O  O35  1  0.50339750  0.27970350  0.10902100  1
  O  O36  1  0.49660250  0.27970350  0.39097900  1
  O  O37  1  0.80686050  0.08325150  0.45594900  1
  O  O38  1  0.66426500  0.10682000  0.91002700  1
  O  O39  1  0.39848950  0.23666950  0.84812200  1
  O  O40  1  0.63240550  0.00016750  0.14794800  1
  O  O41  1  0.80686050  0.91674850  0.95594900  1
  O  O42  1  0.63240550  0.99983250  0.64794800  1
  O  O43  1  0.66426500  0.89318000  0.41002700  1
  O  O44  1  0.83573500  0.60682000  0.58997300  1
  O  O45  1  0.86759450  0.50016750  0.35205200  1
  O  O46  1  0.69313950  0.58325150  0.04405100  1
  O  O47  1  0.86759450  0.49983250  0.85205200  1
  O  O48  1  0.10151050  0.26333050  0.15187800  1
  O  O49  1  0.83573500  0.39318000  0.08997300  1
  O  O50  1  0.69313950  0.41674850  0.54405100  1
  O  O51  1  0.00339750  0.22029650  0.60902100  1
  O  O52  1  0.99660250  0.22029650  0.89097900  1
  O  O53  1  0.89848950  0.26333050  0.34812200  1
  O  O54  1  0.60255050  0.40295350  0.89854300  1
  O  O55  1  0.60255050  0.59704650  0.39854300  1
  O  O56  1  0.39744950  0.40295350  0.60145700  1
  O  O57  1  0.39744950  0.59704650  0.10145700  1
  O  O58  1  0.10151050  0.73666950  0.65187800  1
  O  O59  1  0.00339750  0.77970350  0.10902100  1
  O  O60  1  0.99660250  0.77970350  0.39097900  1
  O  O61  1  0.30686050  0.58325150  0.45594900  1
  O  O62  1  0.16426500  0.60682000  0.91002700  1
  O  O63  1  0.89848950  0.73666950  0.84812200  1
  O  O64  1  0.13240550  0.50016750  0.14794800  1
  O  O65  1  0.30686050  0.41674850  0.95594900  1
  O  O66  1  0.13240550  0.49983250  0.64794800  1
  O  O67  1  0.16426500  0.39318000  0.41002700  1
