# generated using pymatgen
data_Ti(CoO2)2
_symmetry_space_group_name_H-M   'P 1'
_cell_length_a   6.00578000
_cell_length_b   6.01696200
_cell_length_c   8.61259600
_cell_angle_alpha   90.00000000
_cell_angle_beta   90.00000000
_cell_angle_gamma   90.00000000
_symmetry_Int_Tables_number   1
_chemical_formula_structural   Ti(CoO2)2
_chemical_formula_sum   'Ti4 Co8 O16'
_cell_volume   311.22950633
_cell_formula_units_Z   4
loop_
 _symmetry_equiv_pos_site_id
 _symmetry_equiv_pos_as_xyz
  1  'x, y, z'
loop_
 _atom_site_type_symbol
 _atom_site_label
 _atom_site_symmetry_multiplicity
 _atom_site_fract_x
 _atom_site_fract_y
 _atom_site_fract_z
 _atom_site_occupancy
  Ti  Ti0  1  0.50000000  0.00000000  0.00000000  1
  Ti  Ti1  1  0.50000000  0.50000000  0.00000000  1
  Ti  Ti2  1  0.00000000  0.50000000  0.50000000  1
  Ti  Ti3  1  0.00000000  0.00000000  0.50000000  1
  Co  Co4  1  0.00000000  0.25000000  0.86553000  1
  Co  Co5  1  0.50000000  0.25000000  0.63447000  1
  Co  Co6  1  0.25000000  0.75000000  0.75000000  1
  Co  Co7  1  0.75000000  0.75000000  0.75000000  1
  Co  Co8  1  0.50000000  0.75000000  0.36553000  1
  Co  Co9  1  0.00000000  0.75000000  0.13447000  1
  Co  Co10  1  0.75000000  0.25000000  0.25000000  1
  Co  Co11  1  0.25000000  0.25000000  0.25000000  1
  O  O12  1  0.77825050  0.25000000  0.50258850  1
  O  O13  1  0.50000000  0.98639100  0.77178700  1
  O  O14  1  0.22174950  0.25000000  0.50258850  1
  O  O15  1  0.50000000  0.51360900  0.77178700  1
  O  O16  1  0.00000000  0.98639100  0.72821300  1
  O  O17  1  0.00000000  0.51360900  0.72821300  1
  O  O18  1  0.27825050  0.25000000  0.99741150  1
  O  O19  1  0.72174950  0.25000000  0.99741150  1
  O  O20  1  0.27825050  0.75000000  0.00258850  1
  O  O21  1  0.00000000  0.48639100  0.27178700  1
  O  O22  1  0.72174950  0.75000000  0.00258850  1
  O  O23  1  0.00000000  0.01360900  0.27178700  1
  O  O24  1  0.50000000  0.48639100  0.22821300  1
  O  O25  1  0.50000000  0.01360900  0.22821300  1
  O  O26  1  0.77825050  0.75000000  0.49741150  1
  O  O27  1  0.22174950  0.75000000  0.49741150  1
