# generated using pymatgen
data_LiMn2(PO4)3
_symmetry_space_group_name_H-M   'P 1'
_cell_length_a   7.89528800
_cell_length_b   5.20859200
_cell_length_c   19.30170676
_cell_angle_alpha   90.00000000
_cell_angle_beta   92.02179918
_cell_angle_gamma   90.00000000
_symmetry_Int_Tables_number   1
_chemical_formula_structural   LiMn2(PO4)3
_chemical_formula_sum   'Li4 Mn8 P12 O48'
_cell_volume   793.25640410
_cell_formula_units_Z   4
loop_
 _symmetry_equiv_pos_site_id
 _symmetry_equiv_pos_as_xyz
  1  'x, y, z'
loop_
 _atom_site_type_symbol
 _atom_site_label
 _atom_site_symmetry_multiplicity
 _atom_site_fract_x
 _atom_site_fract_y
 _atom_site_fract_z
 _atom_site_occupancy
  Li  Li0  1  0.99852900  0.00000000  0.16181300  1
  Li  Li1  1  0.00147100  0.00000000  0.83818700  1
  Li  Li2  1  0.49852900  0.50000000  0.16181300  1
  Li  Li3  1  0.50147100  0.50000000  0.83818700  1
  Mn  Mn4  1  0.00115900  0.00000000  0.66871500  1
  Mn  Mn5  1  0.99884100  0.00000000  0.33128500  1
  Mn  Mn6  1  0.00000000  0.00000000  0.50000000  1
  Mn  Mn7  1  0.00000000  0.00000000  0.00000000  1
  Mn  Mn8  1  0.50115900  0.50000000  0.66871500  1
  Mn  Mn9  1  0.49884100  0.50000000  0.33128500  1
  Mn  Mn10  1  0.50000000  0.50000000  0.50000000  1
  Mn  Mn11  1  0.50000000  0.50000000  0.00000000  1
  P  P12  1  0.34396400  0.00000000  0.58746200  1
  P  P13  1  0.65603600  0.00000000  0.41253800  1
  P  P14  1  0.34681000  0.00000000  0.25484400  1
  P  P15  1  0.65319000  0.00000000  0.74515600  1
  P  P16  1  0.64966900  0.00000000  0.07714300  1
  P  P17  1  0.35033100  0.00000000  0.92285700  1
  P  P18  1  0.84396400  0.50000000  0.58746200  1
  P  P19  1  0.15603600  0.50000000  0.41253800  1
  P  P20  1  0.84681000  0.50000000  0.25484400  1
  P  P21  1  0.15319000  0.50000000  0.74515600  1
  P  P22  1  0.14966900  0.50000000  0.07714300  1
  P  P23  1  0.85033100  0.50000000  0.92285700  1
  O  O24  1  0.76775200  0.00000000  0.68162200  1
  O  O25  1  0.53235850  0.24248150  0.07236200  1
  O  O26  1  0.53417850  0.75866050  0.73870700  1
  O  O27  1  0.25760200  0.00000000  0.18433500  1
  O  O28  1  0.53817500  0.75556500  0.41196000  1
  O  O29  1  0.24038400  0.00000000  0.51869200  1
  O  O30  1  0.76252200  0.00000000  0.34859700  1
  O  O31  1  0.23747800  0.00000000  0.65140300  1
  O  O32  1  0.75961600  0.00000000  0.48130800  1
  O  O33  1  0.46764150  0.24248150  0.92763800  1
  O  O34  1  0.25988700  0.00000000  0.85177600  1
  O  O35  1  0.53817500  0.24443500  0.41196000  1
  O  O36  1  0.76510100  0.00000000  0.01456700  1
  O  O37  1  0.23489900  0.00000000  0.98543300  1
  O  O38  1  0.46582150  0.75866050  0.26129300  1
  O  O39  1  0.23224800  0.00000000  0.31837800  1
  O  O40  1  0.46182500  0.75556500  0.58804000  1
  O  O41  1  0.74239800  0.00000000  0.81566500  1
  O  O42  1  0.74011300  0.00000000  0.14822400  1
  O  O43  1  0.46582150  0.24133950  0.26129300  1
  O  O44  1  0.46182500  0.24443500  0.58804000  1
  O  O45  1  0.46764150  0.75751850  0.92763800  1
  O  O46  1  0.53417850  0.24133950  0.73870700  1
  O  O47  1  0.53235850  0.75751850  0.07236200  1
  O  O48  1  0.26775200  0.50000000  0.68162200  1
  O  O49  1  0.03235850  0.74248150  0.07236200  1
  O  O50  1  0.03417850  0.25866050  0.73870700  1
  O  O51  1  0.75760200  0.50000000  0.18433500  1
  O  O52  1  0.03817500  0.25556500  0.41196000  1
  O  O53  1  0.74038400  0.50000000  0.51869200  1
  O  O54  1  0.26252200  0.50000000  0.34859700  1
  O  O55  1  0.73747800  0.50000000  0.65140300  1
  O  O56  1  0.25961600  0.50000000  0.48130800  1
  O  O57  1  0.96764150  0.74248150  0.92763800  1
  O  O58  1  0.75988700  0.50000000  0.85177600  1
  O  O59  1  0.03817500  0.74443500  0.41196000  1
  O  O60  1  0.26510100  0.50000000  0.01456700  1
  O  O61  1  0.73489900  0.50000000  0.98543300  1
  O  O62  1  0.96582150  0.25866050  0.26129300  1
  O  O63  1  0.73224800  0.50000000  0.31837800  1
  O  O64  1  0.96182500  0.25556500  0.58804000  1
  O  O65  1  0.24239800  0.50000000  0.81566500  1
  O  O66  1  0.24011300  0.50000000  0.14822400  1
  O  O67  1  0.96582150  0.74133950  0.26129300  1
  O  O68  1  0.96182500  0.74443500  0.58804000  1
  O  O69  1  0.96764150  0.25751850  0.92763800  1
  O  O70  1  0.03417850  0.74133950  0.73870700  1
  O  O71  1  0.03235850  0.25751850  0.07236200  1
