# generated using pymatgen
data_Li3Cr2(PO4)3
_symmetry_space_group_name_H-M   'P 1'
_cell_length_a   14.35700200
_cell_length_b   8.75414800
_cell_length_c   8.56727194
_cell_angle_alpha   90.00000000
_cell_angle_beta   123.98501568
_cell_angle_gamma   90.00000000
_symmetry_Int_Tables_number   1
_chemical_formula_structural   Li3Cr2(PO4)3
_chemical_formula_sum   'Li12 Cr8 P12 O48'
_cell_volume   892.83457544
_cell_formula_units_Z   4
loop_
 _symmetry_equiv_pos_site_id
 _symmetry_equiv_pos_as_xyz
  1  'x, y, z'
loop_
 _atom_site_type_symbol
 _atom_site_label
 _atom_site_symmetry_multiplicity
 _atom_site_fract_x
 _atom_site_fract_y
 _atom_site_fract_z
 _atom_site_occupancy
  Li  Li0  1  0.69724800  0.53973100  0.64053600  1
  Li  Li1  1  0.30275200  0.46026900  0.35946400  1
  Li  Li2  1  0.75000000  0.75000000  0.00000000  1
  Li  Li3  1  0.30275200  0.53973100  0.85946400  1
  Li  Li4  1  0.25000000  0.75000000  0.50000000  1
  Li  Li5  1  0.69724800  0.46026900  0.14053600  1
  Li  Li6  1  0.19724800  0.03973100  0.64053600  1
  Li  Li7  1  0.80275200  0.96026900  0.35946400  1
  Li  Li8  1  0.25000000  0.25000000  0.00000000  1
  Li  Li9  1  0.80275200  0.03973100  0.85946400  1
  Li  Li10  1  0.75000000  0.25000000  0.50000000  1
  Li  Li11  1  0.19724800  0.96026900  0.14053600  1
  Cr  Cr12  1  0.11210800  0.25377900  0.14883000  1
  Cr  Cr13  1  0.11210800  0.74622100  0.64883000  1
  Cr  Cr14  1  0.88789200  0.25377900  0.35117000  1
  Cr  Cr15  1  0.88789200  0.74622100  0.85117000  1
  Cr  Cr16  1  0.61210800  0.75377900  0.14883000  1
  Cr  Cr17  1  0.61210800  0.24622100  0.64883000  1
  Cr  Cr18  1  0.38789200  0.75377900  0.35117000  1
  Cr  Cr19  1  0.38789200  0.24622100  0.85117000  1
  P  P20  1  0.00000000  0.95692200  0.25000000  1
  P  P21  1  0.85135100  0.59616300  0.46824600  1
  P  P22  1  0.14864900  0.40383700  0.53175400  1
  P  P23  1  0.00000000  0.04307800  0.75000000  1
  P  P24  1  0.85135100  0.40383700  0.96824600  1
  P  P25  1  0.14864900  0.59616300  0.03175400  1
  P  P26  1  0.50000000  0.45692200  0.25000000  1
  P  P27  1  0.35135100  0.09616300  0.46824600  1
  P  P28  1  0.64864900  0.90383700  0.53175400  1
  P  P29  1  0.50000000  0.54307800  0.75000000  1
  P  P30  1  0.35135100  0.90383700  0.96824600  1
  P  P31  1  0.64864900  0.09616300  0.03175400  1
  O  O32  1  0.96817650  0.64924950  0.53538400  1
  O  O33  1  0.23070350  0.67403750  0.22931200  1
  O  O34  1  0.42795400  0.55444000  0.29465200  1
  O  O35  1  0.42795400  0.44556000  0.79465200  1
  O  O36  1  0.57204600  0.55444000  0.20534800  1
  O  O37  1  0.57204600  0.44556000  0.70534800  1
  O  O38  1  0.76929650  0.32596250  0.77068800  1
  O  O39  1  0.82863050  0.57879650  0.92927700  1
  O  O40  1  0.82039250  0.36818350  0.11048400  1
  O  O41  1  0.96817650  0.35075050  0.03538400  1
  O  O42  1  0.91183150  0.85882850  0.07797800  1
  O  O43  1  0.17960750  0.63181650  0.88951600  1
  O  O44  1  0.82863050  0.42120350  0.42927700  1
  O  O45  1  0.82039250  0.63181650  0.61048400  1
  O  O46  1  0.76929650  0.67403750  0.27068800  1
  O  O47  1  0.91183150  0.14117150  0.57797800  1
  O  O48  1  0.08816850  0.85882850  0.42202200  1
  O  O49  1  0.03182350  0.35075050  0.46461600  1
  O  O50  1  0.17960750  0.36818350  0.38951600  1
  O  O51  1  0.17136950  0.57879650  0.57072300  1
  O  O52  1  0.23070350  0.32596250  0.72931200  1
  O  O53  1  0.08816850  0.14117150  0.92202200  1
  O  O54  1  0.03182350  0.64924950  0.96461600  1
  O  O55  1  0.17136950  0.42120350  0.07072300  1
  O  O56  1  0.46817650  0.14924950  0.53538400  1
  O  O57  1  0.73070350  0.17403750  0.22931200  1
  O  O58  1  0.92795400  0.05444000  0.29465200  1
  O  O59  1  0.92795400  0.94556000  0.79465200  1
  O  O60  1  0.07204600  0.05444000  0.20534800  1
  O  O61  1  0.07204600  0.94556000  0.70534800  1
  O  O62  1  0.26929650  0.82596250  0.77068800  1
  O  O63  1  0.32863050  0.07879650  0.92927700  1
  O  O64  1  0.32039250  0.86818350  0.11048400  1
  O  O65  1  0.46817650  0.85075050  0.03538400  1
  O  O66  1  0.41183150  0.35882850  0.07797800  1
  O  O67  1  0.67960750  0.13181650  0.88951600  1
  O  O68  1  0.32863050  0.92120350  0.42927700  1
  O  O69  1  0.32039250  0.13181650  0.61048400  1
  O  O70  1  0.26929650  0.17403750  0.27068800  1
  O  O71  1  0.41183150  0.64117150  0.57797800  1
  O  O72  1  0.58816850  0.35882850  0.42202200  1
  O  O73  1  0.53182350  0.85075050  0.46461600  1
  O  O74  1  0.67960750  0.86818350  0.38951600  1
  O  O75  1  0.67136950  0.07879650  0.57072300  1
  O  O76  1  0.73070350  0.82596250  0.72931200  1
  O  O77  1  0.58816850  0.64117150  0.92202200  1
  O  O78  1  0.53182350  0.14924950  0.96461600  1
  O  O79  1  0.67136950  0.92120350  0.07072300  1
