# generated using pymatgen
data_LiCrP2O7
_symmetry_space_group_name_H-M   'P 1'
_cell_length_a   6.54119400
_cell_length_b   8.14131200
_cell_length_c   4.50385024
_cell_angle_alpha   90.00000000
_cell_angle_beta   103.50765423
_cell_angle_gamma   90.00000000
_symmetry_Int_Tables_number   1
_chemical_formula_structural   LiCrP2O7
_chemical_formula_sum   'Li2 Cr2 P4 O14'
_cell_volume   233.21310543
_cell_formula_units_Z   2
loop_
 _symmetry_equiv_pos_site_id
 _symmetry_equiv_pos_as_xyz
  1  'x, y, z'
loop_
 _atom_site_type_symbol
 _atom_site_label
 _atom_site_symmetry_multiplicity
 _atom_site_fract_x
 _atom_site_fract_y
 _atom_site_fract_z
 _atom_site_occupancy
  Li  Li0  1  0.50000000  0.75061500  0.00000000  1
  Li  Li1  1  0.00000000  0.25061500  0.00000000  1
  Cr  Cr2  1  0.50000000  0.37863400  0.00000000  1
  Cr  Cr3  1  0.00000000  0.87863400  0.00000000  1
  P  P4  1  0.29214900  0.03936900  0.59037900  1
  P  P5  1  0.70785100  0.03936900  0.40962100  1
  P  P6  1  0.79214900  0.53936900  0.59037900  1
  P  P7  1  0.20785100  0.53936900  0.40962100  1
  O  O8  1  0.33245100  0.20588400  0.74296700  1
  O  O9  1  0.12738150  0.05633050  0.28469500  1
  O  O10  1  0.24850900  0.90198100  0.80334700  1
  O  O11  1  0.50000000  0.96877100  0.50000000  1
  O  O12  1  0.87261850  0.05633050  0.71530500  1
  O  O13  1  0.66754900  0.20588400  0.25703300  1
  O  O14  1  0.75149100  0.90198100  0.19665300  1
  O  O15  1  0.83245100  0.70588400  0.74296700  1
  O  O16  1  0.62738150  0.55633050  0.28469500  1
  O  O17  1  0.74850900  0.40198100  0.80334700  1
  O  O18  1  0.00000000  0.46877100  0.50000000  1
  O  O19  1  0.37261850  0.55633050  0.71530500  1
  O  O20  1  0.16754900  0.70588400  0.25703300  1
  O  O21  1  0.25149100  0.40198100  0.19665300  1
