# generated using pymatgen
data_MnPO4
_symmetry_space_group_name_H-M   'P 1'
_cell_length_a   5.51543800
_cell_length_b   9.39782200
_cell_length_c   11.16514400
_cell_angle_alpha   90.00000000
_cell_angle_beta   90.00000000
_cell_angle_gamma   90.00000000
_symmetry_Int_Tables_number   1
_chemical_formula_structural   MnPO4
_chemical_formula_sum   'Mn8 P8 O32'
_cell_volume   578.72407656
_cell_formula_units_Z   8
loop_
 _symmetry_equiv_pos_site_id
 _symmetry_equiv_pos_as_xyz
  1  'x, y, z'
loop_
 _atom_site_type_symbol
 _atom_site_label
 _atom_site_symmetry_multiplicity
 _atom_site_fract_x
 _atom_site_fract_y
 _atom_site_fract_z
 _atom_site_occupancy
  Mn  Mn0  1  0.50000000  0.78850400  0.00000000  1
  Mn  Mn1  1  0.75000000  0.53850400  0.75000000  1
  Mn  Mn2  1  0.50000000  0.28850400  0.50000000  1
  Mn  Mn3  1  0.75000000  0.03850400  0.25000000  1
  Mn  Mn4  1  0.00000000  0.28850400  0.00000000  1
  Mn  Mn5  1  0.25000000  0.03850400  0.75000000  1
  Mn  Mn6  1  0.00000000  0.78850400  0.50000000  1
  Mn  Mn7  1  0.25000000  0.53850400  0.25000000  1
  P  P8  1  0.50000000  0.13551300  0.00000000  1
  P  P9  1  0.75000000  0.88551300  0.75000000  1
  P  P10  1  0.50000000  0.63551300  0.50000000  1
  P  P11  1  0.75000000  0.38551300  0.25000000  1
  P  P12  1  0.00000000  0.63551300  0.00000000  1
  P  P13  1  0.25000000  0.38551300  0.75000000  1
  P  P14  1  0.00000000  0.13551300  0.50000000  1
  P  P15  1  0.25000000  0.88551300  0.25000000  1
  O  O16  1  0.63390450  0.77882250  0.84113700  1
  O  O17  1  0.30607900  0.22768350  0.06237950  1
  O  O18  1  0.38390450  0.02882250  0.90886300  1
  O  O19  1  0.36609550  0.77882250  0.15886300  1
  O  O20  1  0.05607900  0.97768350  0.18762050  1
  O  O21  1  0.69392100  0.22768350  0.93762050  1
  O  O22  1  0.61609550  0.02882250  0.09113700  1
  O  O23  1  0.94392100  0.97768350  0.81237950  1
  O  O24  1  0.63390450  0.27882250  0.34113700  1
  O  O25  1  0.30607900  0.72768350  0.56237950  1
  O  O26  1  0.38390450  0.52882250  0.40886300  1
  O  O27  1  0.36609550  0.27882250  0.65886300  1
  O  O28  1  0.05607900  0.47768350  0.68762050  1
  O  O29  1  0.69392100  0.72768350  0.43762050  1
  O  O30  1  0.61609550  0.52882250  0.59113700  1
  O  O31  1  0.94392100  0.47768350  0.31237950  1
  O  O32  1  0.13390450  0.27882250  0.84113700  1
  O  O33  1  0.80607900  0.72768350  0.06237950  1
  O  O34  1  0.88390450  0.52882250  0.90886300  1
  O  O35  1  0.86609550  0.27882250  0.15886300  1
  O  O36  1  0.55607900  0.47768350  0.18762050  1
  O  O37  1  0.19392100  0.72768350  0.93762050  1
  O  O38  1  0.11609550  0.52882250  0.09113700  1
  O  O39  1  0.44392100  0.47768350  0.81237950  1
  O  O40  1  0.13390450  0.77882250  0.34113700  1
  O  O41  1  0.80607900  0.22768350  0.56237950  1
  O  O42  1  0.88390450  0.02882250  0.40886300  1
  O  O43  1  0.86609550  0.77882250  0.65886300  1
  O  O44  1  0.55607900  0.97768350  0.68762050  1
  O  O45  1  0.19392100  0.22768350  0.43762050  1
  O  O46  1  0.11609550  0.02882250  0.59113700  1
  O  O47  1  0.44392100  0.97768350  0.31237950  1
