# generated using pymatgen
data_Li3Mn2(PO4)3
_symmetry_space_group_name_H-M   'P 1'
_cell_length_a   11.36804000
_cell_length_b   13.38061600
_cell_length_c   6.19253655
_cell_angle_alpha   90.00000000
_cell_angle_beta   113.55692357
_cell_angle_gamma   90.00000000
_symmetry_Int_Tables_number   1
_chemical_formula_structural   Li3Mn2(PO4)3
_chemical_formula_sum   'Li12 Mn8 P12 O48'
_cell_volume   863.45597760
_cell_formula_units_Z   4
loop_
 _symmetry_equiv_pos_site_id
 _symmetry_equiv_pos_as_xyz
  1  'x, y, z'
loop_
 _atom_site_type_symbol
 _atom_site_label
 _atom_site_symmetry_multiplicity
 _atom_site_fract_x
 _atom_site_fract_y
 _atom_site_fract_z
 _atom_site_occupancy
  Li  Li0  1  0.50000000  0.80157800  0.25000000  1
  Li  Li1  1  0.50000000  0.51802400  0.25000000  1
  Li  Li2  1  0.50000000  0.00000000  0.50000000  1
  Li  Li3  1  0.50000000  0.48197600  0.75000000  1
  Li  Li4  1  0.50000000  0.19842200  0.75000000  1
  Li  Li5  1  0.50000000  0.00000000  0.00000000  1
  Li  Li6  1  0.00000000  0.30157800  0.25000000  1
  Li  Li7  1  0.00000000  0.01802400  0.25000000  1
  Li  Li8  1  0.00000000  0.50000000  0.50000000  1
  Li  Li9  1  0.00000000  0.98197600  0.75000000  1
  Li  Li10  1  0.00000000  0.69842200  0.75000000  1
  Li  Li11  1  0.00000000  0.50000000  0.00000000  1
  Mn  Mn12  1  0.79084750  0.15471450  0.37959600  1
  Mn  Mn13  1  0.79084750  0.84528550  0.87959600  1
  Mn  Mn14  1  0.20915250  0.15471450  0.12040400  1
  Mn  Mn15  1  0.20915250  0.84528550  0.62040400  1
  Mn  Mn16  1  0.29084750  0.65471450  0.37959600  1
  Mn  Mn17  1  0.29084750  0.34528550  0.87959600  1
  Mn  Mn18  1  0.70915250  0.65471450  0.12040400  1
  Mn  Mn19  1  0.70915250  0.34528550  0.62040400  1
  P  P20  1  0.23345800  0.09549200  0.63105200  1
  P  P21  1  0.23345800  0.90450800  0.13105200  1
  P  P22  1  0.50000000  0.79145900  0.75000000  1
  P  P23  1  0.50000000  0.20854100  0.25000000  1
  P  P24  1  0.76654200  0.90450800  0.36894800  1
  P  P25  1  0.76654200  0.09549200  0.86894800  1
  P  P26  1  0.73345800  0.59549200  0.63105200  1
  P  P27  1  0.73345800  0.40450800  0.13105200  1
  P  P28  1  0.00000000  0.29145900  0.75000000  1
  P  P29  1  0.00000000  0.70854100  0.25000000  1
  P  P30  1  0.26654200  0.40450800  0.36894800  1
  P  P31  1  0.26654200  0.59549200  0.86894800  1
  O  O32  1  0.17696700  0.84171700  0.89781200  1
  O  O33  1  0.14547950  0.00128750  0.58801600  1
  O  O34  1  0.21339750  0.16476550  0.81825400  1
  O  O35  1  0.17696700  0.15828300  0.39781200  1
  O  O36  1  0.82303300  0.15828300  0.10218800  1
  O  O37  1  0.85452050  0.99871250  0.41198400  1
  O  O38  1  0.78660250  0.83523450  0.18174600  1
  O  O39  1  0.82303300  0.84171700  0.60218800  1
  O  O40  1  0.85452050  0.00128750  0.91198400  1
  O  O41  1  0.78660250  0.16476550  0.68174600  1
  O  O42  1  0.62457500  0.92665500  0.29268000  1
  O  O43  1  0.60484400  0.13771100  0.23356200  1
  O  O44  1  0.62457500  0.07334500  0.79268000  1
  O  O45  1  0.45388500  0.27245400  0.02042000  1
  O  O46  1  0.60484400  0.86228900  0.73356200  1
  O  O47  1  0.54611500  0.27245400  0.47958000  1
  O  O48  1  0.45388500  0.72754600  0.52042000  1
  O  O49  1  0.39515600  0.13771100  0.26643800  1
  O  O50  1  0.54611500  0.72754600  0.97958000  1
  O  O51  1  0.37542500  0.92665500  0.20732000  1
  O  O52  1  0.39515600  0.86228900  0.76643800  1
  O  O53  1  0.37542500  0.07334500  0.70732000  1
  O  O54  1  0.21339750  0.83523450  0.31825400  1
  O  O55  1  0.14547950  0.99871250  0.08801600  1
  O  O56  1  0.67696700  0.34171700  0.89781200  1
  O  O57  1  0.64547950  0.50128750  0.58801600  1
  O  O58  1  0.71339750  0.66476550  0.81825400  1
  O  O59  1  0.67696700  0.65828300  0.39781200  1
  O  O60  1  0.32303300  0.65828300  0.10218800  1
  O  O61  1  0.35452050  0.49871250  0.41198400  1
  O  O62  1  0.28660250  0.33523450  0.18174600  1
  O  O63  1  0.32303300  0.34171700  0.60218800  1
  O  O64  1  0.35452050  0.50128750  0.91198400  1
  O  O65  1  0.28660250  0.66476550  0.68174600  1
  O  O66  1  0.12457500  0.42665500  0.29268000  1
  O  O67  1  0.10484400  0.63771100  0.23356200  1
  O  O68  1  0.12457500  0.57334500  0.79268000  1
  O  O69  1  0.95388500  0.77245400  0.02042000  1
  O  O70  1  0.10484400  0.36228900  0.73356200  1
  O  O71  1  0.04611500  0.77245400  0.47958000  1
  O  O72  1  0.95388500  0.22754600  0.52042000  1
  O  O73  1  0.89515600  0.63771100  0.26643800  1
  O  O74  1  0.04611500  0.22754600  0.97958000  1
  O  O75  1  0.87542500  0.42665500  0.20732000  1
  O  O76  1  0.89515600  0.36228900  0.76643800  1
  O  O77  1  0.87542500  0.57334500  0.70732000  1
  O  O78  1  0.71339750  0.33523450  0.31825400  1
  O  O79  1  0.64547950  0.49871250  0.08801600  1
