# generated using pymatgen
data_HfGa2Ni
_symmetry_space_group_name_H-M   'P 1'
_cell_length_a   12.30827600
_cell_length_b   12.30827600
_cell_length_c   8.10627800
_cell_angle_alpha   90.00000000
_cell_angle_beta   90.00000000
_cell_angle_gamma   90.00000000
_symmetry_Int_Tables_number   1
_chemical_formula_structural   HfGa2Ni
_chemical_formula_sum   'Hf20 Ga40 Ni20'
_cell_volume   1228.04970773
_cell_formula_units_Z   20
loop_
 _symmetry_equiv_pos_site_id
 _symmetry_equiv_pos_as_xyz
  1  'x, y, z'
loop_
 _atom_site_type_symbol
 _atom_site_label
 _atom_site_symmetry_multiplicity
 _atom_site_fract_x
 _atom_site_fract_y
 _atom_site_fract_z
 _atom_site_occupancy
  Hf  Hf0  1  0.00000000  0.00000000  0.50926800  1
  Hf  Hf1  1  0.00000000  0.00000000  0.06584700  1
  Hf  Hf2  1  0.20300950  0.20300950  0.63586350  1
  Hf  Hf3  1  0.29699050  0.70300950  0.13586350  1
  Hf  Hf4  1  0.20300950  0.79699050  0.63586350  1
  Hf  Hf5  1  0.29699050  0.29699050  0.13586350  1
  Hf  Hf6  1  0.71353300  0.00000000  0.12807400  1
  Hf  Hf7  1  0.50000000  0.21353300  0.62807400  1
  Hf  Hf8  1  0.50000000  0.78646700  0.62807400  1
  Hf  Hf9  1  0.28646700  0.00000000  0.12807400  1
  Hf  Hf10  1  0.50000000  0.50000000  0.00926800  1
  Hf  Hf11  1  0.50000000  0.50000000  0.56584700  1
  Hf  Hf12  1  0.70300950  0.70300950  0.13586350  1
  Hf  Hf13  1  0.79699050  0.20300950  0.63586350  1
  Hf  Hf14  1  0.70300950  0.29699050  0.13586350  1
  Hf  Hf15  1  0.79699050  0.79699050  0.63586350  1
  Hf  Hf16  1  0.21353300  0.50000000  0.62807400  1
  Hf  Hf17  1  0.00000000  0.71353300  0.12807400  1
  Hf  Hf18  1  0.00000000  0.28646700  0.12807400  1
  Hf  Hf19  1  0.78646700  0.50000000  0.62807400  1
  Ga  Ga20  1  0.50000000  0.34081550  0.29558750  1
  Ga  Ga21  1  0.84081550  0.00000000  0.79558750  1
  Ga  Ga22  1  0.38248350  0.00000000  0.64838150  1
  Ga  Ga23  1  0.50000000  0.88248350  0.14838150  1
  Ga  Ga24  1  0.13211750  0.13211750  0.28716450  1
  Ga  Ga25  1  0.50000000  0.11751650  0.14838150  1
  Ga  Ga26  1  0.61751650  0.00000000  0.64838150  1
  Ga  Ga27  1  0.36788250  0.36788250  0.78716450  1
  Ga  Ga28  1  0.13211750  0.86788250  0.28716450  1
  Ga  Ga29  1  0.36788250  0.63211750  0.78716450  1
  Ga  Ga30  1  0.35147900  0.85800200  0.38420700  1
  Ga  Ga31  1  0.64199800  0.85147900  0.88420700  1
  Ga  Ga32  1  0.35800200  0.14852100  0.88420700  1
  Ga  Ga33  1  0.64852100  0.14199800  0.38420700  1
  Ga  Ga34  1  0.35800200  0.85147900  0.88420700  1
  Ga  Ga35  1  0.64199800  0.14852100  0.88420700  1
  Ga  Ga36  1  0.35147900  0.14199800  0.38420700  1
  Ga  Ga37  1  0.64852100  0.85800200  0.38420700  1
  Ga  Ga38  1  0.15918450  0.00000000  0.79558750  1
  Ga  Ga39  1  0.50000000  0.65918450  0.29558750  1
  Ga  Ga40  1  0.00000000  0.84081550  0.79558750  1
  Ga  Ga41  1  0.34081550  0.50000000  0.29558750  1
  Ga  Ga42  1  0.88248350  0.50000000  0.14838150  1
  Ga  Ga43  1  0.00000000  0.38248350  0.64838150  1
  Ga  Ga44  1  0.63211750  0.63211750  0.78716450  1
  Ga  Ga45  1  0.00000000  0.61751650  0.64838150  1
  Ga  Ga46  1  0.11751650  0.50000000  0.14838150  1
  Ga  Ga47  1  0.86788250  0.86788250  0.28716450  1
  Ga  Ga48  1  0.63211750  0.36788250  0.78716450  1
  Ga  Ga49  1  0.86788250  0.13211750  0.28716450  1
  Ga  Ga50  1  0.85147900  0.35800200  0.88420700  1
  Ga  Ga51  1  0.14199800  0.35147900  0.38420700  1
  Ga  Ga52  1  0.85800200  0.64852100  0.38420700  1
  Ga  Ga53  1  0.14852100  0.64199800  0.88420700  1
  Ga  Ga54  1  0.85800200  0.35147900  0.38420700  1
  Ga  Ga55  1  0.14199800  0.64852100  0.38420700  1
  Ga  Ga56  1  0.85147900  0.64199800  0.88420700  1
  Ga  Ga57  1  0.14852100  0.35800200  0.88420700  1
  Ga  Ga58  1  0.65918450  0.50000000  0.29558750  1
  Ga  Ga59  1  0.00000000  0.15918450  0.79558750  1
  Ni  Ni60  1  0.33751200  0.33751200  0.47385900  1
  Ni  Ni61  1  0.50000000  0.00000000  0.40130300  1
  Ni  Ni62  1  0.50000000  0.00000000  0.90130300  1
  Ni  Ni63  1  0.16248800  0.16248800  0.97385900  1
  Ni  Ni64  1  0.33751200  0.66248800  0.47385900  1
  Ni  Ni65  1  0.16248800  0.83751200  0.97385900  1
  Ni  Ni66  1  0.78397000  0.00000000  0.48490900  1
  Ni  Ni67  1  0.50000000  0.28397000  0.98490900  1
  Ni  Ni68  1  0.50000000  0.71603000  0.98490900  1
  Ni  Ni69  1  0.21603000  0.00000000  0.48490900  1
  Ni  Ni70  1  0.83751200  0.83751200  0.97385900  1
  Ni  Ni71  1  0.00000000  0.50000000  0.90130300  1
  Ni  Ni72  1  0.00000000  0.50000000  0.40130300  1
  Ni  Ni73  1  0.66248800  0.66248800  0.47385900  1
  Ni  Ni74  1  0.83751200  0.16248800  0.97385900  1
  Ni  Ni75  1  0.66248800  0.33751200  0.47385900  1
  Ni  Ni76  1  0.28397000  0.50000000  0.98490900  1
  Ni  Ni77  1  0.00000000  0.78397000  0.48490900  1
  Ni  Ni78  1  0.00000000  0.21603000  0.48490900  1
  Ni  Ni79  1  0.71603000  0.50000000  0.98490900  1
