# generated using pymatgen
data_CeIr3
_symmetry_space_group_name_H-M   'P 1'
_cell_length_a   5.32725817
_cell_length_b   5.32725817
_cell_length_c   26.55335941
_cell_angle_alpha   90.00000000
_cell_angle_beta   90.00000000
_cell_angle_gamma   120.00000000
_symmetry_Int_Tables_number   1
_chemical_formula_structural   CeIr3
_chemical_formula_sum   'Ce9 Ir27'
_cell_volume   652.61581362
_cell_formula_units_Z   9
loop_
 _symmetry_equiv_pos_site_id
 _symmetry_equiv_pos_as_xyz
  1  'x, y, z'
loop_
 _atom_site_type_symbol
 _atom_site_label
 _atom_site_symmetry_multiplicity
 _atom_site_fract_x
 _atom_site_fract_y
 _atom_site_fract_z
 _atom_site_occupancy
  Ce  Ce0  1  0.00000000  0.00000000  0.00000000  1
  Ce  Ce1  1  0.66666667  0.33333333  0.19450433  1
  Ce  Ce2  1  0.00000000  0.00000000  0.13882900  1
  Ce  Ce3  1  0.66666667  0.33333333  0.33333333  1
  Ce  Ce4  1  0.33333333  0.66666667  0.52783767  1
  Ce  Ce5  1  0.66666667  0.33333333  0.47216233  1
  Ce  Ce6  1  0.33333333  0.66666667  0.66666667  1
  Ce  Ce7  1  0.00000000  0.00000000  0.86117100  1
  Ce  Ce8  1  0.33333333  0.66666667  0.80549567  1
  Ir  Ir9  1  0.33333333  0.66666667  0.16666667  1
  Ir  Ir10  1  0.66666667  0.33333333  0.00006433  1
  Ir  Ir11  1  0.00000000  0.00000000  0.33326900  1
  Ir  Ir12  1  0.16618333  0.83381667  0.25089067  1
  Ir  Ir13  1  0.16618333  0.33236667  0.25089067  1
  Ir  Ir14  1  0.66763333  0.83381667  0.25089067  1
  Ir  Ir15  1  0.99903333  0.49951667  0.08244267  1
  Ir  Ir16  1  0.50048333  0.49951667  0.08244267  1
  Ir  Ir17  1  0.50048333  0.00096667  0.08244267  1
  Ir  Ir18  1  1.00000000  1.00000000  0.50000000  1
  Ir  Ir19  1  0.33333333  0.66666667  0.33339767  1
  Ir  Ir20  1  0.66666667  0.33333333  0.66660233  1
  Ir  Ir21  1  0.83285000  0.16715000  0.58422400  1
  Ir  Ir22  1  0.83285000  0.66570000  0.58422400  1
  Ir  Ir23  1  0.33430000  0.16715000  0.58422400  1
  Ir  Ir24  1  0.66570000  0.83285000  0.41577600  1
  Ir  Ir25  1  0.16715000  0.83285000  0.41577600  1
  Ir  Ir26  1  0.16715000  0.33430000  0.41577600  1
  Ir  Ir27  1  0.66666667  0.33333333  0.83333333  1
  Ir  Ir28  1  0.00000000  0.00000000  0.66673100  1
  Ir  Ir29  1  0.33333333  0.66666667  0.99993567  1
  Ir  Ir30  1  0.49951667  0.50048333  0.91755733  1
  Ir  Ir31  1  0.49951667  0.99903333  0.91755733  1
  Ir  Ir32  1  0.00096667  0.50048333  0.91755733  1
  Ir  Ir33  1  0.33236667  0.16618333  0.74910933  1
  Ir  Ir34  1  0.83381667  0.16618333  0.74910933  1
  Ir  Ir35  1  0.83381667  0.66763333  0.74910933  1
