# generated using pymatgen
data_Mn(PO3)4
_symmetry_space_group_name_H-M   'P 1'
_cell_length_a   9.73022000
_cell_length_b   13.38564200
_cell_length_c   7.67321592
_cell_angle_alpha   90.00000000
_cell_angle_beta   103.90364123
_cell_angle_gamma   90.00000000
_symmetry_Int_Tables_number   1
_chemical_formula_structural   Mn(PO3)4
_chemical_formula_sum   'Mn4 P16 O48'
_cell_volume   970.11865680
_cell_formula_units_Z   4
loop_
 _symmetry_equiv_pos_site_id
 _symmetry_equiv_pos_as_xyz
  1  'x, y, z'
loop_
 _atom_site_type_symbol
 _atom_site_label
 _atom_site_symmetry_multiplicity
 _atom_site_fract_x
 _atom_site_fract_y
 _atom_site_fract_z
 _atom_site_occupancy
  Mn  Mn0  1  0.50000000  0.63170100  0.75000000  1
  Mn  Mn1  1  0.50000000  0.36829900  0.25000000  1
  Mn  Mn2  1  0.00000000  0.13170100  0.75000000  1
  Mn  Mn3  1  0.00000000  0.86829900  0.25000000  1
  P  P4  1  0.58636350  0.83780850  0.62000800  1
  P  P5  1  0.41363650  0.83780850  0.87999200  1
  P  P6  1  0.87749800  0.08292900  0.33104000  1
  P  P7  1  0.58636350  0.16219150  0.12000800  1
  P  P8  1  0.41363650  0.16219150  0.37999200  1
  P  P9  1  0.12250200  0.91707100  0.66896000  1
  P  P10  1  0.12250200  0.08292900  0.16896000  1
  P  P11  1  0.87749800  0.91707100  0.83104000  1
  P  P12  1  0.08636350  0.33780850  0.62000800  1
  P  P13  1  0.91363650  0.33780850  0.87999200  1
  P  P14  1  0.37749800  0.58292900  0.33104000  1
  P  P15  1  0.08636350  0.66219150  0.12000800  1
  P  P16  1  0.91363650  0.66219150  0.37999200  1
  P  P17  1  0.62250200  0.41707100  0.66896000  1
  P  P18  1  0.62250200  0.58292900  0.16896000  1
  P  P19  1  0.37749800  0.41707100  0.83104000  1
  O  O20  1  0.50000000  0.88997500  0.75000000  1
  O  O21  1  0.50000000  0.63094700  0.25000000  1
  O  O22  1  0.50000000  0.36905300  0.75000000  1
  O  O23  1  0.61610250  0.27210750  0.18660400  1
  O  O24  1  0.37389950  0.63203750  0.50823000  1
  O  O25  1  0.74093700  0.11045500  0.18581300  1
  O  O26  1  0.38389750  0.27210750  0.31339600  1
  O  O27  1  0.89162700  0.03017000  0.83556300  1
  O  O28  1  0.89162700  0.96983000  0.33556300  1
  O  O29  1  0.52813200  0.14170100  0.93010100  1
  O  O30  1  0.50000000  0.11002500  0.25000000  1
  O  O31  1  0.47186800  0.14170100  0.56989900  1
  O  O32  1  0.37389950  0.36796250  0.00823000  1
  O  O33  1  0.74093700  0.88954500  0.68581300  1
  O  O34  1  0.25906300  0.11045500  0.31418700  1
  O  O35  1  0.62610050  0.36796250  0.49177000  1
  O  O36  1  0.52813200  0.85829900  0.43010100  1
  O  O37  1  0.62610050  0.63203750  0.99177000  1
  O  O38  1  0.47186800  0.85829900  0.06989900  1
  O  O39  1  0.10837300  0.03017000  0.66443700  1
  O  O40  1  0.10837300  0.96983000  0.16443700  1
  O  O41  1  0.61610250  0.72789250  0.68660400  1
  O  O42  1  0.25906300  0.88954500  0.81418700  1
  O  O43  1  0.38389750  0.72789250  0.81339600  1
  O  O44  1  0.00000000  0.38997500  0.75000000  1
  O  O45  1  0.00000000  0.13094700  0.25000000  1
  O  O46  1  0.00000000  0.86905300  0.75000000  1
  O  O47  1  0.11610250  0.77210750  0.18660400  1
  O  O48  1  0.87389950  0.13203750  0.50823000  1
  O  O49  1  0.24093700  0.61045500  0.18581300  1
  O  O50  1  0.88389750  0.77210750  0.31339600  1
  O  O51  1  0.39162700  0.53017000  0.83556300  1
  O  O52  1  0.39162700  0.46983000  0.33556300  1
  O  O53  1  0.02813200  0.64170100  0.93010100  1
  O  O54  1  0.00000000  0.61002500  0.25000000  1
  O  O55  1  0.97186800  0.64170100  0.56989900  1
  O  O56  1  0.87389950  0.86796250  0.00823000  1
  O  O57  1  0.24093700  0.38954500  0.68581300  1
  O  O58  1  0.75906300  0.61045500  0.31418700  1
  O  O59  1  0.12610050  0.86796250  0.49177000  1
  O  O60  1  0.02813200  0.35829900  0.43010100  1
  O  O61  1  0.12610050  0.13203750  0.99177000  1
  O  O62  1  0.97186800  0.35829900  0.06989900  1
  O  O63  1  0.60837300  0.53017000  0.66443700  1
  O  O64  1  0.60837300  0.46983000  0.16443700  1
  O  O65  1  0.11610250  0.22789250  0.68660400  1
  O  O66  1  0.75906300  0.38954500  0.81418700  1
  O  O67  1  0.88389750  0.22789250  0.81339600  1
