# generated using pymatgen
data_LiFe3(P3O10)2
_symmetry_space_group_name_H-M   'P 1'
_cell_length_a   10.26220400
_cell_length_b   13.35761200
_cell_length_c   12.32708200
_cell_angle_alpha   90.00000000
_cell_angle_beta   90.00000000
_cell_angle_gamma   90.00000000
_symmetry_Int_Tables_number   1
_chemical_formula_structural   LiFe3(P3O10)2
_chemical_formula_sum   'Li4 Fe12 P24 O80'
_cell_volume   1689.77839435
_cell_formula_units_Z   4
loop_
 _symmetry_equiv_pos_site_id
 _symmetry_equiv_pos_as_xyz
  1  'x, y, z'
loop_
 _atom_site_type_symbol
 _atom_site_label
 _atom_site_symmetry_multiplicity
 _atom_site_fract_x
 _atom_site_fract_y
 _atom_site_fract_z
 _atom_site_occupancy
  Li  Li0  1  0.58637200  0.00000000  0.00000000  1
  Li  Li1  1  0.41362800  0.00000000  0.50000000  1
  Li  Li2  1  0.08637200  0.50000000  0.00000000  1
  Li  Li3  1  0.91362800  0.50000000  0.50000000  1
  Fe  Fe4  1  0.87069400  0.00000000  0.00000000  1
  Fe  Fe5  1  0.50000000  0.73922200  0.75000000  1
  Fe  Fe6  1  0.12930600  0.00000000  0.50000000  1
  Fe  Fe7  1  0.50000000  0.79903700  0.25000000  1
  Fe  Fe8  1  0.50000000  0.26077800  0.25000000  1
  Fe  Fe9  1  0.50000000  0.20096300  0.75000000  1
  Fe  Fe10  1  0.37069400  0.50000000  0.00000000  1
  Fe  Fe11  1  0.00000000  0.23922200  0.75000000  1
  Fe  Fe12  1  0.62930600  0.50000000  0.50000000  1
  Fe  Fe13  1  0.00000000  0.29903700  0.25000000  1
  Fe  Fe14  1  0.00000000  0.76077800  0.25000000  1
  Fe  Fe15  1  0.00000000  0.70096300  0.75000000  1
  P  P16  1  0.24147200  0.06019200  0.72167500  1
  P  P17  1  0.76902500  0.14004900  0.31642800  1
  P  P18  1  0.55774200  0.70645100  0.01317700  1
  P  P19  1  0.23097500  0.85995100  0.81642800  1
  P  P20  1  0.44225800  0.29354900  0.51317700  1
  P  P21  1  0.24147200  0.93980800  0.27832500  1
  P  P22  1  0.76902500  0.85995100  0.68357200  1
  P  P23  1  0.44225800  0.70645100  0.48682300  1
  P  P24  1  0.23097500  0.14004900  0.18357200  1
  P  P25  1  0.75852800  0.06019200  0.77832500  1
  P  P26  1  0.55774200  0.29354900  0.98682300  1
  P  P27  1  0.75852800  0.93980800  0.22167500  1
  P  P28  1  0.74147200  0.56019200  0.72167500  1
  P  P29  1  0.26902500  0.64004900  0.31642800  1
  P  P30  1  0.05774200  0.20645100  0.01317700  1
  P  P31  1  0.73097500  0.35995100  0.81642800  1
  P  P32  1  0.94225800  0.79354900  0.51317700  1
  P  P33  1  0.74147200  0.43980800  0.27832500  1
  P  P34  1  0.26902500  0.35995100  0.68357200  1
  P  P35  1  0.94225800  0.20645100  0.48682300  1
  P  P36  1  0.73097500  0.64004900  0.18357200  1
  P  P37  1  0.25852800  0.56019200  0.77832500  1
  P  P38  1  0.05774200  0.79354900  0.98682300  1
  P  P39  1  0.25852800  0.43980800  0.22167500  1
  O  O40  1  0.64350950  0.69852050  0.25810400  1
  O  O41  1  0.63154400  0.90530400  0.26962900  1
  O  O42  1  0.47833950  0.20468450  0.58473500  1
  O  O43  1  0.63086300  0.36669600  0.29390100  1
  O  O44  1  0.36845600  0.09469600  0.76962900  1
  O  O45  1  0.18857950  0.02443650  0.19502100  1
  O  O46  1  0.41688100  0.73570500  0.60299700  1
  O  O47  1  0.36913700  0.36669600  0.20609900  1
  O  O48  1  0.26611750  0.99282750  0.39089800  1
  O  O49  1  0.81142050  0.97556350  0.69502100  1
  O  O50  1  0.53713100  0.38285000  0.52551800  1
  O  O51  1  0.26611750  0.00717250  0.60910200  1
  O  O52  1  0.46286900  0.38285000  0.97448200  1
  O  O53  1  0.52166050  0.20468450  0.91526500  1
  O  O54  1  0.19665600  0.83833100  0.94138300  1
  O  O55  1  0.35649050  0.30147950  0.75810400  1
  O  O56  1  0.36913700  0.63330400  0.79390100  1
  O  O57  1  0.37621200  0.15014400  0.19787300  1
  O  O58  1  0.52166050  0.79531550  0.08473500  1
  O  O59  1  0.81142050  0.02443650  0.30497900  1
  O  O60  1  0.73388250  0.00717250  0.89089800  1
  O  O61  1  0.80334400  0.83833100  0.55861700  1
  O  O62  1  0.62378800  0.84985600  0.69787300  1
  O  O63  1  0.35649050  0.69852050  0.24189600  1
  O  O64  1  0.73388250  0.99282750  0.10910200  1
  O  O65  1  0.62378800  0.15014400  0.30212700  1
  O  O66  1  0.47833950  0.79531550  0.41526500  1
  O  O67  1  0.58311900  0.26429500  0.10299700  1
  O  O68  1  0.58311900  0.73570500  0.89700300  1
  O  O69  1  0.63086300  0.63330400  0.70609900  1
  O  O70  1  0.41688100  0.26429500  0.39700300  1
  O  O71  1  0.46286900  0.61715000  0.02551800  1
  O  O72  1  0.19665600  0.16166900  0.05861700  1
  O  O73  1  0.64350950  0.30147950  0.74189600  1
  O  O74  1  0.80334400  0.16166900  0.44138300  1
  O  O75  1  0.36845600  0.90530400  0.23037100  1
  O  O76  1  0.37621200  0.84985600  0.80212700  1
  O  O77  1  0.53713100  0.61715000  0.47448200  1
  O  O78  1  0.18857950  0.97556350  0.80497900  1
  O  O79  1  0.63154400  0.09469600  0.73037100  1
  O  O80  1  0.14350950  0.19852050  0.25810400  1
  O  O81  1  0.13154400  0.40530400  0.26962900  1
  O  O82  1  0.97833950  0.70468450  0.58473500  1
  O  O83  1  0.13086300  0.86669600  0.29390100  1
  O  O84  1  0.86845600  0.59469600  0.76962900  1
  O  O85  1  0.68857950  0.52443650  0.19502100  1
  O  O86  1  0.91688100  0.23570500  0.60299700  1
  O  O87  1  0.86913700  0.86669600  0.20609900  1
  O  O88  1  0.76611750  0.49282750  0.39089800  1
  O  O89  1  0.31142050  0.47556350  0.69502100  1
  O  O90  1  0.03713100  0.88285000  0.52551800  1
  O  O91  1  0.76611750  0.50717250  0.60910200  1
  O  O92  1  0.96286900  0.88285000  0.97448200  1
  O  O93  1  0.02166050  0.70468450  0.91526500  1
  O  O94  1  0.69665600  0.33833100  0.94138300  1
  O  O95  1  0.85649050  0.80147950  0.75810400  1
  O  O96  1  0.86913700  0.13330400  0.79390100  1
  O  O97  1  0.87621200  0.65014400  0.19787300  1
  O  O98  1  0.02166050  0.29531550  0.08473500  1
  O  O99  1  0.31142050  0.52443650  0.30497900  1
  O  O100  1  0.23388250  0.50717250  0.89089800  1
  O  O101  1  0.30334400  0.33833100  0.55861700  1
  O  O102  1  0.12378800  0.34985600  0.69787300  1
  O  O103  1  0.85649050  0.19852050  0.24189600  1
  O  O104  1  0.23388250  0.49282750  0.10910200  1
  O  O105  1  0.12378800  0.65014400  0.30212700  1
  O  O106  1  0.97833950  0.29531550  0.41526500  1
  O  O107  1  0.08311900  0.76429500  0.10299700  1
  O  O108  1  0.08311900  0.23570500  0.89700300  1
  O  O109  1  0.13086300  0.13330400  0.70609900  1
  O  O110  1  0.91688100  0.76429500  0.39700300  1
  O  O111  1  0.96286900  0.11715000  0.02551800  1
  O  O112  1  0.69665600  0.66166900  0.05861700  1
  O  O113  1  0.14350950  0.80147950  0.74189600  1
  O  O114  1  0.30334400  0.66166900  0.44138300  1
  O  O115  1  0.86845600  0.40530400  0.23037100  1
  O  O116  1  0.87621200  0.34985600  0.80212700  1
  O  O117  1  0.03713100  0.11715000  0.47448200  1
  O  O118  1  0.68857950  0.47556350  0.80497900  1
  O  O119  1  0.13154400  0.59469600  0.73037100  1
