# generated using pymatgen
data_Mo(PO4)2
_symmetry_space_group_name_H-M   'P 1'
_cell_length_a   4.98152300
_cell_length_b   12.94992000
_cell_length_c   11.57583601
_cell_angle_alpha   90.00000000
_cell_angle_beta   110.34433001
_cell_angle_gamma   90.00000000
_symmetry_Int_Tables_number   1
_chemical_formula_structural   Mo(PO4)2
_chemical_formula_sum   'Mo4 P8 O32'
_cell_volume   700.17815855
_cell_formula_units_Z   4
loop_
 _symmetry_equiv_pos_site_id
 _symmetry_equiv_pos_as_xyz
  1  'x, y, z'
loop_
 _atom_site_type_symbol
 _atom_site_label
 _atom_site_symmetry_multiplicity
 _atom_site_fract_x
 _atom_site_fract_y
 _atom_site_fract_z
 _atom_site_occupancy
  Mo  Mo0  1  0.90764700  0.57089400  0.71118700  1
  Mo  Mo1  1  0.09235300  0.07089400  0.78881300  1
  Mo  Mo2  1  0.90764700  0.92910600  0.21118700  1
  Mo  Mo3  1  0.09235300  0.42910600  0.28881300  1
  P  P4  1  0.31226200  0.41113600  0.61522000  1
  P  P5  1  0.68773800  0.58886400  0.38478000  1
  P  P6  1  0.59564200  0.25175900  0.29450000  1
  P  P7  1  0.40435800  0.75175900  0.20550000  1
  P  P8  1  0.68773800  0.91113600  0.88478000  1
  P  P9  1  0.59564200  0.24824100  0.79450000  1
  P  P10  1  0.31226200  0.08886400  0.11522000  1
  P  P11  1  0.40435800  0.74824100  0.70550000  1
  O  O12  1  0.77544400  0.33444500  0.25190500  1
  O  O13  1  0.22455600  0.83444500  0.24809500  1
  O  O14  1  0.36902600  0.31584300  0.33000800  1
  O  O15  1  0.24001900  0.67498000  0.11566200  1
  O  O16  1  0.77544400  0.16555500  0.75190500  1
  O  O17  1  0.63097400  0.68415700  0.66999200  1
  O  O18  1  0.75998100  0.32502000  0.88433800  1
  O  O19  1  0.58611000  0.47444100  0.63406100  1
  O  O20  1  0.08048900  0.44765700  0.14315900  1
  O  O21  1  0.16079000  0.04467600  0.20166900  1
  O  O22  1  0.59453900  0.79630500  0.83898200  1
  O  O23  1  0.40546100  0.29630500  0.66101800  1
  O  O24  1  0.87785100  0.90314800  0.01706700  1
  O  O25  1  0.41389000  0.97444100  0.86593900  1
  O  O26  1  0.24001900  0.82502000  0.61566200  1
  O  O27  1  0.12214900  0.40314800  0.48293300  1
  O  O28  1  0.36902600  0.18415700  0.83000800  1
  O  O29  1  0.22455600  0.66555500  0.74809500  1
  O  O30  1  0.83921000  0.54467600  0.29833100  1
  O  O31  1  0.91951100  0.55234300  0.85684100  1
  O  O32  1  0.08048900  0.05234300  0.64315900  1
  O  O33  1  0.16079000  0.45532400  0.70166900  1
  O  O34  1  0.91951100  0.94765700  0.35684100  1
  O  O35  1  0.63097400  0.81584300  0.16999200  1
  O  O36  1  0.87785100  0.59685200  0.51706700  1
  O  O37  1  0.75998100  0.17498000  0.38433800  1
  O  O38  1  0.58611000  0.02555900  0.13406100  1
  O  O39  1  0.12214900  0.09685200  0.98293300  1
  O  O40  1  0.59453900  0.70369500  0.33898200  1
  O  O41  1  0.40546100  0.20369500  0.16101800  1
  O  O42  1  0.83921000  0.95532400  0.79833100  1
  O  O43  1  0.41389000  0.52555900  0.36593900  1
