# generated using pymatgen
data_HoCo3
_symmetry_space_group_name_H-M   'P 1'
_cell_length_a   4.95565564
_cell_length_b   4.95565564
_cell_length_c   24.30332126
_cell_angle_alpha   90.00000000
_cell_angle_beta   90.00000000
_cell_angle_gamma   120.00000000
_symmetry_Int_Tables_number   1
_chemical_formula_structural   HoCo3
_chemical_formula_sum   'Ho9 Co27'
_cell_volume   516.89044040
_cell_formula_units_Z   9
loop_
 _symmetry_equiv_pos_site_id
 _symmetry_equiv_pos_as_xyz
  1  'x, y, z'
loop_
 _atom_site_type_symbol
 _atom_site_label
 _atom_site_symmetry_multiplicity
 _atom_site_fract_x
 _atom_site_fract_y
 _atom_site_fract_z
 _atom_site_occupancy
  Ho  Ho0  1  0.00000000  0.00000000  0.00000000  1
  Ho  Ho1  1  0.66666667  0.33333333  0.19360533  1
  Ho  Ho2  1  0.00000000  0.00000000  0.13972800  1
  Ho  Ho3  1  0.66666667  0.33333333  0.33333333  1
  Ho  Ho4  1  0.33333333  0.66666667  0.52693867  1
  Ho  Ho5  1  0.66666667  0.33333333  0.47306133  1
  Ho  Ho6  1  0.33333333  0.66666667  0.66666667  1
  Ho  Ho7  1  0.00000000  0.00000000  0.86027200  1
  Ho  Ho8  1  0.33333333  0.66666667  0.80639467  1
  Co  Co9  1  0.33333333  0.66666667  0.16666667  1
  Co  Co10  1  0.33333333  0.66666667  0.33174967  1
  Co  Co11  1  0.33333333  0.66666667  0.00158367  1
  Co  Co12  1  0.16532300  0.83467700  0.25197700  1
  Co  Co13  1  0.16532300  0.33064600  0.25197700  1
  Co  Co14  1  0.66935400  0.83467700  0.25197700  1
  Co  Co15  1  0.50134367  0.49865633  0.08135633  1
  Co  Co16  1  0.50134367  0.00268733  0.08135633  1
  Co  Co17  1  0.99731267  0.49865633  0.08135633  1
  Co  Co18  1  1.00000000  1.00000000  0.50000000  1
  Co  Co19  1  0.00000000  0.00000000  0.66508300  1
  Co  Co20  1  0.00000000  0.00000000  0.33491700  1
  Co  Co21  1  0.83198967  0.16801033  0.58531033  1
  Co  Co22  1  0.83198967  0.66397933  0.58531033  1
  Co  Co23  1  0.33602067  0.16801033  0.58531033  1
  Co  Co24  1  0.16801033  0.83198967  0.41468967  1
  Co  Co25  1  0.16801033  0.33602067  0.41468967  1
  Co  Co26  1  0.66397933  0.83198967  0.41468967  1
  Co  Co27  1  0.66666667  0.33333333  0.83333333  1
  Co  Co28  1  0.66666667  0.33333333  0.99841633  1
  Co  Co29  1  0.66666667  0.33333333  0.66825033  1
  Co  Co30  1  0.49865633  0.50134367  0.91864367  1
  Co  Co31  1  0.49865633  0.99731267  0.91864367  1
  Co  Co32  1  0.00268733  0.50134367  0.91864367  1
  Co  Co33  1  0.83467700  0.16532300  0.74802300  1
  Co  Co34  1  0.83467700  0.66935400  0.74802300  1
  Co  Co35  1  0.33064600  0.16532300  0.74802300  1
