# generated using pymatgen
data_Nd4Ge3Rh4
_symmetry_space_group_name_H-M   'P 1'
_cell_length_a   21.30425400
_cell_length_b   5.71414600
_cell_length_c   8.04343432
_cell_angle_alpha   90.00000000
_cell_angle_beta   109.70387715
_cell_angle_gamma   90.00000000
_symmetry_Int_Tables_number   1
_chemical_formula_structural   Nd4Ge3Rh4
_chemical_formula_sum   'Nd16 Ge12 Rh16'
_cell_volume   921.83967876
_cell_formula_units_Z   4
loop_
 _symmetry_equiv_pos_site_id
 _symmetry_equiv_pos_as_xyz
  1  'x, y, z'
loop_
 _atom_site_type_symbol
 _atom_site_label
 _atom_site_symmetry_multiplicity
 _atom_site_fract_x
 _atom_site_fract_y
 _atom_site_fract_z
 _atom_site_occupancy
  Nd  Nd0  1  0.32972750  0.11554350  0.60103000  1
  Nd  Nd1  1  0.17027250  0.61554350  0.89897000  1
  Nd  Nd2  1  0.32972750  0.88445650  0.10103000  1
  Nd  Nd3  1  0.06685450  0.14578050  0.66891600  1
  Nd  Nd4  1  0.43314550  0.64578050  0.83108400  1
  Nd  Nd5  1  0.43314550  0.35421950  0.33108400  1
  Nd  Nd6  1  0.06685450  0.85421950  0.16891600  1
  Nd  Nd7  1  0.17027250  0.38445650  0.39897000  1
  Nd  Nd8  1  0.82972750  0.61554350  0.60103000  1
  Nd  Nd9  1  0.67027250  0.11554350  0.89897000  1
  Nd  Nd10  1  0.82972750  0.38445650  0.10103000  1
  Nd  Nd11  1  0.56685450  0.64578050  0.66891600  1
  Nd  Nd12  1  0.93314550  0.14578050  0.83108400  1
  Nd  Nd13  1  0.93314550  0.85421950  0.33108400  1
  Nd  Nd14  1  0.56685450  0.35421950  0.16891600  1
  Nd  Nd15  1  0.67027250  0.88445650  0.39897000  1
  Ge  Ge16  1  0.00000000  0.35444900  0.25000000  1
  Ge  Ge17  1  0.00000000  0.64555100  0.75000000  1
  Ge  Ge18  1  0.17175900  0.88030200  0.55803300  1
  Ge  Ge19  1  0.32824100  0.38030200  0.94196700  1
  Ge  Ge20  1  0.32824100  0.61969800  0.44196700  1
  Ge  Ge21  1  0.17175900  0.11969800  0.05803300  1
  Ge  Ge22  1  0.50000000  0.85444900  0.25000000  1
  Ge  Ge23  1  0.50000000  0.14555100  0.75000000  1
  Ge  Ge24  1  0.67175900  0.38030200  0.55803300  1
  Ge  Ge25  1  0.82824100  0.88030200  0.94196700  1
  Ge  Ge26  1  0.82824100  0.11969800  0.44196700  1
  Ge  Ge27  1  0.67175900  0.61969800  0.05803300  1
  Rh  Rh28  1  0.43763850  0.13448350  0.98262900  1
  Rh  Rh29  1  0.43763850  0.86551650  0.48262900  1
  Rh  Rh30  1  0.06236150  0.36551650  0.01737100  1
  Rh  Rh31  1  0.22132350  0.14976250  0.81408800  1
  Rh  Rh32  1  0.27867650  0.64976250  0.68591200  1
  Rh  Rh33  1  0.06236150  0.63448350  0.51737100  1
  Rh  Rh34  1  0.27867650  0.35023750  0.18591200  1
  Rh  Rh35  1  0.22132350  0.85023750  0.31408800  1
  Rh  Rh36  1  0.93763850  0.63448350  0.98262900  1
  Rh  Rh37  1  0.93763850  0.36551650  0.48262900  1
  Rh  Rh38  1  0.56236150  0.86551650  0.01737100  1
  Rh  Rh39  1  0.72132350  0.64976250  0.81408800  1
  Rh  Rh40  1  0.77867650  0.14976250  0.68591200  1
  Rh  Rh41  1  0.56236150  0.13448350  0.51737100  1
  Rh  Rh42  1  0.77867650  0.85023750  0.18591200  1
  Rh  Rh43  1  0.72132350  0.35023750  0.31408800  1
