# generated using pymatgen
data_Pr2USe4
_symmetry_space_group_name_H-M   'P 1'
_cell_length_a   8.91445400
_cell_length_b   8.91445400
_cell_length_c   8.87078600
_cell_angle_alpha   90.00000000
_cell_angle_beta   90.00000000
_cell_angle_gamma   90.00000000
_symmetry_Int_Tables_number   1
_chemical_formula_structural   Pr2USe4
_chemical_formula_sum   'Pr8 U4 Se16'
_cell_volume   704.93909879
_cell_formula_units_Z   4
loop_
 _symmetry_equiv_pos_site_id
 _symmetry_equiv_pos_as_xyz
  1  'x, y, z'
loop_
 _atom_site_type_symbol
 _atom_site_label
 _atom_site_symmetry_multiplicity
 _atom_site_fract_x
 _atom_site_fract_y
 _atom_site_fract_z
 _atom_site_occupancy
  Pr  Pr0  1  0.37385000  0.25000000  0.87500000  1
  Pr  Pr1  1  0.12615000  0.25000000  0.37500000  1
  Pr  Pr2  1  0.75000000  0.37385000  0.12500000  1
  Pr  Pr3  1  0.75000000  0.12615000  0.62500000  1
  Pr  Pr4  1  0.87385000  0.75000000  0.37500000  1
  Pr  Pr5  1  0.62615000  0.75000000  0.87500000  1
  Pr  Pr6  1  0.25000000  0.87385000  0.62500000  1
  Pr  Pr7  1  0.25000000  0.62615000  0.12500000  1
  U  U8  1  0.50000000  0.50000000  0.50000000  1
  U  U9  1  0.50000000  0.00000000  0.25000000  1
  U  U10  1  0.00000000  0.00000000  0.00000000  1
  U  U11  1  0.00000000  0.50000000  0.75000000  1
  Se  Se12  1  0.57495400  0.67606100  0.20496400  1
  Se  Se13  1  0.82393900  0.42504600  0.45496400  1
  Se  Se14  1  0.67606100  0.07495400  0.95496400  1
  Se  Se15  1  0.82393900  0.07495400  0.29503600  1
  Se  Se16  1  0.67606100  0.42504600  0.79503600  1
  Se  Se17  1  0.92504600  0.82393900  0.70496400  1
  Se  Se18  1  0.07495400  0.32393900  0.04503600  1
  Se  Se19  1  0.42504600  0.17606100  0.54503600  1
  Se  Se20  1  0.07495400  0.17606100  0.70496400  1
  Se  Se21  1  0.32393900  0.92504600  0.95496400  1
  Se  Se22  1  0.17606100  0.57495400  0.45496400  1
  Se  Se23  1  0.32393900  0.57495400  0.79503600  1
  Se  Se24  1  0.17606100  0.92504600  0.29503600  1
  Se  Se25  1  0.42504600  0.32393900  0.20496400  1
  Se  Se26  1  0.57495400  0.82393900  0.54503600  1
  Se  Se27  1  0.92504600  0.67606100  0.04503600  1
