# generated using pymatgen
data_Co2SnO4
_symmetry_space_group_name_H-M   'P 1'
_cell_length_a   6.08723800
_cell_length_b   6.30513400
_cell_length_c   8.78407600
_cell_angle_alpha   90.00000000
_cell_angle_beta   90.00000000
_cell_angle_gamma   90.00000000
_symmetry_Int_Tables_number   1
_chemical_formula_structural   Co2SnO4
_chemical_formula_sum   'Co8 Sn4 O16'
_cell_volume   337.14031459
_cell_formula_units_Z   4
loop_
 _symmetry_equiv_pos_site_id
 _symmetry_equiv_pos_as_xyz
  1  'x, y, z'
loop_
 _atom_site_type_symbol
 _atom_site_label
 _atom_site_symmetry_multiplicity
 _atom_site_fract_x
 _atom_site_fract_y
 _atom_site_fract_z
 _atom_site_occupancy
  Co  Co0  1  0.50000000  0.75000000  0.36180600  1
  Co  Co1  1  0.50000000  0.25000000  0.63819400  1
  Co  Co2  1  0.75000000  0.25000000  0.25000000  1
  Co  Co3  1  0.25000000  0.25000000  0.25000000  1
  Co  Co4  1  0.00000000  0.25000000  0.86180600  1
  Co  Co5  1  0.00000000  0.75000000  0.13819400  1
  Co  Co6  1  0.25000000  0.75000000  0.75000000  1
  Co  Co7  1  0.75000000  0.75000000  0.75000000  1
  Sn  Sn8  1  0.50000000  0.00000000  0.00000000  1
  Sn  Sn9  1  0.00000000  0.00000000  0.50000000  1
  Sn  Sn10  1  0.00000000  0.50000000  0.50000000  1
  Sn  Sn11  1  0.50000000  0.50000000  0.00000000  1
  O  O12  1  0.76676800  0.25000000  0.49825800  1
  O  O13  1  0.23323200  0.25000000  0.49825800  1
  O  O14  1  0.50000000  0.98189500  0.76474100  1
  O  O15  1  0.00000000  0.01810500  0.26474100  1
  O  O16  1  0.00000000  0.98189500  0.73525900  1
  O  O17  1  0.50000000  0.01810500  0.23525900  1
  O  O18  1  0.76676800  0.75000000  0.50174200  1
  O  O19  1  0.23323200  0.75000000  0.50174200  1
  O  O20  1  0.26676800  0.75000000  0.99825800  1
  O  O21  1  0.73323200  0.75000000  0.99825800  1
  O  O22  1  0.00000000  0.48189500  0.26474100  1
  O  O23  1  0.50000000  0.51810500  0.76474100  1
  O  O24  1  0.50000000  0.48189500  0.23525900  1
  O  O25  1  0.00000000  0.51810500  0.73525900  1
  O  O26  1  0.26676800  0.25000000  0.00174200  1
  O  O27  1  0.73323200  0.25000000  0.00174200  1
