# generated using pymatgen
data_Co(ClO4)2
_symmetry_space_group_name_H-M   'P 1'
_cell_length_a   4.91193741
_cell_length_b   4.91193741
_cell_length_c   23.36636584
_cell_angle_alpha   90.00000000
_cell_angle_beta   90.00000000
_cell_angle_gamma   120.00000000
_symmetry_Int_Tables_number   1
_chemical_formula_structural   Co(ClO4)2
_chemical_formula_sum   'Co3 Cl6 O24'
_cell_volume   488.23336173
_cell_formula_units_Z   3
loop_
 _symmetry_equiv_pos_site_id
 _symmetry_equiv_pos_as_xyz
  1  'x, y, z'
loop_
 _atom_site_type_symbol
 _atom_site_label
 _atom_site_symmetry_multiplicity
 _atom_site_fract_x
 _atom_site_fract_y
 _atom_site_fract_z
 _atom_site_occupancy
  Co  Co0  1  0.66666667  0.33333333  0.33333333  1
  Co  Co1  1  0.33333333  0.66666667  0.66666667  1
  Co  Co2  1  0.00000000  1.00000000  0.00000000  1
  Cl  Cl3  1  0.66666667  0.33333333  0.07532917  1
  Cl  Cl4  1  0.00000000  0.00000000  0.25800417  1
  Cl  Cl5  1  0.33333333  0.66666667  0.40866250  1
  Cl  Cl6  1  0.66666667  0.33333333  0.59133750  1
  Cl  Cl7  1  0.00000000  0.00000000  0.74199583  1
  Cl  Cl8  1  0.33333333  0.66666667  0.92467083  1
  O  O9  1  0.66666667  0.33333333  0.13600667  1
  O  O10  1  0.00000000  0.00000000  0.19732667  1
  O  O11  1  0.93719817  0.31078358  0.05306058  1
  O  O12  1  0.97745025  0.70691875  0.28027275  1
  O  O13  1  0.29308125  0.27053150  0.28027275  1
  O  O14  1  0.72946850  0.02254975  0.28027275  1
  O  O15  1  0.68921642  0.62641458  0.05306058  1
  O  O16  1  0.37358542  0.06280183  0.05306058  1
  O  O17  1  0.33333333  0.66666667  0.46934000  1
  O  O18  1  0.66666667  0.33333333  0.53066000  1
  O  O19  1  0.60386483  0.64411692  0.38639392  1
  O  O20  1  0.64411692  0.04025208  0.61360608  1
  O  O21  1  0.95974792  0.60386483  0.61360608  1
  O  O22  1  0.39613517  0.35588308  0.61360608  1
  O  O23  1  0.35588308  0.95974792  0.38639392  1
  O  O24  1  0.04025208  0.39613517  0.38639392  1
  O  O25  1  0.00000000  0.00000000  0.80267333  1
  O  O26  1  0.33333333  0.66666667  0.86399333  1
  O  O27  1  0.27053150  0.97745025  0.71972725  1
  O  O28  1  0.31078358  0.37358542  0.94693942  1
  O  O29  1  0.62641458  0.93719817  0.94693942  1
  O  O30  1  0.06280183  0.68921642  0.94693942  1
  O  O31  1  0.02254975  0.29308125  0.71972725  1
  O  O32  1  0.70691875  0.72946850  0.71972725  1
