# generated using pymatgen
data_Ca4Al51Cr7
_symmetry_space_group_name_H-M   'P 1'
_cell_length_a   10.22451188
_cell_length_b   10.22451188
_cell_length_c   11.47739900
_cell_angle_alpha   90.00000000
_cell_angle_beta   90.00000000
_cell_angle_gamma   120.00000000
_symmetry_Int_Tables_number   1
_chemical_formula_structural   Ca4Al51Cr7
_chemical_formula_sum   'Ca4 Al51 Cr7'
_cell_volume   1039.10462906
_cell_formula_units_Z   1
loop_
 _symmetry_equiv_pos_site_id
 _symmetry_equiv_pos_as_xyz
  1  'x, y, z'
loop_
 _atom_site_type_symbol
 _atom_site_label
 _atom_site_symmetry_multiplicity
 _atom_site_fract_x
 _atom_site_fract_y
 _atom_site_fract_z
 _atom_site_occupancy
  Ca  Ca0  1  0.33333333  0.66666667  0.58479200  1
  Ca  Ca1  1  0.33333333  0.66666667  0.90347800  1
  Ca  Ca2  1  0.66666667  0.33333333  0.41520800  1
  Ca  Ca3  1  0.66666667  0.33333333  0.09652200  1
  Al  Al4  1  0.57787533  0.42212467  0.65249400  1
  Al  Al5  1  0.57787533  0.15575067  0.65249400  1
  Al  Al6  1  0.84424933  0.42212467  0.65249400  1
  Al  Al7  1  0.09110933  0.90889067  0.17087600  1
  Al  Al8  1  0.09110933  0.18221867  0.17087600  1
  Al  Al9  1  0.81778133  0.90889067  0.17087600  1
  Al  Al10  1  0.84564833  0.15435167  0.04377000  1
  Al  Al11  1  0.84564833  0.69129667  0.04377000  1
  Al  Al12  1  0.30870333  0.15435167  0.04377000  1
  Al  Al13  1  0.24263033  0.75736967  0.14372500  1
  Al  Al14  1  0.24263033  0.48526067  0.14372500  1
  Al  Al15  1  0.51473933  0.75736967  0.14372500  1
  Al  Al16  1  0.09179833  0.90820167  0.60476200  1
  Al  Al17  1  0.09179833  0.18359667  0.60476200  1
  Al  Al18  1  0.81640333  0.90820167  0.60476200  1
  Al  Al19  1  0.15435167  0.84564833  0.95623000  1
  Al  Al20  1  0.15435167  0.30870333  0.95623000  1
  Al  Al21  1  0.69129667  0.84564833  0.95623000  1
  Al  Al22  1  0.75736967  0.24263033  0.85627500  1
  Al  Al23  1  0.75736967  0.51473933  0.85627500  1
  Al  Al24  1  0.48526067  0.24263033  0.85627500  1
  Al  Al25  1  0.42212467  0.57787533  0.34750600  1
  Al  Al26  1  0.42212467  0.84424933  0.34750600  1
  Al  Al27  1  0.15575067  0.57787533  0.34750600  1
  Al  Al28  1  0.50000000  0.50000000  0.00000000  1
  Al  Al29  1  0.50000000  0.00000000  0.00000000  1
  Al  Al30  1  0.00000000  0.50000000  0.00000000  1
  Al  Al31  1  0.90889067  0.09110933  0.82912400  1
  Al  Al32  1  0.90889067  0.81778133  0.82912400  1
  Al  Al33  1  0.18221867  0.09110933  0.82912400  1
  Al  Al34  1  0.90820167  0.09179833  0.39523800  1
  Al  Al35  1  0.90820167  0.81640333  0.39523800  1
  Al  Al36  1  0.18359667  0.09179833  0.39523800  1
  Al  Al37  1  0.64088750  0.00000000  0.50000000  1
  Al  Al38  1  0.00000000  0.64088750  0.50000000  1
  Al  Al39  1  0.35911250  0.35911250  0.50000000  1
  Al  Al40  1  0.35911250  0.00000000  0.50000000  1
  Al  Al41  1  0.64088750  0.64088750  0.50000000  1
  Al  Al42  1  0.00000000  0.35911250  0.50000000  1
  Al  Al43  1  0.33003333  0.39779367  0.75395000  1
  Al  Al44  1  0.60220633  0.93223967  0.75395000  1
  Al  Al45  1  0.06776033  0.66996667  0.75395000  1
  Al  Al46  1  0.06776033  0.39779367  0.75395000  1
  Al  Al47  1  0.33003333  0.93223967  0.75395000  1
  Al  Al48  1  0.60220633  0.66996667  0.75395000  1
  Al  Al49  1  0.93223967  0.33003333  0.24605000  1
  Al  Al50  1  0.66996667  0.60220633  0.24605000  1
  Al  Al51  1  0.39779367  0.06776033  0.24605000  1
  Al  Al52  1  0.39779367  0.33003333  0.24605000  1
  Al  Al53  1  0.93223967  0.60220633  0.24605000  1
  Al  Al54  1  0.66996667  0.06776033  0.24605000  1
  Cr  Cr55  1  0.00000000  0.00000000  0.00000000  1
  Cr  Cr56  1  0.16901033  0.83098967  0.34328000  1
  Cr  Cr57  1  0.16901033  0.33802067  0.34328000  1
  Cr  Cr58  1  0.66197933  0.83098967  0.34328000  1
  Cr  Cr59  1  0.83098967  0.16901033  0.65672000  1
  Cr  Cr60  1  0.83098967  0.66197933  0.65672000  1
  Cr  Cr61  1  0.33802067  0.16901033  0.65672000  1
