# generated using pymatgen
data_Sc3Ga2
_symmetry_space_group_name_H-M   'P 1'
_cell_length_a   10.85017800
_cell_length_b   10.85017800
_cell_length_c   14.01395600
_cell_angle_alpha   90.00000000
_cell_angle_beta   90.00000000
_cell_angle_gamma   90.00000000
_symmetry_Int_Tables_number   1
_chemical_formula_structural   Sc3Ga2
_chemical_formula_sum   'Sc48 Ga32'
_cell_volume   1649.81206596
_cell_formula_units_Z   16
loop_
 _symmetry_equiv_pos_site_id
 _symmetry_equiv_pos_as_xyz
  1  'x, y, z'
loop_
 _atom_site_type_symbol
 _atom_site_label
 _atom_site_symmetry_multiplicity
 _atom_site_fract_x
 _atom_site_fract_y
 _atom_site_fract_z
 _atom_site_occupancy
  Sc  Sc0  1  0.43400000  0.29585200  0.13601300  1
  Sc  Sc1  1  0.06600000  0.20414800  0.63601300  1
  Sc  Sc2  1  0.70414800  0.56600000  0.36398700  1
  Sc  Sc3  1  0.29585200  0.56600000  0.13601300  1
  Sc  Sc4  1  0.20414800  0.93400000  0.63601300  1
  Sc  Sc5  1  0.43400000  0.70414800  0.36398700  1
  Sc  Sc6  1  0.56600000  0.29585200  0.36398700  1
  Sc  Sc7  1  0.29585200  0.43400000  0.36398700  1
  Sc  Sc8  1  0.06600000  0.20414800  0.36398700  1
  Sc  Sc9  1  0.43400000  0.29585200  0.86398700  1
  Sc  Sc10  1  0.79585200  0.93400000  0.13601300  1
  Sc  Sc11  1  0.20414800  0.93400000  0.36398700  1
  Sc  Sc12  1  0.29585200  0.56600000  0.86398700  1
  Sc  Sc13  1  0.06600000  0.79585200  0.13601300  1
  Sc  Sc14  1  0.93400000  0.20414800  0.13601300  1
  Sc  Sc15  1  0.20414800  0.06600000  0.13601300  1
  Sc  Sc16  1  0.00000000  0.50000000  0.14662250  1
  Sc  Sc17  1  0.50000000  0.00000000  0.14662250  1
  Sc  Sc18  1  0.00000000  0.50000000  0.35337750  1
  Sc  Sc19  1  0.50000000  0.00000000  0.35337750  1
  Sc  Sc20  1  0.66992400  0.16992400  0.00000000  1
  Sc  Sc21  1  0.33007600  0.16992400  0.50000000  1
  Sc  Sc22  1  0.16992400  0.33007600  0.00000000  1
  Sc  Sc23  1  0.83007600  0.33007600  0.50000000  1
  Sc  Sc24  1  0.93400000  0.79585200  0.63601300  1
  Sc  Sc25  1  0.56600000  0.70414800  0.13601300  1
  Sc  Sc26  1  0.20414800  0.06600000  0.86398700  1
  Sc  Sc27  1  0.79585200  0.06600000  0.63601300  1
  Sc  Sc28  1  0.70414800  0.43400000  0.13601300  1
  Sc  Sc29  1  0.93400000  0.20414800  0.86398700  1
  Sc  Sc30  1  0.06600000  0.79585200  0.86398700  1
  Sc  Sc31  1  0.79585200  0.93400000  0.86398700  1
  Sc  Sc32  1  0.56600000  0.70414800  0.86398700  1
  Sc  Sc33  1  0.93400000  0.79585200  0.36398700  1
  Sc  Sc34  1  0.29585200  0.43400000  0.63601300  1
  Sc  Sc35  1  0.70414800  0.43400000  0.86398700  1
  Sc  Sc36  1  0.79585200  0.06600000  0.36398700  1
  Sc  Sc37  1  0.56600000  0.29585200  0.63601300  1
  Sc  Sc38  1  0.43400000  0.70414800  0.63601300  1
  Sc  Sc39  1  0.70414800  0.56600000  0.63601300  1
  Sc  Sc40  1  0.50000000  0.00000000  0.64662250  1
  Sc  Sc41  1  0.00000000  0.50000000  0.64662250  1
  Sc  Sc42  1  0.50000000  0.00000000  0.85337750  1
  Sc  Sc43  1  0.00000000  0.50000000  0.85337750  1
  Sc  Sc44  1  0.16992400  0.66992400  0.50000000  1
  Sc  Sc45  1  0.83007600  0.66992400  0.00000000  1
  Sc  Sc46  1  0.66992400  0.83007600  0.50000000  1
  Sc  Sc47  1  0.33007600  0.83007600  0.00000000  1
  Ga  Ga48  1  0.67631550  0.17631550  0.19976850  1
  Ga  Ga49  1  0.32368450  0.82368450  0.19976850  1
  Ga  Ga50  1  0.82368450  0.32368450  0.30023150  1
  Ga  Ga51  1  0.17631550  0.32368450  0.19976850  1
  Ga  Ga52  1  0.82368450  0.67631550  0.19976850  1
  Ga  Ga53  1  0.67631550  0.82368450  0.30023150  1
  Ga  Ga54  1  0.32368450  0.17631550  0.30023150  1
  Ga  Ga55  1  0.17631550  0.67631550  0.30023150  1
  Ga  Ga56  1  0.38156050  0.88156050  0.50000000  1
  Ga  Ga57  1  0.11843950  0.38156050  0.50000000  1
  Ga  Ga58  1  0.38156050  0.11843950  0.00000000  1
  Ga  Ga59  1  0.11843950  0.61843950  0.00000000  1
  Ga  Ga60  1  0.00000000  0.00000000  0.50000000  1
  Ga  Ga61  1  0.00000000  0.00000000  0.00000000  1
  Ga  Ga62  1  0.00000000  0.00000000  0.75000000  1
  Ga  Ga63  1  0.00000000  0.00000000  0.25000000  1
  Ga  Ga64  1  0.17631550  0.67631550  0.69976850  1
  Ga  Ga65  1  0.82368450  0.32368450  0.69976850  1
  Ga  Ga66  1  0.32368450  0.82368450  0.80023150  1
  Ga  Ga67  1  0.67631550  0.82368450  0.69976850  1
  Ga  Ga68  1  0.32368450  0.17631550  0.69976850  1
  Ga  Ga69  1  0.17631550  0.32368450  0.80023150  1
  Ga  Ga70  1  0.82368450  0.67631550  0.80023150  1
  Ga  Ga71  1  0.67631550  0.17631550  0.80023150  1
  Ga  Ga72  1  0.88156050  0.38156050  0.00000000  1
  Ga  Ga73  1  0.61843950  0.88156050  0.00000000  1
  Ga  Ga74  1  0.88156050  0.61843950  0.50000000  1
  Ga  Ga75  1  0.61843950  0.11843950  0.50000000  1
  Ga  Ga76  1  0.50000000  0.50000000  0.00000000  1
  Ga  Ga77  1  0.50000000  0.50000000  0.50000000  1
  Ga  Ga78  1  0.50000000  0.50000000  0.25000000  1
  Ga  Ga79  1  0.50000000  0.50000000  0.75000000  1
