# generated using pymatgen
data_Ni15O16
_symmetry_space_group_name_H-M   'P 1'
_cell_length_a   5.90403169
_cell_length_b   5.90403169
_cell_length_c   30.40906933
_cell_angle_alpha   90.00000000
_cell_angle_beta   90.00000000
_cell_angle_gamma   120.00000000
_symmetry_Int_Tables_number   1
_chemical_formula_structural   Ni15O16
_chemical_formula_sum   'Ni45 O48'
_cell_volume   917.97556154
_cell_formula_units_Z   3
loop_
 _symmetry_equiv_pos_site_id
 _symmetry_equiv_pos_as_xyz
  1  'x, y, z'
loop_
 _atom_site_type_symbol
 _atom_site_label
 _atom_site_symmetry_multiplicity
 _atom_site_fract_x
 _atom_site_fract_y
 _atom_site_fract_z
 _atom_site_occupancy
  Ni  Ni0  1  0.16598200  0.83401800  0.08240300  1
  Ni  Ni1  1  0.33333333  0.16666667  0.16666667  1
  Ni  Ni2  1  0.50068467  0.49931533  0.25093033  1
  Ni  Ni3  1  0.50068467  0.00136933  0.25093033  1
  Ni  Ni4  1  0.16598200  0.33196400  0.08240300  1
  Ni  Ni5  1  0.33333333  0.66666667  0.16666667  1
  Ni  Ni6  1  0.66666667  0.33333333  0.00895433  1
  Ni  Ni7  1  0.66803600  0.83401800  0.08240300  1
  Ni  Ni8  1  0.83333333  0.16666667  0.16666667  1
  Ni  Ni9  1  0.99863067  0.49931533  0.25093033  1
  Ni  Ni10  1  0.83333333  0.66666667  0.16666667  1
  Ni  Ni11  1  0.00000000  0.00000000  0.24392500  1
  Ni  Ni12  1  0.66666667  0.33333333  0.08940833  1
  Ni  Ni13  1  0.00000000  0.00000000  0.32437900  1
  Ni  Ni14  1  0.00000000  0.00000000  0.00000000  1
  Ni  Ni15  1  0.83264867  0.16735133  0.41573633  1
  Ni  Ni16  1  0.00000000  0.50000000  0.50000000  1
  Ni  Ni17  1  0.16735133  0.83264867  0.58426367  1
  Ni  Ni18  1  0.16735133  0.33470267  0.58426367  1
  Ni  Ni19  1  0.83264867  0.66529733  0.41573633  1
  Ni  Ni20  1  1.00000000  1.00000000  0.50000000  1
  Ni  Ni21  1  0.33333333  0.66666667  0.34228767  1
  Ni  Ni22  1  0.33470267  0.16735133  0.41573633  1
  Ni  Ni23  1  0.50000000  0.50000000  0.50000000  1
  Ni  Ni24  1  0.66529733  0.83264867  0.58426367  1
  Ni  Ni25  1  0.50000000  0.00000000  0.50000000  1
  Ni  Ni26  1  0.66666667  0.33333333  0.57725833  1
  Ni  Ni27  1  0.33333333  0.66666667  0.42274167  1
  Ni  Ni28  1  0.66666667  0.33333333  0.65771233  1
  Ni  Ni29  1  0.66666667  0.33333333  0.33333333  1
  Ni  Ni30  1  0.49931533  0.50068467  0.74906967  1
  Ni  Ni31  1  0.66666667  0.83333333  0.83333333  1
  Ni  Ni32  1  0.83401800  0.16598200  0.91759700  1
  Ni  Ni33  1  0.83401800  0.66803600  0.91759700  1
  Ni  Ni34  1  0.49931533  0.99863067  0.74906967  1
  Ni  Ni35  1  0.66666667  0.33333333  0.83333333  1
  Ni  Ni36  1  0.00000000  0.00000000  0.67562100  1
  Ni  Ni37  1  0.00136933  0.50068467  0.74906967  1
  Ni  Ni38  1  0.16666667  0.83333333  0.83333333  1
  Ni  Ni39  1  0.33196400  0.16598200  0.91759700  1
  Ni  Ni40  1  0.16666667  0.33333333  0.83333333  1
  Ni  Ni41  1  0.33333333  0.66666667  0.91059167  1
  Ni  Ni42  1  0.00000000  0.00000000  0.75607500  1
  Ni  Ni43  1  0.33333333  0.66666667  0.99104567  1
  Ni  Ni44  1  0.33333333  0.66666667  0.66666667  1
  O  O45  1  0.33333333  0.66666667  0.28031467  1
  O  O46  1  0.83491667  0.66983333  0.04482033  1
  O  O47  1  0.00000000  0.00000000  0.12455600  1
  O  O48  1  0.16599767  0.33199533  0.20543533  1
  O  O49  1  0.33650000  0.16825000  0.28851300  1
  O  O50  1  0.99866200  0.49933100  0.12789800  1
  O  O51  1  0.83491667  0.16508333  0.04482033  1
  O  O52  1  0.16599767  0.83400233  0.20543533  1
  O  O53  1  0.33333333  0.66666667  0.05301867  1
  O  O54  1  0.66666667  0.33333333  0.20877733  1
  O  O55  1  0.83175000  0.66350000  0.28851300  1
  O  O56  1  0.50066900  0.00133800  0.12789800  1
  O  O57  1  0.83175000  0.16825000  0.28851300  1
  O  O58  1  0.33016667  0.16508333  0.04482033  1
  O  O59  1  0.50066900  0.49933100  0.12789800  1
  O  O60  1  0.66800467  0.83400233  0.20543533  1
  O  O61  1  0.00000000  0.00000000  0.61364800  1
  O  O62  1  0.50158333  0.00316667  0.37815367  1
  O  O63  1  0.66666667  0.33333333  0.45788933  1
  O  O64  1  0.83266433  0.66532867  0.53876867  1
  O  O65  1  0.00316667  0.50158333  0.62184633  1
  O  O66  1  0.66532867  0.83266433  0.46123133  1
  O  O67  1  0.50158333  0.49841667  0.37815367  1
  O  O68  1  0.83266433  0.16733567  0.53876867  1
  O  O69  1  0.00000000  0.00000000  0.38635200  1
  O  O70  1  0.33333333  0.66666667  0.54211067  1
  O  O71  1  0.49841667  0.99683333  0.62184633  1
  O  O72  1  0.16733567  0.33467133  0.46123133  1
  O  O73  1  0.49841667  0.50158333  0.62184633  1
  O  O74  1  0.99683333  0.49841667  0.37815367  1
  O  O75  1  0.16733567  0.83266433  0.46123133  1
  O  O76  1  0.33467133  0.16733567  0.53876867  1
  O  O77  1  0.66666667  0.33333333  0.94698133  1
  O  O78  1  0.16825000  0.33650000  0.71148700  1
  O  O79  1  0.33333333  0.66666667  0.79122267  1
  O  O80  1  0.49933100  0.99866200  0.87210200  1
  O  O81  1  0.66983333  0.83491667  0.95517967  1
  O  O82  1  0.33199533  0.16599767  0.79456467  1
  O  O83  1  0.16825000  0.83175000  0.71148700  1
  O  O84  1  0.49933100  0.50066900  0.87210200  1
  O  O85  1  0.66666667  0.33333333  0.71968533  1
  O  O86  1  0.00000000  0.00000000  0.87544400  1
  O  O87  1  0.16508333  0.33016667  0.95517967  1
  O  O88  1  0.83400233  0.66800467  0.79456467  1
  O  O89  1  0.16508333  0.83491667  0.95517967  1
  O  O90  1  0.66350000  0.83175000  0.71148700  1
  O  O91  1  0.83400233  0.16599767  0.79456467  1
  O  O92  1  0.00133800  0.50066900  0.87210200  1
