# generated using pymatgen
data_Mg2TcO4
_symmetry_space_group_name_H-M   'P 1'
_cell_length_a   6.05622400
_cell_length_b   6.16990400
_cell_length_c   8.62957400
_cell_angle_alpha   90.00000000
_cell_angle_beta   90.00000000
_cell_angle_gamma   90.00000000
_symmetry_Int_Tables_number   1
_chemical_formula_structural   Mg2TcO4
_chemical_formula_sum   'Mg8 Tc4 O16'
_cell_volume   322.45542944
_cell_formula_units_Z   4
loop_
 _symmetry_equiv_pos_site_id
 _symmetry_equiv_pos_as_xyz
  1  'x, y, z'
loop_
 _atom_site_type_symbol
 _atom_site_label
 _atom_site_symmetry_multiplicity
 _atom_site_fract_x
 _atom_site_fract_y
 _atom_site_fract_z
 _atom_site_occupancy
  Mg  Mg0  1  0.50000000  0.25000000  0.36281400  1
  Mg  Mg1  1  0.50000000  0.75000000  0.63718600  1
  Mg  Mg2  1  0.25000000  0.75000000  0.25000000  1
  Mg  Mg3  1  0.75000000  0.75000000  0.25000000  1
  Mg  Mg4  1  0.00000000  0.75000000  0.86281400  1
  Mg  Mg5  1  0.00000000  0.25000000  0.13718600  1
  Mg  Mg6  1  0.75000000  0.25000000  0.75000000  1
  Mg  Mg7  1  0.25000000  0.25000000  0.75000000  1
  Tc  Tc8  1  0.00000000  0.00000000  0.50000000  1
  Tc  Tc9  1  0.50000000  0.00000000  0.00000000  1
  Tc  Tc10  1  0.50000000  0.50000000  0.00000000  1
  Tc  Tc11  1  0.00000000  0.50000000  0.50000000  1
  O  O12  1  0.22805900  0.75000000  0.49681600  1
  O  O13  1  0.00000000  0.98236050  0.26524050  1
  O  O14  1  0.77194100  0.75000000  0.49681600  1
  O  O15  1  0.50000000  0.01763950  0.76524050  1
  O  O16  1  0.50000000  0.98236050  0.23475950  1
  O  O17  1  0.00000000  0.01763950  0.73475950  1
  O  O18  1  0.22805900  0.25000000  0.50318400  1
  O  O19  1  0.77194100  0.25000000  0.50318400  1
  O  O20  1  0.72805900  0.25000000  0.99681600  1
  O  O21  1  0.50000000  0.48236050  0.76524050  1
  O  O22  1  0.27194100  0.25000000  0.99681600  1
  O  O23  1  0.00000000  0.51763950  0.26524050  1
  O  O24  1  0.00000000  0.48236050  0.73475950  1
  O  O25  1  0.50000000  0.51763950  0.23475950  1
  O  O26  1  0.72805900  0.75000000  0.00318400  1
  O  O27  1  0.27194100  0.75000000  0.00318400  1
