# generated using pymatgen
data_Cr2P3O11
_symmetry_space_group_name_H-M   'P 1'
_cell_length_a   11.61632927
_cell_length_b   8.58714929
_cell_length_c   8.79584000
_cell_angle_alpha   90.00000000
_cell_angle_beta   114.04079718
_cell_angle_gamma   90.00000000
_symmetry_Int_Tables_number   1
_chemical_formula_structural   Cr2P3O11
_chemical_formula_sum   'Cr8 P12 O44'
_cell_volume   801.28607794
_cell_formula_units_Z   4
loop_
 _symmetry_equiv_pos_site_id
 _symmetry_equiv_pos_as_xyz
  1  'x, y, z'
loop_
 _atom_site_type_symbol
 _atom_site_label
 _atom_site_symmetry_multiplicity
 _atom_site_fract_x
 _atom_site_fract_y
 _atom_site_fract_z
 _atom_site_occupancy
  Cr  Cr0  1  0.87420200  0.24157700  0.45696600  1
  Cr  Cr1  1  0.87420200  0.75842300  0.95696600  1
  Cr  Cr2  1  0.12579800  0.75842300  0.54303400  1
  Cr  Cr3  1  0.12579800  0.24157700  0.04303400  1
  Cr  Cr4  1  0.37420200  0.74157700  0.45696600  1
  Cr  Cr5  1  0.37420200  0.25842300  0.95696600  1
  Cr  Cr6  1  0.62579800  0.25842300  0.54303400  1
  Cr  Cr7  1  0.62579800  0.74157700  0.04303400  1
  P  P8  1  0.00000000  0.04047100  0.25000000  1
  P  P9  1  0.10953250  0.56493150  0.21045400  1
  P  P10  1  0.10953250  0.43506850  0.71045400  1
  P  P11  1  0.89046750  0.56493150  0.28954600  1
  P  P12  1  0.00000000  0.95952900  0.75000000  1
  P  P13  1  0.89046750  0.43506850  0.78954600  1
  P  P14  1  0.50000000  0.54047100  0.25000000  1
  P  P15  1  0.60953250  0.06493150  0.21045400  1
  P  P16  1  0.60953250  0.93506850  0.71045400  1
  P  P17  1  0.39046750  0.06493150  0.28954600  1
  P  P18  1  0.50000000  0.45952900  0.75000000  1
  P  P19  1  0.39046750  0.93506850  0.78954600  1
  O  O20  1  0.09720850  0.84982850  0.72449300  1
  O  O21  1  0.95470550  0.67207650  0.43858900  1
  O  O22  1  0.90279150  0.15017150  0.27550700  1
  O  O23  1  0.18643600  0.56562600  0.68238800  1
  O  O24  1  0.18909550  0.66110450  0.37109800  1
  O  O25  1  0.57018550  0.55486150  0.90733600  1
  O  O26  1  0.04529450  0.67207650  0.06141100  1
  O  O27  1  0.00000000  0.51568200  0.75000000  1
  O  O28  1  0.81090450  0.33889550  0.62890200  1
  O  O29  1  0.81090450  0.66110450  0.12890200  1
  O  O30  1  0.81356400  0.43437400  0.31761200  1
  O  O31  1  0.09720850  0.15017150  0.22449300  1
  O  O32  1  0.90279150  0.84982850  0.77550700  1
  O  O33  1  0.18909550  0.33889550  0.87109800  1
  O  O34  1  0.57018550  0.44513850  0.40733600  1
  O  O35  1  0.42981450  0.44513850  0.09266400  1
  O  O36  1  0.00000000  0.48431800  0.25000000  1
  O  O37  1  0.18643600  0.43437400  0.18238800  1
  O  O38  1  0.04529450  0.32792350  0.56141100  1
  O  O39  1  0.81356400  0.56562600  0.81761200  1
  O  O40  1  0.95470550  0.32792350  0.93858900  1
  O  O41  1  0.42981450  0.55486150  0.59266400  1
  O  O42  1  0.59720850  0.34982850  0.72449300  1
  O  O43  1  0.45470550  0.17207650  0.43858900  1
  O  O44  1  0.40279150  0.65017150  0.27550700  1
  O  O45  1  0.68643600  0.06562600  0.68238800  1
  O  O46  1  0.68909550  0.16110450  0.37109800  1
  O  O47  1  0.07018550  0.05486150  0.90733600  1
  O  O48  1  0.54529450  0.17207650  0.06141100  1
  O  O49  1  0.50000000  0.01568200  0.75000000  1
  O  O50  1  0.31090450  0.83889550  0.62890200  1
  O  O51  1  0.31090450  0.16110450  0.12890200  1
  O  O52  1  0.31356400  0.93437400  0.31761200  1
  O  O53  1  0.59720850  0.65017150  0.22449300  1
  O  O54  1  0.40279150  0.34982850  0.77550700  1
  O  O55  1  0.68909550  0.83889550  0.87109800  1
  O  O56  1  0.07018550  0.94513850  0.40733600  1
  O  O57  1  0.92981450  0.94513850  0.09266400  1
  O  O58  1  0.50000000  0.98431800  0.25000000  1
  O  O59  1  0.68643600  0.93437400  0.18238800  1
  O  O60  1  0.54529450  0.82792350  0.56141100  1
  O  O61  1  0.31356400  0.06562600  0.81761200  1
  O  O62  1  0.45470550  0.82792350  0.93858900  1
  O  O63  1  0.92981450  0.05486150  0.59266400  1
