# generated using pymatgen
data_U16N25
_symmetry_space_group_name_H-M   'P 1'
_cell_length_a   15.08949971
_cell_length_b   15.08949971
_cell_length_c   9.20512052
_cell_angle_alpha   90.00000000
_cell_angle_beta   90.00000000
_cell_angle_gamma   120.00000000
_symmetry_Int_Tables_number   1
_chemical_formula_structural   U16N25
_chemical_formula_sum   'U48 N75'
_cell_volume   1815.13860141
_cell_formula_units_Z   3
loop_
 _symmetry_equiv_pos_site_id
 _symmetry_equiv_pos_as_xyz
  1  'x, y, z'
loop_
 _atom_site_type_symbol
 _atom_site_label
 _atom_site_symmetry_multiplicity
 _atom_site_fract_x
 _atom_site_fract_y
 _atom_site_fract_z
 _atom_site_occupancy
  U  U0  1  0.43072333  0.09101067  0.31834467  1
  U  U1  1  0.34167633  0.43051167  0.68026667  1
  U  U2  1  0.00000000  0.00000000  0.02083400  1
  U  U3  1  0.41083000  0.84219000  0.32039700  1
  U  U4  1  0.49114333  0.23530667  0.98706367  1
  U  U5  1  0.24232267  0.00637933  0.98501133  1
  U  U6  1  0.57400600  0.40333900  0.67692100  1
  U  U7  1  0.33052967  0.16590833  0.66500633  1
  U  U8  1  0.09802667  0.92250333  0.65373033  1
  U  U9  1  0.42216867  0.32499033  0.34693333  1
  U  U10  1  0.16266633  0.09266067  0.34358767  1
  U  U11  1  0.26332767  0.50400033  0.01025433  1
  U  U12  1  0.16871200  0.33613700  0.33167300  1
  U  U13  1  0.32695400  0.90261000  0.65167800  1
  U  U14  1  0.23615500  0.24449800  0.01360000  1
  U  U15  1  0.50075833  0.49795467  0.99833967  1
  U  U16  1  0.09739000  0.42434400  0.65167800  1
  U  U17  1  0.00834300  0.76384500  0.01360000  1
  U  U18  1  0.66666667  0.33333333  0.35416733  1
  U  U19  1  0.07749667  0.17552333  0.65373033  1
  U  U20  1  0.15781000  0.56864000  0.32039700  1
  U  U21  1  0.90898933  0.33971267  0.31834467  1
  U  U22  1  0.24067267  0.73667233  0.01025433  1
  U  U23  1  0.99719633  0.49924167  0.99833967  1
  U  U24  1  0.76469333  0.25583667  0.98706367  1
  U  U25  1  0.08883533  0.65832367  0.68026667  1
  U  U26  1  0.82933300  0.42599400  0.67692100  1
  U  U27  1  0.92999433  0.83733367  0.34358767  1
  U  U28  1  0.83537867  0.66947033  0.66500633  1
  U  U29  1  0.99362067  0.23594333  0.98501133  1
  U  U30  1  0.90282167  0.57783133  0.34693333  1
  U  U31  1  0.16742500  0.83128800  0.33167300  1
  U  U32  1  0.76405667  0.75767733  0.98501133  1
  U  U33  1  0.67500967  0.09717833  0.34693333  1
  U  U34  1  0.33333333  0.66666667  0.68750067  1
  U  U35  1  0.74416333  0.50885667  0.98706367  1
  U  U36  1  0.82447667  0.90197333  0.65373033  1
  U  U37  1  0.57565600  0.67304600  0.65167800  1
  U  U38  1  0.90733933  0.07000567  0.34358767  1
  U  U39  1  0.66386300  0.83257500  0.33167300  1
  U  U40  1  0.43136000  0.58917000  0.32039700  1
  U  U41  1  0.75550200  0.99165700  0.01360000  1
  U  U42  1  0.49599967  0.75932733  0.01025433  1
  U  U43  1  0.59666100  0.17066700  0.67692100  1
  U  U44  1  0.50204533  0.00280367  0.99833967  1
  U  U45  1  0.66028733  0.56927667  0.31834467  1
  U  U46  1  0.56948833  0.91116467  0.68026667  1
  U  U47  1  0.83409167  0.16462133  0.66500633  1
  N  N48  1  0.50892733  0.25532267  0.23080467  1
  N  N49  1  0.17849367  0.85078633  0.08724833  1
  N  N50  1  0.40333933  0.06953367  0.06898167  1
  N  N51  1  0.57240933  0.40102767  0.93263967  1
  N  N52  1  0.33736567  0.40430433  0.92717033  1
  N  N53  1  0.32371333  0.17748967  0.90898367  1
  N  N54  1  0.41134400  0.58693800  0.56413800  1
  N  N55  1  0.07972867  0.15773933  0.89747133  1
  N  N56  1  0.48254700  0.99437400  0.75391500  1
  N  N57  1  0.26379967  0.00047233  0.73564833  1
  N  N58  1  0.48946367  0.22836233  0.74123833  1
  N  N59  1  0.40556533  0.84386967  0.07457167  1
  N  N60  1  0.26563900  0.50471500  0.26597300  1
  N  N61  1  0.16195167  0.09425733  0.59930633  1
  N  N62  1  0.40027200  0.32930100  0.59383700  1
  N  N63  1  0.18710967  0.34295333  0.57565033  1
  N  N64  1  0.25179467  0.75285633  0.76792333  1
  N  N65  1  0.58047700  0.16560500  0.43459000  1
  N  N66  1  0.33895933  0.15483967  0.42058167  1
  N  N67  1  0.33286100  0.92999400  0.40231500  1
  N  N68  1  0.10497100  0.92776800  0.40790500  1
  N  N69  1  0.00000000  0.00000000  0.26738800  1
  N  N70  1  0.26236233  0.26639467  0.26050367  1
  N  N71  1  0.48917700  0.47955700  0.24231700  1
  N  N72  1  0.16772833  0.08153867  0.10125667  1
  N  N73  1  0.17559400  0.58865600  0.56413800  1
  N  N74  1  0.84516033  0.18411967  0.42058167  1
  N  N75  1  0.07000600  0.40286700  0.40231500  1
  N  N76  1  0.23907600  0.73436100  0.26597300  1
  N  N77  1  0.00403233  0.73763767  0.26050367  1
  N  N78  1  0.99038000  0.51082300  0.24231700  1
  N  N79  1  0.07801067  0.92027133  0.89747133  1
  N  N80  1  0.74639533  0.49107267  0.23080467  1
  N  N81  1  0.14921367  0.32770733  0.08724833  1
  N  N82  1  0.93046633  0.33380567  0.06898167  1
  N  N83  1  0.15613033  0.56169567  0.07457167  1
  N  N84  1  0.07223200  0.17720300  0.40790500  1
  N  N85  1  0.93230567  0.83804833  0.59930633  1
  N  N86  1  0.82861833  0.42759067  0.93263967  1
  N  N87  1  0.06693867  0.66263433  0.92717033  1
  N  N88  1  0.85377633  0.67628667  0.90898367  1
  N  N89  1  0.91846133  0.08618967  0.10125667  1
  N  N90  1  0.24714367  0.49893833  0.76792333  1
  N  N91  1  0.00562600  0.48817300  0.75391500  1
  N  N92  1  0.99952767  0.26332733  0.73564833  1
  N  N93  1  0.77163767  0.26110133  0.74123833  1
  N  N94  1  0.66666667  0.33333333  0.60072133  1
  N  N95  1  0.92902900  0.59972800  0.59383700  1
  N  N96  1  0.15584367  0.81289033  0.57565033  1
  N  N97  1  0.83439500  0.41487200  0.43459000  1
  N  N98  1  0.84226067  0.92198933  0.89747133  1
  N  N99  1  0.51182700  0.51745300  0.75391500  1
  N  N100  1  0.73667267  0.73620033  0.73564833  1
  N  N101  1  0.90574267  0.06769433  0.59930633  1
  N  N102  1  0.67069900  0.07097100  0.59383700  1
  N  N103  1  0.65704667  0.84415633  0.57565033  1
  N  N104  1  0.74467733  0.25360467  0.23080467  1
  N  N105  1  0.41306200  0.82440600  0.56413800  1
  N  N106  1  0.81588033  0.66104067  0.42058167  1
  N  N107  1  0.59713300  0.66713900  0.40231500  1
  N  N108  1  0.82279700  0.89502900  0.40790500  1
  N  N109  1  0.73889867  0.51053633  0.74123833  1
  N  N110  1  0.59897233  0.17138167  0.93263967  1
  N  N111  1  0.49528500  0.76092400  0.26597300  1
  N  N112  1  0.73360533  0.99596767  0.26050367  1
  N  N113  1  0.52044300  0.00962000  0.24231700  1
  N  N114  1  0.58512800  0.41952300  0.43459000  1
  N  N115  1  0.91381033  0.83227167  0.10125667  1
  N  N116  1  0.67229267  0.82150633  0.08724833  1
  N  N117  1  0.66619433  0.59666067  0.06898167  1
  N  N118  1  0.43830433  0.59443467  0.07457167  1
  N  N119  1  0.33333333  0.66666667  0.93405467  1
  N  N120  1  0.59569567  0.93306133  0.92717033  1
  N  N121  1  0.82251033  0.14622367  0.90898367  1
  N  N122  1  0.50106167  0.74820533  0.76792333  1
