# generated using pymatgen
data_LiNi(PO3)3
_symmetry_space_group_name_H-M   'P 1'
_cell_length_a   10.05556884
_cell_length_b   10.05556884
_cell_length_c   6.95367307
_cell_angle_alpha   90.00000000
_cell_angle_beta   90.00000000
_cell_angle_gamma   120.00000000
_symmetry_Int_Tables_number   1
_chemical_formula_structural   LiNi(PO3)3
_chemical_formula_sum   'Li3 Ni3 P9 O27'
_cell_volume   608.91712361
_cell_formula_units_Z   3
loop_
 _symmetry_equiv_pos_site_id
 _symmetry_equiv_pos_as_xyz
  1  'x, y, z'
loop_
 _atom_site_type_symbol
 _atom_site_label
 _atom_site_symmetry_multiplicity
 _atom_site_fract_x
 _atom_site_fract_y
 _atom_site_fract_z
 _atom_site_occupancy
  Li  Li0  1  0.00000000  0.00000000  0.36557200  1
  Li  Li1  1  0.66666667  0.33333333  0.69890533  1
  Li  Li2  1  0.33333333  0.66666667  0.03223867  1
  Ni  Ni3  1  0.00000000  0.00000000  0.99550300  1
  Ni  Ni4  1  0.66666667  0.33333333  0.32883633  1
  Ni  Ni5  1  0.33333333  0.66666667  0.66216967  1
  P  P6  1  0.00917800  0.56872700  0.47972300  1
  P  P7  1  0.55954900  0.99082200  0.47972300  1
  P  P8  1  0.43127300  0.44045100  0.47972300  1
  P  P9  1  0.67584467  0.90206033  0.81305633  1
  P  P10  1  0.22621567  0.32415533  0.81305633  1
  P  P11  1  0.09793967  0.77378433  0.81305633  1
  P  P12  1  0.34251133  0.23539367  0.14638967  1
  P  P13  1  0.89288233  0.65748867  0.14638967  1
  P  P14  1  0.76460633  0.10711767  0.14638967  1
  O  O15  1  0.04102367  0.72271433  0.59575633  1
  O  O16  1  0.68169067  0.95897633  0.59575633  1
  O  O17  1  0.89042000  0.07235800  0.19500500  1
  O  O18  1  0.80708333  0.87320867  0.83782067  1
  O  O19  1  0.06612533  0.19291667  0.83782067  1
  O  O20  1  0.92764200  0.81806200  0.19500500  1
  O  O21  1  0.27728567  0.31830933  0.59575633  1
  O  O22  1  0.18193800  0.10958000  0.19500500  1
  O  O23  1  0.12679133  0.93387467  0.83782067  1
  O  O24  1  0.70769033  0.05604767  0.92908967  1
  O  O25  1  0.34835733  0.29230967  0.92908967  1
  O  O26  1  0.55708667  0.40569133  0.52833833  1
  O  O27  1  0.47375000  0.20654200  0.17115400  1
  O  O28  1  0.73279200  0.52625000  0.17115400  1
  O  O29  1  0.59430867  0.15139533  0.52833833  1
  O  O30  1  0.94395233  0.65164267  0.92908967  1
  O  O31  1  0.84860467  0.44291333  0.52833833  1
  O  O32  1  0.79345800  0.26720800  0.17115400  1
  O  O33  1  0.37435700  0.38938100  0.26242300  1
  O  O34  1  0.01502400  0.62564300  0.26242300  1
  O  O35  1  0.22375333  0.73902467  0.86167167  1
  O  O36  1  0.14041667  0.53987533  0.50448733  1
  O  O37  1  0.39945867  0.85958333  0.50448733  1
  O  O38  1  0.26097533  0.48472867  0.86167167  1
  O  O39  1  0.61061900  0.98497600  0.26242300  1
  O  O40  1  0.51527133  0.77624667  0.86167167  1
  O  O41  1  0.46012467  0.60054133  0.50448733  1
