# generated using pymatgen
data_Ti5FeSb2
_symmetry_space_group_name_H-M   'P 1'
_cell_length_a   10.45265400
_cell_length_b   10.45265400
_cell_length_c   5.14359400
_cell_angle_alpha   90.00000000
_cell_angle_beta   90.00000000
_cell_angle_gamma   90.00000000
_symmetry_Int_Tables_number   1
_chemical_formula_structural   Ti5FeSb2
_chemical_formula_sum   'Ti20 Fe4 Sb8'
_cell_volume   561.97866797
_cell_formula_units_Z   4
loop_
 _symmetry_equiv_pos_site_id
 _symmetry_equiv_pos_as_xyz
  1  'x, y, z'
loop_
 _atom_site_type_symbol
 _atom_site_label
 _atom_site_symmetry_multiplicity
 _atom_site_fract_x
 _atom_site_fract_y
 _atom_site_fract_z
 _atom_site_occupancy
  Ti  Ti0  1  0.56896700  0.69864000  0.50000000  1
  Ti  Ti1  1  0.43103300  0.30136000  0.50000000  1
  Ti  Ti2  1  0.50000000  0.00000000  0.75000000  1
  Ti  Ti3  1  0.50000000  0.00000000  0.25000000  1
  Ti  Ti4  1  0.19864000  0.93103300  0.00000000  1
  Ti  Ti5  1  0.80136000  0.06896700  0.00000000  1
  Ti  Ti6  1  0.43103300  0.69864000  0.00000000  1
  Ti  Ti7  1  0.19864000  0.06896700  0.50000000  1
  Ti  Ti8  1  0.56896700  0.30136000  0.00000000  1
  Ti  Ti9  1  0.80136000  0.93103300  0.50000000  1
  Ti  Ti10  1  0.06896700  0.19864000  0.00000000  1
  Ti  Ti11  1  0.93103300  0.80136000  0.00000000  1
  Ti  Ti12  1  0.00000000  0.50000000  0.25000000  1
  Ti  Ti13  1  0.00000000  0.50000000  0.75000000  1
  Ti  Ti14  1  0.69864000  0.43103300  0.50000000  1
  Ti  Ti15  1  0.30136000  0.56896700  0.50000000  1
  Ti  Ti16  1  0.93103300  0.19864000  0.50000000  1
  Ti  Ti17  1  0.69864000  0.56896700  0.00000000  1
  Ti  Ti18  1  0.06896700  0.80136000  0.50000000  1
  Ti  Ti19  1  0.30136000  0.43103300  0.00000000  1
  Fe  Fe20  1  0.00000000  0.00000000  0.25000000  1
  Fe  Fe21  1  0.00000000  0.00000000  0.75000000  1
  Fe  Fe22  1  0.50000000  0.50000000  0.75000000  1
  Fe  Fe23  1  0.50000000  0.50000000  0.25000000  1
  Sb  Sb24  1  0.33583700  0.83583700  0.50000000  1
  Sb  Sb25  1  0.66416300  0.83583700  0.00000000  1
  Sb  Sb26  1  0.66416300  0.16416300  0.50000000  1
  Sb  Sb27  1  0.33583700  0.16416300  0.00000000  1
  Sb  Sb28  1  0.83583700  0.33583700  0.00000000  1
  Sb  Sb29  1  0.16416300  0.33583700  0.50000000  1
  Sb  Sb30  1  0.16416300  0.66416300  0.00000000  1
  Sb  Sb31  1  0.83583700  0.66416300  0.50000000  1
