# generated using pymatgen
data_Ca(CeS2)2
_symmetry_space_group_name_H-M   'P 1'
_cell_length_a   8.53133400
_cell_length_b   8.53133400
_cell_length_c   8.61582600
_cell_angle_alpha   90.00000000
_cell_angle_beta   90.00000000
_cell_angle_gamma   90.00000000
_symmetry_Int_Tables_number   1
_chemical_formula_structural   Ca(CeS2)2
_chemical_formula_sum   'Ca4 Ce8 S16'
_cell_volume   627.09134865
_cell_formula_units_Z   4
loop_
 _symmetry_equiv_pos_site_id
 _symmetry_equiv_pos_as_xyz
  1  'x, y, z'
loop_
 _atom_site_type_symbol
 _atom_site_label
 _atom_site_symmetry_multiplicity
 _atom_site_fract_x
 _atom_site_fract_y
 _atom_site_fract_z
 _atom_site_occupancy
  Ca  Ca0  1  0.00000000  0.00000000  0.50000000  1
  Ca  Ca1  1  0.50000000  0.00000000  0.25000000  1
  Ca  Ca2  1  0.50000000  0.50000000  0.00000000  1
  Ca  Ca3  1  0.00000000  0.50000000  0.75000000  1
  Ce  Ce4  1  0.75000000  0.12819600  0.87500000  1
  Ce  Ce5  1  0.37180400  0.25000000  0.62500000  1
  Ce  Ce6  1  0.75000000  0.37180400  0.37500000  1
  Ce  Ce7  1  0.12819600  0.25000000  0.12500000  1
  Ce  Ce8  1  0.25000000  0.62819600  0.37500000  1
  Ce  Ce9  1  0.87180400  0.75000000  0.12500000  1
  Ce  Ce10  1  0.25000000  0.87180400  0.87500000  1
  Ce  Ce11  1  0.62819600  0.75000000  0.62500000  1
  S  S12  1  0.17820350  0.92591250  0.19625850  1
  S  S13  1  0.42591250  0.17820350  0.94625850  1
  S  S14  1  0.07408750  0.17820350  0.80374150  1
  S  S15  1  0.07408750  0.32179650  0.44625850  1
  S  S16  1  0.32179650  0.92591250  0.55374150  1
  S  S17  1  0.17820350  0.57408750  0.05374150  1
  S  S18  1  0.42591250  0.32179650  0.30374150  1
  S  S19  1  0.32179650  0.57408750  0.69625850  1
  S  S20  1  0.67820350  0.42591250  0.69625850  1
  S  S21  1  0.92591250  0.67820350  0.44625850  1
  S  S22  1  0.57408750  0.67820350  0.30374150  1
  S  S23  1  0.57408750  0.82179650  0.94625850  1
  S  S24  1  0.82179650  0.42591250  0.05374150  1
  S  S25  1  0.67820350  0.07408750  0.55374150  1
  S  S26  1  0.92591250  0.82179650  0.80374150  1
  S  S27  1  0.82179650  0.07408750  0.19625850  1
