# generated using pymatgen
data_Pr2UTe4
_symmetry_space_group_name_H-M   'P 1'
_cell_length_a   9.52030000
_cell_length_b   9.52030000
_cell_length_c   9.48791200
_cell_angle_alpha   90.00000000
_cell_angle_beta   90.00000000
_cell_angle_gamma   90.00000000
_symmetry_Int_Tables_number   1
_chemical_formula_structural   Pr2UTe4
_chemical_formula_sum   'Pr8 U4 Te16'
_cell_volume   859.94745553
_cell_formula_units_Z   4
loop_
 _symmetry_equiv_pos_site_id
 _symmetry_equiv_pos_as_xyz
  1  'x, y, z'
loop_
 _atom_site_type_symbol
 _atom_site_label
 _atom_site_symmetry_multiplicity
 _atom_site_fract_x
 _atom_site_fract_y
 _atom_site_fract_z
 _atom_site_occupancy
  Pr  Pr0  1  0.37532500  0.25000000  0.37500000  1
  Pr  Pr1  1  0.62467500  0.75000000  0.37500000  1
  Pr  Pr2  1  0.75000000  0.37532500  0.62500000  1
  Pr  Pr3  1  0.25000000  0.62467500  0.62500000  1
  Pr  Pr4  1  0.87532500  0.75000000  0.87500000  1
  Pr  Pr5  1  0.12467500  0.25000000  0.87500000  1
  Pr  Pr6  1  0.25000000  0.87532500  0.12500000  1
  Pr  Pr7  1  0.75000000  0.12467500  0.12500000  1
  U  U8  1  0.00000000  0.00000000  0.50000000  1
  U  U9  1  0.50000000  0.00000000  0.75000000  1
  U  U10  1  0.50000000  0.50000000  0.00000000  1
  U  U11  1  0.00000000  0.50000000  0.25000000  1
  Te  Te12  1  0.67568050  0.07523850  0.45526050  1
  Te  Te13  1  0.67568050  0.42476150  0.29473950  1
  Te  Te14  1  0.07523850  0.32431950  0.54473950  1
  Te  Te15  1  0.42476150  0.32431950  0.70526050  1
  Te  Te16  1  0.82431950  0.07523850  0.79473950  1
  Te  Te17  1  0.07523850  0.17568050  0.20526050  1
  Te  Te18  1  0.42476150  0.17568050  0.04473950  1
  Te  Te19  1  0.82431950  0.42476150  0.95526050  1
  Te  Te20  1  0.17568050  0.57523850  0.95526050  1
  Te  Te21  1  0.17568050  0.92476150  0.79473950  1
  Te  Te22  1  0.57523850  0.82431950  0.04473950  1
  Te  Te23  1  0.92476150  0.82431950  0.20526050  1
  Te  Te24  1  0.32431950  0.57523850  0.29473950  1
  Te  Te25  1  0.57523850  0.67568050  0.70526050  1
  Te  Te26  1  0.92476150  0.67568050  0.54473950  1
  Te  Te27  1  0.32431950  0.92476150  0.45526050  1
