# generated using pymatgen
data_LiVPO4
_symmetry_space_group_name_H-M   'P 1'
_cell_length_a   5.59163903
_cell_length_b   8.49103405
_cell_length_c   6.22736500
_cell_angle_alpha   90.00000000
_cell_angle_beta   90.00000000
_cell_angle_gamma   90.00000000
_symmetry_Int_Tables_number   1
_chemical_formula_structural   LiVPO4
_chemical_formula_sum   'Li4 V4 P4 O16'
_cell_volume   295.66780123
_cell_formula_units_Z   4
loop_
 _symmetry_equiv_pos_site_id
 _symmetry_equiv_pos_as_xyz
  1  'x, y, z'
loop_
 _atom_site_type_symbol
 _atom_site_label
 _atom_site_symmetry_multiplicity
 _atom_site_fract_x
 _atom_site_fract_y
 _atom_site_fract_z
 _atom_site_occupancy
  Li  Li0  1  0.50000000  0.66612400  0.75000000  1
  Li  Li1  1  0.00000000  0.83387600  0.25000000  1
  Li  Li2  1  0.00000000  0.16612400  0.75000000  1
  Li  Li3  1  0.50000000  0.33387600  0.25000000  1
  V  V4  1  0.00000000  0.50000000  0.00000000  1
  V  V5  1  0.00000000  0.50000000  0.50000000  1
  V  V6  1  0.50000000  0.00000000  0.00000000  1
  V  V7  1  0.50000000  0.00000000  0.50000000  1
  P  P8  1  0.00000000  0.85293650  0.75000000  1
  P  P9  1  0.50000000  0.64706350  0.25000000  1
  P  P10  1  0.50000000  0.35293650  0.75000000  1
  P  P11  1  0.00000000  0.14706350  0.25000000  1
  O  O12  1  0.00000000  0.75174250  0.95393100  1
  O  O13  1  0.00000000  0.75174250  0.54606900  1
  O  O14  1  0.50000000  0.74825750  0.45393100  1
  O  O15  1  0.50000000  0.74825750  0.04606900  1
  O  O16  1  0.72369300  0.46747700  0.75000000  1
  O  O17  1  0.77630700  0.96747700  0.75000000  1
  O  O18  1  0.72369300  0.53252300  0.25000000  1
  O  O19  1  0.77630700  0.03252300  0.25000000  1
  O  O20  1  0.50000000  0.25174250  0.95393100  1
  O  O21  1  0.50000000  0.25174250  0.54606900  1
  O  O22  1  0.00000000  0.24825750  0.45393100  1
  O  O23  1  0.00000000  0.24825750  0.04606900  1
  O  O24  1  0.22369300  0.96747700  0.75000000  1
  O  O25  1  0.27630700  0.46747700  0.75000000  1
  O  O26  1  0.22369300  0.03252300  0.25000000  1
  O  O27  1  0.27630700  0.53252300  0.25000000  1
