# generated using pymatgen
data_Ce7Ru3
_symmetry_space_group_name_H-M   'P 1'
_cell_length_a   9.62669587
_cell_length_b   9.62669587
_cell_length_c   6.17445600
_cell_angle_alpha   90.00000000
_cell_angle_beta   90.00000000
_cell_angle_gamma   120.00000000
_symmetry_Int_Tables_number   1
_chemical_formula_structural   Ce7Ru3
_chemical_formula_sum   'Ce14 Ru6'
_cell_volume   495.54584094
_cell_formula_units_Z   2
loop_
 _symmetry_equiv_pos_site_id
 _symmetry_equiv_pos_as_xyz
  1  'x, y, z'
loop_
 _atom_site_type_symbol
 _atom_site_label
 _atom_site_symmetry_multiplicity
 _atom_site_fract_x
 _atom_site_fract_y
 _atom_site_fract_z
 _atom_site_occupancy
  Ce  Ce0  1  0.46289850  0.53710150  0.53588500  1
  Ce  Ce1  1  0.53710150  0.07420300  0.03588500  1
  Ce  Ce2  1  0.87413600  0.74827200  0.75714200  1
  Ce  Ce3  1  0.12586400  0.87413600  0.25714200  1
  Ce  Ce4  1  0.74827200  0.87413600  0.25714200  1
  Ce  Ce5  1  0.25172800  0.12586400  0.75714200  1
  Ce  Ce6  1  0.87413600  0.12586400  0.75714200  1
  Ce  Ce7  1  0.12586400  0.25172800  0.25714200  1
  Ce  Ce8  1  0.07420300  0.53710150  0.53588500  1
  Ce  Ce9  1  0.92579700  0.46289850  0.03588500  1
  Ce  Ce10  1  0.53710150  0.46289850  0.03588500  1
  Ce  Ce11  1  0.46289850  0.92579700  0.53588500  1
  Ce  Ce12  1  0.33333333  0.66666667  0.03843200  1
  Ce  Ce13  1  0.66666667  0.33333333  0.53843200  1
  Ru  Ru14  1  0.81820400  0.63640800  0.28716300  1
  Ru  Ru15  1  0.18179600  0.81820400  0.78716300  1
  Ru  Ru16  1  0.63640800  0.81820400  0.78716300  1
  Ru  Ru17  1  0.36359200  0.18179600  0.28716300  1
  Ru  Ru18  1  0.81820400  0.18179600  0.28716300  1
  Ru  Ru19  1  0.18179600  0.36359200  0.78716300  1
