# generated using pymatgen
data_LiFeP2O7
_symmetry_space_group_name_H-M   'P 1'
_cell_length_a   8.45482600
_cell_length_b   5.06389900
_cell_length_c   13.44506812
_cell_angle_alpha   90.00000000
_cell_angle_beta   116.74800906
_cell_angle_gamma   90.00000000
_symmetry_Int_Tables_number   1
_chemical_formula_structural   LiFeP2O7
_chemical_formula_sum   'Li4 Fe4 P8 O28'
_cell_volume   514.04547519
_cell_formula_units_Z   4
loop_
 _symmetry_equiv_pos_site_id
 _symmetry_equiv_pos_as_xyz
  1  'x, y, z'
loop_
 _atom_site_type_symbol
 _atom_site_label
 _atom_site_symmetry_multiplicity
 _atom_site_fract_x
 _atom_site_fract_y
 _atom_site_fract_z
 _atom_site_occupancy
  Li  Li0  1  0.58260100  0.72628800  0.70455700  1
  Li  Li1  1  0.41739900  0.27371200  0.29544300  1
  Li  Li2  1  0.58260100  0.77371200  0.20455700  1
  Li  Li3  1  0.41739900  0.22628800  0.79544300  1
  Fe  Fe4  1  0.26343200  0.23774200  0.02725400  1
  Fe  Fe5  1  0.73656800  0.73774200  0.47274600  1
  Fe  Fe6  1  0.26343200  0.26225800  0.52725400  1
  Fe  Fe7  1  0.73656800  0.76225800  0.97274600  1
  P  P8  1  0.30333600  0.73311000  0.88418100  1
  P  P9  1  0.69666400  0.26689000  0.11581900  1
  P  P10  1  0.82532500  0.25542300  0.35396700  1
  P  P11  1  0.69666400  0.23311000  0.61581900  1
  P  P12  1  0.82532500  0.24457700  0.85396700  1
  P  P13  1  0.30333600  0.76689000  0.38418100  1
  P  P14  1  0.17467500  0.75542300  0.14603300  1
  P  P15  1  0.17467500  0.74457700  0.64603300  1
  O  O16  1  0.15201100  0.79057400  0.75827400  1
  O  O17  1  0.47241000  0.65726100  0.38303800  1
  O  O18  1  0.30780800  0.54794700  0.14323300  1
  O  O19  1  0.25355500  0.03452600  0.15928400  1
  O  O20  1  0.74644500  0.96547400  0.84071600  1
  O  O21  1  0.69219200  0.45205300  0.85676700  1
  O  O22  1  0.52759000  0.34273900  0.61696200  1
  O  O23  1  0.31469600  0.06589100  0.40752400  1
  O  O24  1  0.15201100  0.70942600  0.25827400  1
  O  O25  1  0.24139200  0.61158200  0.45629700  1
  O  O26  1  0.98932500  0.71941100  0.05296700  1
  O  O27  1  0.47241000  0.84273900  0.88303800  1
  O  O28  1  0.30780800  0.95205300  0.64323300  1
  O  O29  1  0.25355500  0.46547400  0.65928400  1
  O  O30  1  0.01067500  0.21941100  0.44703300  1
  O  O31  1  0.84798900  0.29057400  0.74172600  1
  O  O32  1  0.75860800  0.11158200  0.04370300  1
  O  O33  1  0.84798900  0.20942600  0.24172600  1
  O  O34  1  0.31469600  0.43410900  0.90752400  1
  O  O35  1  0.24139200  0.88841800  0.95629700  1
  O  O36  1  0.68530400  0.56589100  0.09247600  1
  O  O37  1  0.98932500  0.78058900  0.55296700  1
  O  O38  1  0.74644500  0.53452600  0.34071600  1
  O  O39  1  0.69219200  0.04794700  0.35676700  1
  O  O40  1  0.52759000  0.15726100  0.11696200  1
  O  O41  1  0.01067500  0.28058900  0.94703300  1
  O  O42  1  0.75860800  0.38841800  0.54370300  1
  O  O43  1  0.68530400  0.93410900  0.59247600  1
