# generated using pymatgen
data_LiMn4(PO4)3
_symmetry_space_group_name_H-M   'P 1'
_cell_length_a   11.90093400
_cell_length_b   13.35145400
_cell_length_c   6.62553350
_cell_angle_alpha   90.00000000
_cell_angle_beta   117.26525377
_cell_angle_gamma   90.00000000
_symmetry_Int_Tables_number   1
_chemical_formula_structural   LiMn4(PO4)3
_chemical_formula_sum   'Li4 Mn16 P12 O48'
_cell_volume   935.79566974
_cell_formula_units_Z   4
loop_
 _symmetry_equiv_pos_site_id
 _symmetry_equiv_pos_as_xyz
  1  'x, y, z'
loop_
 _atom_site_type_symbol
 _atom_site_label
 _atom_site_symmetry_multiplicity
 _atom_site_fract_x
 _atom_site_fract_y
 _atom_site_fract_z
 _atom_site_occupancy
  Li  Li0  1  0.02866850  0.02051850  0.22751000  1
  Li  Li1  1  0.02866850  0.97948150  0.72751000  1
  Li  Li2  1  0.52866850  0.52051850  0.22751000  1
  Li  Li3  1  0.52866850  0.47948150  0.72751000  1
  Mn  Mn4  1  0.79529100  0.85213600  0.89612800  1
  Mn  Mn5  1  0.79529100  0.14786400  0.39612800  1
  Mn  Mn6  1  0.49395550  0.77026050  0.23948000  1
  Mn  Mn7  1  0.51937450  0.99030250  0.44173100  1
  Mn  Mn8  1  0.49395550  0.22973950  0.73948000  1
  Mn  Mn9  1  0.51937450  0.00969750  0.94173100  1
  Mn  Mn10  1  0.20951300  0.15167400  0.11916400  1
  Mn  Mn11  1  0.20951300  0.84832600  0.61916400  1
  Mn  Mn12  1  0.29529100  0.35213600  0.89612800  1
  Mn  Mn13  1  0.29529100  0.64786400  0.39612800  1
  Mn  Mn14  1  0.99395550  0.27026050  0.23948000  1
  Mn  Mn15  1  0.01937450  0.49030250  0.44173100  1
  Mn  Mn16  1  0.99395550  0.72973950  0.73948000  1
  Mn  Mn17  1  0.01937450  0.50969750  0.94173100  1
  Mn  Mn18  1  0.70951300  0.65167400  0.11916400  1
  Mn  Mn19  1  0.70951300  0.34832600  0.61916400  1
  P  P20  1  0.21984700  0.10779100  0.62217000  1
  P  P21  1  0.21984700  0.89220900  0.12217000  1
  P  P22  1  0.49922800  0.80915700  0.75113700  1
  P  P23  1  0.49922800  0.19084300  0.25113700  1
  P  P24  1  0.77773850  0.10697550  0.88937900  1
  P  P25  1  0.77773850  0.89302450  0.38937900  1
  P  P26  1  0.71984700  0.60779100  0.62217000  1
  P  P27  1  0.71984700  0.39220900  0.12217000  1
  P  P28  1  0.99922800  0.30915700  0.75113700  1
  P  P29  1  0.99922800  0.69084300  0.25113700  1
  P  P30  1  0.27773850  0.60697550  0.88937900  1
  P  P31  1  0.27773850  0.39302450  0.38937900  1
  O  O32  1  0.15024400  0.00468500  0.58962200  1
  O  O33  1  0.20658750  0.17206550  0.80120900  1
  O  O34  1  0.15024400  0.99531500  0.08962200  1
  O  O35  1  0.20658750  0.82793450  0.30120900  1
  O  O36  1  0.33859950  0.33326350  0.61733900  1
  O  O37  1  0.36395800  0.09433700  0.68741400  1
  O  O38  1  0.40100750  0.88292350  0.76691900  1
  O  O39  1  0.33859950  0.66673650  0.11733900  1
  O  O40  1  0.85014050  0.99389650  0.43430500  1
  O  O41  1  0.78766350  0.83061350  0.20408900  1
  O  O42  1  0.85014050  0.00610350  0.93430500  1
  O  O43  1  0.78766350  0.16938650  0.70408900  1
  O  O44  1  0.64897200  0.65903700  0.38195700  1
  O  O45  1  0.63127350  0.91003350  0.31597500  1
  O  O46  1  0.59753650  0.11288550  0.24350800  1
  O  O47  1  0.45373400  0.25402800  0.03433900  1
  O  O48  1  0.64897200  0.34096300  0.88195700  1
  O  O49  1  0.63127350  0.08996650  0.81597500  1
  O  O50  1  0.54663700  0.25565900  0.46740400  1
  O  O51  1  0.59753650  0.88711450  0.74350800  1
  O  O52  1  0.40100750  0.11707650  0.26691900  1
  O  O53  1  0.45373400  0.74597200  0.53433900  1
  O  O54  1  0.36395800  0.90566300  0.18741400  1
  O  O55  1  0.54663700  0.74434100  0.96740400  1
  O  O56  1  0.65024400  0.50468500  0.58962200  1
  O  O57  1  0.70658750  0.67206550  0.80120900  1
  O  O58  1  0.65024400  0.49531500  0.08962200  1
  O  O59  1  0.70658750  0.32793450  0.30120900  1
  O  O60  1  0.83859950  0.83326350  0.61733900  1
  O  O61  1  0.86395800  0.59433700  0.68741400  1
  O  O62  1  0.90100750  0.38292350  0.76691900  1
  O  O63  1  0.83859950  0.16673650  0.11733900  1
  O  O64  1  0.35014050  0.49389650  0.43430500  1
  O  O65  1  0.28766350  0.33061350  0.20408900  1
  O  O66  1  0.35014050  0.50610350  0.93430500  1
  O  O67  1  0.28766350  0.66938650  0.70408900  1
  O  O68  1  0.14897200  0.15903700  0.38195700  1
  O  O69  1  0.13127350  0.41003350  0.31597500  1
  O  O70  1  0.09753650  0.61288550  0.24350800  1
  O  O71  1  0.95373400  0.75402800  0.03433900  1
  O  O72  1  0.14897200  0.84096300  0.88195700  1
  O  O73  1  0.13127350  0.58996650  0.81597500  1
  O  O74  1  0.04663700  0.75565900  0.46740400  1
  O  O75  1  0.09753650  0.38711450  0.74350800  1
  O  O76  1  0.90100750  0.61707650  0.26691900  1
  O  O77  1  0.95373400  0.24597200  0.53433900  1
  O  O78  1  0.86395800  0.40566300  0.18741400  1
  O  O79  1  0.04663700  0.24434100  0.96740400  1
