# generated using pymatgen
data_Er2Zn17
_symmetry_space_group_name_H-M   'P 1'
_cell_length_a   8.94436583
_cell_length_b   8.94436583
_cell_length_c   13.20294097
_cell_angle_alpha   90.00000000
_cell_angle_beta   90.00000000
_cell_angle_gamma   120.00000000
_symmetry_Int_Tables_number   1
_chemical_formula_structural   Er2Zn17
_chemical_formula_sum   'Er6 Zn51'
_cell_volume   914.74579344
_cell_formula_units_Z   3
loop_
 _symmetry_equiv_pos_site_id
 _symmetry_equiv_pos_as_xyz
  1  'x, y, z'
loop_
 _atom_site_type_symbol
 _atom_site_label
 _atom_site_symmetry_multiplicity
 _atom_site_fract_x
 _atom_site_fract_y
 _atom_site_fract_z
 _atom_site_occupancy
  Er  Er0  1  0.33333333  0.66666667  0.33177467  1
  Er  Er1  1  0.33333333  0.66666667  0.00155867  1
  Er  Er2  1  0.00000000  0.00000000  0.66510800  1
  Er  Er3  1  0.00000000  0.00000000  0.33489200  1
  Er  Er4  1  0.66666667  0.33333333  0.99844133  1
  Er  Er5  1  0.66666667  0.33333333  0.66822533  1
  Zn  Zn6  1  0.17149667  0.82850333  0.18081733  1
  Zn  Zn7  1  0.17149667  0.34299333  0.18081733  1
  Zn  Zn8  1  0.33333333  0.66666667  0.76693367  1
  Zn  Zn9  1  0.33333333  0.66666667  0.56639967  1
  Zn  Zn10  1  0.16666667  0.83333333  0.83333333  1
  Zn  Zn11  1  0.33333333  0.16666667  0.16666667  1
  Zn  Zn12  1  0.83333333  0.66666667  0.16666667  1
  Zn  Zn13  1  0.36808467  0.03475133  0.33333333  1
  Zn  Zn14  1  0.00000000  0.29858200  0.00000000  1
  Zn  Zn15  1  0.29858200  0.00000000  0.00000000  1
  Zn  Zn16  1  0.96524867  0.63191533  0.33333333  1
  Zn  Zn17  1  0.00000000  0.70141800  0.00000000  1
  Zn  Zn18  1  0.70141800  0.00000000  0.00000000  1
  Zn  Zn19  1  0.49517000  0.99034000  0.15251600  1
  Zn  Zn20  1  0.49517000  0.50483000  0.15251600  1
  Zn  Zn21  1  0.00966000  0.50483000  0.15251600  1
  Zn  Zn22  1  0.65700667  0.82850333  0.18081733  1
  Zn  Zn23  1  0.83816333  0.16183667  0.51415067  1
  Zn  Zn24  1  0.83816333  0.67632667  0.51415067  1
  Zn  Zn25  1  0.00000000  0.00000000  0.10026700  1
  Zn  Zn26  1  0.00000000  0.00000000  0.89973300  1
  Zn  Zn27  1  0.83333333  0.16666667  0.16666667  1
  Zn  Zn28  1  0.00000000  0.50000000  0.50000000  1
  Zn  Zn29  1  0.50000000  0.00000000  0.50000000  1
  Zn  Zn30  1  0.03475133  0.36808467  0.66666667  1
  Zn  Zn31  1  0.66666667  0.63191533  0.33333333  1
  Zn  Zn32  1  0.96524867  0.33333333  0.33333333  1
  Zn  Zn33  1  0.63191533  0.96524867  0.66666667  1
  Zn  Zn34  1  0.66666667  0.03475133  0.33333333  1
  Zn  Zn35  1  0.36808467  0.33333333  0.33333333  1
  Zn  Zn36  1  0.16183667  0.32367333  0.48584933  1
  Zn  Zn37  1  0.16183667  0.83816333  0.48584933  1
  Zn  Zn38  1  0.67632667  0.83816333  0.48584933  1
  Zn  Zn39  1  0.32367333  0.16183667  0.51415067  1
  Zn  Zn40  1  0.50483000  0.49517000  0.84748400  1
  Zn  Zn41  1  0.50483000  0.00966000  0.84748400  1
  Zn  Zn42  1  0.66666667  0.33333333  0.43360033  1
  Zn  Zn43  1  0.66666667  0.33333333  0.23306633  1
  Zn  Zn44  1  0.50000000  0.50000000  0.50000000  1
  Zn  Zn45  1  0.66666667  0.83333333  0.83333333  1
  Zn  Zn46  1  0.16666667  0.33333333  0.83333333  1
  Zn  Zn47  1  0.70141800  0.70141800  0.00000000  1
  Zn  Zn48  1  0.33333333  0.96524867  0.66666667  1
  Zn  Zn49  1  0.63191533  0.66666667  0.66666667  1
  Zn  Zn50  1  0.29858200  0.29858200  0.00000000  1
  Zn  Zn51  1  0.33333333  0.36808467  0.66666667  1
  Zn  Zn52  1  0.03475133  0.66666667  0.66666667  1
  Zn  Zn53  1  0.82850333  0.65700667  0.81918267  1
  Zn  Zn54  1  0.82850333  0.17149667  0.81918267  1
  Zn  Zn55  1  0.34299333  0.17149667  0.81918267  1
  Zn  Zn56  1  0.99034000  0.49517000  0.84748400  1
