# generated using pymatgen
data_Ce2Te4O11
_symmetry_space_group_name_H-M   'P 1'
_cell_length_a   12.84061800
_cell_length_b   5.31661600
_cell_length_c   16.54038612
_cell_angle_alpha   90.00000000
_cell_angle_beta   105.27260705
_cell_angle_gamma   90.00000000
_symmetry_Int_Tables_number   1
_chemical_formula_structural   Ce2Te4O11
_chemical_formula_sum   'Ce8 Te16 O44'
_cell_volume   1089.31052146
_cell_formula_units_Z   4
loop_
 _symmetry_equiv_pos_site_id
 _symmetry_equiv_pos_as_xyz
  1  'x, y, z'
loop_
 _atom_site_type_symbol
 _atom_site_label
 _atom_site_symmetry_multiplicity
 _atom_site_fract_x
 _atom_site_fract_y
 _atom_site_fract_z
 _atom_site_occupancy
  Ce  Ce0  1  0.88129950  0.74676850  0.46220200  1
  Ce  Ce1  1  0.11870050  0.25323150  0.53779800  1
  Ce  Ce2  1  0.61870050  0.24676850  0.03779800  1
  Ce  Ce3  1  0.38129950  0.75323150  0.96220200  1
  Ce  Ce4  1  0.38129950  0.24676850  0.46220200  1
  Ce  Ce5  1  0.61870050  0.75323150  0.53779800  1
  Ce  Ce6  1  0.11870050  0.74676850  0.03779800  1
  Ce  Ce7  1  0.88129950  0.25323150  0.96220200  1
  Te  Te8  1  0.12006500  0.72825300  0.70162100  1
  Te  Te9  1  0.86978600  0.72020400  0.12761500  1
  Te  Te10  1  0.62006500  0.77174700  0.20162100  1
  Te  Te11  1  0.87993500  0.27174700  0.29837900  1
  Te  Te12  1  0.13021400  0.27979600  0.87238500  1
  Te  Te13  1  0.86978600  0.27979600  0.62761500  1
  Te  Te14  1  0.13021400  0.72020400  0.37238500  1
  Te  Te15  1  0.37993500  0.22825300  0.79837900  1
  Te  Te16  1  0.62006500  0.22825300  0.70162100  1
  Te  Te17  1  0.36978600  0.22020400  0.12761500  1
  Te  Te18  1  0.12006500  0.27174700  0.20162100  1
  Te  Te19  1  0.37993500  0.77174700  0.29837900  1
  Te  Te20  1  0.63021400  0.77979600  0.87238500  1
  Te  Te21  1  0.36978600  0.77979600  0.62761500  1
  Te  Te22  1  0.63021400  0.22020400  0.37238500  1
  Te  Te23  1  0.87993500  0.72825300  0.79837900  1
  O  O24  1  0.07315100  0.88118600  0.45447500  1
  O  O25  1  0.02668750  0.40954650  0.10102000  1
  O  O26  1  0.02668750  0.59045350  0.60102000  1
  O  O27  1  0.24946450  0.56741250  0.62925500  1
  O  O28  1  0.35401850  0.55626850  0.82956800  1
  O  O29  1  0.07315100  0.11881400  0.95447500  1
  O  O30  1  0.79365700  0.54206700  0.55701500  1
  O  O31  1  0.25053550  0.06741250  0.87074500  1
  O  O32  1  0.00000000  0.85746000  0.75000000  1
  O  O33  1  0.85401850  0.94373150  0.32956800  1
  O  O34  1  0.75053550  0.43258750  0.37074500  1
  O  O35  1  0.92684900  0.88118600  0.04552500  1
  O  O36  1  0.14598150  0.05626850  0.67043200  1
  O  O37  1  0.00000000  0.14254000  0.25000000  1
  O  O38  1  0.97331250  0.40954650  0.39898000  1
  O  O39  1  0.92684900  0.11881400  0.54552500  1
  O  O40  1  0.97331250  0.59045350  0.89898000  1
  O  O41  1  0.20634300  0.45793300  0.44298500  1
  O  O42  1  0.74946450  0.93258750  0.12925500  1
  O  O43  1  0.20634300  0.54206700  0.94298500  1
  O  O44  1  0.64598150  0.44373150  0.17043200  1
  O  O45  1  0.79365700  0.45793300  0.05701500  1
  O  O46  1  0.57315100  0.38118600  0.45447500  1
  O  O47  1  0.52668750  0.90954650  0.10102000  1
  O  O48  1  0.52668750  0.09045350  0.60102000  1
  O  O49  1  0.74946450  0.06741250  0.62925500  1
  O  O50  1  0.85401850  0.05626850  0.82956800  1
  O  O51  1  0.57315100  0.61881400  0.95447500  1
  O  O52  1  0.29365700  0.04206700  0.55701500  1
  O  O53  1  0.75053550  0.56741250  0.87074500  1
  O  O54  1  0.50000000  0.35746000  0.75000000  1
  O  O55  1  0.35401850  0.44373150  0.32956800  1
  O  O56  1  0.25053550  0.93258750  0.37074500  1
  O  O57  1  0.42684900  0.38118600  0.04552500  1
  O  O58  1  0.64598150  0.55626850  0.67043200  1
  O  O59  1  0.50000000  0.64254000  0.25000000  1
  O  O60  1  0.47331250  0.90954650  0.39898000  1
  O  O61  1  0.42684900  0.61881400  0.54552500  1
  O  O62  1  0.47331250  0.09045350  0.89898000  1
  O  O63  1  0.70634300  0.95793300  0.44298500  1
  O  O64  1  0.24946450  0.43258750  0.12925500  1
  O  O65  1  0.70634300  0.04206700  0.94298500  1
  O  O66  1  0.14598150  0.94373150  0.17043200  1
  O  O67  1  0.29365700  0.95793300  0.05701500  1
