# generated using pymatgen
data_Sc3(ReSi2)2
_symmetry_space_group_name_H-M   'P 1'
_cell_length_a   19.65455000
_cell_length_b   5.36574000
_cell_length_c   13.74616308
_cell_angle_alpha   90.00000000
_cell_angle_beta   125.46981136
_cell_angle_gamma   90.00000000
_symmetry_Int_Tables_number   1
_chemical_formula_structural   Sc3(ReSi2)2
_chemical_formula_sum   'Sc24 Re16 Si32'
_cell_volume   1180.65601423
_cell_formula_units_Z   8
loop_
 _symmetry_equiv_pos_site_id
 _symmetry_equiv_pos_as_xyz
  1  'x, y, z'
loop_
 _atom_site_type_symbol
 _atom_site_label
 _atom_site_symmetry_multiplicity
 _atom_site_fract_x
 _atom_site_fract_y
 _atom_site_fract_z
 _atom_site_occupancy
  Sc  Sc0  1  0.88333150  0.36421550  0.04641300  1
  Sc  Sc1  1  0.58183300  0.88418600  0.15783400  1
  Sc  Sc2  1  0.11666850  0.36421550  0.45358700  1
  Sc  Sc3  1  0.41816700  0.11581400  0.84216600  1
  Sc  Sc4  1  0.83575150  0.87169150  0.13898600  1
  Sc  Sc5  1  0.16424850  0.87169150  0.36101400  1
  Sc  Sc6  1  0.16424850  0.12830850  0.86101400  1
  Sc  Sc7  1  0.83575150  0.12830850  0.63898600  1
  Sc  Sc8  1  0.11666850  0.63578450  0.95358700  1
  Sc  Sc9  1  0.88333150  0.63578450  0.54641300  1
  Sc  Sc10  1  0.08183300  0.61581400  0.65783400  1
  Sc  Sc11  1  0.91816700  0.38418600  0.34216600  1
  Sc  Sc12  1  0.38333150  0.86421550  0.04641300  1
  Sc  Sc13  1  0.08183300  0.38418600  0.15783400  1
  Sc  Sc14  1  0.61666850  0.86421550  0.45358700  1
  Sc  Sc15  1  0.91816700  0.61581400  0.84216600  1
  Sc  Sc16  1  0.33575150  0.37169150  0.13898600  1
  Sc  Sc17  1  0.66424850  0.37169150  0.36101400  1
  Sc  Sc18  1  0.66424850  0.62830850  0.86101400  1
  Sc  Sc19  1  0.33575150  0.62830850  0.63898600  1
  Sc  Sc20  1  0.61666850  0.13578450  0.95358700  1
  Sc  Sc21  1  0.38333150  0.13578450  0.54641300  1
  Sc  Sc22  1  0.58183300  0.11581400  0.65783400  1
  Sc  Sc23  1  0.41816700  0.88418600  0.34216600  1
  Re  Re24  1  0.76405750  0.59087950  0.28279000  1
  Re  Re25  1  0.26405750  0.90912050  0.78279000  1
  Re  Re26  1  0.23594250  0.40912050  0.71721000  1
  Re  Re27  1  0.73594250  0.09087950  0.21721000  1
  Re  Re28  1  0.97457800  0.88697200  0.07683600  1
  Re  Re29  1  0.02542200  0.88697200  0.42316400  1
  Re  Re30  1  0.02542200  0.11302800  0.92316400  1
  Re  Re31  1  0.97457800  0.11302800  0.57683600  1
  Re  Re32  1  0.26405750  0.09087950  0.28279000  1
  Re  Re33  1  0.76405750  0.40912050  0.78279000  1
  Re  Re34  1  0.73594250  0.90912050  0.71721000  1
  Re  Re35  1  0.23594250  0.59087950  0.21721000  1
  Re  Re36  1  0.47457800  0.38697200  0.07683600  1
  Re  Re37  1  0.52542200  0.38697200  0.42316400  1
  Re  Re38  1  0.52542200  0.61302800  0.92316400  1
  Re  Re39  1  0.47457800  0.61302800  0.57683600  1
  Si  Si40  1  0.00000000  0.11188500  0.25000000  1
  Si  Si41  1  0.00000000  0.88811500  0.75000000  1
  Si  Si42  1  0.00000000  0.63944400  0.25000000  1
  Si  Si43  1  0.00000000  0.36055600  0.75000000  1
  Si  Si44  1  0.38441300  0.61421800  0.87500200  1
  Si  Si45  1  0.11558700  0.11421800  0.62499800  1
  Si  Si46  1  0.61558700  0.38578200  0.12499800  1
  Si  Si47  1  0.88441300  0.88578200  0.37500200  1
  Si  Si48  1  0.67455000  0.72329600  0.07200300  1
  Si  Si49  1  0.82545000  0.22329600  0.42799700  1
  Si  Si50  1  0.32545000  0.27670400  0.92799700  1
  Si  Si51  1  0.17455000  0.77670400  0.57200300  1
  Si  Si52  1  0.72739100  0.87952400  0.38974400  1
  Si  Si53  1  0.77260900  0.37952400  0.11025600  1
  Si  Si54  1  0.27260900  0.12047600  0.61025600  1
  Si  Si55  1  0.22739100  0.62047600  0.88974400  1
  Si  Si56  1  0.50000000  0.61188500  0.25000000  1
  Si  Si57  1  0.50000000  0.38811500  0.75000000  1
  Si  Si58  1  0.50000000  0.13944400  0.25000000  1
  Si  Si59  1  0.50000000  0.86055600  0.75000000  1
  Si  Si60  1  0.88441300  0.11421800  0.87500200  1
  Si  Si61  1  0.61558700  0.61421800  0.62499800  1
  Si  Si62  1  0.11558700  0.88578200  0.12499800  1
  Si  Si63  1  0.38441300  0.38578200  0.37500200  1
  Si  Si64  1  0.17455000  0.22329600  0.07200300  1
  Si  Si65  1  0.32545000  0.72329600  0.42799700  1
  Si  Si66  1  0.82545000  0.77670400  0.92799700  1
  Si  Si67  1  0.67455000  0.27670400  0.57200300  1
  Si  Si68  1  0.22739100  0.37952400  0.38974400  1
  Si  Si69  1  0.27260900  0.87952400  0.11025600  1
  Si  Si70  1  0.77260900  0.62047600  0.61025600  1
  Si  Si71  1  0.72739100  0.12047600  0.88974400  1
