# generated using pymatgen
data_Ba3Re2O9
_symmetry_space_group_name_H-M   'P 1'
_cell_length_a   5.77773192
_cell_length_b   5.77773192
_cell_length_c   21.09509297
_cell_angle_alpha   90.00000000
_cell_angle_beta   90.00000000
_cell_angle_gamma   120.00000000
_symmetry_Int_Tables_number   1
_chemical_formula_structural   Ba3Re2O9
_chemical_formula_sum   'Ba9 Re6 O27'
_cell_volume   609.85536592
_cell_formula_units_Z   3
loop_
 _symmetry_equiv_pos_site_id
 _symmetry_equiv_pos_as_xyz
  1  'x, y, z'
loop_
 _atom_site_type_symbol
 _atom_site_label
 _atom_site_symmetry_multiplicity
 _atom_site_fract_x
 _atom_site_fract_y
 _atom_site_fract_z
 _atom_site_occupancy
  Ba  Ba0  1  0.00000000  0.00000000  0.00000000  1
  Ba  Ba1  1  0.00000000  0.00000000  0.21116500  1
  Ba  Ba2  1  0.66666667  0.33333333  0.12216833  1
  Ba  Ba3  1  0.66666667  0.33333333  0.33333333  1
  Ba  Ba4  1  0.66666667  0.33333333  0.54449833  1
  Ba  Ba5  1  0.33333333  0.66666667  0.45550167  1
  Ba  Ba6  1  0.33333333  0.66666667  0.66666667  1
  Ba  Ba7  1  0.33333333  0.66666667  0.87783167  1
  Ba  Ba8  1  0.00000000  0.00000000  0.78883500  1
  Re  Re9  1  0.33333333  0.66666667  0.05795967  1
  Re  Re10  1  0.33333333  0.66666667  0.27537367  1
  Re  Re11  1  0.00000000  0.00000000  0.39129300  1
  Re  Re12  1  0.00000000  0.00000000  0.60870700  1
  Re  Re13  1  0.66666667  0.33333333  0.72462633  1
  Re  Re14  1  0.66666667  0.33333333  0.94204033  1
  O  O15  1  0.50000000  0.00000000  0.00000000  1
  O  O16  1  0.00000000  0.50000000  0.00000000  1
  O  O17  1  0.50000000  0.50000000  0.00000000  1
  O  O18  1  0.17535400  0.82464600  0.10402500  1
  O  O19  1  0.64929200  0.82464600  0.10402500  1
  O  O20  1  0.17535400  0.35070800  0.10402500  1
  O  O21  1  0.49131267  0.98262533  0.22930833  1
  O  O22  1  0.01737467  0.50868733  0.22930833  1
  O  O23  1  0.49131267  0.50868733  0.22930833  1
  O  O24  1  0.16666667  0.33333333  0.33333333  1
  O  O25  1  0.66666667  0.83333333  0.33333333  1
  O  O26  1  0.16666667  0.83333333  0.33333333  1
  O  O27  1  0.84202067  0.15797933  0.43735833  1
  O  O28  1  0.31595867  0.15797933  0.43735833  1
  O  O29  1  0.84202067  0.68404133  0.43735833  1
  O  O30  1  0.15797933  0.31595867  0.56264167  1
  O  O31  1  0.68404133  0.84202067  0.56264167  1
  O  O32  1  0.15797933  0.84202067  0.56264167  1
  O  O33  1  0.83333333  0.66666667  0.66666667  1
  O  O34  1  0.33333333  0.16666667  0.66666667  1
  O  O35  1  0.83333333  0.16666667  0.66666667  1
  O  O36  1  0.50868733  0.49131267  0.77069167  1
  O  O37  1  0.98262533  0.49131267  0.77069167  1
  O  O38  1  0.50868733  0.01737467  0.77069167  1
  O  O39  1  0.82464600  0.64929200  0.89597500  1
  O  O40  1  0.35070800  0.17535400  0.89597500  1
  O  O41  1  0.82464600  0.17535400  0.89597500  1
