# generated using pymatgen
data_Zn8Ag5
_symmetry_space_group_name_H-M   'P 1'
_cell_length_a   9.44156000
_cell_length_b   9.44156000
_cell_length_c   9.44156000
_cell_angle_alpha   90.00000000
_cell_angle_beta   90.00000000
_cell_angle_gamma   90.00000000
_symmetry_Int_Tables_number   1
_chemical_formula_structural   Zn8Ag5
_chemical_formula_sum   'Zn32 Ag20'
_cell_volume   841.64950457
_cell_formula_units_Z   4
loop_
 _symmetry_equiv_pos_site_id
 _symmetry_equiv_pos_as_xyz
  1  'x, y, z'
loop_
 _atom_site_type_symbol
 _atom_site_label
 _atom_site_symmetry_multiplicity
 _atom_site_fract_x
 _atom_site_fract_y
 _atom_site_fract_z
 _atom_site_occupancy
  Zn  Zn0  1  0.18499350  0.18499350  0.47121350  1
  Zn  Zn1  1  0.52878650  0.81500650  0.18499350  1
  Zn  Zn2  1  0.81500650  0.52878650  0.18499350  1
  Zn  Zn3  1  0.31500650  0.97121350  0.31500650  1
  Zn  Zn4  1  0.97121350  0.31500650  0.31500650  1
  Zn  Zn5  1  0.47121350  0.18499350  0.18499350  1
  Zn  Zn6  1  0.52878650  0.18499350  0.81500650  1
  Zn  Zn7  1  0.18499350  0.52878650  0.81500650  1
  Zn  Zn8  1  0.18499350  0.47121350  0.18499350  1
  Zn  Zn9  1  0.81500650  0.18499350  0.52878650  1
  Zn  Zn10  1  0.10974000  0.10974000  0.89026000  1
  Zn  Zn11  1  0.89026000  0.10974000  0.10974000  1
  Zn  Zn12  1  0.10974000  0.89026000  0.10974000  1
  Zn  Zn13  1  0.39026000  0.39026000  0.39026000  1
  Zn  Zn14  1  0.31500650  0.31500650  0.97121350  1
  Zn  Zn15  1  0.18499350  0.81500650  0.52878650  1
  Zn  Zn16  1  0.68499350  0.68499350  0.97121350  1
  Zn  Zn17  1  0.02878650  0.31500650  0.68499350  1
  Zn  Zn18  1  0.31500650  0.02878650  0.68499350  1
  Zn  Zn19  1  0.81500650  0.47121350  0.81500650  1
  Zn  Zn20  1  0.47121350  0.81500650  0.81500650  1
  Zn  Zn21  1  0.97121350  0.68499350  0.68499350  1
  Zn  Zn22  1  0.02878650  0.68499350  0.31500650  1
  Zn  Zn23  1  0.68499350  0.02878650  0.31500650  1
  Zn  Zn24  1  0.68499350  0.97121350  0.68499350  1
  Zn  Zn25  1  0.31500650  0.68499350  0.02878650  1
  Zn  Zn26  1  0.60974000  0.60974000  0.39026000  1
  Zn  Zn27  1  0.39026000  0.60974000  0.60974000  1
  Zn  Zn28  1  0.60974000  0.39026000  0.60974000  1
  Zn  Zn29  1  0.89026000  0.89026000  0.89026000  1
  Zn  Zn30  1  0.81500650  0.81500650  0.47121350  1
  Zn  Zn31  1  0.68499350  0.31500650  0.02878650  1
  Ag  Ag32  1  0.00000000  0.64647100  0.00000000  1
  Ag  Ag33  1  0.00000000  0.00000000  0.35352900  1
  Ag  Ag34  1  0.00000000  0.00000000  0.64647100  1
  Ag  Ag35  1  0.35352900  0.00000000  0.00000000  1
  Ag  Ag36  1  0.64647100  0.00000000  0.00000000  1
  Ag  Ag37  1  0.00000000  0.35352900  0.00000000  1
  Ag  Ag38  1  0.17972250  0.17972250  0.17972250  1
  Ag  Ag39  1  0.32027750  0.67972250  0.32027750  1
  Ag  Ag40  1  0.67972250  0.32027750  0.32027750  1
  Ag  Ag41  1  0.32027750  0.32027750  0.67972250  1
  Ag  Ag42  1  0.50000000  0.14647100  0.50000000  1
  Ag  Ag43  1  0.50000000  0.50000000  0.85352900  1
  Ag  Ag44  1  0.50000000  0.50000000  0.14647100  1
  Ag  Ag45  1  0.85352900  0.50000000  0.50000000  1
  Ag  Ag46  1  0.14647100  0.50000000  0.50000000  1
  Ag  Ag47  1  0.50000000  0.85352900  0.50000000  1
  Ag  Ag48  1  0.67972250  0.67972250  0.67972250  1
  Ag  Ag49  1  0.82027750  0.17972250  0.82027750  1
  Ag  Ag50  1  0.17972250  0.82027750  0.82027750  1
  Ag  Ag51  1  0.82027750  0.82027750  0.17972250  1
