# generated using pymatgen
data_Co5SbO8
_symmetry_space_group_name_H-M   'P 1'
_cell_length_a   6.01237543
_cell_length_b   6.01237543
_cell_length_c   15.23886709
_cell_angle_alpha   90.00000000
_cell_angle_beta   90.00000000
_cell_angle_gamma   120.00000000
_symmetry_Int_Tables_number   1
_chemical_formula_structural   Co5SbO8
_chemical_formula_sum   'Co15 Sb3 O24'
_cell_volume   477.06273697
_cell_formula_units_Z   3
loop_
 _symmetry_equiv_pos_site_id
 _symmetry_equiv_pos_as_xyz
  1  'x, y, z'
loop_
 _atom_site_type_symbol
 _atom_site_label
 _atom_site_symmetry_multiplicity
 _atom_site_fract_x
 _atom_site_fract_y
 _atom_site_fract_z
 _atom_site_occupancy
  Co  Co0  1  0.33333333  0.66666667  0.30069667  1
  Co  Co1  1  0.83333333  0.66666667  0.16666667  1
  Co  Co2  1  0.83333333  0.16666667  0.16666667  1
  Co  Co3  1  0.33333333  0.16666667  0.16666667  1
  Co  Co4  1  0.33333333  0.66666667  0.03263667  1
  Co  Co5  1  0.00000000  0.00000000  0.63403000  1
  Co  Co6  1  0.50000000  0.00000000  0.50000000  1
  Co  Co7  1  0.50000000  0.50000000  0.50000000  1
  Co  Co8  1  0.00000000  0.50000000  0.50000000  1
  Co  Co9  1  0.00000000  0.00000000  0.36597000  1
  Co  Co10  1  0.66666667  0.33333333  0.96736333  1
  Co  Co11  1  0.16666667  0.33333333  0.83333333  1
  Co  Co12  1  0.16666667  0.83333333  0.83333333  1
  Co  Co13  1  0.66666667  0.83333333  0.83333333  1
  Co  Co14  1  0.66666667  0.33333333  0.69930333  1
  Sb  Sb15  1  0.00000000  0.00000000  0.00000000  1
  Sb  Sb16  1  0.66666667  0.33333333  0.33333333  1
  Sb  Sb17  1  0.33333333  0.66666667  0.66666667  1
  O  O18  1  0.51294533  0.02589067  0.25243667  1
  O  O19  1  0.97410933  0.48705467  0.25243667  1
  O  O20  1  0.51294533  0.48705467  0.25243667  1
  O  O21  1  0.66666667  0.33333333  0.09836133  1
  O  O22  1  0.00000000  0.00000000  0.23497200  1
  O  O23  1  0.69255733  0.84627867  0.08089667  1
  O  O24  1  0.15372133  0.84627867  0.08089667  1
  O  O25  1  0.15372133  0.30744267  0.08089667  1
  O  O26  1  0.17961200  0.35922400  0.58577000  1
  O  O27  1  0.64077600  0.82038800  0.58577000  1
  O  O28  1  0.17961200  0.82038800  0.58577000  1
  O  O29  1  0.33333333  0.66666667  0.43169467  1
  O  O30  1  0.66666667  0.33333333  0.56830533  1
  O  O31  1  0.35922400  0.17961200  0.41423000  1
  O  O32  1  0.82038800  0.17961200  0.41423000  1
  O  O33  1  0.82038800  0.64077600  0.41423000  1
  O  O34  1  0.84627867  0.69255733  0.91910333  1
  O  O35  1  0.30744267  0.15372133  0.91910333  1
  O  O36  1  0.84627867  0.15372133  0.91910333  1
  O  O37  1  0.00000000  0.00000000  0.76502800  1
  O  O38  1  0.33333333  0.66666667  0.90163867  1
  O  O39  1  0.02589067  0.51294533  0.74756333  1
  O  O40  1  0.48705467  0.51294533  0.74756333  1
  O  O41  1  0.48705467  0.97410933  0.74756333  1
