# generated using pymatgen
data_Nd2SmS4
_symmetry_space_group_name_H-M   'P 1'
_cell_length_a   8.54336000
_cell_length_b   8.54336000
_cell_length_c   8.55192800
_cell_angle_alpha   90.00000000
_cell_angle_beta   90.00000000
_cell_angle_gamma   90.00000000
_symmetry_Int_Tables_number   1
_chemical_formula_structural   Nd2SmS4
_chemical_formula_sum   'Nd8 Sm4 S16'
_cell_volume   624.19667356
_cell_formula_units_Z   4
loop_
 _symmetry_equiv_pos_site_id
 _symmetry_equiv_pos_as_xyz
  1  'x, y, z'
loop_
 _atom_site_type_symbol
 _atom_site_label
 _atom_site_symmetry_multiplicity
 _atom_site_fract_x
 _atom_site_fract_y
 _atom_site_fract_z
 _atom_site_occupancy
  Nd  Nd0  1  0.25000000  0.62493200  0.87500000  1
  Nd  Nd1  1  0.25000000  0.87506800  0.37500000  1
  Nd  Nd2  1  0.37506800  0.25000000  0.12500000  1
  Nd  Nd3  1  0.12493200  0.25000000  0.62500000  1
  Nd  Nd4  1  0.75000000  0.12493200  0.37500000  1
  Nd  Nd5  1  0.75000000  0.37506800  0.87500000  1
  Nd  Nd6  1  0.87506800  0.75000000  0.62500000  1
  Nd  Nd7  1  0.62493200  0.75000000  0.12500000  1
  Sm  Sm8  1  0.00000000  0.00000000  0.00000000  1
  Sm  Sm9  1  0.00000000  0.50000000  0.25000000  1
  Sm  Sm10  1  0.50000000  0.50000000  0.50000000  1
  Sm  Sm11  1  0.50000000  0.00000000  0.75000000  1
  S  S12  1  0.17663700  0.92616200  0.70145900  1
  S  S13  1  0.42616200  0.17663700  0.45145900  1
  S  S14  1  0.07383800  0.17663700  0.29854100  1
  S  S15  1  0.07383800  0.32336300  0.95145900  1
  S  S16  1  0.42616200  0.32336300  0.79854100  1
  S  S17  1  0.82336300  0.42616200  0.54854100  1
  S  S18  1  0.32336300  0.57383800  0.20145900  1
  S  S19  1  0.67663700  0.07383800  0.04854100  1
  S  S20  1  0.67663700  0.42616200  0.20145900  1
  S  S21  1  0.92616200  0.67663700  0.95145900  1
  S  S22  1  0.57383800  0.67663700  0.79854100  1
  S  S23  1  0.57383800  0.82336300  0.45145900  1
  S  S24  1  0.92616200  0.82336300  0.29854100  1
  S  S25  1  0.32336300  0.92616200  0.04854100  1
  S  S26  1  0.82336300  0.07383800  0.70145900  1
  S  S27  1  0.17663700  0.57383800  0.54854100  1
