# generated using pymatgen
data_RbCr3O8
_symmetry_space_group_name_H-M   'P 1'
_cell_length_a   8.93624757
_cell_length_b   5.53757850
_cell_length_c   8.22722811
_cell_angle_alpha   90.00000000
_cell_angle_beta   94.81048752
_cell_angle_gamma   90.00000000
_symmetry_Int_Tables_number   1
_chemical_formula_structural   RbCr3O8
_chemical_formula_sum   'Rb2 Cr6 O16'
_cell_volume   405.69171147
_cell_formula_units_Z   2
loop_
 _symmetry_equiv_pos_site_id
 _symmetry_equiv_pos_as_xyz
  1  'x, y, z'
loop_
 _atom_site_type_symbol
 _atom_site_label
 _atom_site_symmetry_multiplicity
 _atom_site_fract_x
 _atom_site_fract_y
 _atom_site_fract_z
 _atom_site_occupancy
  Rb  Rb0  1  0.50000000  0.50000000  0.00000000  1
  Rb  Rb1  1  0.00000000  0.00000000  0.00000000  1
  Cr  Cr2  1  0.00000000  0.00000000  0.50000000  1
  Cr  Cr3  1  0.13033675  0.50000000  0.30359000  1
  Cr  Cr4  1  0.86966325  0.50000000  0.69641000  1
  Cr  Cr5  1  0.50000000  0.50000000  0.50000000  1
  Cr  Cr6  1  0.63033675  0.00000000  0.30359000  1
  Cr  Cr7  1  0.36966325  0.00000000  0.69641000  1
  O  O8  1  0.72013650  0.50000000  0.56225100  1
  O  O9  1  0.27986350  0.50000000  0.43774900  1
  O  O10  1  0.17879350  0.50000000  0.11731400  1
  O  O11  1  0.82120650  0.50000000  0.88268600  1
  O  O12  1  0.02613575  0.24964875  0.32863500  1
  O  O13  1  0.97386425  0.24964875  0.67136500  1
  O  O14  1  0.97386425  0.75035125  0.67136500  1
  O  O15  1  0.02613575  0.75035125  0.32863500  1
  O  O16  1  0.22013650  0.00000000  0.56225100  1
  O  O17  1  0.77986350  0.00000000  0.43774900  1
  O  O18  1  0.67879350  0.00000000  0.11731400  1
  O  O19  1  0.32120650  0.00000000  0.88268600  1
  O  O20  1  0.52613575  0.74964875  0.32863500  1
  O  O21  1  0.47386425  0.74964875  0.67136500  1
  O  O22  1  0.47386425  0.25035125  0.67136500  1
  O  O23  1  0.52613575  0.25035125  0.32863500  1
