# generated using pymatgen
data_K4GaAu8
_symmetry_space_group_name_H-M   'P 1'
_cell_length_a   21.23237400
_cell_length_b   5.91749000
_cell_length_c   11.07958706
_cell_angle_alpha   90.00000000
_cell_angle_beta   97.73018604
_cell_angle_gamma   90.00000000
_symmetry_Int_Tables_number   1
_chemical_formula_structural   K4GaAu8
_chemical_formula_sum   'K16 Ga4 Au32'
_cell_volume   1379.41504086
_cell_formula_units_Z   4
loop_
 _symmetry_equiv_pos_site_id
 _symmetry_equiv_pos_as_xyz
  1  'x, y, z'
loop_
 _atom_site_type_symbol
 _atom_site_label
 _atom_site_symmetry_multiplicity
 _atom_site_fract_x
 _atom_site_fract_y
 _atom_site_fract_z
 _atom_site_occupancy
  K  K0  1  0.98440800  0.50000000  0.16308800  1
  K  K1  1  0.51559200  0.00000000  0.83691200  1
  K  K2  1  0.78499000  0.50000000  0.10136600  1
  K  K3  1  0.71501000  0.00000000  0.89863400  1
  K  K4  1  0.72345600  0.50000000  0.40524800  1
  K  K5  1  0.77654400  0.00000000  0.59475200  1
  K  K6  1  0.54604400  0.50000000  0.34390900  1
  K  K7  1  0.95395600  0.00000000  0.65609100  1
  K  K8  1  0.48440800  0.00000000  0.16308800  1
  K  K9  1  0.01559200  0.50000000  0.83691200  1
  K  K10  1  0.28499000  0.00000000  0.10136600  1
  K  K11  1  0.21501000  0.50000000  0.89863400  1
  K  K12  1  0.22345600  0.00000000  0.40524800  1
  K  K13  1  0.27654400  0.50000000  0.59475200  1
  K  K14  1  0.04604400  0.00000000  0.34390900  1
  K  K15  1  0.45395600  0.50000000  0.65609100  1
  Ga  Ga16  1  0.67299300  0.00000000  0.23437500  1
  Ga  Ga17  1  0.82700700  0.50000000  0.76562500  1
  Ga  Ga18  1  0.17299300  0.50000000  0.23437500  1
  Ga  Ga19  1  0.32700700  0.00000000  0.76562500  1
  Au  Au20  1  0.79035100  0.00000000  0.26733900  1
  Au  Au21  1  0.70964900  0.50000000  0.73266100  1
  Au  Au22  1  0.62395200  0.00000000  0.42558800  1
  Au  Au23  1  0.87604800  0.50000000  0.57441200  1
  Au  Au24  1  0.00000000  0.50000000  0.50000000  1
  Au  Au25  1  0.00000000  0.00000000  0.00000000  1
  Au  Au26  1  0.59907500  0.50000000  0.85116600  1
  Au  Au27  1  0.90092500  0.00000000  0.14883400  1
  Au  Au28  1  0.60275500  0.75028800  0.63189200  1
  Au  Au29  1  0.89724500  0.25028800  0.36810800  1
  Au  Au30  1  0.89724500  0.74971200  0.36810800  1
  Au  Au31  1  0.60275500  0.24971200  0.63189200  1
  Au  Au32  1  0.88204800  0.76718100  0.91981500  1
  Au  Au33  1  0.61795200  0.26718100  0.08018500  1
  Au  Au34  1  0.61795200  0.73281900  0.08018500  1
  Au  Au35  1  0.88204800  0.23281900  0.91981500  1
  Au  Au36  1  0.29035100  0.50000000  0.26733900  1
  Au  Au37  1  0.20964900  0.00000000  0.73266100  1
  Au  Au38  1  0.12395200  0.50000000  0.42558800  1
  Au  Au39  1  0.37604800  0.00000000  0.57441200  1
  Au  Au40  1  0.50000000  0.00000000  0.50000000  1
  Au  Au41  1  0.50000000  0.50000000  0.00000000  1
  Au  Au42  1  0.09907500  0.00000000  0.85116600  1
  Au  Au43  1  0.40092500  0.50000000  0.14883400  1
  Au  Au44  1  0.10275500  0.25028800  0.63189200  1
  Au  Au45  1  0.39724500  0.75028800  0.36810800  1
  Au  Au46  1  0.39724500  0.24971200  0.36810800  1
  Au  Au47  1  0.10275500  0.74971200  0.63189200  1
  Au  Au48  1  0.38204800  0.26718100  0.91981500  1
  Au  Au49  1  0.11795200  0.76718100  0.08018500  1
  Au  Au50  1  0.11795200  0.23281900  0.08018500  1
  Au  Au51  1  0.38204800  0.73281900  0.91981500  1
