# generated using pymatgen
data_Fe3(PO4)4
_symmetry_space_group_name_H-M   'P 1'
_cell_length_a   19.10965980
_cell_length_b   6.37400909
_cell_length_c   10.95585321
_cell_angle_alpha   90.00000000
_cell_angle_beta   92.01095498
_cell_angle_gamma   90.00000000
_symmetry_Int_Tables_number   1
_chemical_formula_structural   Fe3(PO4)4
_chemical_formula_sum   'Fe12 P16 O64'
_cell_volume   1333.65743375
_cell_formula_units_Z   4
loop_
 _symmetry_equiv_pos_site_id
 _symmetry_equiv_pos_as_xyz
  1  'x, y, z'
loop_
 _atom_site_type_symbol
 _atom_site_label
 _atom_site_symmetry_multiplicity
 _atom_site_fract_x
 _atom_site_fract_y
 _atom_site_fract_z
 _atom_site_occupancy
  Fe  Fe0  1  0.84932200  0.52161700  0.75055000  1
  Fe  Fe1  1  0.65067800  0.97838300  0.24945000  1
  Fe  Fe2  1  0.75000000  0.75000000  0.00000000  1
  Fe  Fe3  1  0.84932200  0.47838300  0.25055000  1
  Fe  Fe4  1  0.65067800  0.02161700  0.74945000  1
  Fe  Fe5  1  0.75000000  0.25000000  0.50000000  1
  Fe  Fe6  1  0.34932200  0.02161700  0.75055000  1
  Fe  Fe7  1  0.15067800  0.47838300  0.24945000  1
  Fe  Fe8  1  0.25000000  0.25000000  0.00000000  1
  Fe  Fe9  1  0.34932200  0.97838300  0.25055000  1
  Fe  Fe10  1  0.15067800  0.52161700  0.74945000  1
  Fe  Fe11  1  0.25000000  0.75000000  0.50000000  1
  P  P12  1  0.58507800  0.83873900  0.99186100  1
  P  P13  1  0.70134600  0.48025900  0.24462000  1
  P  P14  1  0.91492200  0.33873900  0.50813900  1
  P  P15  1  0.79865400  0.98025900  0.25538000  1
  P  P16  1  0.58507800  0.16126100  0.49186100  1
  P  P17  1  0.79865400  0.01974100  0.75538000  1
  P  P18  1  0.70134600  0.51974100  0.74462000  1
  P  P19  1  0.91492200  0.66126100  0.00813900  1
  P  P20  1  0.08507800  0.33873900  0.99186100  1
  P  P21  1  0.20134600  0.98025900  0.24462000  1
  P  P22  1  0.41492200  0.83873900  0.50813900  1
  P  P23  1  0.29865400  0.48025900  0.25538000  1
  P  P24  1  0.08507800  0.66126100  0.49186100  1
  P  P25  1  0.29865400  0.51974100  0.75538000  1
  P  P26  1  0.20134600  0.01974100  0.74462000  1
  P  P27  1  0.41492200  0.16126100  0.00813900  1
  O  O28  1  0.98196950  0.20899050  0.53590600  1
  O  O29  1  0.84322600  0.78639500  0.27919500  1
  O  O30  1  0.74469150  0.01726750  0.36129800  1
  O  O31  1  0.51803050  0.70899050  0.96409400  1
  O  O32  1  0.91274600  0.50118100  0.11354600  1
  O  O33  1  0.84379700  0.82961700  0.73137500  1
  O  O34  1  0.65039300  0.69586300  0.99173000  1
  O  O35  1  0.75530850  0.48273250  0.63870200  1
  O  O36  1  0.74469150  0.98273250  0.86129800  1
  O  O37  1  0.65620300  0.32961700  0.76862500  1
  O  O38  1  0.98196950  0.79100950  0.03590600  1
  O  O39  1  0.75756650  0.44775250  0.35470200  1
  O  O40  1  0.84322600  0.21360500  0.77919500  1
  O  O41  1  0.51803050  0.29100950  0.46409400  1
  O  O42  1  0.65677400  0.71360500  0.72080500  1
  O  O43  1  0.58725400  0.99881900  0.88645400  1
  O  O44  1  0.57937100  0.05252300  0.61603000  1
  O  O45  1  0.74243350  0.05224750  0.64529800  1
  O  O46  1  0.91274600  0.49881900  0.61354600  1
  O  O47  1  0.92062900  0.55252300  0.88397000  1
  O  O48  1  0.74243350  0.94775250  0.14529800  1
  O  O49  1  0.65677400  0.28639500  0.22080500  1
  O  O50  1  0.57937100  0.94747700  0.11603000  1
  O  O51  1  0.92062900  0.44747700  0.38397000  1
  O  O52  1  0.84379700  0.17038300  0.23137500  1
  O  O53  1  0.65039300  0.30413700  0.49173000  1
  O  O54  1  0.58725400  0.00118100  0.38645400  1
  O  O55  1  0.84960700  0.80413700  0.00827000  1
  O  O56  1  0.65620300  0.67038300  0.26862500  1
  O  O57  1  0.75756650  0.55224750  0.85470200  1
  O  O58  1  0.84960700  0.19586300  0.50827000  1
  O  O59  1  0.75530850  0.51726750  0.13870200  1
  O  O60  1  0.48196950  0.70899050  0.53590600  1
  O  O61  1  0.34322600  0.28639500  0.27919500  1
  O  O62  1  0.24469150  0.51726750  0.36129800  1
  O  O63  1  0.01803050  0.20899050  0.96409400  1
  O  O64  1  0.41274600  0.00118100  0.11354600  1
  O  O65  1  0.34379700  0.32961700  0.73137500  1
  O  O66  1  0.15039300  0.19586300  0.99173000  1
  O  O67  1  0.25530850  0.98273250  0.63870200  1
  O  O68  1  0.24469150  0.48273250  0.86129800  1
  O  O69  1  0.15620300  0.82961700  0.76862500  1
  O  O70  1  0.48196950  0.29100950  0.03590600  1
  O  O71  1  0.25756650  0.94775250  0.35470200  1
  O  O72  1  0.34322600  0.71360500  0.77919500  1
  O  O73  1  0.01803050  0.79100950  0.46409400  1
  O  O74  1  0.15677400  0.21360500  0.72080500  1
  O  O75  1  0.08725400  0.49881900  0.88645400  1
  O  O76  1  0.07937100  0.55252300  0.61603000  1
  O  O77  1  0.24243350  0.55224750  0.64529800  1
  O  O78  1  0.41274600  0.99881900  0.61354600  1
  O  O79  1  0.42062900  0.05252300  0.88397000  1
  O  O80  1  0.24243350  0.44775250  0.14529800  1
  O  O81  1  0.15677400  0.78639500  0.22080500  1
  O  O82  1  0.07937100  0.44747700  0.11603000  1
  O  O83  1  0.42062900  0.94747700  0.38397000  1
  O  O84  1  0.34379700  0.67038300  0.23137500  1
  O  O85  1  0.15039300  0.80413700  0.49173000  1
  O  O86  1  0.08725400  0.50118100  0.38645400  1
  O  O87  1  0.34960700  0.30413700  0.00827000  1
  O  O88  1  0.15620300  0.17038300  0.26862500  1
  O  O89  1  0.25756650  0.05224750  0.85470200  1
  O  O90  1  0.34960700  0.69586300  0.50827000  1
  O  O91  1  0.25530850  0.01726750  0.13870200  1
