# generated using pymatgen
data_Nd5ErS8
_symmetry_space_group_name_H-M   'P 1'
_cell_length_a   8.51917000
_cell_length_b   8.51917000
_cell_length_c   8.59261200
_cell_angle_alpha   90.00000000
_cell_angle_beta   90.00000000
_cell_angle_gamma   90.00000000
_symmetry_Int_Tables_number   1
_chemical_formula_structural   Nd5ErS8
_chemical_formula_sum   'Nd10 Er2 S16'
_cell_volume   623.61962101
_cell_formula_units_Z   2
loop_
 _symmetry_equiv_pos_site_id
 _symmetry_equiv_pos_as_xyz
  1  'x, y, z'
loop_
 _atom_site_type_symbol
 _atom_site_label
 _atom_site_symmetry_multiplicity
 _atom_site_fract_x
 _atom_site_fract_y
 _atom_site_fract_z
 _atom_site_occupancy
  Nd  Nd0  1  0.37508900  0.24810700  0.37597900  1
  Nd  Nd1  1  0.75189300  0.37508900  0.62402100  1
  Nd  Nd2  1  0.12491100  0.25189300  0.87597900  1
  Nd  Nd3  1  0.00000000  0.00000000  0.50000000  1
  Nd  Nd4  1  0.74810700  0.12491100  0.12402100  1
  Nd  Nd5  1  0.87508900  0.74810700  0.87597900  1
  Nd  Nd6  1  0.25189300  0.87508900  0.12402100  1
  Nd  Nd7  1  0.62491100  0.75189300  0.37597900  1
  Nd  Nd8  1  0.50000000  0.50000000  0.00000000  1
  Nd  Nd9  1  0.24810700  0.62491100  0.62402100  1
  Er  Er10  1  0.00000000  0.50000000  0.25000000  1
  Er  Er11  1  0.50000000  0.00000000  0.75000000  1
  S  S12  1  0.18361200  0.92877600  0.79846900  1
  S  S13  1  0.31638800  0.57122400  0.29846900  1
  S  S14  1  0.17284800  0.57616600  0.95260600  1
  S  S15  1  0.07616600  0.32715200  0.54739400  1
  S  S16  1  0.42383400  0.17284800  0.04739400  1
  S  S17  1  0.07122400  0.18361200  0.20153100  1
  S  S18  1  0.42877600  0.31638800  0.70153100  1
  S  S19  1  0.32715200  0.92383400  0.45260600  1
  S  S20  1  0.68361200  0.42877600  0.29846900  1
  S  S21  1  0.81638800  0.07122400  0.79846900  1
  S  S22  1  0.67284800  0.07616600  0.45260600  1
  S  S23  1  0.57616600  0.82715200  0.04739400  1
  S  S24  1  0.92383400  0.67284800  0.54739400  1
  S  S25  1  0.57122400  0.68361200  0.70153100  1
  S  S26  1  0.92877600  0.81638800  0.20153100  1
  S  S27  1  0.82715200  0.42383400  0.95260600  1
