# generated using pymatgen
data_Ba3(LiSn2)4
_symmetry_space_group_name_H-M   'P 1'
_cell_length_a   18.74613400
_cell_length_b   6.77872400
_cell_length_c   6.89966016
_cell_angle_alpha   90.00000000
_cell_angle_beta   98.75210329
_cell_angle_gamma   90.00000000
_symmetry_Int_Tables_number   1
_chemical_formula_structural   Ba3(LiSn2)4
_chemical_formula_sum   'Ba6 Li8 Sn16'
_cell_volume   866.56419194
_cell_formula_units_Z   2
loop_
 _symmetry_equiv_pos_site_id
 _symmetry_equiv_pos_as_xyz
  1  'x, y, z'
loop_
 _atom_site_type_symbol
 _atom_site_label
 _atom_site_symmetry_multiplicity
 _atom_site_fract_x
 _atom_site_fract_y
 _atom_site_fract_z
 _atom_site_occupancy
  Ba  Ba0  1  0.67726500  0.00000000  0.31407300  1
  Ba  Ba1  1  0.00000000  0.00000000  0.00000000  1
  Ba  Ba2  1  0.82273500  0.50000000  0.68592700  1
  Ba  Ba3  1  0.17726500  0.50000000  0.31407300  1
  Ba  Ba4  1  0.50000000  0.50000000  0.00000000  1
  Ba  Ba5  1  0.32273500  0.00000000  0.68592700  1
  Li  Li6  1  0.71258600  0.50000000  0.12988200  1
  Li  Li7  1  0.78741400  0.00000000  0.87011800  1
  Li  Li8  1  0.00000000  0.21558100  0.50000000  1
  Li  Li9  1  0.00000000  0.78441900  0.50000000  1
  Li  Li10  1  0.21258600  0.00000000  0.12988200  1
  Li  Li11  1  0.28741400  0.50000000  0.87011800  1
  Li  Li12  1  0.50000000  0.71558100  0.50000000  1
  Li  Li13  1  0.50000000  0.28441900  0.50000000  1
  Sn  Sn14  1  0.84917850  0.73567350  0.19623400  1
  Sn  Sn15  1  0.65082150  0.76432650  0.80376600  1
  Sn  Sn16  1  0.84917850  0.26432650  0.19623400  1
  Sn  Sn17  1  0.87140100  0.00000000  0.54926800  1
  Sn  Sn18  1  0.62859900  0.50000000  0.45073200  1
  Sn  Sn19  1  0.51572700  0.00000000  0.79732900  1
  Sn  Sn20  1  0.98427300  0.50000000  0.20267100  1
  Sn  Sn21  1  0.65082150  0.23567350  0.80376600  1
  Sn  Sn22  1  0.34917850  0.23567350  0.19623400  1
  Sn  Sn23  1  0.15082150  0.26432650  0.80376600  1
  Sn  Sn24  1  0.34917850  0.76432650  0.19623400  1
  Sn  Sn25  1  0.37140100  0.50000000  0.54926800  1
  Sn  Sn26  1  0.12859900  0.00000000  0.45073200  1
  Sn  Sn27  1  0.01572700  0.50000000  0.79732900  1
  Sn  Sn28  1  0.48427300  0.00000000  0.20267100  1
  Sn  Sn29  1  0.15082150  0.73567350  0.80376600  1
