# generated using pymatgen
data_CrSiH12(OF)6
_symmetry_space_group_name_H-M   'P 1'
_cell_length_a   9.60808295
_cell_length_b   9.60808295
_cell_length_c   9.68664565
_cell_angle_alpha   90.00000000
_cell_angle_beta   90.00000000
_cell_angle_gamma   120.00000000
_symmetry_Int_Tables_number   1
_chemical_formula_structural   CrSiH12(OF)6
_chemical_formula_sum   'Cr3 Si3 H36 O18 F18'
_cell_volume   774.42173307
_cell_formula_units_Z   3
loop_
 _symmetry_equiv_pos_site_id
 _symmetry_equiv_pos_as_xyz
  1  'x, y, z'
loop_
 _atom_site_type_symbol
 _atom_site_label
 _atom_site_symmetry_multiplicity
 _atom_site_fract_x
 _atom_site_fract_y
 _atom_site_fract_z
 _atom_site_occupancy
  Cr  Cr0  1  0.00000000  0.00000000  0.00000000  1
  Cr  Cr1  1  0.66666667  0.33333333  0.33333333  1
  Cr  Cr2  1  0.33333333  0.66666667  0.66666667  1
  Si  Si3  1  0.00000000  0.00000000  0.50000000  1
  Si  Si4  1  0.66666667  0.33333333  0.83333333  1
  Si  Si5  1  0.33333333  0.66666667  0.16666667  1
  H  H6  1  0.85814200  0.63323400  0.45932400  1
  H  H7  1  0.81654200  0.83447500  0.77177200  1
  H  H8  1  0.16552500  0.98206700  0.77177200  1
  H  H9  1  0.63323400  0.77509200  0.54067600  1
  H  H10  1  0.22490800  0.85814200  0.54067600  1
  H  H11  1  0.98206700  0.81654200  0.22822800  1
  H  H12  1  0.01793300  0.18345800  0.77177200  1
  H  H13  1  0.77509200  0.14185800  0.45932400  1
  H  H14  1  0.36676600  0.22490800  0.45932400  1
  H  H15  1  0.83447500  0.01793300  0.22822800  1
  H  H16  1  0.18345800  0.16552500  0.22822800  1
  H  H17  1  0.14185800  0.36676600  0.54067600  1
  H  H18  1  0.52480867  0.96656733  0.79265733  1
  H  H19  1  0.48320867  0.16780833  0.10510533  1
  H  H20  1  0.83219167  0.31540033  0.10510533  1
  H  H21  1  0.29990067  0.10842533  0.87400933  1
  H  H22  1  0.89157467  0.19147533  0.87400933  1
  H  H23  1  0.64873367  0.14987533  0.56156133  1
  H  H24  1  0.68459967  0.51679133  0.10510533  1
  H  H25  1  0.44175867  0.47519133  0.79265733  1
  H  H26  1  0.03343267  0.55824133  0.79265733  1
  H  H27  1  0.50114167  0.35126633  0.56156133  1
  H  H28  1  0.85012467  0.49885833  0.56156133  1
  H  H29  1  0.80852467  0.70009933  0.87400933  1
  H  H30  1  0.19147533  0.29990067  0.12599067  1
  H  H31  1  0.14987533  0.50114167  0.43843867  1
  H  H32  1  0.49885833  0.64873367  0.43843867  1
  H  H33  1  0.96656733  0.44175867  0.20734267  1
  H  H34  1  0.55824133  0.52480867  0.20734267  1
  H  H35  1  0.31540033  0.48320867  0.89489467  1
  H  H36  1  0.35126633  0.85012467  0.43843867  1
  H  H37  1  0.10842533  0.80852467  0.12599067  1
  H  H38  1  0.70009933  0.89157467  0.12599067  1
  H  H39  1  0.16780833  0.68459967  0.89489467  1
  H  H40  1  0.51679133  0.83219167  0.89489467  1
  H  H41  1  0.47519133  0.03343267  0.20734267  1
  O  O42  1  0.84327533  0.52447367  0.46454167  1
  O  O43  1  0.52447367  0.68119833  0.53545833  1
  O  O44  1  0.31880167  0.84327533  0.53545833  1
  O  O45  1  0.68119833  0.15672467  0.46454167  1
  O  O46  1  0.47552633  0.31880167  0.46454167  1
  O  O47  1  0.15672467  0.47552633  0.53545833  1
  O  O48  1  0.50994200  0.85780700  0.79787500  1
  O  O49  1  0.19114033  0.01453167  0.86879167  1
  O  O50  1  0.98546833  0.17660867  0.86879167  1
  O  O51  1  0.34786500  0.49005800  0.79787500  1
  O  O52  1  0.14219300  0.65213500  0.79787500  1
  O  O53  1  0.82339133  0.80885967  0.86879167  1
  O  O54  1  0.17660867  0.19114033  0.13120833  1
  O  O55  1  0.85780700  0.34786500  0.20212500  1
  O  O56  1  0.65213500  0.50994200  0.20212500  1
  O  O57  1  0.01453167  0.82339133  0.13120833  1
  O  O58  1  0.80885967  0.98546833  0.13120833  1
  O  O59  1  0.49005800  0.14219300  0.20212500  1
  F  F60  1  0.07448867  0.90563833  0.60223033  1
  F  F61  1  0.83114967  0.92551133  0.60223033  1
  F  F62  1  0.90563833  0.83114967  0.39776967  1
  F  F63  1  0.09436167  0.16885033  0.60223033  1
  F  F64  1  0.16885033  0.07448867  0.39776967  1
  F  F65  1  0.92551133  0.09436167  0.39776967  1
  F  F66  1  0.74115533  0.23897167  0.93556367  1
  F  F67  1  0.49781633  0.25884467  0.93556367  1
  F  F68  1  0.57230500  0.16448300  0.73110300  1
  F  F69  1  0.76102833  0.50218367  0.93556367  1
  F  F70  1  0.83551700  0.40782200  0.73110300  1
  F  F71  1  0.59217800  0.42769500  0.73110300  1
  F  F72  1  0.40782200  0.57230500  0.26889700  1
  F  F73  1  0.16448300  0.59217800  0.26889700  1
  F  F74  1  0.23897167  0.49781633  0.06443633  1
  F  F75  1  0.42769500  0.83551700  0.26889700  1
  F  F76  1  0.50218367  0.74115533  0.06443633  1
  F  F77  1  0.25884467  0.76102833  0.06443633  1
