# generated using pymatgen
data_Dy11Sn10
_symmetry_space_group_name_H-M   'P 1'
_cell_length_a   11.65826000
_cell_length_b   11.65826000
_cell_length_c   17.07893200
_cell_angle_alpha   90.00000000
_cell_angle_beta   90.00000000
_cell_angle_gamma   90.00000000
_symmetry_Int_Tables_number   1
_chemical_formula_structural   Dy11Sn10
_chemical_formula_sum   'Dy44 Sn40'
_cell_volume   2321.28349072
_cell_formula_units_Z   4
loop_
 _symmetry_equiv_pos_site_id
 _symmetry_equiv_pos_as_xyz
  1  'x, y, z'
loop_
 _atom_site_type_symbol
 _atom_site_label
 _atom_site_symmetry_multiplicity
 _atom_site_fract_x
 _atom_site_fract_y
 _atom_site_fract_z
 _atom_site_occupancy
  Dy  Dy0  1  0.75201700  0.50000000  0.31143800  1
  Dy  Dy1  1  0.24798300  0.50000000  0.31143800  1
  Dy  Dy2  1  0.50000000  0.75201700  0.31143800  1
  Dy  Dy3  1  0.50000000  0.24798300  0.31143800  1
  Dy  Dy4  1  0.74798300  0.00000000  0.18856200  1
  Dy  Dy5  1  0.25201700  0.00000000  0.18856200  1
  Dy  Dy6  1  0.00000000  0.74798300  0.18856200  1
  Dy  Dy7  1  0.00000000  0.25201700  0.18856200  1
  Dy  Dy8  1  0.17451100  0.17451100  0.00000000  1
  Dy  Dy9  1  0.82548900  0.82548900  0.00000000  1
  Dy  Dy10  1  0.82548900  0.17451100  0.00000000  1
  Dy  Dy11  1  0.17451100  0.82548900  0.00000000  1
  Dy  Dy12  1  0.50000000  0.50000000  0.16416100  1
  Dy  Dy13  1  0.00000000  0.00000000  0.33583900  1
  Dy  Dy14  1  0.82965350  0.50000000  0.10206050  1
  Dy  Dy15  1  0.17034650  0.50000000  0.10206050  1
  Dy  Dy16  1  0.50000000  0.82965350  0.10206050  1
  Dy  Dy17  1  0.50000000  0.17034650  0.10206050  1
  Dy  Dy18  1  0.67034650  0.00000000  0.39793950  1
  Dy  Dy19  1  0.32965350  0.00000000  0.39793950  1
  Dy  Dy20  1  0.00000000  0.67034650  0.39793950  1
  Dy  Dy21  1  0.00000000  0.32965350  0.39793950  1
  Dy  Dy22  1  0.25201700  0.00000000  0.81143800  1
  Dy  Dy23  1  0.74798300  0.00000000  0.81143800  1
  Dy  Dy24  1  0.00000000  0.25201700  0.81143800  1
  Dy  Dy25  1  0.00000000  0.74798300  0.81143800  1
  Dy  Dy26  1  0.24798300  0.50000000  0.68856200  1
  Dy  Dy27  1  0.75201700  0.50000000  0.68856200  1
  Dy  Dy28  1  0.50000000  0.24798300  0.68856200  1
  Dy  Dy29  1  0.50000000  0.75201700  0.68856200  1
  Dy  Dy30  1  0.67451100  0.67451100  0.50000000  1
  Dy  Dy31  1  0.32548900  0.32548900  0.50000000  1
  Dy  Dy32  1  0.32548900  0.67451100  0.50000000  1
  Dy  Dy33  1  0.67451100  0.32548900  0.50000000  1
  Dy  Dy34  1  0.00000000  0.00000000  0.66416100  1
  Dy  Dy35  1  0.50000000  0.50000000  0.83583900  1
  Dy  Dy36  1  0.32965350  0.00000000  0.60206050  1
  Dy  Dy37  1  0.67034650  0.00000000  0.60206050  1
  Dy  Dy38  1  0.00000000  0.32965350  0.60206050  1
  Dy  Dy39  1  0.00000000  0.67034650  0.60206050  1
  Dy  Dy40  1  0.17034650  0.50000000  0.89793950  1
  Dy  Dy41  1  0.82965350  0.50000000  0.89793950  1
  Dy  Dy42  1  0.50000000  0.17034650  0.89793950  1
  Dy  Dy43  1  0.50000000  0.82965350  0.89793950  1
  Sn  Sn44  1  0.00000000  0.35597400  0.00000000  1
  Sn  Sn45  1  0.00000000  0.64402600  0.00000000  1
  Sn  Sn46  1  0.64402600  0.00000000  0.00000000  1
  Sn  Sn47  1  0.35597400  0.00000000  0.00000000  1
  Sn  Sn48  1  0.50000000  0.50000000  0.38810800  1
  Sn  Sn49  1  0.00000000  0.00000000  0.11189200  1
  Sn  Sn50  1  0.37047100  0.37047100  0.00000000  1
  Sn  Sn51  1  0.62952900  0.62952900  0.00000000  1
  Sn  Sn52  1  0.62952900  0.37047100  0.00000000  1
  Sn  Sn53  1  0.37047100  0.62952900  0.00000000  1
  Sn  Sn54  1  0.00000000  0.50000000  0.25000000  1
  Sn  Sn55  1  0.50000000  0.00000000  0.25000000  1
  Sn  Sn56  1  0.70636850  0.70636850  0.17580850  1
  Sn  Sn57  1  0.29363150  0.29363150  0.17580850  1
  Sn  Sn58  1  0.29363150  0.70636850  0.17580850  1
  Sn  Sn59  1  0.70636850  0.29363150  0.17580850  1
  Sn  Sn60  1  0.79363150  0.79363150  0.32419150  1
  Sn  Sn61  1  0.20636850  0.20636850  0.32419150  1
  Sn  Sn62  1  0.20636850  0.79363150  0.32419150  1
  Sn  Sn63  1  0.79363150  0.20636850  0.32419150  1
  Sn  Sn64  1  0.50000000  0.85597400  0.50000000  1
  Sn  Sn65  1  0.50000000  0.14402600  0.50000000  1
  Sn  Sn66  1  0.14402600  0.50000000  0.50000000  1
  Sn  Sn67  1  0.85597400  0.50000000  0.50000000  1
  Sn  Sn68  1  0.00000000  0.00000000  0.88810800  1
  Sn  Sn69  1  0.50000000  0.50000000  0.61189200  1
  Sn  Sn70  1  0.87047100  0.87047100  0.50000000  1
  Sn  Sn71  1  0.12952900  0.12952900  0.50000000  1
  Sn  Sn72  1  0.12952900  0.87047100  0.50000000  1
  Sn  Sn73  1  0.87047100  0.12952900  0.50000000  1
  Sn  Sn74  1  0.50000000  0.00000000  0.75000000  1
  Sn  Sn75  1  0.00000000  0.50000000  0.75000000  1
  Sn  Sn76  1  0.20636850  0.20636850  0.67580850  1
  Sn  Sn77  1  0.79363150  0.79363150  0.67580850  1
  Sn  Sn78  1  0.79363150  0.20636850  0.67580850  1
  Sn  Sn79  1  0.20636850  0.79363150  0.67580850  1
  Sn  Sn80  1  0.29363150  0.29363150  0.82419150  1
  Sn  Sn81  1  0.70636850  0.70636850  0.82419150  1
  Sn  Sn82  1  0.70636850  0.29363150  0.82419150  1
  Sn  Sn83  1  0.29363150  0.70636850  0.82419150  1
