# generated using pymatgen
data_Nd2USe4
_symmetry_space_group_name_H-M   'P 1'
_cell_length_a   8.91488400
_cell_length_b   8.91488400
_cell_length_c   8.83766000
_cell_angle_alpha   90.00000000
_cell_angle_beta   90.00000000
_cell_angle_gamma   90.00000000
_symmetry_Int_Tables_number   1
_chemical_formula_structural   Nd2USe4
_chemical_formula_sum   'Nd8 U4 Se16'
_cell_volume   702.37441366
_cell_formula_units_Z   4
loop_
 _symmetry_equiv_pos_site_id
 _symmetry_equiv_pos_as_xyz
  1  'x, y, z'
loop_
 _atom_site_type_symbol
 _atom_site_label
 _atom_site_symmetry_multiplicity
 _atom_site_fract_x
 _atom_site_fract_y
 _atom_site_fract_z
 _atom_site_occupancy
  Nd  Nd0  1  0.37712500  0.25000000  0.87500000  1
  Nd  Nd1  1  0.75000000  0.37712500  0.12500000  1
  Nd  Nd2  1  0.12287500  0.25000000  0.37500000  1
  Nd  Nd3  1  0.75000000  0.12287500  0.62500000  1
  Nd  Nd4  1  0.87712500  0.75000000  0.37500000  1
  Nd  Nd5  1  0.25000000  0.87712500  0.62500000  1
  Nd  Nd6  1  0.62287500  0.75000000  0.87500000  1
  Nd  Nd7  1  0.25000000  0.62287500  0.12500000  1
  U  U8  1  0.50000000  0.50000000  0.50000000  1
  U  U9  1  0.50000000  0.00000000  0.25000000  1
  U  U10  1  0.00000000  0.00000000  0.00000000  1
  U  U11  1  0.00000000  0.50000000  0.75000000  1
  Se  Se12  1  0.57519600  0.67643600  0.20427500  1
  Se  Se13  1  0.82356400  0.42480400  0.45427500  1
  Se  Se14  1  0.67643600  0.07519600  0.95427500  1
  Se  Se15  1  0.67643600  0.42480400  0.79572500  1
  Se  Se16  1  0.07519600  0.32356400  0.04572500  1
  Se  Se17  1  0.92480400  0.82356400  0.70427500  1
  Se  Se18  1  0.82356400  0.07519600  0.29572500  1
  Se  Se19  1  0.42480400  0.17643600  0.54572500  1
  Se  Se20  1  0.07519600  0.17643600  0.70427500  1
  Se  Se21  1  0.32356400  0.92480400  0.95427500  1
  Se  Se22  1  0.17643600  0.57519600  0.45427500  1
  Se  Se23  1  0.17643600  0.92480400  0.29572500  1
  Se  Se24  1  0.57519600  0.82356400  0.54572500  1
  Se  Se25  1  0.42480400  0.32356400  0.20427500  1
  Se  Se26  1  0.32356400  0.57519600  0.79572500  1
  Se  Se27  1  0.92480400  0.67643600  0.04572500  1
