# generated using pymatgen
data_LiMn2P5O16
_symmetry_space_group_name_H-M   'P 1'
_cell_length_a   5.10453200
_cell_length_b   6.82419100
_cell_length_c   18.30522270
_cell_angle_alpha   90.00000000
_cell_angle_beta   90.85134454
_cell_angle_gamma   90.00000000
_symmetry_Int_Tables_number   1
_chemical_formula_structural   LiMn2P5O16
_chemical_formula_sum   'Li2 Mn4 P10 O32'
_cell_volume   637.57925384
_cell_formula_units_Z   2
loop_
 _symmetry_equiv_pos_site_id
 _symmetry_equiv_pos_as_xyz
  1  'x, y, z'
loop_
 _atom_site_type_symbol
 _atom_site_label
 _atom_site_symmetry_multiplicity
 _atom_site_fract_x
 _atom_site_fract_y
 _atom_site_fract_z
 _atom_site_occupancy
  Li  Li0  1  0.74157700  0.64166100  0.46647900  1
  Li  Li1  1  0.74157700  0.35833900  0.96647900  1
  Mn  Mn2  1  0.26344700  0.82646300  0.59341700  1
  Mn  Mn3  1  0.74419800  0.17312600  0.40856000  1
  Mn  Mn4  1  0.26344700  0.17353700  0.09341700  1
  Mn  Mn5  1  0.74419800  0.82687400  0.90856000  1
  P  P6  1  0.00260200  0.74672500  0.75076600  1
  P  P7  1  0.25476600  0.53025600  0.87264200  1
  P  P8  1  0.22609300  0.12234000  0.91762100  1
  P  P9  1  0.78368100  0.87929300  0.08127600  1
  P  P10  1  0.78368100  0.12070700  0.58127600  1
  P  P11  1  0.25476600  0.46974400  0.37264200  1
  P  P12  1  0.73698200  0.46146000  0.12672600  1
  P  P13  1  0.73698200  0.53854000  0.62672600  1
  P  P14  1  0.22609300  0.87766000  0.41762100  1
  P  P15  1  0.00260200  0.25327500  0.25076600  1
  O  O16  1  0.04638800  0.39565500  0.42263900  1
  O  O17  1  0.07286200  0.06307100  0.57153700  1
  O  O18  1  0.15131800  0.86663500  0.69695200  1
  O  O19  1  0.66428700  0.20148100  0.50920600  1
  O  O20  1  0.80959600  0.59878800  0.70934000  1
  O  O21  1  0.80959600  0.40121200  0.20934000  1
  O  O22  1  0.04638800  0.60434500  0.92263900  1
  O  O23  1  0.84172000  0.14496300  0.30633400  1
  O  O24  1  0.61739100  0.02936300  0.11869400  1
  O  O25  1  0.78656100  0.31036500  0.63550900  1
  O  O26  1  0.44492600  0.42416900  0.11505800  1
  O  O27  1  0.37566700  0.04162700  0.38253800  1
  O  O28  1  0.44492600  0.57583100  0.61505800  1
  O  O29  1  0.07286200  0.93692900  0.07153700  1
  O  O30  1  0.20862800  0.39594300  0.29022400  1
  O  O31  1  0.91353200  0.63014200  0.57098400  1
  O  O32  1  0.78656100  0.68963500  0.13550900  1
  O  O33  1  0.22290900  0.30103600  0.85818800  1
  O  O34  1  0.36114000  0.20997100  0.98662600  1
  O  O35  1  0.93089500  0.08399500  0.92953400  1
  O  O36  1  0.84172000  0.85503700  0.80633400  1
  O  O37  1  0.54147200  0.56275000  0.89320800  1
  O  O38  1  0.36114000  0.79002900  0.48662600  1
  O  O39  1  0.61739100  0.97063700  0.61869400  1
  O  O40  1  0.15131800  0.13336500  0.19695200  1
  O  O41  1  0.54147200  0.43725000  0.39320800  1
  O  O42  1  0.66428700  0.79851900  0.00920600  1
  O  O43  1  0.20862800  0.60405700  0.79022400  1
  O  O44  1  0.22290900  0.69896400  0.35818800  1
  O  O45  1  0.93089500  0.91600500  0.42953400  1
  O  O46  1  0.37566700  0.95837300  0.88253800  1
  O  O47  1  0.91353200  0.36985800  0.07098400  1
