# generated using pymatgen
data_Pd13Pb9
_symmetry_space_group_name_H-M   'P 1'
_cell_length_a   16.04577000
_cell_length_b   9.26837600
_cell_length_c   14.20450356
_cell_angle_alpha   90.00000000
_cell_angle_beta   124.14619829
_cell_angle_gamma   90.00000000
_symmetry_Int_Tables_number   1
_chemical_formula_structural   Pd13Pb9
_chemical_formula_sum   'Pd52 Pb36'
_cell_volume   1748.29596316
_cell_formula_units_Z   4
loop_
 _symmetry_equiv_pos_site_id
 _symmetry_equiv_pos_as_xyz
  1  'x, y, z'
loop_
 _atom_site_type_symbol
 _atom_site_label
 _atom_site_symmetry_multiplicity
 _atom_site_fract_x
 _atom_site_fract_y
 _atom_site_fract_z
 _atom_site_occupancy
  Pd  Pd0  1  0.11804400  0.61819600  0.50031400  1
  Pd  Pd1  1  0.88188450  0.13806750  0.00556700  1
  Pd  Pd2  1  0.47372650  0.12961650  0.85967400  1
  Pd  Pd3  1  0.38195600  0.11819600  0.99968600  1
  Pd  Pd4  1  0.22055750  0.87743950  0.86981200  1
  Pd  Pd5  1  0.98300450  0.88381750  0.37489000  1
  Pd  Pd6  1  0.11804400  0.38180400  0.00031400  1
  Pd  Pd7  1  0.27944250  0.37743950  0.63018800  1
  Pd  Pd8  1  0.02627350  0.62961650  0.64032600  1
  Pd  Pd9  1  0.48300450  0.61618250  0.87489000  1
  Pd  Pd10  1  0.27944250  0.62256050  0.13018800  1
  Pd  Pd11  1  0.51699550  0.61618250  0.62511000  1
  Pd  Pd12  1  0.24958750  0.87333250  0.24935500  1
  Pd  Pd13  1  0.88188450  0.86193250  0.50556700  1
  Pd  Pd14  1  0.25041250  0.37333250  0.25064500  1
  Pd  Pd15  1  0.47372650  0.87038350  0.35967400  1
  Pd  Pd16  1  0.22055750  0.12256050  0.36981200  1
  Pd  Pd17  1  0.24958750  0.12666750  0.74935500  1
  Pd  Pd18  1  0.61811550  0.63806750  0.49443300  1
  Pd  Pd19  1  0.00000000  0.62481900  0.25000000  1
  Pd  Pd20  1  0.38195600  0.88180400  0.49968600  1
  Pd  Pd21  1  0.25041250  0.62666750  0.75064500  1
  Pd  Pd22  1  0.02627350  0.37038350  0.14032600  1
  Pd  Pd23  1  0.61811550  0.36193250  0.99443300  1
  Pd  Pd24  1  0.50000000  0.87518100  0.75000000  1
  Pd  Pd25  1  0.01699550  0.88381750  0.12511000  1
  Pd  Pd26  1  0.61804400  0.11819600  0.50031400  1
  Pd  Pd27  1  0.38188450  0.63806750  0.00556700  1
  Pd  Pd28  1  0.97372650  0.62961650  0.85967400  1
  Pd  Pd29  1  0.88195600  0.61819600  0.99968600  1
  Pd  Pd30  1  0.72055750  0.37743950  0.86981200  1
  Pd  Pd31  1  0.48300450  0.38381750  0.37489000  1
  Pd  Pd32  1  0.61804400  0.88180400  0.00031400  1
  Pd  Pd33  1  0.77944250  0.87743950  0.63018800  1
  Pd  Pd34  1  0.52627350  0.12961650  0.64032600  1
  Pd  Pd35  1  0.98300450  0.11618250  0.87489000  1
  Pd  Pd36  1  0.77944250  0.12256050  0.13018800  1
  Pd  Pd37  1  0.01699550  0.11618250  0.62511000  1
  Pd  Pd38  1  0.74958750  0.37333250  0.24935500  1
  Pd  Pd39  1  0.38188450  0.36193250  0.50556700  1
  Pd  Pd40  1  0.75041250  0.87333250  0.25064500  1
  Pd  Pd41  1  0.97372650  0.37038350  0.35967400  1
  Pd  Pd42  1  0.72055750  0.62256050  0.36981200  1
  Pd  Pd43  1  0.74958750  0.62666750  0.74935500  1
  Pd  Pd44  1  0.11811550  0.13806750  0.49443300  1
  Pd  Pd45  1  0.50000000  0.12481900  0.25000000  1
  Pd  Pd46  1  0.88195600  0.38180400  0.49968600  1
  Pd  Pd47  1  0.75041250  0.12666750  0.75064500  1
  Pd  Pd48  1  0.52627350  0.87038350  0.14032600  1
  Pd  Pd49  1  0.11811550  0.86193250  0.99443300  1
  Pd  Pd50  1  0.00000000  0.37518100  0.75000000  1
  Pd  Pd51  1  0.51699550  0.38381750  0.12511000  1
  Pb  Pb52  1  0.16698200  0.41259000  0.38673300  1
  Pb  Pb53  1  0.66698200  0.08741000  0.88673300  1
  Pb  Pb54  1  0.12860500  0.87863400  0.61840400  1
  Pb  Pb55  1  0.37139500  0.62136600  0.38159600  1
  Pb  Pb56  1  0.87139500  0.87863400  0.88159600  1
  Pb  Pb57  1  0.89943250  0.62744350  0.38368300  1
  Pb  Pb58  1  0.65989200  0.66845500  0.87486000  1
  Pb  Pb59  1  0.50000000  0.62373300  0.25000000  1
  Pb  Pb60  1  0.62860500  0.62136600  0.11840400  1
  Pb  Pb61  1  0.15989200  0.83154500  0.37486000  1
  Pb  Pb62  1  0.10056750  0.62744350  0.11631700  1
  Pb  Pb63  1  0.60056750  0.87255650  0.61631700  1
  Pb  Pb64  1  0.84010800  0.83154500  0.12514000  1
  Pb  Pb65  1  0.83301800  0.41259000  0.11326700  1
  Pb  Pb66  1  0.39943250  0.87255650  0.88368300  1
  Pb  Pb67  1  0.33301800  0.08741000  0.61326700  1
  Pb  Pb68  1  0.34010800  0.66845500  0.62514000  1
  Pb  Pb69  1  0.00000000  0.87626700  0.75000000  1
  Pb  Pb70  1  0.66698200  0.91259000  0.38673300  1
  Pb  Pb71  1  0.16698200  0.58741000  0.88673300  1
  Pb  Pb72  1  0.62860500  0.37863400  0.61840400  1
  Pb  Pb73  1  0.87139500  0.12136600  0.38159600  1
  Pb  Pb74  1  0.37139500  0.37863400  0.88159600  1
  Pb  Pb75  1  0.39943250  0.12744350  0.38368300  1
  Pb  Pb76  1  0.15989200  0.16845500  0.87486000  1
  Pb  Pb77  1  0.00000000  0.12373300  0.25000000  1
  Pb  Pb78  1  0.12860500  0.12136600  0.11840400  1
  Pb  Pb79  1  0.65989200  0.33154500  0.37486000  1
  Pb  Pb80  1  0.60056750  0.12744350  0.11631700  1
  Pb  Pb81  1  0.10056750  0.37255650  0.61631700  1
  Pb  Pb82  1  0.34010800  0.33154500  0.12514000  1
  Pb  Pb83  1  0.33301800  0.91259000  0.11326700  1
  Pb  Pb84  1  0.89943250  0.37255650  0.88368300  1
  Pb  Pb85  1  0.83301800  0.58741000  0.61326700  1
  Pb  Pb86  1  0.84010800  0.16845500  0.62514000  1
  Pb  Pb87  1  0.50000000  0.37626700  0.75000000  1
