# generated using pymatgen
data_Li6Mn9(PO4)8
_symmetry_space_group_name_H-M   'P 1'
_cell_length_a   8.92512972
_cell_length_b   9.10096956
_cell_length_c   9.28554700
_cell_angle_alpha   101.27050861
_cell_angle_beta   111.52768428
_cell_angle_gamma   101.23924449
_symmetry_Int_Tables_number   1
_chemical_formula_structural   Li6Mn9(PO4)8
_chemical_formula_sum   'Li6 Mn9 P8 O32'
_cell_volume   658.05247769
_cell_formula_units_Z   1
loop_
 _symmetry_equiv_pos_site_id
 _symmetry_equiv_pos_as_xyz
  1  'x, y, z'
loop_
 _atom_site_type_symbol
 _atom_site_label
 _atom_site_symmetry_multiplicity
 _atom_site_fract_x
 _atom_site_fract_y
 _atom_site_fract_z
 _atom_site_occupancy
  Li  Li0  1  0.12055300  0.36102800  0.02412200  1
  Li  Li1  1  0.76792300  0.03950400  0.26851400  1
  Li  Li2  1  0.31399800  0.31359500  0.35998200  1
  Li  Li3  1  0.68600200  0.68640500  0.64001800  1
  Li  Li4  1  0.23207700  0.96049600  0.73148600  1
  Li  Li5  1  0.87944700  0.63897200  0.97587800  1
  Mn  Mn6  1  0.50000000  0.50000000  0.00000000  1
  Mn  Mn7  1  0.30295100  0.79659600  0.04336500  1
  Mn  Mn8  1  0.86733600  0.71657900  0.42281800  1
  Mn  Mn9  1  0.00000000  0.00000000  0.00000000  1
  Mn  Mn10  1  0.71780100  0.31909100  0.46684300  1
  Mn  Mn11  1  0.50000000  0.00000000  0.50000000  1
  Mn  Mn12  1  0.28219900  0.68090900  0.53315700  1
  Mn  Mn13  1  0.13266400  0.28342100  0.57718200  1
  Mn  Mn14  1  0.69704900  0.20340400  0.95663500  1
  P  P15  1  0.02403000  0.60036700  0.71309800  1
  P  P16  1  0.60447100  0.83464000  0.90058900  1
  P  P17  1  0.53791300  0.34104000  0.71872500  1
  P  P18  1  0.88786600  0.04524000  0.66108700  1
  P  P19  1  0.11213400  0.95476000  0.33891300  1
  P  P20  1  0.46208700  0.65896000  0.28127500  1
  P  P21  1  0.39552900  0.16536000  0.09941100  1
  P  P22  1  0.97597000  0.39963300  0.28690200  1
  O  O23  1  0.04697400  0.68520900  0.88512500  1
  O  O24  1  0.31009900  0.99925100  0.97165100  1
  O  O25  1  0.49750100  0.72755900  0.96242400  1
  O  O26  1  0.06716900  0.09846000  0.66969400  1
  O  O27  1  0.07058400  0.44692600  0.71519100  1
  O  O28  1  0.69433100  0.43508200  0.88146800  1
  O  O29  1  0.38636500  0.38454100  0.74220200  1
  O  O30  1  0.12967100  0.71688200  0.65762300  1
  O  O31  1  0.89498500  0.10478900  0.83423800  1
  O  O32  1  0.95302600  0.31479100  0.11487500  1
  O  O33  1  0.68990100  0.00074900  0.02834900  1
  O  O34  1  0.50249900  0.27244100  0.03757600  1
  O  O35  1  0.93283100  0.90154000  0.33030600  1
  O  O36  1  0.92941600  0.55307400  0.28480900  1
  O  O37  1  0.30566900  0.56491800  0.11853200  1
  O  O38  1  0.61363500  0.61545900  0.25779800  1
  O  O39  1  0.87032900  0.28311800  0.34237700  1
  O  O40  1  0.10501500  0.89521100  0.16576200  1
  O  O41  1  0.25093800  0.22819100  0.11620300  1
  O  O42  1  0.47511900  0.83630400  0.29249900  1
  O  O43  1  0.51002100  0.15308600  0.26659600  1
  O  O44  1  0.81822300  0.86480400  0.59998700  1
  O  O45  1  0.45671100  0.62900600  0.43648000  1
  O  O46  1  0.83621700  0.56169200  0.58779000  1
  O  O47  1  0.23844000  0.88666500  0.45634300  1
  O  O48  1  0.76156000  0.11333500  0.54365700  1
  O  O49  1  0.16378300  0.43830800  0.41221000  1
  O  O50  1  0.54328900  0.37099400  0.56352000  1
  O  O51  1  0.18177700  0.13519600  0.40001300  1
  O  O52  1  0.48997900  0.84691400  0.73340400  1
  O  O53  1  0.52488100  0.16369600  0.70750100  1
  O  O54  1  0.74906200  0.77180900  0.88379700  1
