# generated using pymatgen
data_Fe3(P3O10)2
_symmetry_space_group_name_H-M   'P 1'
_cell_length_a   10.25015200
_cell_length_b   13.41342000
_cell_length_c   12.44374600
_cell_angle_alpha   90.00000000
_cell_angle_beta   90.00000000
_cell_angle_gamma   90.00000000
_symmetry_Int_Tables_number   1
_chemical_formula_structural   Fe3(P3O10)2
_chemical_formula_sum   'Fe12 P24 O80'
_cell_volume   1710.88558339
_cell_formula_units_Z   4
loop_
 _symmetry_equiv_pos_site_id
 _symmetry_equiv_pos_as_xyz
  1  'x, y, z'
loop_
 _atom_site_type_symbol
 _atom_site_label
 _atom_site_symmetry_multiplicity
 _atom_site_fract_x
 _atom_site_fract_y
 _atom_site_fract_z
 _atom_site_occupancy
  Fe  Fe0  1  0.86131900  0.00000000  0.00000000  1
  Fe  Fe1  1  0.50000000  0.20478900  0.75000000  1
  Fe  Fe2  1  0.13868100  0.00000000  0.50000000  1
  Fe  Fe3  1  0.50000000  0.79521100  0.25000000  1
  Fe  Fe4  1  0.50000000  0.74728200  0.75000000  1
  Fe  Fe5  1  0.50000000  0.25271800  0.25000000  1
  Fe  Fe6  1  0.36131900  0.50000000  0.00000000  1
  Fe  Fe7  1  0.00000000  0.70478900  0.75000000  1
  Fe  Fe8  1  0.63868100  0.50000000  0.50000000  1
  Fe  Fe9  1  0.00000000  0.29521100  0.25000000  1
  Fe  Fe10  1  0.00000000  0.24728200  0.75000000  1
  Fe  Fe11  1  0.00000000  0.75271800  0.25000000  1
  P  P12  1  0.55652250  0.70447050  0.01357600  1
  P  P13  1  0.23814900  0.93686900  0.27363500  1
  P  P14  1  0.22999850  0.13546750  0.17997300  1
  P  P15  1  0.44347750  0.29552950  0.51357600  1
  P  P16  1  0.77000150  0.13546750  0.32002700  1
  P  P17  1  0.55652250  0.29552950  0.98642400  1
  P  P18  1  0.23814900  0.06313100  0.72636500  1
  P  P19  1  0.76185100  0.93686900  0.22636500  1
  P  P20  1  0.77000150  0.86453250  0.67997300  1
  P  P21  1  0.44347750  0.70447050  0.48642400  1
  P  P22  1  0.22999850  0.86453250  0.82002700  1
  P  P23  1  0.76185100  0.06313100  0.77363500  1
  P  P24  1  0.05652250  0.20447050  0.01357600  1
  P  P25  1  0.73814900  0.43686900  0.27363500  1
  P  P26  1  0.72999850  0.63546750  0.17997300  1
  P  P27  1  0.94347750  0.79552950  0.51357600  1
  P  P28  1  0.27000150  0.63546750  0.32002700  1
  P  P29  1  0.05652250  0.79552950  0.98642400  1
  P  P30  1  0.73814900  0.56313100  0.72636500  1
  P  P31  1  0.26185100  0.43686900  0.22636500  1
  P  P32  1  0.27000150  0.36453250  0.67997300  1
  P  P33  1  0.94347750  0.20447050  0.48642400  1
  P  P34  1  0.72999850  0.36453250  0.82002700  1
  P  P35  1  0.26185100  0.56313100  0.77363500  1
  O  O36  1  0.64018900  0.69157700  0.25456400  1
  O  O37  1  0.53611500  0.38504200  0.51758700  1
  O  O38  1  0.80287200  0.83774900  0.55693900  1
  O  O39  1  0.36677750  0.89935150  0.23104500  1
  O  O40  1  0.58052250  0.74269350  0.90042400  1
  O  O41  1  0.36677750  0.10064850  0.76895500  1
  O  O42  1  0.63322250  0.89935150  0.26895500  1
  O  O43  1  0.46388500  0.38504200  0.98241300  1
  O  O44  1  0.19712800  0.83774900  0.94306100  1
  O  O45  1  0.63005750  0.36041250  0.28501500  1
  O  O46  1  0.74778750  0.99392750  0.11900700  1
  O  O47  1  0.36994250  0.63958750  0.78501500  1
  O  O48  1  0.19092550  0.01939250  0.18529800  1
  O  O49  1  0.51712950  0.78919450  0.08888100  1
  O  O50  1  0.48287050  0.21080550  0.58888100  1
  O  O51  1  0.46388500  0.61495800  0.01758700  1
  O  O52  1  0.37443250  0.85251750  0.80168400  1
  O  O53  1  0.41947750  0.74269350  0.59957600  1
  O  O54  1  0.74778750  0.00607250  0.88099300  1
  O  O55  1  0.51712950  0.21080550  0.91111900  1
  O  O56  1  0.36994250  0.36041250  0.21498500  1
  O  O57  1  0.62556750  0.85251750  0.69831600  1
  O  O58  1  0.63005750  0.63958750  0.71498500  1
  O  O59  1  0.62556750  0.14748250  0.30168400  1
  O  O60  1  0.48287050  0.78919450  0.41111900  1
  O  O61  1  0.25221250  0.00607250  0.61900700  1
  O  O62  1  0.25221250  0.99392750  0.38099300  1
  O  O63  1  0.80907450  0.01939250  0.31470200  1
  O  O64  1  0.64018900  0.30842300  0.74543600  1
  O  O65  1  0.19712800  0.16225100  0.05693900  1
  O  O66  1  0.53611500  0.61495800  0.48241300  1
  O  O67  1  0.37443250  0.14748250  0.19831600  1
  O  O68  1  0.19092550  0.98060750  0.81470200  1
  O  O69  1  0.80907450  0.98060750  0.68529800  1
  O  O70  1  0.80287200  0.16225100  0.44306100  1
  O  O71  1  0.63322250  0.10064850  0.73104500  1
  O  O72  1  0.41947750  0.25730650  0.40042400  1
  O  O73  1  0.35981100  0.69157700  0.24543600  1
  O  O74  1  0.58052250  0.25730650  0.09957600  1
  O  O75  1  0.35981100  0.30842300  0.75456400  1
  O  O76  1  0.14018900  0.19157700  0.25456400  1
  O  O77  1  0.03611500  0.88504200  0.51758700  1
  O  O78  1  0.30287200  0.33774900  0.55693900  1
  O  O79  1  0.86677750  0.39935150  0.23104500  1
  O  O80  1  0.08052250  0.24269350  0.90042400  1
  O  O81  1  0.86677750  0.60064850  0.76895500  1
  O  O82  1  0.13322250  0.39935150  0.26895500  1
  O  O83  1  0.96388500  0.88504200  0.98241300  1
  O  O84  1  0.69712800  0.33774900  0.94306100  1
  O  O85  1  0.13005750  0.86041250  0.28501500  1
  O  O86  1  0.24778750  0.49392750  0.11900700  1
  O  O87  1  0.86994250  0.13958750  0.78501500  1
  O  O88  1  0.69092550  0.51939250  0.18529800  1
  O  O89  1  0.01712950  0.28919450  0.08888100  1
  O  O90  1  0.98287050  0.71080550  0.58888100  1
  O  O91  1  0.96388500  0.11495800  0.01758700  1
  O  O92  1  0.87443250  0.35251750  0.80168400  1
  O  O93  1  0.91947750  0.24269350  0.59957600  1
  O  O94  1  0.24778750  0.50607250  0.88099300  1
  O  O95  1  0.01712950  0.71080550  0.91111900  1
  O  O96  1  0.86994250  0.86041250  0.21498500  1
  O  O97  1  0.12556750  0.35251750  0.69831600  1
  O  O98  1  0.13005750  0.13958750  0.71498500  1
  O  O99  1  0.12556750  0.64748250  0.30168400  1
  O  O100  1  0.98287050  0.28919450  0.41111900  1
  O  O101  1  0.75221250  0.50607250  0.61900700  1
  O  O102  1  0.75221250  0.49392750  0.38099300  1
  O  O103  1  0.30907450  0.51939250  0.31470200  1
  O  O104  1  0.14018900  0.80842300  0.74543600  1
  O  O105  1  0.69712800  0.66225100  0.05693900  1
  O  O106  1  0.03611500  0.11495800  0.48241300  1
  O  O107  1  0.87443250  0.64748250  0.19831600  1
  O  O108  1  0.69092550  0.48060750  0.81470200  1
  O  O109  1  0.30907450  0.48060750  0.68529800  1
  O  O110  1  0.30287200  0.66225100  0.44306100  1
  O  O111  1  0.13322250  0.60064850  0.73104500  1
  O  O112  1  0.91947750  0.75730650  0.40042400  1
  O  O113  1  0.85981100  0.19157700  0.24543600  1
  O  O114  1  0.08052250  0.75730650  0.09957600  1
  O  O115  1  0.85981100  0.80842300  0.75456400  1
