# generated using pymatgen
data_Na3(WO3)4
_symmetry_space_group_name_H-M   'P 1'
_cell_length_a   7.88055400
_cell_length_b   7.88055400
_cell_length_c   7.88055400
_cell_angle_alpha   90.00000000
_cell_angle_beta   90.00000000
_cell_angle_gamma   90.00000000
_symmetry_Int_Tables_number   1
_chemical_formula_structural   Na3(WO3)4
_chemical_formula_sum   'Na6 W8 O24'
_cell_volume   489.40708015
_cell_formula_units_Z   2
loop_
 _symmetry_equiv_pos_site_id
 _symmetry_equiv_pos_as_xyz
  1  'x, y, z'
loop_
 _atom_site_type_symbol
 _atom_site_label
 _atom_site_symmetry_multiplicity
 _atom_site_fract_x
 _atom_site_fract_y
 _atom_site_fract_z
 _atom_site_occupancy
  Na  Na0  1  0.00000000  0.00000000  0.50000000  1
  Na  Na1  1  0.50000000  0.00000000  0.00000000  1
  Na  Na2  1  0.00000000  0.50000000  0.00000000  1
  Na  Na3  1  0.50000000  0.50000000  0.00000000  1
  Na  Na4  1  0.00000000  0.50000000  0.50000000  1
  Na  Na5  1  0.50000000  0.00000000  0.50000000  1
  W  W6  1  0.25000000  0.75000000  0.25000000  1
  W  W7  1  0.75000000  0.25000000  0.25000000  1
  W  W8  1  0.25000000  0.25000000  0.75000000  1
  W  W9  1  0.25000000  0.25000000  0.25000000  1
  W  W10  1  0.75000000  0.25000000  0.75000000  1
  W  W11  1  0.25000000  0.75000000  0.75000000  1
  W  W12  1  0.75000000  0.75000000  0.25000000  1
  W  W13  1  0.75000000  0.75000000  0.75000000  1
  O  O14  1  0.75255300  0.50000000  0.24744700  1
  O  O15  1  0.25255300  0.00000000  0.25255300  1
  O  O16  1  0.24744700  0.75255300  0.50000000  1
  O  O17  1  0.75255300  0.24744700  0.50000000  1
  O  O18  1  0.50000000  0.75255300  0.24744700  1
  O  O19  1  0.00000000  0.25255300  0.25255300  1
  O  O20  1  0.24744700  0.50000000  0.75255300  1
  O  O21  1  0.24744700  0.50000000  0.24744700  1
  O  O22  1  0.25255300  0.25255300  0.00000000  1
  O  O23  1  0.24744700  0.24744700  0.50000000  1
  O  O24  1  0.50000000  0.24744700  0.24744700  1
  O  O25  1  0.50000000  0.24744700  0.75255300  1
  O  O26  1  0.25255300  0.00000000  0.74744700  1
  O  O27  1  0.75255300  0.50000000  0.75255300  1
  O  O28  1  0.74744700  0.25255300  0.00000000  1
  O  O29  1  0.25255300  0.74744700  0.00000000  1
  O  O30  1  0.00000000  0.25255300  0.74744700  1
  O  O31  1  0.50000000  0.75255300  0.75255300  1
  O  O32  1  0.74744700  0.00000000  0.25255300  1
  O  O33  1  0.74744700  0.00000000  0.74744700  1
  O  O34  1  0.75255300  0.75255300  0.50000000  1
  O  O35  1  0.74744700  0.74744700  0.00000000  1
  O  O36  1  0.00000000  0.74744700  0.74744700  1
  O  O37  1  0.00000000  0.74744700  0.25255300  1
