# generated using pymatgen
data_Ti(FeO2)4
_symmetry_space_group_name_H-M   'P 1'
_cell_length_a   10.04292800
_cell_length_b   5.89081400
_cell_length_c   5.78890115
_cell_angle_alpha   90.00000000
_cell_angle_beta   124.08183725
_cell_angle_gamma   90.00000000
_symmetry_Int_Tables_number   1
_chemical_formula_structural   Ti(FeO2)4
_chemical_formula_sum   'Ti2 Fe8 O16'
_cell_volume   283.65272070
_cell_formula_units_Z   2
loop_
 _symmetry_equiv_pos_site_id
 _symmetry_equiv_pos_as_xyz
  1  'x, y, z'
loop_
 _atom_site_type_symbol
 _atom_site_label
 _atom_site_symmetry_multiplicity
 _atom_site_fract_x
 _atom_site_fract_y
 _atom_site_fract_z
 _atom_site_occupancy
  Ti  Ti0  1  0.50000000  0.00000000  0.50000000  1
  Ti  Ti1  1  0.00000000  0.50000000  0.50000000  1
  Fe  Fe2  1  0.11614300  0.00000000  0.85470500  1
  Fe  Fe3  1  0.25000000  0.25000000  0.50000000  1
  Fe  Fe4  1  0.25000000  0.75000000  0.50000000  1
  Fe  Fe5  1  0.88385700  0.00000000  0.14529500  1
  Fe  Fe6  1  0.61614300  0.50000000  0.85470500  1
  Fe  Fe7  1  0.75000000  0.75000000  0.50000000  1
  Fe  Fe8  1  0.75000000  0.25000000  0.50000000  1
  Fe  Fe9  1  0.38385700  0.50000000  0.14529500  1
  O  O10  1  0.48373100  0.23855400  0.71883900  1
  O  O11  1  0.48373100  0.76144600  0.71883900  1
  O  O12  1  0.24226900  0.00000000  0.70775300  1
  O  O13  1  0.25823700  0.00000000  0.26836000  1
  O  O14  1  0.74176300  0.00000000  0.73164000  1
  O  O15  1  0.75773100  0.00000000  0.29224700  1
  O  O16  1  0.51626900  0.23855400  0.28116100  1
  O  O17  1  0.51626900  0.76144600  0.28116100  1
  O  O18  1  0.98373100  0.73855400  0.71883900  1
  O  O19  1  0.98373100  0.26144600  0.71883900  1
  O  O20  1  0.74226900  0.50000000  0.70775300  1
  O  O21  1  0.75823700  0.50000000  0.26836000  1
  O  O22  1  0.24176300  0.50000000  0.73164000  1
  O  O23  1  0.25773100  0.50000000  0.29224700  1
  O  O24  1  0.01626900  0.73855400  0.28116100  1
  O  O25  1  0.01626900  0.26144600  0.28116100  1
