# generated using pymatgen
data_In5AgS8
_symmetry_space_group_name_H-M   'P 1'
_cell_length_a   10.99490000
_cell_length_b   10.99490000
_cell_length_c   10.99490000
_cell_angle_alpha   90.00000000
_cell_angle_beta   90.00000000
_cell_angle_gamma   90.00000000
_symmetry_Int_Tables_number   1
_chemical_formula_structural   In5AgS8
_chemical_formula_sum   'In20 Ag4 S32'
_cell_volume   1329.14955820
_cell_formula_units_Z   4
loop_
 _symmetry_equiv_pos_site_id
 _symmetry_equiv_pos_as_xyz
  1  'x, y, z'
loop_
 _atom_site_type_symbol
 _atom_site_label
 _atom_site_symmetry_multiplicity
 _atom_site_fract_x
 _atom_site_fract_y
 _atom_site_fract_z
 _atom_site_occupancy
  In  In0  1  0.00000000  0.00000000  0.00000000  1
  In  In1  1  0.88083433  0.38083433  0.11916567  1
  In  In2  1  0.11916567  0.38083433  0.88083433  1
  In  In3  1  0.38083433  0.11916567  0.88083433  1
  In  In4  1  0.61916567  0.11916567  0.11916567  1
  In  In5  1  0.00000000  0.50000000  0.50000000  1
  In  In6  1  0.88083433  0.88083433  0.61916567  1
  In  In7  1  0.11916567  0.88083433  0.38083433  1
  In  In8  1  0.38083433  0.61916567  0.38083433  1
  In  In9  1  0.61916567  0.61916567  0.61916567  1
  In  In10  1  0.50000000  0.00000000  0.50000000  1
  In  In11  1  0.38083433  0.38083433  0.61916567  1
  In  In12  1  0.61916567  0.38083433  0.38083433  1
  In  In13  1  0.88083433  0.11916567  0.38083433  1
  In  In14  1  0.11916567  0.11916567  0.61916567  1
  In  In15  1  0.50000000  0.50000000  0.00000000  1
  In  In16  1  0.38083433  0.88083433  0.11916567  1
  In  In17  1  0.61916567  0.88083433  0.88083433  1
  In  In18  1  0.88083433  0.61916567  0.88083433  1
  In  In19  1  0.11916567  0.61916567  0.11916567  1
  Ag  Ag20  1  0.25000000  0.25000000  0.25000000  1
  Ag  Ag21  1  0.25000000  0.75000000  0.75000000  1
  Ag  Ag22  1  0.75000000  0.25000000  0.75000000  1
  Ag  Ag23  1  0.75000000  0.75000000  0.25000000  1
  S  S24  1  0.88237200  0.38237200  0.88237200  1
  S  S25  1  0.11762800  0.38237200  0.11762800  1
  S  S26  1  0.38237200  0.11762800  0.11762800  1
  S  S27  1  0.61762800  0.11762800  0.88237200  1
  S  S28  1  0.13428500  0.13428500  0.86571500  1
  S  S29  1  0.13428500  0.36571500  0.63428500  1
  S  S30  1  0.36571500  0.13428500  0.63428500  1
  S  S31  1  0.36571500  0.36571500  0.86571500  1
  S  S32  1  0.88237200  0.88237200  0.38237200  1
  S  S33  1  0.11762800  0.88237200  0.61762800  1
  S  S34  1  0.38237200  0.61762800  0.61762800  1
  S  S35  1  0.61762800  0.61762800  0.38237200  1
  S  S36  1  0.13428500  0.63428500  0.36571500  1
  S  S37  1  0.13428500  0.86571500  0.13428500  1
  S  S38  1  0.36571500  0.63428500  0.13428500  1
  S  S39  1  0.36571500  0.86571500  0.36571500  1
  S  S40  1  0.38237200  0.38237200  0.38237200  1
  S  S41  1  0.61762800  0.38237200  0.61762800  1
  S  S42  1  0.88237200  0.11762800  0.61762800  1
  S  S43  1  0.11762800  0.11762800  0.38237200  1
  S  S44  1  0.63428500  0.13428500  0.36571500  1
  S  S45  1  0.63428500  0.36571500  0.13428500  1
  S  S46  1  0.86571500  0.13428500  0.13428500  1
  S  S47  1  0.86571500  0.36571500  0.36571500  1
  S  S48  1  0.38237200  0.88237200  0.88237200  1
  S  S49  1  0.61762800  0.88237200  0.11762800  1
  S  S50  1  0.88237200  0.61762800  0.11762800  1
  S  S51  1  0.11762800  0.61762800  0.88237200  1
  S  S52  1  0.63428500  0.63428500  0.86571500  1
  S  S53  1  0.63428500  0.86571500  0.63428500  1
  S  S54  1  0.86571500  0.63428500  0.63428500  1
  S  S55  1  0.86571500  0.86571500  0.86571500  1
