# generated using pymatgen
data_Al2FeO4
_symmetry_space_group_name_H-M   'P 1'
_cell_length_a   5.82512951
_cell_length_b   5.82512951
_cell_length_c   14.31696400
_cell_angle_alpha   90.00000000
_cell_angle_beta   90.00000000
_cell_angle_gamma   120.00000000
_symmetry_Int_Tables_number   1
_chemical_formula_structural   Al2FeO4
_chemical_formula_sum   'Al12 Fe6 O24'
_cell_volume   420.71959163
_cell_formula_units_Z   6
loop_
 _symmetry_equiv_pos_site_id
 _symmetry_equiv_pos_as_xyz
  1  'x, y, z'
loop_
 _atom_site_type_symbol
 _atom_site_label
 _atom_site_symmetry_multiplicity
 _atom_site_fract_x
 _atom_site_fract_y
 _atom_site_fract_z
 _atom_site_occupancy
  Al  Al0  1  0.83001433  0.16998567  0.16832400  1
  Al  Al1  1  0.66195333  0.83097667  0.49866600  1
  Al  Al2  1  0.33997133  0.16998567  0.16832400  1
  Al  Al3  1  0.00000000  0.00000000  0.33346900  1
  Al  Al4  1  0.83001433  0.66002867  0.16832400  1
  Al  Al5  1  0.16902333  0.83097667  0.49866600  1
  Al  Al6  1  0.49711833  0.99423667  0.83149400  1
  Al  Al7  1  0.33333333  0.66666667  0.66460100  1
  Al  Al8  1  0.16902333  0.33804667  0.49866600  1
  Al  Al9  1  0.49711833  0.50288167  0.83149400  1
  Al  Al10  1  0.00576333  0.50288167  0.83149400  1
  Al  Al11  1  0.00000000  0.00000000  0.95531200  1
  Fe  Fe12  1  0.33333333  0.66666667  0.04327400  1
  Fe  Fe13  1  0.66666667  0.33333333  0.00223700  1
  Fe  Fe14  1  0.66666667  0.33333333  0.37660500  1
  Fe  Fe15  1  0.00000000  0.00000000  0.70786700  1
  Fe  Fe16  1  0.33333333  0.66666667  0.28764300  1
  Fe  Fe17  1  0.66666667  0.33333333  0.62568900  1
  O  O18  1  0.51065833  0.48934167  0.10088900  1
  O  O19  1  0.66666667  0.33333333  0.23828500  1
  O  O20  1  0.97868333  0.48934167  0.10088900  1
  O  O21  1  0.51065833  0.02131667  0.10088900  1
  O  O22  1  0.85422033  0.14577967  0.42295500  1
  O  O23  1  0.14272833  0.28545667  0.24529000  1
  O  O24  1  0.71454333  0.85727167  0.24529000  1
  O  O25  1  0.00000000  0.00000000  0.56800200  1
  O  O26  1  0.29155933  0.14577967  0.42295500  1
  O  O27  1  0.00000000  0.00000000  0.08400800  1
  O  O28  1  0.85422033  0.70844067  0.42295500  1
  O  O29  1  0.14272833  0.85727167  0.24529000  1
  O  O30  1  0.18798933  0.81201067  0.75337000  1
  O  O31  1  0.47769383  0.95538767  0.57730800  1
  O  O32  1  0.04461233  0.52230617  0.57730800  1
  O  O33  1  0.33333333  0.66666667  0.90119500  1
  O  O34  1  0.62402133  0.81201067  0.75337000  1
  O  O35  1  0.33333333  0.66666667  0.43119300  1
  O  O36  1  0.18798933  0.37597867  0.75337000  1
  O  O37  1  0.47769383  0.52230617  0.57730800  1
  O  O38  1  0.83243333  0.66486667  0.90587200  1
  O  O39  1  0.33513333  0.16756667  0.90587200  1
  O  O40  1  0.66666667  0.33333333  0.77040600  1
  O  O41  1  0.83243333  0.16756667  0.90587200  1
