# generated using pymatgen
data_Pr2Zn17
_symmetry_space_group_name_H-M   'P 1'
_cell_length_a   9.07974925
_cell_length_b   9.07974925
_cell_length_c   13.33369196
_cell_angle_alpha   90.00000000
_cell_angle_beta   90.00000000
_cell_angle_gamma   120.00000000
_symmetry_Int_Tables_number   1
_chemical_formula_structural   Pr2Zn17
_chemical_formula_sum   'Pr6 Zn51'
_cell_volume   951.98204889
_cell_formula_units_Z   3
loop_
 _symmetry_equiv_pos_site_id
 _symmetry_equiv_pos_as_xyz
  1  'x, y, z'
loop_
 _atom_site_type_symbol
 _atom_site_label
 _atom_site_symmetry_multiplicity
 _atom_site_fract_x
 _atom_site_fract_y
 _atom_site_fract_z
 _atom_site_occupancy
  Pr  Pr0  1  0.33333333  0.66666667  0.33084167  1
  Pr  Pr1  1  0.33333333  0.66666667  0.00249167  1
  Pr  Pr2  1  0.00000000  0.00000000  0.66417500  1
  Pr  Pr3  1  0.00000000  0.00000000  0.33582500  1
  Pr  Pr4  1  0.66666667  0.33333333  0.99750833  1
  Pr  Pr5  1  0.66666667  0.33333333  0.66915833  1
  Zn  Zn6  1  0.17025233  0.82974767  0.17950467  1
  Zn  Zn7  1  0.17025233  0.34050467  0.17950467  1
  Zn  Zn8  1  0.33333333  0.66666667  0.76521867  1
  Zn  Zn9  1  0.33333333  0.66666667  0.56811467  1
  Zn  Zn10  1  0.16666667  0.83333333  0.83333333  1
  Zn  Zn11  1  0.33333333  0.16666667  0.16666667  1
  Zn  Zn12  1  0.83333333  0.66666667  0.16666667  1
  Zn  Zn13  1  0.37404167  0.04070833  0.33333333  1
  Zn  Zn14  1  0.00000000  0.29262500  0.00000000  1
  Zn  Zn15  1  0.29262500  1.00000000  0.00000000  1
  Zn  Zn16  1  0.95929167  0.62595833  0.33333333  1
  Zn  Zn17  1  0.00000000  0.70737500  0.00000000  1
  Zn  Zn18  1  0.70737500  1.00000000  0.00000000  1
  Zn  Zn19  1  0.49641433  0.99282867  0.15382867  1
  Zn  Zn20  1  0.49641433  0.50358567  0.15382867  1
  Zn  Zn21  1  0.00717133  0.50358567  0.15382867  1
  Zn  Zn22  1  0.65949533  0.82974767  0.17950467  1
  Zn  Zn23  1  0.83691900  0.16308100  0.51283800  1
  Zn  Zn24  1  0.83691900  0.67383800  0.51283800  1
  Zn  Zn25  1  0.00000000  0.00000000  0.09855200  1
  Zn  Zn26  1  0.00000000  0.00000000  0.90144800  1
  Zn  Zn27  1  0.83333333  0.16666667  0.16666667  1
  Zn  Zn28  1  0.00000000  0.50000000  0.50000000  1
  Zn  Zn29  1  0.50000000  0.00000000  0.50000000  1
  Zn  Zn30  1  0.04070833  0.37404167  0.66666667  1
  Zn  Zn31  1  0.66666667  0.62595833  0.33333333  1
  Zn  Zn32  1  0.95929167  0.33333333  0.33333333  1
  Zn  Zn33  1  0.62595833  0.95929167  0.66666667  1
  Zn  Zn34  1  0.66666667  0.04070833  0.33333333  1
  Zn  Zn35  1  0.37404167  0.33333333  0.33333333  1
  Zn  Zn36  1  0.16308100  0.32616200  0.48716200  1
  Zn  Zn37  1  0.16308100  0.83691900  0.48716200  1
  Zn  Zn38  1  0.67383800  0.83691900  0.48716200  1
  Zn  Zn39  1  0.32616200  0.16308100  0.51283800  1
  Zn  Zn40  1  0.50358567  0.49641433  0.84617133  1
  Zn  Zn41  1  0.50358567  0.00717133  0.84617133  1
  Zn  Zn42  1  0.66666667  0.33333333  0.43188533  1
  Zn  Zn43  1  0.66666667  0.33333333  0.23478133  1
  Zn  Zn44  1  0.50000000  0.50000000  0.50000000  1
  Zn  Zn45  1  0.66666667  0.83333333  0.83333333  1
  Zn  Zn46  1  0.16666667  0.33333333  0.83333333  1
  Zn  Zn47  1  0.70737500  0.70737500  0.00000000  1
  Zn  Zn48  1  0.33333333  0.95929167  0.66666667  1
  Zn  Zn49  1  0.62595833  0.66666667  0.66666667  1
  Zn  Zn50  1  0.29262500  0.29262500  0.00000000  1
  Zn  Zn51  1  0.33333333  0.37404167  0.66666667  1
  Zn  Zn52  1  0.04070833  0.66666667  0.66666667  1
  Zn  Zn53  1  0.82974767  0.65949533  0.82049533  1
  Zn  Zn54  1  0.82974767  0.17025233  0.82049533  1
  Zn  Zn55  1  0.34050467  0.17025233  0.82049533  1
  Zn  Zn56  1  0.99282867  0.49641433  0.84617133  1
