# generated using pymatgen
data_NaPb
_symmetry_space_group_name_H-M   'P 1'
_cell_length_a   10.67360800
_cell_length_b   10.67360800
_cell_length_c   18.05861200
_cell_angle_alpha   90.00000000
_cell_angle_beta   90.00000000
_cell_angle_gamma   90.00000000
_symmetry_Int_Tables_number   1
_chemical_formula_structural   NaPb
_chemical_formula_sum   'Na32 Pb32'
_cell_volume   2057.34376458
_cell_formula_units_Z   32
loop_
 _symmetry_equiv_pos_site_id
 _symmetry_equiv_pos_as_xyz
  1  'x, y, z'
loop_
 _atom_site_type_symbol
 _atom_site_label
 _atom_site_symmetry_multiplicity
 _atom_site_fract_x
 _atom_site_fract_y
 _atom_site_fract_z
 _atom_site_occupancy
  Na  Na0  1  0.25000000  0.11860200  0.12500000  1
  Na  Na1  1  0.88139800  0.75000000  0.37500000  1
  Na  Na2  1  0.11860200  0.25000000  0.37500000  1
  Na  Na3  1  0.75000000  0.88139800  0.12500000  1
  Na  Na4  1  0.75000000  0.38139800  0.12500000  1
  Na  Na5  1  0.61860200  0.25000000  0.37500000  1
  Na  Na6  1  0.38139800  0.75000000  0.37500000  1
  Na  Na7  1  0.25000000  0.61860200  0.12500000  1
  Na  Na8  1  0.62522850  0.62522850  0.25000000  1
  Na  Na9  1  0.87477150  0.62522850  0.00000000  1
  Na  Na10  1  0.12522850  0.37477150  0.00000000  1
  Na  Na11  1  0.37477150  0.37477150  0.25000000  1
  Na  Na12  1  0.37477150  0.87477150  0.00000000  1
  Na  Na13  1  0.12522850  0.87477150  0.25000000  1
  Na  Na14  1  0.87477150  0.12522850  0.25000000  1
  Na  Na15  1  0.12522850  0.62522850  0.50000000  1
  Na  Na16  1  0.75000000  0.61860200  0.62500000  1
  Na  Na17  1  0.38139800  0.25000000  0.87500000  1
  Na  Na18  1  0.61860200  0.75000000  0.87500000  1
  Na  Na19  1  0.25000000  0.38139800  0.62500000  1
  Na  Na20  1  0.25000000  0.88139800  0.62500000  1
  Na  Na21  1  0.11860200  0.75000000  0.87500000  1
  Na  Na22  1  0.88139800  0.25000000  0.87500000  1
  Na  Na23  1  0.75000000  0.11860200  0.62500000  1
  Na  Na24  1  0.12522850  0.12522850  0.75000000  1
  Na  Na25  1  0.37477150  0.12522850  0.50000000  1
  Na  Na26  1  0.62522850  0.87477150  0.50000000  1
  Na  Na27  1  0.87477150  0.87477150  0.75000000  1
  Na  Na28  1  0.87477150  0.37477150  0.50000000  1
  Na  Na29  1  0.62522850  0.37477150  0.75000000  1
  Na  Na30  1  0.37477150  0.62522850  0.75000000  1
  Na  Na31  1  0.62522850  0.12522850  0.00000000  1
  Pb  Pb32  1  0.07014400  0.86830000  0.06384700  1
  Pb  Pb33  1  0.13170000  0.57014400  0.31384700  1
  Pb  Pb34  1  0.86830000  0.42985600  0.31384700  1
  Pb  Pb35  1  0.57014400  0.13170000  0.18615300  1
  Pb  Pb36  1  0.42985600  0.86830000  0.18615300  1
  Pb  Pb37  1  0.86830000  0.07014400  0.43615300  1
  Pb  Pb38  1  0.13170000  0.92985600  0.43615300  1
  Pb  Pb39  1  0.92985600  0.13170000  0.06384700  1
  Pb  Pb40  1  0.92985600  0.63170000  0.18615300  1
  Pb  Pb41  1  0.36830000  0.42985600  0.43615300  1
  Pb  Pb42  1  0.63170000  0.57014400  0.43615300  1
  Pb  Pb43  1  0.42985600  0.36830000  0.06384700  1
  Pb  Pb44  1  0.57014400  0.63170000  0.06384700  1
  Pb  Pb45  1  0.63170000  0.92985600  0.31384700  1
  Pb  Pb46  1  0.36830000  0.07014400  0.31384700  1
  Pb  Pb47  1  0.07014400  0.36830000  0.18615300  1
  Pb  Pb48  1  0.57014400  0.36830000  0.56384700  1
  Pb  Pb49  1  0.63170000  0.07014400  0.81384700  1
  Pb  Pb50  1  0.36830000  0.92985600  0.81384700  1
  Pb  Pb51  1  0.07014400  0.63170000  0.68615300  1
  Pb  Pb52  1  0.92985600  0.36830000  0.68615300  1
  Pb  Pb53  1  0.36830000  0.57014400  0.93615300  1
  Pb  Pb54  1  0.63170000  0.42985600  0.93615300  1
  Pb  Pb55  1  0.42985600  0.63170000  0.56384700  1
  Pb  Pb56  1  0.42985600  0.13170000  0.68615300  1
  Pb  Pb57  1  0.86830000  0.92985600  0.93615300  1
  Pb  Pb58  1  0.13170000  0.07014400  0.93615300  1
  Pb  Pb59  1  0.92985600  0.86830000  0.56384700  1
  Pb  Pb60  1  0.07014400  0.13170000  0.56384700  1
  Pb  Pb61  1  0.13170000  0.42985600  0.81384700  1
  Pb  Pb62  1  0.86830000  0.57014400  0.81384700  1
  Pb  Pb63  1  0.57014400  0.86830000  0.68615300  1
