# generated using pymatgen
data_V(PO3)4
_symmetry_space_group_name_H-M   'P 1'
_cell_length_a   9.70861200
_cell_length_b   13.68719200
_cell_length_c   7.78969517
_cell_angle_alpha   90.00000000
_cell_angle_beta   103.73667573
_cell_angle_gamma   90.00000000
_symmetry_Int_Tables_number   1
_chemical_formula_structural   V(PO3)4
_chemical_formula_sum   'V4 P16 O48'
_cell_volume   1005.51572729
_cell_formula_units_Z   4
loop_
 _symmetry_equiv_pos_site_id
 _symmetry_equiv_pos_as_xyz
  1  'x, y, z'
loop_
 _atom_site_type_symbol
 _atom_site_label
 _atom_site_symmetry_multiplicity
 _atom_site_fract_x
 _atom_site_fract_y
 _atom_site_fract_z
 _atom_site_occupancy
  V  V0  1  0.50000000  0.36699800  0.75000000  1
  V  V1  1  0.50000000  0.63300200  0.25000000  1
  V  V2  1  0.00000000  0.86699800  0.75000000  1
  V  V3  1  0.00000000  0.13300200  0.25000000  1
  P  P4  1  0.12377600  0.08185300  0.67112200  1
  P  P5  1  0.41238100  0.16226600  0.87861200  1
  P  P6  1  0.58761900  0.16226600  0.62138800  1
  P  P7  1  0.12377600  0.91814700  0.17112200  1
  P  P8  1  0.87622400  0.08185300  0.82887800  1
  P  P9  1  0.41238100  0.83773400  0.37861200  1
  P  P10  1  0.58761900  0.83773400  0.12138800  1
  P  P11  1  0.87622400  0.91814700  0.32887800  1
  P  P12  1  0.62377600  0.58185300  0.67112200  1
  P  P13  1  0.91238100  0.66226600  0.87861200  1
  P  P14  1  0.08761900  0.66226600  0.62138800  1
  P  P15  1  0.62377600  0.41814700  0.17112200  1
  P  P16  1  0.37622400  0.58185300  0.82887800  1
  P  P17  1  0.91238100  0.33773400  0.37861200  1
  P  P18  1  0.08761900  0.33773400  0.12138800  1
  P  P19  1  0.37622400  0.41814700  0.32887800  1
  O  O20  1  0.50000000  0.37128100  0.25000000  1
  O  O21  1  0.38507400  0.26934500  0.80909000  1
  O  O22  1  0.62498600  0.62747300  0.49519300  1
  O  O23  1  0.25948000  0.11013700  0.81537300  1
  O  O24  1  0.61492600  0.26934500  0.69091000  1
  O  O25  1  0.10994100  0.02858200  0.17234300  1
  O  O26  1  0.10994100  0.97141800  0.67234300  1
  O  O27  1  0.47133450  0.14499250  0.06625300  1
  O  O28  1  0.50000000  0.11198600  0.75000000  1
  O  O29  1  0.52866550  0.14499250  0.43374700  1
  O  O30  1  0.62498600  0.37252700  0.99519300  1
  O  O31  1  0.74052000  0.11013700  0.68462700  1
  O  O32  1  0.25948000  0.88986300  0.31537300  1
  O  O33  1  0.37501400  0.62747300  0.00480700  1
  O  O34  1  0.47133450  0.85500750  0.56625300  1
  O  O35  1  0.50000000  0.88801400  0.25000000  1
  O  O36  1  0.52866550  0.85500750  0.93374700  1
  O  O37  1  0.89005900  0.02858200  0.32765700  1
  O  O38  1  0.89005900  0.97141800  0.82765700  1
  O  O39  1  0.38507400  0.73065500  0.30909000  1
  O  O40  1  0.74052000  0.88986300  0.18462700  1
  O  O41  1  0.37501400  0.37252700  0.50480700  1
  O  O42  1  0.61492600  0.73065500  0.19091000  1
  O  O43  1  0.50000000  0.62871900  0.75000000  1
  O  O44  1  0.00000000  0.87128100  0.25000000  1
  O  O45  1  0.88507400  0.76934500  0.80909000  1
  O  O46  1  0.12498600  0.12747300  0.49519300  1
  O  O47  1  0.75948000  0.61013700  0.81537300  1
  O  O48  1  0.11492600  0.76934500  0.69091000  1
  O  O49  1  0.60994100  0.52858200  0.17234300  1
  O  O50  1  0.60994100  0.47141800  0.67234300  1
  O  O51  1  0.97133450  0.64499250  0.06625300  1
  O  O52  1  0.00000000  0.61198600  0.75000000  1
  O  O53  1  0.02866550  0.64499250  0.43374700  1
  O  O54  1  0.12498600  0.87252700  0.99519300  1
  O  O55  1  0.24052000  0.61013700  0.68462700  1
  O  O56  1  0.75948000  0.38986300  0.31537300  1
  O  O57  1  0.87501400  0.12747300  0.00480700  1
  O  O58  1  0.97133450  0.35500750  0.56625300  1
  O  O59  1  0.00000000  0.38801400  0.25000000  1
  O  O60  1  0.02866550  0.35500750  0.93374700  1
  O  O61  1  0.39005900  0.52858200  0.32765700  1
  O  O62  1  0.39005900  0.47141800  0.82765700  1
  O  O63  1  0.88507400  0.23065500  0.30909000  1
  O  O64  1  0.24052000  0.38986300  0.18462700  1
  O  O65  1  0.87501400  0.87252700  0.50480700  1
  O  O66  1  0.11492600  0.23065500  0.19091000  1
  O  O67  1  0.00000000  0.12871900  0.75000000  1
