# generated using pymatgen
data_TbAl3
_symmetry_space_group_name_H-M   'P 1'
_cell_length_a   6.20878363
_cell_length_b   6.20878363
_cell_length_c   21.21126900
_cell_angle_alpha   90.00000000
_cell_angle_beta   90.00000000
_cell_angle_gamma   120.00000000
_symmetry_Int_Tables_number   1
_chemical_formula_structural   TbAl3
_chemical_formula_sum   'Tb9 Al27'
_cell_volume   708.12566409
_cell_formula_units_Z   9
loop_
 _symmetry_equiv_pos_site_id
 _symmetry_equiv_pos_as_xyz
  1  'x, y, z'
loop_
 _atom_site_type_symbol
 _atom_site_label
 _atom_site_symmetry_multiplicity
 _atom_site_fract_x
 _atom_site_fract_y
 _atom_site_fract_z
 _atom_site_occupancy
  Tb  Tb0  1  0.66666667  0.33333333  0.11529233  1
  Tb  Tb1  1  0.00000000  0.00000000  0.21804100  1
  Tb  Tb2  1  0.00000000  0.00000000  0.00000000  1
  Tb  Tb3  1  0.33333333  0.66666667  0.44862567  1
  Tb  Tb4  1  0.66666667  0.33333333  0.55137433  1
  Tb  Tb5  1  0.66666667  0.33333333  0.33333333  1
  Tb  Tb6  1  0.00000000  0.00000000  0.78195900  1
  Tb  Tb7  1  0.33333333  0.66666667  0.88470767  1
  Tb  Tb8  1  0.33333333  0.66666667  0.66666667  1
  Al  Al9  1  0.47978200  0.95956400  0.22302500  1
  Al  Al10  1  0.04043600  0.52021800  0.22302500  1
  Al  Al11  1  0.47978200  0.52021800  0.22302500  1
  Al  Al12  1  0.50000000  0.00000000  0.00000000  1
  Al  Al13  1  0.50000000  0.50000000  0.00000000  1
  Al  Al14  1  0.00000000  0.50000000  0.00000000  1
  Al  Al15  1  0.62623067  0.81311533  0.11030833  1
  Al  Al16  1  0.18688467  0.37376933  0.11030833  1
  Al  Al17  1  0.18688467  0.81311533  0.11030833  1
  Al  Al18  1  0.14644867  0.29289733  0.55635833  1
  Al  Al19  1  0.70710267  0.85355133  0.55635833  1
  Al  Al20  1  0.14644867  0.85355133  0.55635833  1
  Al  Al21  1  0.16666667  0.33333333  0.33333333  1
  Al  Al22  1  0.16666667  0.83333333  0.33333333  1
  Al  Al23  1  0.66666667  0.83333333  0.33333333  1
  Al  Al24  1  0.29289733  0.14644867  0.44364167  1
  Al  Al25  1  0.85355133  0.70710267  0.44364167  1
  Al  Al26  1  0.85355133  0.14644867  0.44364167  1
  Al  Al27  1  0.81311533  0.62623067  0.88969167  1
  Al  Al28  1  0.37376933  0.18688467  0.88969167  1
  Al  Al29  1  0.81311533  0.18688467  0.88969167  1
  Al  Al30  1  0.83333333  0.66666667  0.66666667  1
  Al  Al31  1  0.83333333  0.16666667  0.66666667  1
  Al  Al32  1  0.33333333  0.16666667  0.66666667  1
  Al  Al33  1  0.95956400  0.47978200  0.77697500  1
  Al  Al34  1  0.52021800  0.04043600  0.77697500  1
  Al  Al35  1  0.52021800  0.47978200  0.77697500  1
