# generated using pymatgen
data_LiMn2P3O10
_symmetry_space_group_name_H-M   'P 1'
_cell_length_a   14.13706881
_cell_length_b   8.69506400
_cell_length_c   9.10564534
_cell_angle_alpha   90.00000000
_cell_angle_beta   123.03055855
_cell_angle_gamma   90.00000000
_symmetry_Int_Tables_number   1
_chemical_formula_structural   LiMn2P3O10
_chemical_formula_sum   'Li4 Mn8 P12 O40'
_cell_volume   938.39087909
_cell_formula_units_Z   4
loop_
 _symmetry_equiv_pos_site_id
 _symmetry_equiv_pos_as_xyz
  1  'x, y, z'
loop_
 _atom_site_type_symbol
 _atom_site_label
 _atom_site_symmetry_multiplicity
 _atom_site_fract_x
 _atom_site_fract_y
 _atom_site_fract_z
 _atom_site_occupancy
  Li  Li0  1  0.00000000  0.41112000  0.25000000  1
  Li  Li1  1  0.00000000  0.58888000  0.75000000  1
  Li  Li2  1  0.50000000  0.91112000  0.25000000  1
  Li  Li3  1  0.50000000  0.08888000  0.75000000  1
  Mn  Mn4  1  0.76970850  0.47812350  0.45429200  1
  Mn  Mn5  1  0.76970850  0.52187650  0.95429200  1
  Mn  Mn6  1  0.23029150  0.47812350  0.04570800  1
  Mn  Mn7  1  0.23029150  0.52187650  0.54570800  1
  Mn  Mn8  1  0.26970850  0.97812350  0.45429200  1
  Mn  Mn9  1  0.26970850  0.02187650  0.95429200  1
  Mn  Mn10  1  0.73029150  0.97812350  0.04570800  1
  Mn  Mn11  1  0.73029150  0.02187650  0.54570800  1
  P  P12  1  0.62793150  0.80261050  0.68361000  1
  P  P13  1  0.50000000  0.58049300  0.75000000  1
  P  P14  1  0.62793150  0.19738950  0.18361000  1
  P  P15  1  0.37206850  0.80261050  0.81639000  1
  P  P16  1  0.37206850  0.19738950  0.31639000  1
  P  P17  1  0.50000000  0.41950700  0.25000000  1
  P  P18  1  0.12793150  0.30261050  0.68361000  1
  P  P19  1  0.00000000  0.08049300  0.75000000  1
  P  P20  1  0.12793150  0.69738950  0.18361000  1
  P  P21  1  0.87206850  0.30261050  0.81639000  1
  P  P22  1  0.87206850  0.69738950  0.31639000  1
  P  P23  1  0.00000000  0.91950700  0.25000000  1
  O  O24  1  0.39447750  0.48990650  0.62988100  1
  O  O25  1  0.26525750  0.70842350  0.70207700  1
  O  O26  1  0.39447750  0.51009350  0.12988100  1
  O  O27  1  0.61239600  0.85630100  0.51130000  1
  O  O28  1  0.60552250  0.51009350  0.37011900  1
  O  O29  1  0.73474250  0.29157650  0.29792300  1
  O  O30  1  0.60552250  0.48990650  0.87011900  1
  O  O31  1  0.38760400  0.14369900  0.48870000  1
  O  O32  1  0.73474250  0.70842350  0.79792300  1
  O  O33  1  0.37981450  0.05968650  0.21690000  1
  O  O34  1  0.48158450  0.30622450  0.37339000  1
  O  O35  1  0.38760400  0.85630100  0.98870000  1
  O  O36  1  0.87981450  0.44031350  0.71690000  1
  O  O37  1  0.51841550  0.30622450  0.12661000  1
  O  O38  1  0.48158450  0.69377550  0.87339000  1
  O  O39  1  0.12018550  0.55968650  0.28310000  1
  O  O40  1  0.61239600  0.14369900  0.01130000  1
  O  O41  1  0.51841550  0.69377550  0.62661000  1
  O  O42  1  0.62018550  0.94031350  0.78310000  1
  O  O43  1  0.26525750  0.29157650  0.20207700  1
  O  O44  1  0.89447750  0.98990650  0.62988100  1
  O  O45  1  0.76525750  0.20842350  0.70207700  1
  O  O46  1  0.89447750  0.01009350  0.12988100  1
  O  O47  1  0.11239600  0.35630100  0.51130000  1
  O  O48  1  0.10552250  0.01009350  0.37011900  1
  O  O49  1  0.23474250  0.79157650  0.29792300  1
  O  O50  1  0.10552250  0.98990650  0.87011900  1
  O  O51  1  0.88760400  0.64369900  0.48870000  1
  O  O52  1  0.23474250  0.20842350  0.79792300  1
  O  O53  1  0.87981450  0.55968650  0.21690000  1
  O  O54  1  0.98158450  0.80622450  0.37339000  1
  O  O55  1  0.88760400  0.35630100  0.98870000  1
  O  O56  1  0.37981450  0.94031350  0.71690000  1
  O  O57  1  0.01841550  0.80622450  0.12661000  1
  O  O58  1  0.98158450  0.19377550  0.87339000  1
  O  O59  1  0.62018550  0.05968650  0.28310000  1
  O  O60  1  0.11239600  0.64369900  0.01130000  1
  O  O61  1  0.01841550  0.19377550  0.62661000  1
  O  O62  1  0.12018550  0.44031350  0.78310000  1
  O  O63  1  0.76525750  0.79157650  0.20207700  1
