# generated using pymatgen
data_La3PbI3
_symmetry_space_group_name_H-M   'P 1'
_cell_length_a   13.07045200
_cell_length_b   13.07045200
_cell_length_c   13.07045200
_cell_angle_alpha   90.00000000
_cell_angle_beta   90.00000000
_cell_angle_gamma   90.00000000
_symmetry_Int_Tables_number   1
_chemical_formula_structural   La3PbI3
_chemical_formula_sum   'La24 Pb8 I24'
_cell_volume   2232.91308958
_cell_formula_units_Z   8
loop_
 _symmetry_equiv_pos_site_id
 _symmetry_equiv_pos_as_xyz
  1  'x, y, z'
loop_
 _atom_site_type_symbol
 _atom_site_label
 _atom_site_symmetry_multiplicity
 _atom_site_fract_x
 _atom_site_fract_y
 _atom_site_fract_z
 _atom_site_occupancy
  La  La0  1  0.87500000  0.38198600  0.36801400  1
  La  La1  1  0.13198600  0.87500000  0.61801400  1
  La  La2  1  0.12500000  0.88198600  0.13198600  1
  La  La3  1  0.88198600  0.13198600  0.12500000  1
  La  La4  1  0.38198600  0.36801400  0.87500000  1
  La  La5  1  0.36801400  0.87500000  0.38198600  1
  La  La6  1  0.36801400  0.12500000  0.11801400  1
  La  La7  1  0.12500000  0.11801400  0.36801400  1
  La  La8  1  0.87500000  0.61801400  0.13198600  1
  La  La9  1  0.11801400  0.36801400  0.12500000  1
  La  La10  1  0.13198600  0.12500000  0.88198600  1
  La  La11  1  0.61801400  0.13198600  0.87500000  1
  La  La12  1  0.37500000  0.88198600  0.86801400  1
  La  La13  1  0.63198600  0.37500000  0.11801400  1
  La  La14  1  0.62500000  0.38198600  0.63198600  1
  La  La15  1  0.38198600  0.63198600  0.62500000  1
  La  La16  1  0.88198600  0.86801400  0.37500000  1
  La  La17  1  0.86801400  0.37500000  0.88198600  1
  La  La18  1  0.86801400  0.62500000  0.61801400  1
  La  La19  1  0.62500000  0.61801400  0.86801400  1
  La  La20  1  0.37500000  0.11801400  0.63198600  1
  La  La21  1  0.61801400  0.86801400  0.62500000  1
  La  La22  1  0.63198600  0.62500000  0.38198600  1
  La  La23  1  0.11801400  0.63198600  0.37500000  1
  Pb  Pb24  1  0.37500000  0.12500000  0.87500000  1
  Pb  Pb25  1  0.12500000  0.87500000  0.37500000  1
  Pb  Pb26  1  0.87500000  0.37500000  0.12500000  1
  Pb  Pb27  1  0.12500000  0.12500000  0.12500000  1
  Pb  Pb28  1  0.87500000  0.62500000  0.37500000  1
  Pb  Pb29  1  0.62500000  0.37500000  0.87500000  1
  Pb  Pb30  1  0.37500000  0.87500000  0.62500000  1
  Pb  Pb31  1  0.62500000  0.62500000  0.62500000  1
  I  I32  1  0.11952100  0.13047900  0.62500000  1
  I  I33  1  0.36952100  0.62500000  0.88047900  1
  I  I34  1  0.62500000  0.88047900  0.36952100  1
  I  I35  1  0.37500000  0.38047900  0.13047900  1
  I  I36  1  0.38047900  0.13047900  0.37500000  1
  I  I37  1  0.13047900  0.37500000  0.38047900  1
  I  I38  1  0.13047900  0.62500000  0.11952100  1
  I  I39  1  0.62500000  0.11952100  0.13047900  1
  I  I40  1  0.37500000  0.61952100  0.36952100  1
  I  I41  1  0.88047900  0.36952100  0.62500000  1
  I  I42  1  0.36952100  0.37500000  0.61952100  1
  I  I43  1  0.61952100  0.36952100  0.37500000  1
  I  I44  1  0.61952100  0.63047900  0.12500000  1
  I  I45  1  0.86952100  0.12500000  0.38047900  1
  I  I46  1  0.12500000  0.38047900  0.86952100  1
  I  I47  1  0.87500000  0.88047900  0.63047900  1
  I  I48  1  0.88047900  0.63047900  0.87500000  1
  I  I49  1  0.63047900  0.87500000  0.88047900  1
  I  I50  1  0.63047900  0.12500000  0.61952100  1
  I  I51  1  0.12500000  0.61952100  0.63047900  1
  I  I52  1  0.87500000  0.11952100  0.86952100  1
  I  I53  1  0.38047900  0.86952100  0.12500000  1
  I  I54  1  0.86952100  0.87500000  0.11952100  1
  I  I55  1  0.11952100  0.86952100  0.87500000  1
