# generated using pymatgen
data_Ni7(PO4)6
_symmetry_space_group_name_H-M   'P 1'
_cell_length_a   10.68973548
_cell_length_b   14.07279311
_cell_length_c   6.53172307
_cell_angle_alpha   90.00000000
_cell_angle_beta   104.33437490
_cell_angle_gamma   90.00000000
_symmetry_Int_Tables_number   1
_chemical_formula_structural   Ni7(PO4)6
_chemical_formula_sum   'Ni14 P12 O48'
_cell_volume   952.00527260
_cell_formula_units_Z   2
loop_
 _symmetry_equiv_pos_site_id
 _symmetry_equiv_pos_as_xyz
  1  'x, y, z'
loop_
 _atom_site_type_symbol
 _atom_site_label
 _atom_site_symmetry_multiplicity
 _atom_site_fract_x
 _atom_site_fract_y
 _atom_site_fract_z
 _atom_site_occupancy
  Ni  Ni0  1  0.66326268  0.69250222  0.80986511  1
  Ni  Ni1  1  0.50000000  0.88215426  0.00000000  1
  Ni  Ni2  1  0.33673732  0.30749778  0.19013489  1
  Ni  Ni3  1  0.50000000  0.11784574  0.00000000  1
  Ni  Ni4  1  0.00000000  0.00000000  0.00000000  1
  Ni  Ni5  1  0.33673732  0.69250222  0.19013489  1
  Ni  Ni6  1  0.66326268  0.30749778  0.80986511  1
  Ni  Ni7  1  0.16326268  0.19250222  0.80986511  1
  Ni  Ni8  1  0.00000000  0.38215426  0.00000000  1
  Ni  Ni9  1  0.83673732  0.80749778  0.19013489  1
  Ni  Ni10  1  0.00000000  0.61784574  0.00000000  1
  Ni  Ni11  1  0.50000000  0.50000000  0.00000000  1
  Ni  Ni12  1  0.83673732  0.19250222  0.19013489  1
  Ni  Ni13  1  0.16326268  0.80749778  0.80986511  1
  P  P14  1  0.58748968  0.30321754  0.27125709  1
  P  P15  1  0.41251032  0.30321754  0.72874291  1
  P  P16  1  0.69302771  0.00000000  0.98222015  1
  P  P17  1  0.30697229  0.00000000  0.01777985  1
  P  P18  1  0.58748968  0.69678246  0.27125709  1
  P  P19  1  0.41251032  0.69678246  0.72874291  1
  P  P20  1  0.08748968  0.80321754  0.27125709  1
  P  P21  1  0.91251032  0.80321754  0.72874291  1
  P  P22  1  0.19302771  0.50000000  0.98222015  1
  P  P23  1  0.80697229  0.50000000  0.01777985  1
  P  P24  1  0.08748968  0.19678246  0.27125709  1
  P  P25  1  0.91251032  0.19678246  0.72874291  1
  O  O26  1  0.33053799  0.31384942  0.49157665  1
  O  O27  1  0.49177627  0.61040910  0.20899583  1
  O  O28  1  0.66946201  0.31384942  0.50842335  1
  O  O29  1  0.50233811  0.78211995  0.76812610  1
  O  O30  1  0.30216042  0.90769936  0.87679788  1
  O  O31  1  0.49766189  0.78211995  0.23187390  1
  O  O32  1  0.50822373  0.61040910  0.79100417  1
  O  O33  1  0.49177627  0.38959090  0.20899583  1
  O  O34  1  0.68613731  0.29368063  0.13456160  1
  O  O35  1  0.50822373  0.38959090  0.79100417  1
  O  O36  1  0.33053799  0.68615058  0.49157665  1
  O  O37  1  0.49766189  0.21788005  0.23187390  1
  O  O38  1  0.69783958  0.09230064  0.12320212  1
  O  O39  1  0.50233811  0.21788005  0.76812610  1
  O  O40  1  0.68613731  0.70631937  0.13456160  1
  O  O41  1  0.80501126  0.00000000  0.87977080  1
  O  O42  1  0.69783958  0.90769936  0.12320212  1
  O  O43  1  0.55403957  0.00000000  0.83122190  1
  O  O44  1  0.31386269  0.70631937  0.86543840  1
  O  O45  1  0.66946201  0.68615058  0.50842335  1
  O  O46  1  0.44596043  0.00000000  0.16877810  1
  O  O47  1  0.30216042  0.09230064  0.87679788  1
  O  O48  1  0.19498874  0.00000000  0.12022920  1
  O  O49  1  0.31386269  0.29368063  0.86543840  1
  O  O50  1  0.83053799  0.81384942  0.49157665  1
  O  O51  1  0.99177627  0.11040910  0.20899583  1
  O  O52  1  0.16946201  0.81384942  0.50842335  1
  O  O53  1  0.00233811  0.28211995  0.76812610  1
  O  O54  1  0.80216042  0.40769936  0.87679788  1
  O  O55  1  0.99766189  0.28211995  0.23187390  1
  O  O56  1  0.00822373  0.11040910  0.79100417  1
  O  O57  1  0.99177627  0.88959090  0.20899583  1
  O  O58  1  0.18613731  0.79368063  0.13456160  1
  O  O59  1  0.00822373  0.88959090  0.79100417  1
  O  O60  1  0.83053799  0.18615058  0.49157665  1
  O  O61  1  0.99766189  0.71788005  0.23187390  1
  O  O62  1  0.19783958  0.59230064  0.12320212  1
  O  O63  1  0.00233811  0.71788005  0.76812610  1
  O  O64  1  0.18613731  0.20631937  0.13456160  1
  O  O65  1  0.30501126  0.50000000  0.87977080  1
  O  O66  1  0.19783958  0.40769936  0.12320212  1
  O  O67  1  0.05403957  0.50000000  0.83122190  1
  O  O68  1  0.81386269  0.20631937  0.86543840  1
  O  O69  1  0.16946201  0.18615058  0.50842335  1
  O  O70  1  0.94596043  0.50000000  0.16877810  1
  O  O71  1  0.80216042  0.59230064  0.87679788  1
  O  O72  1  0.69498874  0.50000000  0.12022920  1
  O  O73  1  0.81386269  0.79368063  0.86543840  1
