# generated using pymatgen
data_Ba5P5I3
_symmetry_space_group_name_H-M   'P 1'
_cell_length_a   43.15772200
_cell_length_b   4.60730800
_cell_length_c   9.57214164
_cell_angle_alpha   90.00000000
_cell_angle_beta   92.41911308
_cell_angle_gamma   90.00000000
_symmetry_Int_Tables_number   1
_chemical_formula_structural   Ba5P5I3
_chemical_formula_sum   'Ba20 P20 I12'
_cell_volume   1901.63718903
_cell_formula_units_Z   4
loop_
 _symmetry_equiv_pos_site_id
 _symmetry_equiv_pos_as_xyz
  1  'x, y, z'
loop_
 _atom_site_type_symbol
 _atom_site_label
 _atom_site_symmetry_multiplicity
 _atom_site_fract_x
 _atom_site_fract_y
 _atom_site_fract_z
 _atom_site_occupancy
  Ba  Ba0  1  0.55963300  0.50000000  0.79284600  1
  Ba  Ba1  1  0.94036700  0.00000000  0.20715400  1
  Ba  Ba2  1  0.54166200  0.50000000  0.35097200  1
  Ba  Ba3  1  0.95833800  0.00000000  0.64902800  1
  Ba  Ba4  1  0.63846700  0.00000000  0.58665400  1
  Ba  Ba5  1  0.86153300  0.50000000  0.41334600  1
  Ba  Ba6  1  0.65797100  0.00000000  0.04744000  1
  Ba  Ba7  1  0.84202900  0.50000000  0.95256000  1
  Ba  Ba8  1  0.73992000  0.00000000  0.77795100  1
  Ba  Ba9  1  0.76008000  0.50000000  0.22204900  1
  Ba  Ba10  1  0.05963300  0.00000000  0.79284600  1
  Ba  Ba11  1  0.44036700  0.50000000  0.20715400  1
  Ba  Ba12  1  0.04166200  0.00000000  0.35097200  1
  Ba  Ba13  1  0.45833800  0.50000000  0.64902800  1
  Ba  Ba14  1  0.13846700  0.50000000  0.58665400  1
  Ba  Ba15  1  0.36153300  0.00000000  0.41334600  1
  Ba  Ba16  1  0.15797100  0.50000000  0.04744000  1
  Ba  Ba17  1  0.34202900  0.00000000  0.95256000  1
  Ba  Ba18  1  0.23992000  0.50000000  0.77795100  1
  Ba  Ba19  1  0.26008000  0.00000000  0.22204900  1
  P  P20  1  0.70910800  0.50000000  0.97224900  1
  P  P21  1  0.79089200  0.00000000  0.02775100  1
  P  P22  1  0.67978400  0.50000000  0.78275100  1
  P  P23  1  0.82021600  0.00000000  0.21724900  1
  P  P24  1  0.63063700  0.50000000  0.82633800  1
  P  P25  1  0.86936300  0.00000000  0.17366200  1
  P  P26  1  0.56340000  0.00000000  0.55999200  1
  P  P27  1  0.93660000  0.50000000  0.44000800  1
  P  P28  1  0.51417900  0.00000000  0.60413200  1
  P  P29  1  0.98582100  0.50000000  0.39586800  1
  P  P30  1  0.20910800  0.00000000  0.97224900  1
  P  P31  1  0.29089200  0.50000000  0.02775100  1
  P  P32  1  0.17978400  0.00000000  0.78275100  1
  P  P33  1  0.32021600  0.50000000  0.21724900  1
  P  P34  1  0.13063700  0.00000000  0.82633800  1
  P  P35  1  0.36936300  0.50000000  0.17366200  1
  P  P36  1  0.06340000  0.50000000  0.55999200  1
  P  P37  1  0.43660000  0.00000000  0.44000800  1
  P  P38  1  0.01417900  0.50000000  0.60413200  1
  P  P39  1  0.48582100  0.00000000  0.39586800  1
  I  I40  1  0.62496900  0.50000000  0.29953800  1
  I  I41  1  0.87503100  0.00000000  0.70046200  1
  I  I42  1  0.71014800  0.00000000  0.39556400  1
  I  I43  1  0.78985200  0.50000000  0.60443600  1
  I  I44  1  0.55113900  0.00000000  0.06798100  1
  I  I45  1  0.94886100  0.50000000  0.93201900  1
  I  I46  1  0.12496900  0.00000000  0.29953800  1
  I  I47  1  0.37503100  0.50000000  0.70046200  1
  I  I48  1  0.21014800  0.50000000  0.39556400  1
  I  I49  1  0.28985200  0.00000000  0.60443600  1
  I  I50  1  0.05113900  0.50000000  0.06798100  1
  I  I51  1  0.44886100  0.00000000  0.93201900  1
