# generated using pymatgen
data_UCuP2
_symmetry_space_group_name_H-M   'P 1'
_cell_length_a   3.77108800
_cell_length_b   3.77108800
_cell_length_c   18.57573000
_cell_angle_alpha   90.00000000
_cell_angle_beta   90.00000000
_cell_angle_gamma   90.00000000
_symmetry_Int_Tables_number   1
_chemical_formula_structural   UCuP2
_chemical_formula_sum   'U4 Cu4 P8'
_cell_volume   264.16740128
_cell_formula_units_Z   4
loop_
 _symmetry_equiv_pos_site_id
 _symmetry_equiv_pos_as_xyz
  1  'x, y, z'
loop_
 _atom_site_type_symbol
 _atom_site_label
 _atom_site_symmetry_multiplicity
 _atom_site_fract_x
 _atom_site_fract_y
 _atom_site_fract_z
 _atom_site_occupancy
  U  U0  1  0.50000000  0.50000000  0.39068800  1
  U  U1  1  0.00000000  0.00000000  0.10931200  1
  U  U2  1  0.00000000  0.00000000  0.89068800  1
  U  U3  1  0.50000000  0.50000000  0.60931200  1
  Cu  Cu4  1  0.00000000  0.50000000  0.25000000  1
  Cu  Cu5  1  0.50000000  0.00000000  0.25000000  1
  Cu  Cu6  1  0.50000000  0.00000000  0.75000000  1
  Cu  Cu7  1  0.00000000  0.50000000  0.75000000  1
  P  P8  1  0.50000000  0.00000000  0.00000000  1
  P  P9  1  0.00000000  0.50000000  0.00000000  1
  P  P10  1  0.50000000  0.50000000  0.16810700  1
  P  P11  1  0.00000000  0.00000000  0.33189300  1
  P  P12  1  0.00000000  0.50000000  0.50000000  1
  P  P13  1  0.50000000  0.00000000  0.50000000  1
  P  P14  1  0.00000000  0.00000000  0.66810700  1
  P  P15  1  0.50000000  0.50000000  0.83189300  1
