# generated using pymatgen
data_LiNiPO4
_symmetry_space_group_name_H-M   'P 1'
_cell_length_a   5.42661150
_cell_length_b   8.23720900
_cell_length_c   6.19438800
_cell_angle_alpha   90.00000000
_cell_angle_beta   90.00000000
_cell_angle_gamma   90.00000000
_symmetry_Int_Tables_number   1
_chemical_formula_structural   LiNiPO4
_chemical_formula_sum   'Li4 Ni4 P4 O16'
_cell_volume   276.88996801
_cell_formula_units_Z   4
loop_
 _symmetry_equiv_pos_site_id
 _symmetry_equiv_pos_as_xyz
  1  'x, y, z'
loop_
 _atom_site_type_symbol
 _atom_site_label
 _atom_site_symmetry_multiplicity
 _atom_site_fract_x
 _atom_site_fract_y
 _atom_site_fract_z
 _atom_site_occupancy
  Li  Li0  1  0.00000000  0.17080175  0.25000000  1
  Li  Li1  1  0.50000000  0.32919825  0.75000000  1
  Li  Li2  1  0.50000000  0.67080175  0.25000000  1
  Li  Li3  1  0.00000000  0.82919825  0.75000000  1
  Ni  Ni4  1  0.50000000  0.00000000  0.50000000  1
  Ni  Ni5  1  0.50000000  0.00000000  0.00000000  1
  Ni  Ni6  1  0.00000000  0.50000000  0.50000000  1
  Ni  Ni7  1  0.00000000  0.50000000  0.00000000  1
  P  P8  1  0.50000000  0.34971125  0.25000000  1
  P  P9  1  0.00000000  0.15028875  0.75000000  1
  P  P10  1  0.00000000  0.84971125  0.25000000  1
  P  P11  1  0.50000000  0.65028875  0.75000000  1
  O  O12  1  0.50000000  0.24525125  0.45442950  1
  O  O13  1  0.50000000  0.24525125  0.04557050  1
  O  O14  1  0.00000000  0.25474875  0.95442950  1
  O  O15  1  0.00000000  0.25474875  0.54557050  1
  O  O16  1  0.22950475  0.96771700  0.25000000  1
  O  O17  1  0.27049525  0.46771700  0.25000000  1
  O  O18  1  0.22950475  0.03228300  0.75000000  1
  O  O19  1  0.27049525  0.53228300  0.75000000  1
  O  O20  1  0.00000000  0.74525125  0.45442950  1
  O  O21  1  0.00000000  0.74525125  0.04557050  1
  O  O22  1  0.50000000  0.75474875  0.95442950  1
  O  O23  1  0.50000000  0.75474875  0.54557050  1
  O  O24  1  0.72950475  0.46771700  0.25000000  1
  O  O25  1  0.77049525  0.96771700  0.25000000  1
  O  O26  1  0.72950475  0.53228300  0.75000000  1
  O  O27  1  0.77049525  0.03228300  0.75000000  1
