# generated using pymatgen
data_Cu8O7
_symmetry_space_group_name_H-M   'P 1'
_cell_length_a   8.27626800
_cell_length_b   8.27013000
_cell_length_c   6.40151041
_cell_angle_alpha   90.00000000
_cell_angle_beta   127.85273759
_cell_angle_gamma   90.00000000
_symmetry_Int_Tables_number   1
_chemical_formula_structural   Cu8O7
_chemical_formula_sum   'Cu16 O14'
_cell_volume   345.96428624
_cell_formula_units_Z   2
loop_
 _symmetry_equiv_pos_site_id
 _symmetry_equiv_pos_as_xyz
  1  'x, y, z'
loop_
 _atom_site_type_symbol
 _atom_site_label
 _atom_site_symmetry_multiplicity
 _atom_site_fract_x
 _atom_site_fract_y
 _atom_site_fract_z
 _atom_site_occupancy
  Cu  Cu0  1  0.00534000  0.99753100  0.25876600  1
  Cu  Cu1  1  0.74573800  0.74781700  0.23545900  1
  Cu  Cu2  1  0.50550550  0.99496250  0.77301600  1
  Cu  Cu3  1  0.25426200  0.74781700  0.76454100  1
  Cu  Cu4  1  0.49449450  0.99496250  0.22698400  1
  Cu  Cu5  1  0.25116400  0.75180100  0.25868200  1
  Cu  Cu6  1  0.74883600  0.75180100  0.74131800  1
  Cu  Cu7  1  0.99466000  0.99753100  0.74123400  1
  Cu  Cu8  1  0.50534000  0.49753100  0.25876600  1
  Cu  Cu9  1  0.24573800  0.24781700  0.23545900  1
  Cu  Cu10  1  0.00550550  0.49496250  0.77301600  1
  Cu  Cu11  1  0.75426200  0.24781700  0.76454100  1
  Cu  Cu12  1  0.99449450  0.49496250  0.22698400  1
  Cu  Cu13  1  0.75116400  0.25180100  0.25868200  1
  Cu  Cu14  1  0.24883600  0.25180100  0.74131800  1
  Cu  Cu15  1  0.49466000  0.49753100  0.74123400  1
  O  O16  1  0.24865550  0.11789450  0.99118300  1
  O  O17  1  0.50000000  0.37009800  0.00000000  1
  O  O18  1  0.75134450  0.11789450  0.00881700  1
  O  O19  1  0.50000000  0.12061400  0.50000000  1
  O  O20  1  0.26238650  0.87769750  0.53069900  1
  O  O21  1  0.50000000  0.63188300  0.50000000  1
  O  O22  1  0.73761350  0.87769750  0.46930100  1
  O  O23  1  0.74865550  0.61789450  0.99118300  1
  O  O24  1  0.00000000  0.87009800  0.00000000  1
  O  O25  1  0.25134450  0.61789450  0.00881700  1
  O  O26  1  0.00000000  0.62061400  0.50000000  1
  O  O27  1  0.76238650  0.37769750  0.53069900  1
  O  O28  1  0.00000000  0.13188300  0.50000000  1
  O  O29  1  0.23761350  0.37769750  0.46930100  1
