# generated using pymatgen
data_Na2TbO3
_symmetry_space_group_name_H-M   'P 1'
_cell_length_a   6.03394600
_cell_length_b   10.15492400
_cell_length_c   5.91680117
_cell_angle_alpha   90.00000000
_cell_angle_beta   111.37669004
_cell_angle_gamma   90.00000000
_symmetry_Int_Tables_number   1
_chemical_formula_structural   Na2TbO3
_chemical_formula_sum   'Na8 Tb4 O12'
_cell_volume   337.60587084
_cell_formula_units_Z   4
loop_
 _symmetry_equiv_pos_site_id
 _symmetry_equiv_pos_as_xyz
  1  'x, y, z'
loop_
 _atom_site_type_symbol
 _atom_site_label
 _atom_site_symmetry_multiplicity
 _atom_site_fract_x
 _atom_site_fract_y
 _atom_site_fract_z
 _atom_site_occupancy
  Na  Na0  1  0.50000000  0.58043600  0.75000000  1
  Na  Na1  1  0.50000000  0.25426900  0.75000000  1
  Na  Na2  1  0.50000000  0.41956400  0.25000000  1
  Na  Na3  1  0.50000000  0.74573100  0.25000000  1
  Na  Na4  1  0.00000000  0.08043600  0.75000000  1
  Na  Na5  1  0.00000000  0.75426900  0.75000000  1
  Na  Na6  1  0.00000000  0.91956400  0.25000000  1
  Na  Na7  1  0.00000000  0.24573100  0.25000000  1
  Tb  Tb8  1  0.50000000  0.90549200  0.75000000  1
  Tb  Tb9  1  0.50000000  0.09450800  0.25000000  1
  Tb  Tb10  1  0.00000000  0.40549200  0.75000000  1
  Tb  Tb11  1  0.00000000  0.59450800  0.25000000  1
  O  O12  1  0.28510250  0.07012850  0.49223100  1
  O  O13  1  0.71489750  0.92987150  0.50776900  1
  O  O14  1  0.71489750  0.07012850  0.00776900  1
  O  O15  1  0.75000000  0.25000000  0.50000000  1
  O  O16  1  0.28510250  0.92987150  0.99223100  1
  O  O17  1  0.75000000  0.75000000  0.00000000  1
  O  O18  1  0.78510250  0.57012850  0.49223100  1
  O  O19  1  0.21489750  0.42987150  0.50776900  1
  O  O20  1  0.21489750  0.57012850  0.00776900  1
  O  O21  1  0.25000000  0.75000000  0.50000000  1
  O  O22  1  0.78510250  0.42987150  0.99223100  1
  O  O23  1  0.25000000  0.25000000  0.00000000  1
