# generated using pymatgen
data_Zr3Ir
_symmetry_space_group_name_H-M   'P 1'
_cell_length_a   10.82834400
_cell_length_b   10.82834400
_cell_length_c   5.72767600
_cell_angle_alpha   90.00000000
_cell_angle_beta   90.00000000
_cell_angle_gamma   90.00000000
_symmetry_Int_Tables_number   1
_chemical_formula_structural   Zr3Ir
_chemical_formula_sum   'Zr24 Ir8'
_cell_volume   671.58738752
_cell_formula_units_Z   8
loop_
 _symmetry_equiv_pos_site_id
 _symmetry_equiv_pos_as_xyz
  1  'x, y, z'
loop_
 _atom_site_type_symbol
 _atom_site_label
 _atom_site_symmetry_multiplicity
 _atom_site_fract_x
 _atom_site_fract_y
 _atom_site_fract_z
 _atom_site_occupancy
  Zr  Zr0  1  0.79401400  0.20598600  0.75227500  1
  Zr  Zr1  1  0.70598600  0.70598600  0.74772500  1
  Zr  Zr2  1  0.79401400  0.79401400  0.24772500  1
  Zr  Zr3  1  0.70598600  0.29401400  0.25227500  1
  Zr  Zr4  1  0.50000000  0.85426400  0.00000000  1
  Zr  Zr5  1  0.35426400  0.00000000  0.50000000  1
  Zr  Zr6  1  0.64573600  0.00000000  0.50000000  1
  Zr  Zr7  1  0.50000000  0.14573600  0.00000000  1
  Zr  Zr8  1  0.90431800  0.09568200  0.26265200  1
  Zr  Zr9  1  0.59568200  0.59568200  0.23734800  1
  Zr  Zr10  1  0.90431800  0.90431800  0.73734800  1
  Zr  Zr11  1  0.59568200  0.40431800  0.76265200  1
  Zr  Zr12  1  0.29401400  0.70598600  0.25227500  1
  Zr  Zr13  1  0.20598600  0.20598600  0.24772500  1
  Zr  Zr14  1  0.29401400  0.29401400  0.74772500  1
  Zr  Zr15  1  0.20598600  0.79401400  0.75227500  1
  Zr  Zr16  1  0.00000000  0.35426400  0.50000000  1
  Zr  Zr17  1  0.85426400  0.50000000  0.00000000  1
  Zr  Zr18  1  0.14573600  0.50000000  0.00000000  1
  Zr  Zr19  1  0.00000000  0.64573600  0.50000000  1
  Zr  Zr20  1  0.40431800  0.59568200  0.76265200  1
  Zr  Zr21  1  0.09568200  0.09568200  0.73734800  1
  Zr  Zr22  1  0.40431800  0.40431800  0.23734800  1
  Zr  Zr23  1  0.09568200  0.90431800  0.26265200  1
  Ir  Ir24  1  0.50000000  0.20791600  0.50000000  1
  Ir  Ir25  1  0.70791600  0.00000000  0.00000000  1
  Ir  Ir26  1  0.29208400  0.00000000  0.00000000  1
  Ir  Ir27  1  0.50000000  0.79208400  0.50000000  1
  Ir  Ir28  1  0.00000000  0.70791600  0.00000000  1
  Ir  Ir29  1  0.20791600  0.50000000  0.50000000  1
  Ir  Ir30  1  0.79208400  0.50000000  0.50000000  1
  Ir  Ir31  1  0.00000000  0.29208400  0.00000000  1
