# generated using pymatgen
data_Sc5CCl8
_symmetry_space_group_name_H-M   'P 1'
_cell_length_a   18.20418600
_cell_length_b   3.54457400
_cell_length_c   12.21018997
_cell_angle_alpha   90.00000000
_cell_angle_beta   129.81478207
_cell_angle_gamma   90.00000000
_symmetry_Int_Tables_number   1
_chemical_formula_structural   Sc5CCl8
_chemical_formula_sum   'Sc10 C2 Cl16'
_cell_volume   605.18182160
_cell_formula_units_Z   2
loop_
 _symmetry_equiv_pos_site_id
 _symmetry_equiv_pos_as_xyz
  1  'x, y, z'
loop_
 _atom_site_type_symbol
 _atom_site_label
 _atom_site_symmetry_multiplicity
 _atom_site_fract_x
 _atom_site_fract_y
 _atom_site_fract_z
 _atom_site_occupancy
  Sc  Sc0  1  0.84189900  0.00000000  0.32976500  1
  Sc  Sc1  1  0.15810100  0.00000000  0.67023500  1
  Sc  Sc2  1  0.98839600  0.50000000  0.61299000  1
  Sc  Sc3  1  0.01160400  0.50000000  0.38701000  1
  Sc  Sc4  1  0.00000000  0.00000000  0.00000000  1
  Sc  Sc5  1  0.34189900  0.50000000  0.32976500  1
  Sc  Sc6  1  0.65810100  0.50000000  0.67023500  1
  Sc  Sc7  1  0.48839600  0.00000000  0.61299000  1
  Sc  Sc8  1  0.51160400  0.00000000  0.38701000  1
  Sc  Sc9  1  0.50000000  0.50000000  0.00000000  1
  C  C10  1  0.00000000  0.00000000  0.50000000  1
  C  C11  1  0.50000000  0.50000000  0.50000000  1
  Cl  Cl12  1  0.02826900  0.00000000  0.23584100  1
  Cl  Cl13  1  0.97173100  0.00000000  0.76415900  1
  Cl  Cl14  1  0.83018500  0.50000000  0.16884700  1
  Cl  Cl15  1  0.16981500  0.50000000  0.83115300  1
  Cl  Cl16  1  0.19756300  0.50000000  0.56476500  1
  Cl  Cl17  1  0.80243700  0.50000000  0.43523500  1
  Cl  Cl18  1  0.37092200  0.00000000  0.89864700  1
  Cl  Cl19  1  0.62907800  0.00000000  0.10135300  1
  Cl  Cl20  1  0.52826900  0.50000000  0.23584100  1
  Cl  Cl21  1  0.47173100  0.50000000  0.76415900  1
  Cl  Cl22  1  0.33018500  0.00000000  0.16884700  1
  Cl  Cl23  1  0.66981500  0.00000000  0.83115300  1
  Cl  Cl24  1  0.69756300  0.00000000  0.56476500  1
  Cl  Cl25  1  0.30243700  0.00000000  0.43523500  1
  Cl  Cl26  1  0.87092200  0.50000000  0.89864700  1
  Cl  Cl27  1  0.12907800  0.50000000  0.10135300  1
