# generated using pymatgen
data_Co2CuO4
_symmetry_space_group_name_H-M   'P 1'
_cell_length_a   5.86417642
_cell_length_b   5.86417642
_cell_length_c   14.38799100
_cell_angle_alpha   90.00000000
_cell_angle_beta   90.00000000
_cell_angle_gamma   120.00000000
_symmetry_Int_Tables_number   1
_chemical_formula_structural   Co2CuO4
_chemical_formula_sum   'Co12 Cu6 O24'
_cell_volume   428.49409735
_cell_formula_units_Z   6
loop_
 _symmetry_equiv_pos_site_id
 _symmetry_equiv_pos_as_xyz
  1  'x, y, z'
loop_
 _atom_site_type_symbol
 _atom_site_label
 _atom_site_symmetry_multiplicity
 _atom_site_fract_x
 _atom_site_fract_y
 _atom_site_fract_z
 _atom_site_occupancy
  Co  Co0  1  0.00000000  0.00000000  0.25033833  1
  Co  Co1  1  0.50070733  0.00141467  0.12474267  1
  Co  Co2  1  0.99858533  0.49929267  0.12474267  1
  Co  Co3  1  0.50070733  0.49929267  0.12474267  1
  Co  Co4  1  0.66666667  0.33333333  0.58367167  1
  Co  Co5  1  0.16737400  0.33474800  0.45807600  1
  Co  Co6  1  0.66525200  0.83262600  0.45807600  1
  Co  Co7  1  0.16737400  0.83262600  0.45807600  1
  Co  Co8  1  0.33333333  0.66666667  0.91700500  1
  Co  Co9  1  0.83404067  0.66808133  0.79140933  1
  Co  Co10  1  0.33191867  0.16595933  0.79140933  1
  Co  Co11  1  0.83404067  0.16595933  0.79140933  1
  Cu  Cu12  1  0.00000000  0.00000000  0.00005100  1
  Cu  Cu13  1  0.33333333  0.66666667  0.29130567  1
  Cu  Cu14  1  0.66666667  0.33333333  0.33338433  1
  Cu  Cu15  1  0.00000000  0.00000000  0.62463900  1
  Cu  Cu16  1  0.33333333  0.66666667  0.66671767  1
  Cu  Cu17  1  0.66666667  0.33333333  0.95797233  1
  O  O18  1  0.17924867  0.82075133  0.20244733  1
  O  O19  1  0.17924867  0.35849733  0.20244733  1
  O  O20  1  0.64150267  0.82075133  0.20244733  1
  O  O21  1  0.33333333  0.66666667  0.05438500  1
  O  O22  1  0.66666667  0.33333333  0.19550267  1
  O  O23  1  0.82049050  0.64098100  0.04783800  1
  O  O24  1  0.35901900  0.17950950  0.04783800  1
  O  O25  1  0.82049050  0.17950950  0.04783800  1
  O  O26  1  0.84591533  0.15408467  0.53578067  1
  O  O27  1  0.84591533  0.69183067  0.53578067  1
  O  O28  1  0.30816933  0.15408467  0.53578067  1
  O  O29  1  0.00000000  0.00000000  0.38771833  1
  O  O30  1  0.33333333  0.66666667  0.52883600  1
  O  O31  1  0.48715717  0.97431433  0.38117133  1
  O  O32  1  0.02568567  0.51284283  0.38117133  1
  O  O33  1  0.48715717  0.51284283  0.38117133  1
  O  O34  1  0.51258200  0.48741800  0.86911400  1
  O  O35  1  0.51258200  0.02516400  0.86911400  1
  O  O36  1  0.97483600  0.48741800  0.86911400  1
  O  O37  1  0.66666667  0.33333333  0.72105167  1
  O  O38  1  0.00000000  0.00000000  0.86216933  1
  O  O39  1  0.15382383  0.30764767  0.71450467  1
  O  O40  1  0.69235233  0.84617617  0.71450467  1
  O  O41  1  0.15382383  0.84617617  0.71450467  1
