# generated using pymatgen
data_PrFeSi2
_symmetry_space_group_name_H-M   'P 1'
_cell_length_a   4.12811200
_cell_length_b   17.06139800
_cell_length_c   4.03325500
_cell_angle_alpha   90.00000000
_cell_angle_beta   90.00000000
_cell_angle_gamma   90.00000000
_symmetry_Int_Tables_number   1
_chemical_formula_structural   PrFeSi2
_chemical_formula_sum   'Pr4 Fe4 Si8'
_cell_volume   284.06764222
_cell_formula_units_Z   4
loop_
 _symmetry_equiv_pos_site_id
 _symmetry_equiv_pos_as_xyz
  1  'x, y, z'
loop_
 _atom_site_type_symbol
 _atom_site_label
 _atom_site_symmetry_multiplicity
 _atom_site_fract_x
 _atom_site_fract_y
 _atom_site_fract_z
 _atom_site_occupancy
  Pr  Pr0  1  0.50000000  0.39258800  0.75000000  1
  Pr  Pr1  1  0.00000000  0.10741200  0.25000000  1
  Pr  Pr2  1  0.00000000  0.89258800  0.75000000  1
  Pr  Pr3  1  0.50000000  0.60741200  0.25000000  1
  Fe  Fe4  1  0.50000000  0.24967100  0.25000000  1
  Fe  Fe5  1  0.00000000  0.25032900  0.75000000  1
  Fe  Fe6  1  0.00000000  0.74967100  0.25000000  1
  Fe  Fe7  1  0.50000000  0.75032900  0.75000000  1
  Si  Si8  1  0.50000000  0.18999100  0.75000000  1
  Si  Si9  1  0.00000000  0.31000900  0.25000000  1
  Si  Si10  1  0.00000000  0.46209000  0.25000000  1
  Si  Si11  1  0.50000000  0.03791000  0.75000000  1
  Si  Si12  1  0.00000000  0.68999100  0.75000000  1
  Si  Si13  1  0.50000000  0.81000900  0.25000000  1
  Si  Si14  1  0.50000000  0.96209000  0.25000000  1
  Si  Si15  1  0.00000000  0.53791000  0.75000000  1
