# generated using pymatgen
data_Co3(P3O10)2
_symmetry_space_group_name_H-M   'P 1'
_cell_length_a   10.12271000
_cell_length_b   13.28539000
_cell_length_c   12.39550600
_cell_angle_alpha   90.00000000
_cell_angle_beta   90.00000000
_cell_angle_gamma   90.00000000
_symmetry_Int_Tables_number   1
_chemical_formula_structural   Co3(P3O10)2
_chemical_formula_sum   'Co12 P24 O80'
_cell_volume   1666.99909079
_cell_formula_units_Z   4
loop_
 _symmetry_equiv_pos_site_id
 _symmetry_equiv_pos_as_xyz
  1  'x, y, z'
loop_
 _atom_site_type_symbol
 _atom_site_label
 _atom_site_symmetry_multiplicity
 _atom_site_fract_x
 _atom_site_fract_y
 _atom_site_fract_z
 _atom_site_occupancy
  Co  Co0  1  0.50000000  0.80057200  0.25000000  1
  Co  Co1  1  0.86068300  0.00000000  0.00000000  1
  Co  Co2  1  0.13931700  0.00000000  0.50000000  1
  Co  Co3  1  0.50000000  0.25709100  0.25000000  1
  Co  Co4  1  0.50000000  0.74290900  0.75000000  1
  Co  Co5  1  0.50000000  0.19942800  0.75000000  1
  Co  Co6  1  0.00000000  0.30057200  0.25000000  1
  Co  Co7  1  0.36068300  0.50000000  0.00000000  1
  Co  Co8  1  0.63931700  0.50000000  0.50000000  1
  Co  Co9  1  0.00000000  0.75709100  0.25000000  1
  Co  Co10  1  0.00000000  0.24290900  0.75000000  1
  Co  Co11  1  0.00000000  0.69942800  0.75000000  1
  P  P12  1  0.23839600  0.93877100  0.27757300  1
  P  P13  1  0.77069100  0.13903000  0.31715100  1
  P  P14  1  0.22930900  0.13903000  0.18284900  1
  P  P15  1  0.44616850  0.29511850  0.51401100  1
  P  P16  1  0.23839600  0.06122900  0.72242700  1
  P  P17  1  0.55383150  0.70488150  0.01401100  1
  P  P18  1  0.77069100  0.86097000  0.68284900  1
  P  P19  1  0.22930900  0.86097000  0.81715100  1
  P  P20  1  0.76160400  0.06122900  0.77757300  1
  P  P21  1  0.55383150  0.29511850  0.98598900  1
  P  P22  1  0.44616850  0.70488150  0.48598900  1
  P  P23  1  0.76160400  0.93877100  0.22242700  1
  P  P24  1  0.73839600  0.43877100  0.27757300  1
  P  P25  1  0.27069100  0.63903000  0.31715100  1
  P  P26  1  0.72930900  0.63903000  0.18284900  1
  P  P27  1  0.94616850  0.79511850  0.51401100  1
  P  P28  1  0.73839600  0.56122900  0.72242700  1
  P  P29  1  0.05383150  0.20488150  0.01401100  1
  P  P30  1  0.27069100  0.36097000  0.68284900  1
  P  P31  1  0.72930900  0.36097000  0.81715100  1
  P  P32  1  0.26160400  0.56122900  0.77757300  1
  P  P33  1  0.05383150  0.79511850  0.98598900  1
  P  P34  1  0.94616850  0.20488150  0.48598900  1
  P  P35  1  0.26160400  0.43877100  0.22242700  1
  O  O36  1  0.81265950  0.02224350  0.30883300  1
  O  O37  1  0.41921450  0.26276050  0.39923100  1
  O  O38  1  0.37026550  0.36122750  0.20967300  1
  O  O39  1  0.81265950  0.97775650  0.69116700  1
  O  O40  1  0.63986050  0.30257050  0.74300000  1
  O  O41  1  0.45747900  0.61568300  0.02354700  1
  O  O42  1  0.25874950  0.99557250  0.38524200  1
  O  O43  1  0.62973450  0.36122750  0.29032700  1
  O  O44  1  0.37595700  0.84930400  0.80046000  1
  O  O45  1  0.58078550  0.73723950  0.89923100  1
  O  O46  1  0.74125050  0.99557250  0.11475800  1
  O  O47  1  0.48464050  0.20766650  0.58749000  1
  O  O48  1  0.19515950  0.16123850  0.05859300  1
  O  O49  1  0.18734050  0.97775650  0.80883300  1
  O  O50  1  0.80484050  0.83876150  0.55859300  1
  O  O51  1  0.80484050  0.16123850  0.44140700  1
  O  O52  1  0.36840600  0.90265600  0.23118100  1
  O  O53  1  0.51535950  0.20766650  0.91251000  1
  O  O54  1  0.63986050  0.69742950  0.25700000  1
  O  O55  1  0.74125050  0.00442750  0.88524200  1
  O  O56  1  0.54252100  0.61568300  0.47645300  1
  O  O57  1  0.18734050  0.02224350  0.19116700  1
  O  O58  1  0.19515950  0.83876150  0.94140700  1
  O  O59  1  0.63159400  0.09734400  0.73118100  1
  O  O60  1  0.45747900  0.38431700  0.97645300  1
  O  O61  1  0.51535950  0.79233350  0.08749000  1
  O  O62  1  0.37026550  0.63877250  0.79032700  1
  O  O63  1  0.58078550  0.26276050  0.10076900  1
  O  O64  1  0.54252100  0.38431700  0.52354700  1
  O  O65  1  0.37595700  0.15069600  0.19954000  1
  O  O66  1  0.63159400  0.90265600  0.26881900  1
  O  O67  1  0.62404300  0.15069600  0.30046000  1
  O  O68  1  0.25874950  0.00442750  0.61475800  1
  O  O69  1  0.36013950  0.30257050  0.75700000  1
  O  O70  1  0.62973450  0.63877250  0.70967300  1
  O  O71  1  0.36840600  0.09734400  0.76881900  1
  O  O72  1  0.36013950  0.69742950  0.24300000  1
  O  O73  1  0.62404300  0.84930400  0.69954000  1
  O  O74  1  0.48464050  0.79233350  0.41251000  1
  O  O75  1  0.41921450  0.73723950  0.60076900  1
  O  O76  1  0.31265950  0.52224350  0.30883300  1
  O  O77  1  0.91921450  0.76276050  0.39923100  1
  O  O78  1  0.87026550  0.86122750  0.20967300  1
  O  O79  1  0.31265950  0.47775650  0.69116700  1
  O  O80  1  0.13986050  0.80257050  0.74300000  1
  O  O81  1  0.95747900  0.11568300  0.02354700  1
  O  O82  1  0.75874950  0.49557250  0.38524200  1
  O  O83  1  0.12973450  0.86122750  0.29032700  1
  O  O84  1  0.87595700  0.34930400  0.80046000  1
  O  O85  1  0.08078550  0.23723950  0.89923100  1
  O  O86  1  0.24125050  0.49557250  0.11475800  1
  O  O87  1  0.98464050  0.70766650  0.58749000  1
  O  O88  1  0.69515950  0.66123850  0.05859300  1
  O  O89  1  0.68734050  0.47775650  0.80883300  1
  O  O90  1  0.30484050  0.33876150  0.55859300  1
  O  O91  1  0.30484050  0.66123850  0.44140700  1
  O  O92  1  0.86840600  0.40265600  0.23118100  1
  O  O93  1  0.01535950  0.70766650  0.91251000  1
  O  O94  1  0.13986050  0.19742950  0.25700000  1
  O  O95  1  0.24125050  0.50442750  0.88524200  1
  O  O96  1  0.04252100  0.11568300  0.47645300  1
  O  O97  1  0.68734050  0.52224350  0.19116700  1
  O  O98  1  0.69515950  0.33876150  0.94140700  1
  O  O99  1  0.13159400  0.59734400  0.73118100  1
  O  O100  1  0.95747900  0.88431700  0.97645300  1
  O  O101  1  0.01535950  0.29233350  0.08749000  1
  O  O102  1  0.87026550  0.13877250  0.79032700  1
  O  O103  1  0.08078550  0.76276050  0.10076900  1
  O  O104  1  0.04252100  0.88431700  0.52354700  1
  O  O105  1  0.87595700  0.65069600  0.19954000  1
  O  O106  1  0.13159400  0.40265600  0.26881900  1
  O  O107  1  0.12404300  0.65069600  0.30046000  1
  O  O108  1  0.75874950  0.50442750  0.61475800  1
  O  O109  1  0.86013950  0.80257050  0.75700000  1
  O  O110  1  0.12973450  0.13877250  0.70967300  1
  O  O111  1  0.86840600  0.59734400  0.76881900  1
  O  O112  1  0.86013950  0.19742950  0.24300000  1
  O  O113  1  0.12404300  0.34930400  0.69954000  1
  O  O114  1  0.98464050  0.29233350  0.41251000  1
  O  O115  1  0.91921450  0.23723950  0.60076900  1
