# generated using pymatgen
data_CoP2O7
_symmetry_space_group_name_H-M   'P 1'
_cell_length_a   6.64434400
_cell_length_b   8.09330800
_cell_length_c   4.56061055
_cell_angle_alpha   90.00000000
_cell_angle_beta   100.83224205
_cell_angle_gamma   90.00000000
_symmetry_Int_Tables_number   1
_chemical_formula_structural   CoP2O7
_chemical_formula_sum   'Co2 P4 O14'
_cell_volume   240.87569546
_cell_formula_units_Z   2
loop_
 _symmetry_equiv_pos_site_id
 _symmetry_equiv_pos_as_xyz
  1  'x, y, z'
loop_
 _atom_site_type_symbol
 _atom_site_label
 _atom_site_symmetry_multiplicity
 _atom_site_fract_x
 _atom_site_fract_y
 _atom_site_fract_z
 _atom_site_occupancy
  Co  Co0  1  0.50000000  0.43823900  0.50000000  1
  Co  Co1  1  0.00000000  0.93823900  0.50000000  1
  P  P2  1  0.70583900  0.09674800  0.91120500  1
  P  P3  1  0.29416100  0.09674800  0.08879500  1
  P  P4  1  0.20583900  0.59674800  0.91120500  1
  P  P5  1  0.79416100  0.59674800  0.08879500  1
  O  O6  1  0.50000000  0.01975500  0.00000000  1
  O  O7  1  0.86223450  0.10863050  0.20158100  1
  O  O8  1  0.13776550  0.10863050  0.79841900  1
  O  O9  1  0.65546800  0.26240900  0.76052900  1
  O  O10  1  0.23363650  0.96572850  0.30075200  1
  O  O11  1  0.34453200  0.26240900  0.23947100  1
  O  O12  1  0.76636350  0.96572850  0.69924800  1
  O  O13  1  0.00000000  0.51975500  0.00000000  1
  O  O14  1  0.36223450  0.60863050  0.20158100  1
  O  O15  1  0.63776550  0.60863050  0.79841900  1
  O  O16  1  0.15546800  0.76240900  0.76052900  1
  O  O17  1  0.73363650  0.46572850  0.30075200  1
  O  O18  1  0.84453200  0.76240900  0.23947100  1
  O  O19  1  0.26636350  0.46572850  0.69924800  1
