# generated using pymatgen
data_LiNi4(PO4)3
_symmetry_space_group_name_H-M   'P 1'
_cell_length_a   6.60427000
_cell_length_b   6.60427000
_cell_length_c   18.42221000
_cell_angle_alpha   90.00000000
_cell_angle_beta   90.00000000
_cell_angle_gamma   90.00000000
_symmetry_Int_Tables_number   1
_chemical_formula_structural   LiNi4(PO4)3
_chemical_formula_sum   'Li4 Ni16 P12 O48'
_cell_volume   803.51015293
_cell_formula_units_Z   4
loop_
 _symmetry_equiv_pos_site_id
 _symmetry_equiv_pos_as_xyz
  1  'x, y, z'
loop_
 _atom_site_type_symbol
 _atom_site_label
 _atom_site_symmetry_multiplicity
 _atom_site_fract_x
 _atom_site_fract_y
 _atom_site_fract_z
 _atom_site_occupancy
  Li  Li0  1  0.00000000  0.50000000  0.25000000  1
  Li  Li1  1  0.00000000  0.00000000  0.00000000  1
  Li  Li2  1  0.50000000  0.00000000  0.75000000  1
  Li  Li3  1  0.50000000  0.50000000  0.50000000  1
  Ni  Ni4  1  0.50000000  0.50000000  0.22776600  1
  Ni  Ni5  1  0.25000000  0.75482800  0.37500000  1
  Ni  Ni6  1  0.50000000  0.00000000  0.02223400  1
  Ni  Ni7  1  0.00000000  0.00000000  0.27223400  1
  Ni  Ni8  1  0.25482800  0.25000000  0.12500000  1
  Ni  Ni9  1  0.75000000  0.24517200  0.37500000  1
  Ni  Ni10  1  0.50000000  0.00000000  0.47776600  1
  Ni  Ni11  1  0.74517200  0.75000000  0.12500000  1
  Ni  Ni12  1  0.00000000  0.00000000  0.72776600  1
  Ni  Ni13  1  0.75000000  0.25482800  0.87500000  1
  Ni  Ni14  1  0.00000000  0.50000000  0.52223400  1
  Ni  Ni15  1  0.50000000  0.50000000  0.77223400  1
  Ni  Ni16  1  0.75482800  0.75000000  0.62500000  1
  Ni  Ni17  1  0.25000000  0.74517200  0.87500000  1
  Ni  Ni18  1  0.00000000  0.50000000  0.97776600  1
  Ni  Ni19  1  0.24517200  0.25000000  0.62500000  1
  P  P20  1  0.85248900  0.25000000  0.12500000  1
  P  P21  1  0.14751100  0.75000000  0.12500000  1
  P  P22  1  0.75000000  0.64751100  0.37500000  1
  P  P23  1  0.50000000  0.50000000  0.00000000  1
  P  P24  1  0.25000000  0.35248900  0.37500000  1
  P  P25  1  0.50000000  0.00000000  0.25000000  1
  P  P26  1  0.35248900  0.75000000  0.62500000  1
  P  P27  1  0.64751100  0.25000000  0.62500000  1
  P  P28  1  0.25000000  0.14751100  0.87500000  1
  P  P29  1  0.00000000  0.00000000  0.50000000  1
  P  P30  1  0.75000000  0.85248900  0.87500000  1
  P  P31  1  0.00000000  0.50000000  0.75000000  1
  O  O32  1  0.55091800  0.80412800  0.20655200  1
  O  O33  1  0.73246600  0.05792500  0.10428900  1
  O  O34  1  0.73246600  0.44207500  0.14571100  1
  O  O35  1  0.44207500  0.23246600  0.39571100  1
  O  O36  1  0.99850400  0.78445700  0.19151500  1
  O  O37  1  0.99850400  0.71554300  0.05848500  1
  O  O38  1  0.00149600  0.21554300  0.19151500  1
  O  O39  1  0.00149600  0.28445700  0.05848500  1
  O  O40  1  0.30412800  0.94908200  0.29344800  1
  O  O41  1  0.28445700  0.50149600  0.30848500  1
  O  O42  1  0.21554300  0.50149600  0.44151500  1
  O  O43  1  0.19587200  0.94908200  0.45655200  1
  O  O44  1  0.05792500  0.23246600  0.35428900  1
  O  O45  1  0.55091800  0.69587200  0.04344800  1
  O  O46  1  0.44908200  0.30412800  0.04344800  1
  O  O47  1  0.44908200  0.19587200  0.20655200  1
  O  O48  1  0.94207500  0.76753400  0.35428900  1
  O  O49  1  0.80412800  0.05091800  0.45655200  1
  O  O50  1  0.78445700  0.49850400  0.44151500  1
  O  O51  1  0.26753400  0.55792500  0.14571100  1
  O  O52  1  0.26753400  0.94207500  0.10428900  1
  O  O53  1  0.71554300  0.49850400  0.30848500  1
  O  O54  1  0.69587200  0.05091800  0.29344800  1
  O  O55  1  0.55792500  0.76753400  0.39571100  1
  O  O56  1  0.05091800  0.30412800  0.70655200  1
  O  O57  1  0.23246600  0.55792500  0.60428900  1
  O  O58  1  0.23246600  0.94207500  0.64571100  1
  O  O59  1  0.94207500  0.73246600  0.89571100  1
  O  O60  1  0.49850400  0.28445700  0.69151500  1
  O  O61  1  0.49850400  0.21554300  0.55848500  1
  O  O62  1  0.50149600  0.71554300  0.69151500  1
  O  O63  1  0.50149600  0.78445700  0.55848500  1
  O  O64  1  0.80412800  0.44908200  0.79344800  1
  O  O65  1  0.78445700  0.00149600  0.80848500  1
  O  O66  1  0.71554300  0.00149600  0.94151500  1
  O  O67  1  0.69587200  0.44908200  0.95655200  1
  O  O68  1  0.55792500  0.73246600  0.85428900  1
  O  O69  1  0.05091800  0.19587200  0.54344800  1
  O  O70  1  0.94908200  0.80412800  0.54344800  1
  O  O71  1  0.94908200  0.69587200  0.70655200  1
  O  O72  1  0.44207500  0.26753400  0.85428900  1
  O  O73  1  0.30412800  0.55091800  0.95655200  1
  O  O74  1  0.28445700  0.99850400  0.94151500  1
  O  O75  1  0.76753400  0.05792500  0.64571100  1
  O  O76  1  0.76753400  0.44207500  0.60428900  1
  O  O77  1  0.21554300  0.99850400  0.80848500  1
  O  O78  1  0.19587200  0.55091800  0.79344800  1
  O  O79  1  0.05792500  0.26753400  0.89571100  1
