# generated using pymatgen
data_Ni3(BiSe)2
_symmetry_space_group_name_H-M   'P 1'
_cell_length_a   11.26935200
_cell_length_b   8.22050200
_cell_length_c   8.13408099
_cell_angle_alpha   90.00000000
_cell_angle_beta   133.07488218
_cell_angle_gamma   90.00000000
_symmetry_Int_Tables_number   1
_chemical_formula_structural   Ni3(BiSe)2
_chemical_formula_sum   'Ni12 Bi8 Se8'
_cell_volume   550.43146605
_cell_formula_units_Z   4
loop_
 _symmetry_equiv_pos_site_id
 _symmetry_equiv_pos_as_xyz
  1  'x, y, z'
loop_
 _atom_site_type_symbol
 _atom_site_label
 _atom_site_symmetry_multiplicity
 _atom_site_fract_x
 _atom_site_fract_y
 _atom_site_fract_z
 _atom_site_occupancy
  Ni  Ni0  1  0.00000000  0.72697100  0.50000000  1
  Ni  Ni1  1  0.50000000  0.77302900  0.50000000  1
  Ni  Ni2  1  0.48312000  0.50000000  0.21153500  1
  Ni  Ni3  1  0.01688000  0.00000000  0.78846500  1
  Ni  Ni4  1  0.25000000  0.25000000  0.50000000  1
  Ni  Ni5  1  0.25000000  0.75000000  0.50000000  1
  Ni  Ni6  1  0.50000000  0.22697100  0.50000000  1
  Ni  Ni7  1  0.00000000  0.27302900  0.50000000  1
  Ni  Ni8  1  0.98312000  0.00000000  0.21153500  1
  Ni  Ni9  1  0.51688000  0.50000000  0.78846500  1
  Ni  Ni10  1  0.75000000  0.75000000  0.50000000  1
  Ni  Ni11  1  0.75000000  0.25000000  0.50000000  1
  Bi  Bi12  1  0.28422500  0.50000000  0.30066500  1
  Bi  Bi13  1  0.21577500  0.00000000  0.69933500  1
  Bi  Bi14  1  0.24932100  0.50000000  0.74268800  1
  Bi  Bi15  1  0.25067900  0.00000000  0.25731200  1
  Bi  Bi16  1  0.78422500  0.00000000  0.30066500  1
  Bi  Bi17  1  0.71577500  0.50000000  0.69933500  1
  Bi  Bi18  1  0.74932100  0.00000000  0.74268800  1
  Bi  Bi19  1  0.75067900  0.50000000  0.25731200  1
  Se  Se20  1  0.97455050  0.71889150  0.19286100  1
  Se  Se21  1  0.52544950  0.21889150  0.80713900  1
  Se  Se22  1  0.52544950  0.78110850  0.80713900  1
  Se  Se23  1  0.97455050  0.28110850  0.19286100  1
  Se  Se24  1  0.47455050  0.21889150  0.19286100  1
  Se  Se25  1  0.02544950  0.71889150  0.80713900  1
  Se  Se26  1  0.02544950  0.28110850  0.80713900  1
  Se  Se27  1  0.47455050  0.78110850  0.19286100  1
