# generated using pymatgen
data_LiMoP2O7
_symmetry_space_group_name_H-M   'P 1'
_cell_length_a   6.71367000
_cell_length_b   8.47789400
_cell_length_c   4.59639132
_cell_angle_alpha   90.00000000
_cell_angle_beta   103.13376333
_cell_angle_gamma   90.00000000
_symmetry_Int_Tables_number   1
_chemical_formula_structural   LiMoP2O7
_chemical_formula_sum   'Li2 Mo2 P4 O14'
_cell_volume   254.77310181
_cell_formula_units_Z   2
loop_
 _symmetry_equiv_pos_site_id
 _symmetry_equiv_pos_as_xyz
  1  'x, y, z'
loop_
 _atom_site_type_symbol
 _atom_site_label
 _atom_site_symmetry_multiplicity
 _atom_site_fract_x
 _atom_site_fract_y
 _atom_site_fract_z
 _atom_site_occupancy
  Li  Li0  1  0.50000000  0.75070400  0.00000000  1
  Li  Li1  1  0.00000000  0.25070400  0.00000000  1
  Mo  Mo2  1  0.50000000  0.37670900  0.00000000  1
  Mo  Mo3  1  0.00000000  0.87670900  0.00000000  1
  P  P4  1  0.70566450  0.03999050  0.41176600  1
  P  P5  1  0.29433550  0.03999050  0.58823400  1
  P  P6  1  0.20566450  0.53999050  0.41176600  1
  P  P7  1  0.79433550  0.53999050  0.58823400  1
  O  O8  1  0.86503300  0.05880800  0.71001100  1
  O  O9  1  0.13496700  0.05880800  0.28998900  1
  O  O10  1  0.25448900  0.90293900  0.78906100  1
  O  O11  1  0.32548300  0.19803100  0.74559300  1
  O  O12  1  0.50000000  0.97820000  0.50000000  1
  O  O13  1  0.67451700  0.19803100  0.25440700  1
  O  O14  1  0.74551100  0.90293900  0.21093900  1
  O  O15  1  0.36503300  0.55880800  0.71001100  1
  O  O16  1  0.63496700  0.55880800  0.28998900  1
  O  O17  1  0.75448900  0.40293900  0.78906100  1
  O  O18  1  0.82548300  0.69803100  0.74559300  1
  O  O19  1  0.00000000  0.47820000  0.50000000  1
  O  O20  1  0.17451700  0.69803100  0.25440700  1
  O  O21  1  0.24551100  0.40293900  0.21093900  1
