# generated using pymatgen
data_LiCo2P5O16
_symmetry_space_group_name_H-M   'P 1'
_cell_length_a   4.88527300
_cell_length_b   6.59185500
_cell_length_c   18.43409045
_cell_angle_alpha   90.00000000
_cell_angle_beta   91.23374195
_cell_angle_gamma   90.00000000
_symmetry_Int_Tables_number   1
_chemical_formula_structural   LiCo2P5O16
_chemical_formula_sum   'Li2 Co4 P10 O32'
_cell_volume   593.49560421
_cell_formula_units_Z   2
loop_
 _symmetry_equiv_pos_site_id
 _symmetry_equiv_pos_as_xyz
  1  'x, y, z'
loop_
 _atom_site_type_symbol
 _atom_site_label
 _atom_site_symmetry_multiplicity
 _atom_site_fract_x
 _atom_site_fract_y
 _atom_site_fract_z
 _atom_site_occupancy
  Li  Li0  1  0.26741100  0.62248400  0.97412800  1
  Li  Li1  1  0.26741100  0.37751600  0.47412800  1
  Co  Co2  1  0.24850500  0.81843600  0.40796300  1
  Co  Co3  1  0.24850500  0.18156400  0.90796300  1
  Co  Co4  1  0.75397200  0.18053700  0.59222500  1
  Co  Co5  1  0.75397200  0.81946300  0.09222500  1
  P  P6  1  0.23680100  0.87654300  0.57495600  1
  P  P7  1  0.73187000  0.45981000  0.86912000  1
  P  P8  1  0.26979900  0.46029300  0.63115000  1
  P  P9  1  0.99596200  0.75519000  0.24981300  1
  P  P10  1  0.23680100  0.12345700  0.07495600  1
  P  P11  1  0.76219200  0.87820100  0.92289800  1
  P  P12  1  0.26979900  0.53970700  0.13115000  1
  P  P13  1  0.99596200  0.24481000  0.74981300  1
  P  P14  1  0.76219200  0.12179900  0.42289800  1
  P  P15  1  0.73187000  0.54019000  0.36912000  1
  O  O16  1  0.76809600  0.30239500  0.36123800  1
  O  O17  1  0.77533500  0.39206900  0.78728200  1
  O  O18  1  0.57146400  0.42701600  0.61823600  1
  O  O19  1  0.42416600  0.03386400  0.60995300  1
  O  O20  1  0.58526900  0.95713800  0.38901100  1
  O  O21  1  0.07751200  0.35794500  0.57587500  1
  O  O22  1  0.15344100  0.12930000  0.80708300  1
  O  O23  1  0.93809500  0.94230100  0.56589200  1
  O  O24  1  0.43112300  0.56535300  0.38805200  1
  O  O25  1  0.57146400  0.57298400  0.11823600  1
  O  O26  1  0.15344100  0.87070000  0.30708300  1
  O  O27  1  0.34392000  0.23192100  0.00709400  1
  O  O28  1  0.07751200  0.64205500  0.07587500  1
  O  O29  1  0.85079400  0.12110100  0.69263300  1
  O  O30  1  0.34392000  0.76807900  0.50709400  1
  O  O31  1  0.76809600  0.69760500  0.86123800  1
  O  O32  1  0.64282400  0.22746000  0.49005500  1
  O  O33  1  0.19657400  0.40502800  0.71294400  1
  O  O34  1  0.19657400  0.59497200  0.21294400  1
  O  O35  1  0.06842500  0.92837300  0.93099700  1
  O  O36  1  0.42416600  0.96613600  0.10995300  1
  O  O37  1  0.64282400  0.77254000  0.99005500  1
  O  O38  1  0.85079400  0.87889900  0.19263300  1
  O  O39  1  0.93809500  0.05769900  0.06589200  1
  O  O40  1  0.43112300  0.43464700  0.88805200  1
  O  O41  1  0.77533500  0.60793100  0.28728200  1
  O  O42  1  0.58526900  0.04286200  0.88901100  1
  O  O43  1  0.94270800  0.36965300  0.92130700  1
  O  O44  1  0.94270800  0.63034700  0.42130700  1
  O  O45  1  0.06842500  0.07162700  0.43099700  1
  O  O46  1  0.22373100  0.30380600  0.13595100  1
  O  O47  1  0.22373100  0.69619400  0.63595100  1
