# generated using pymatgen
data_Ti2FeO5
_symmetry_space_group_name_H-M   'P 1'
_cell_length_a   3.75784442
_cell_length_b   9.92269412
_cell_length_c   10.24031807
_cell_angle_alpha   90.00000000
_cell_angle_beta   90.00000000
_cell_angle_gamma   90.00000000
_symmetry_Int_Tables_number   1
_chemical_formula_structural   Ti2FeO5
_chemical_formula_sum   'Ti8 Fe4 O20'
_cell_volume   381.84037325
_cell_formula_units_Z   4
loop_
 _symmetry_equiv_pos_site_id
 _symmetry_equiv_pos_as_xyz
  1  'x, y, z'
loop_
 _atom_site_type_symbol
 _atom_site_label
 _atom_site_symmetry_multiplicity
 _atom_site_fract_x
 _atom_site_fract_y
 _atom_site_fract_z
 _atom_site_occupancy
  Ti  Ti0  1  0.50000000  0.13282959  0.06698645  1
  Ti  Ti1  1  0.00000000  0.36717041  0.93301355  1
  Ti  Ti2  1  0.00000000  0.36717041  0.56698645  1
  Ti  Ti3  1  0.50000000  0.13282959  0.43301355  1
  Ti  Ti4  1  0.00000000  0.63282959  0.06698645  1
  Ti  Ti5  1  0.50000000  0.86717041  0.93301355  1
  Ti  Ti6  1  0.50000000  0.86717041  0.56698645  1
  Ti  Ti7  1  0.00000000  0.63282959  0.43301355  1
  Fe  Fe8  1  0.00000000  0.30741075  0.25000000  1
  Fe  Fe9  1  0.50000000  0.19258925  0.75000000  1
  Fe  Fe10  1  0.50000000  0.80741075  0.25000000  1
  Fe  Fe11  1  0.00000000  0.69258925  0.75000000  1
  O  O12  1  0.50000000  0.31407989  0.55875259  1
  O  O13  1  0.00000000  0.18592011  0.44124741  1
  O  O14  1  0.00000000  0.18592011  0.05875259  1
  O  O15  1  0.50000000  0.31407989  0.94124741  1
  O  O16  1  0.50000000  0.04510442  0.61157284  1
  O  O17  1  0.00000000  0.45489558  0.38842716  1
  O  O18  1  0.00000000  0.29503359  0.75000000  1
  O  O19  1  0.50000000  0.20496641  0.25000000  1
  O  O20  1  0.00000000  0.45489558  0.11157284  1
  O  O21  1  0.50000000  0.04510442  0.88842716  1
  O  O22  1  0.00000000  0.81407989  0.55875259  1
  O  O23  1  0.50000000  0.68592011  0.44124741  1
  O  O24  1  0.50000000  0.68592011  0.05875259  1
  O  O25  1  0.00000000  0.81407989  0.94124741  1
  O  O26  1  0.00000000  0.54510442  0.61157284  1
  O  O27  1  0.50000000  0.95489558  0.38842716  1
  O  O28  1  0.50000000  0.79503359  0.75000000  1
  O  O29  1  0.00000000  0.70496641  0.25000000  1
  O  O30  1  0.50000000  0.95489558  0.11157284  1
  O  O31  1  0.00000000  0.54510442  0.88842716  1
