# generated using pymatgen
data_Hg2Mo2O7
_symmetry_space_group_name_H-M   'P 1'
_cell_length_a   6.19355025
_cell_length_b   3.99525885
_cell_length_c   14.89162816
_cell_angle_alpha   90.00000000
_cell_angle_beta   105.39018417
_cell_angle_gamma   90.00000000
_symmetry_Int_Tables_number   1
_chemical_formula_structural   Hg2Mo2O7
_chemical_formula_sum   'Hg4 Mo4 O14'
_cell_volume   355.27714540
_cell_formula_units_Z   2
loop_
 _symmetry_equiv_pos_site_id
 _symmetry_equiv_pos_as_xyz
  1  'x, y, z'
loop_
 _atom_site_type_symbol
 _atom_site_label
 _atom_site_symmetry_multiplicity
 _atom_site_fract_x
 _atom_site_fract_y
 _atom_site_fract_z
 _atom_site_occupancy
  Hg  Hg0  1  0.64593335  0.66638657  0.56303836  1
  Hg  Hg1  1  0.35406665  0.66638657  0.93696164  1
  Hg  Hg2  1  0.35406665  0.33361343  0.43696164  1
  Hg  Hg3  1  0.64593335  0.33361343  0.06303836  1
  Mo  Mo4  1  0.81126657  0.02697677  0.81375861  1
  Mo  Mo5  1  0.18873343  0.02697677  0.68624139  1
  Mo  Mo6  1  0.18873343  0.97302323  0.18624139  1
  Mo  Mo7  1  0.81126657  0.97302323  0.31375861  1
  O  O8  1  0.50000000  0.95987744  0.75000000  1
  O  O9  1  0.50000000  0.04012256  0.25000000  1
  O  O10  1  0.81118288  0.47147334  0.80191248  1
  O  O11  1  0.18881712  0.47147334  0.69808752  1
  O  O12  1  0.18881712  0.52852666  0.19808752  1
  O  O13  1  0.81118288  0.52852666  0.30191248  1
  O  O14  1  0.79694824  0.97551256  0.92824393  1
  O  O15  1  0.20305176  0.97551256  0.57175607  1
  O  O16  1  0.86465108  0.03281014  0.16873897  1
  O  O17  1  0.13534892  0.03281014  0.33126103  1
  O  O18  1  0.13534892  0.96718986  0.83126103  1
  O  O19  1  0.20305176  0.02448744  0.07175607  1
  O  O20  1  0.79694824  0.02448744  0.42824393  1
  O  O21  1  0.86465108  0.96718986  0.66873897  1
