# generated using pymatgen
data_Hg2WO4
_symmetry_space_group_name_H-M   'P 1'
_cell_length_a   8.92181000
_cell_length_b   11.91585000
_cell_length_c   5.06804819
_cell_angle_alpha   90.00000000
_cell_angle_beta   114.93742488
_cell_angle_gamma   90.00000000
_symmetry_Int_Tables_number   1
_chemical_formula_structural   Hg2WO4
_chemical_formula_sum   'Hg8 W4 O16'
_cell_volume   488.55707222
_cell_formula_units_Z   4
loop_
 _symmetry_equiv_pos_site_id
 _symmetry_equiv_pos_as_xyz
  1  'x, y, z'
loop_
 _atom_site_type_symbol
 _atom_site_label
 _atom_site_symmetry_multiplicity
 _atom_site_fract_x
 _atom_site_fract_y
 _atom_site_fract_z
 _atom_site_occupancy
  Hg  Hg0  1  0.35729700  0.88554500  0.52404500  1
  Hg  Hg1  1  0.64270300  0.88554500  0.97595500  1
  Hg  Hg2  1  0.64270300  0.11445500  0.47595500  1
  Hg  Hg3  1  0.35729700  0.11445500  0.02404500  1
  Hg  Hg4  1  0.85729700  0.38554500  0.52404500  1
  Hg  Hg5  1  0.14270300  0.38554500  0.97595500  1
  Hg  Hg6  1  0.14270300  0.61445500  0.47595500  1
  Hg  Hg7  1  0.85729700  0.61445500  0.02404500  1
  W  W8  1  0.50000000  0.40615500  0.75000000  1
  W  W9  1  0.50000000  0.59384500  0.25000000  1
  W  W10  1  0.00000000  0.90615500  0.75000000  1
  W  W11  1  0.00000000  0.09384500  0.25000000  1
  O  O12  1  0.64271950  0.30957850  0.70303700  1
  O  O13  1  0.35728050  0.30957850  0.79696300  1
  O  O14  1  0.35728050  0.69042150  0.29696300  1
  O  O15  1  0.64271950  0.69042150  0.20303700  1
  O  O16  1  0.13270550  0.95223750  0.15298300  1
  O  O17  1  0.86729450  0.95223750  0.34701700  1
  O  O18  1  0.13270550  0.04776250  0.65298300  1
  O  O19  1  0.86729450  0.04776250  0.84701700  1
  O  O20  1  0.14271950  0.80957850  0.70303700  1
  O  O21  1  0.85728050  0.80957850  0.79696300  1
  O  O22  1  0.85728050  0.19042150  0.29696300  1
  O  O23  1  0.14271950  0.19042150  0.20303700  1
  O  O24  1  0.63270550  0.45223750  0.15298300  1
  O  O25  1  0.36729450  0.45223750  0.34701700  1
  O  O26  1  0.63270550  0.54776250  0.65298300  1
  O  O27  1  0.36729450  0.54776250  0.84701700  1
