# generated using pymatgen
data_LiCr2(PO4)3
_symmetry_space_group_name_H-M   'P 1'
_cell_length_a   8.49084989
_cell_length_b   8.49084989
_cell_length_c   20.66636918
_cell_angle_alpha   90.00000000
_cell_angle_beta   90.00000000
_cell_angle_gamma   120.00000000
_symmetry_Int_Tables_number   1
_chemical_formula_structural   LiCr2(PO4)3
_chemical_formula_sum   'Li6 Cr12 P18 O72'
_cell_volume   1290.31914353
_cell_formula_units_Z   6
loop_
 _symmetry_equiv_pos_site_id
 _symmetry_equiv_pos_as_xyz
  1  'x, y, z'
loop_
 _atom_site_type_symbol
 _atom_site_label
 _atom_site_symmetry_multiplicity
 _atom_site_fract_x
 _atom_site_fract_y
 _atom_site_fract_z
 _atom_site_occupancy
  Li  Li0  1  0.00000000  0.00000000  0.00000000  1
  Li  Li1  1  0.33333333  0.66666667  0.16666667  1
  Li  Li2  1  0.66666667  0.33333333  0.33333333  1
  Li  Li3  1  0.00000000  0.00000000  0.50000000  1
  Li  Li4  1  0.33333333  0.66666667  0.66666667  1
  Li  Li5  1  0.66666667  0.33333333  0.83333333  1
  Cr  Cr6  1  0.33333333  0.66666667  0.30638867  1
  Cr  Cr7  1  0.33333333  0.66666667  0.80638867  1
  Cr  Cr8  1  0.33333333  0.66666667  0.02694467  1
  Cr  Cr9  1  0.33333333  0.66666667  0.52694467  1
  Cr  Cr10  1  0.00000000  0.00000000  0.63972200  1
  Cr  Cr11  1  0.00000000  0.00000000  0.13972200  1
  Cr  Cr12  1  0.00000000  0.00000000  0.36027800  1
  Cr  Cr13  1  1.00000000  0.00000000  0.86027800  1
  Cr  Cr14  1  0.66666667  0.33333333  0.97305533  1
  Cr  Cr15  1  0.66666667  0.33333333  0.47305533  1
  Cr  Cr16  1  0.66666667  0.33333333  0.69361133  1
  Cr  Cr17  1  0.66666667  0.33333333  0.19361133  1
  P  P18  1  0.37836467  0.04503133  0.08333333  1
  P  P19  1  0.71169800  0.00000000  0.25000000  1
  P  P20  1  0.95496867  0.33333333  0.08333333  1
  P  P21  1  0.66666667  0.62163533  0.08333333  1
  P  P22  1  0.00000000  0.71169800  0.25000000  1
  P  P23  1  0.28830200  0.28830200  0.25000000  1
  P  P24  1  0.04503133  0.37836467  0.41666667  1
  P  P25  1  0.37836467  0.33333333  0.58333333  1
  P  P26  1  0.62163533  0.66666667  0.41666667  1
  P  P27  1  0.33333333  0.95496867  0.41666667  1
  P  P28  1  0.66666667  0.04503133  0.58333333  1
  P  P29  1  0.95496867  0.62163533  0.58333333  1
  P  P30  1  0.71169800  0.71169800  0.75000000  1
  P  P31  1  0.04503133  0.66666667  0.91666667  1
  P  P32  1  0.28830200  0.00000000  0.75000000  1
  P  P33  1  0.00000000  0.28830200  0.75000000  1
  P  P34  1  0.33333333  0.37836467  0.91666667  1
  P  P35  1  0.62163533  0.95496867  0.91666667  1
  O  O36  1  0.14743900  0.50434200  0.08630800  1
  O  O37  1  0.33770067  0.85697733  0.35482633  1
  O  O38  1  0.35690300  0.85256100  0.08630800  1
  O  O39  1  0.69023633  0.17100867  0.25297467  1
  O  O40  1  0.00436733  0.81405667  0.18815967  1
  O  O41  1  0.49565800  0.64309700  0.08630800  1
  O  O42  1  0.18594333  0.19031067  0.18815967  1
  O  O43  1  0.51927667  0.66229933  0.35482633  1
  O  O44  1  0.14739000  0.67103400  0.97850700  1
  O  O45  1  0.48072333  0.14302267  0.14517367  1
  O  O46  1  0.17100867  0.69023633  0.24702533  1
  O  O47  1  0.83767533  0.81410567  0.08035867  1
  O  O48  1  0.32896600  0.47635600  0.97850700  1
  O  O49  1  0.66229933  0.51927667  0.14517367  1
  O  O50  1  0.30976367  0.48077233  0.24702533  1
  O  O51  1  0.97643033  0.16232467  0.08035867  1
  O  O52  1  0.52364400  0.85261000  0.97850700  1
  O  O53  1  0.18589433  0.02356967  0.08035867  1
  O  O54  1  0.85697733  0.33770067  0.14517367  1
  O  O55  1  0.48077233  0.30976367  0.25297467  1
  O  O56  1  0.51922767  0.82899133  0.24702533  1
  O  O57  1  0.82899133  0.51922767  0.25297467  1
  O  O58  1  0.14302267  0.48072333  0.35482633  1
  O  O59  1  0.80968933  0.99563267  0.18815967  1
  O  O60  1  0.81410567  0.83767533  0.41964133  1
  O  O61  1  0.00436733  0.19031067  0.68815967  1
  O  O62  1  0.02356967  0.18589433  0.41964133  1
  O  O63  1  0.35690300  0.50434200  0.58630800  1
  O  O64  1  0.67103400  0.14739000  0.52149300  1
  O  O65  1  0.16232467  0.97643033  0.41964133  1
  O  O66  1  0.85261000  0.52364400  0.52149300  1
  O  O67  1  0.18594333  0.99563267  0.68815967  1
  O  O68  1  0.81405667  0.00436733  0.31184033  1
  O  O69  1  0.14739000  0.47635600  0.47850700  1
  O  O70  1  0.83767533  0.02356967  0.58035867  1
  O  O71  1  0.50434200  0.14743900  0.41369200  1
  O  O72  1  0.99563267  0.80968933  0.31184033  1
  O  O73  1  0.32896600  0.85261000  0.47850700  1
  O  O74  1  0.97643033  0.81410567  0.58035867  1
  O  O75  1  0.64309700  0.49565800  0.41369200  1
  O  O76  1  0.19031067  0.18594333  0.31184033  1
  O  O77  1  0.85256100  0.35690300  0.41369200  1
  O  O78  1  0.52364400  0.67103400  0.47850700  1
  O  O79  1  0.14743900  0.64309700  0.58630800  1
  O  O80  1  0.18589433  0.16232467  0.58035867  1
  O  O81  1  0.49565800  0.85256100  0.58630800  1
  O  O82  1  0.80968933  0.81405667  0.68815967  1
  O  O83  1  0.47635600  0.32896600  0.52149300  1
  O  O84  1  0.48077233  0.17100867  0.75297467  1
  O  O85  1  0.67103400  0.52364400  0.02149300  1
  O  O86  1  0.69023633  0.51922767  0.75297467  1
  O  O87  1  0.02356967  0.83767533  0.91964133  1
  O  O88  1  0.33770067  0.48072333  0.85482633  1
  O  O89  1  0.82899133  0.30976367  0.75297467  1
  O  O90  1  0.51927667  0.85697733  0.85482633  1
  O  O91  1  0.85261000  0.32896600  0.02149300  1
  O  O92  1  0.48072333  0.33770067  0.64517367  1
  O  O93  1  0.81405667  0.80968933  0.81184033  1
  O  O94  1  0.50434200  0.35690300  0.91369200  1
  O  O95  1  0.17100867  0.48077233  0.74702533  1
  O  O96  1  0.66229933  0.14302267  0.64517367  1
  O  O97  1  0.99563267  0.18594333  0.81184033  1
  O  O98  1  0.64309700  0.14743900  0.91369200  1
  O  O99  1  0.30976367  0.82899133  0.74702533  1
  O  O100  1  0.85697733  0.51927667  0.64517367  1
  O  O101  1  0.51922767  0.69023633  0.74702533  1
  O  O102  1  0.19031067  0.00436733  0.81184033  1
  O  O103  1  0.81410567  0.97643033  0.91964133  1
  O  O104  1  0.85256100  0.49565800  0.91369200  1
  O  O105  1  0.16232467  0.18589433  0.91964133  1
  O  O106  1  0.47635600  0.14739000  0.02149300  1
  O  O107  1  0.14302267  0.66229933  0.85482633  1
