# generated using pymatgen
data_Mg(TiS2)4
_symmetry_space_group_name_H-M   'P 1'
_cell_length_a   7.05692799
_cell_length_b   7.05692799
_cell_length_c   17.12720102
_cell_angle_alpha   90.00000000
_cell_angle_beta   90.00000000
_cell_angle_gamma   120.00000000
_symmetry_Int_Tables_number   1
_chemical_formula_structural   Mg(TiS2)4
_chemical_formula_sum   'Mg3 Ti12 S24'
_cell_volume   738.66649231
_cell_formula_units_Z   3
loop_
 _symmetry_equiv_pos_site_id
 _symmetry_equiv_pos_as_xyz
  1  'x, y, z'
loop_
 _atom_site_type_symbol
 _atom_site_label
 _atom_site_symmetry_multiplicity
 _atom_site_fract_x
 _atom_site_fract_y
 _atom_site_fract_z
 _atom_site_occupancy
  Mg  Mg0  1  0.00000000  0.00000000  0.00000000  1
  Mg  Mg1  1  0.66666667  0.33333333  0.33333333  1
  Mg  Mg2  1  0.33333333  0.66666667  0.66666667  1
  Ti  Ti3  1  0.00000000  0.50000000  0.00000000  1
  Ti  Ti4  1  0.50000000  0.50000000  0.00000000  1
  Ti  Ti5  1  0.16666667  0.33333333  0.33333333  1
  Ti  Ti6  1  0.33333333  0.66666667  0.16666667  1
  Ti  Ti7  1  0.66666667  0.83333333  0.33333333  1
  Ti  Ti8  1  0.16666667  0.83333333  0.33333333  1
  Ti  Ti9  1  0.83333333  0.66666667  0.66666667  1
  Ti  Ti10  1  1.00000000  1.00000000  0.50000000  1
  Ti  Ti11  1  0.33333333  0.16666667  0.66666667  1
  Ti  Ti12  1  0.83333333  0.16666667  0.66666667  1
  Ti  Ti13  1  0.50000000  0.00000000  0.00000000  1
  Ti  Ti14  1  0.66666667  0.33333333  0.83333333  1
  S  S15  1  0.33333333  0.66666667  0.41235167  1
  S  S16  1  0.17094333  0.34188667  0.08349667  1
  S  S17  1  0.65811333  0.82905667  0.08349667  1
  S  S18  1  0.17094333  0.82905667  0.08349667  1
  S  S19  1  0.33333333  0.66666667  0.92098167  1
  S  S20  1  0.49572333  0.99144667  0.24983667  1
  S  S21  1  0.49572333  0.50427667  0.24983667  1
  S  S22  1  0.00855333  0.50427667  0.24983667  1
  S  S23  1  0.00000000  0.00000000  0.74568500  1
  S  S24  1  0.83761000  0.67522000  0.41683000  1
  S  S25  1  0.32478000  0.16239000  0.41683000  1
  S  S26  1  0.83761000  0.16239000  0.41683000  1
  S  S27  1  0.00000000  0.00000000  0.25431500  1
  S  S28  1  0.16239000  0.32478000  0.58317000  1
  S  S29  1  0.16239000  0.83761000  0.58317000  1
  S  S30  1  0.67522000  0.83761000  0.58317000  1
  S  S31  1  0.66666667  0.33333333  0.07901833  1
  S  S32  1  0.50427667  0.00855333  0.75016333  1
  S  S33  1  0.99144667  0.49572333  0.75016333  1
  S  S34  1  0.50427667  0.49572333  0.75016333  1
  S  S35  1  0.66666667  0.33333333  0.58764833  1
  S  S36  1  0.82905667  0.65811333  0.91650333  1
  S  S37  1  0.82905667  0.17094333  0.91650333  1
  S  S38  1  0.34188667  0.17094333  0.91650333  1
