# generated using pymatgen
data_CrPO4
_symmetry_space_group_name_H-M   'P 1'
_cell_length_a   5.33099400
_cell_length_b   9.22960200
_cell_length_c   11.61207000
_cell_angle_alpha   90.00000000
_cell_angle_beta   90.00000000
_cell_angle_gamma   90.00000000
_symmetry_Int_Tables_number   1
_chemical_formula_structural   CrPO4
_chemical_formula_sum   'Cr8 P8 O32'
_cell_volume   571.34813310
_cell_formula_units_Z   8
loop_
 _symmetry_equiv_pos_site_id
 _symmetry_equiv_pos_as_xyz
  1  'x, y, z'
loop_
 _atom_site_type_symbol
 _atom_site_label
 _atom_site_symmetry_multiplicity
 _atom_site_fract_x
 _atom_site_fract_y
 _atom_site_fract_z
 _atom_site_occupancy
  Cr  Cr0  1  0.50000000  0.81704800  0.00000000  1
  Cr  Cr1  1  0.75000000  0.56704800  0.75000000  1
  Cr  Cr2  1  0.50000000  0.31704800  0.50000000  1
  Cr  Cr3  1  0.75000000  0.06704800  0.25000000  1
  Cr  Cr4  1  0.00000000  0.31704800  0.00000000  1
  Cr  Cr5  1  0.25000000  0.06704800  0.75000000  1
  Cr  Cr6  1  0.00000000  0.81704800  0.50000000  1
  Cr  Cr7  1  0.25000000  0.56704800  0.25000000  1
  P  P8  1  0.50000000  0.13096900  0.00000000  1
  P  P9  1  0.75000000  0.88096900  0.75000000  1
  P  P10  1  0.50000000  0.63096900  0.50000000  1
  P  P11  1  0.75000000  0.38096900  0.25000000  1
  P  P12  1  0.00000000  0.63096900  0.00000000  1
  P  P13  1  0.25000000  0.38096900  0.75000000  1
  P  P14  1  0.00000000  0.13096900  0.50000000  1
  P  P15  1  0.25000000  0.88096900  0.25000000  1
  O  O16  1  0.04410600  0.97319600  0.19341300  1
  O  O17  1  0.38981850  0.02130600  0.91018450  1
  O  O18  1  0.29410600  0.22319600  0.05658700  1
  O  O19  1  0.95589400  0.97319600  0.80658700  1
  O  O20  1  0.63981850  0.77130600  0.83981550  1
  O  O21  1  0.61018150  0.02130600  0.08981550  1
  O  O22  1  0.70589400  0.22319600  0.94341300  1
  O  O23  1  0.36018150  0.77130600  0.16018450  1
  O  O24  1  0.04410600  0.47319600  0.69341300  1
  O  O25  1  0.38981850  0.52130600  0.41018450  1
  O  O26  1  0.29410600  0.72319600  0.55658700  1
  O  O27  1  0.95589400  0.47319600  0.30658700  1
  O  O28  1  0.63981850  0.27130600  0.33981550  1
  O  O29  1  0.61018150  0.52130600  0.58981550  1
  O  O30  1  0.70589400  0.72319600  0.44341300  1
  O  O31  1  0.36018150  0.27130600  0.66018450  1
  O  O32  1  0.54410600  0.47319600  0.19341300  1
  O  O33  1  0.88981850  0.52130600  0.91018450  1
  O  O34  1  0.79410600  0.72319600  0.05658700  1
  O  O35  1  0.45589400  0.47319600  0.80658700  1
  O  O36  1  0.13981850  0.27130600  0.83981550  1
  O  O37  1  0.11018150  0.52130600  0.08981550  1
  O  O38  1  0.20589400  0.72319600  0.94341300  1
  O  O39  1  0.86018150  0.27130600  0.16018450  1
  O  O40  1  0.54410600  0.97319600  0.69341300  1
  O  O41  1  0.88981850  0.02130600  0.41018450  1
  O  O42  1  0.79410600  0.22319600  0.55658700  1
  O  O43  1  0.45589400  0.97319600  0.30658700  1
  O  O44  1  0.13981850  0.77130600  0.33981550  1
  O  O45  1  0.11018150  0.02130600  0.58981550  1
  O  O46  1  0.20589400  0.22319600  0.44341300  1
  O  O47  1  0.86018150  0.77130600  0.66018450  1
