# generated using pymatgen
data_LiFeP2O7
_symmetry_space_group_name_H-M   'P 1'
_cell_length_a   8.60841500
_cell_length_b   5.10708300
_cell_length_c   13.70757767
_cell_angle_alpha   90.00000000
_cell_angle_beta   116.07470399
_cell_angle_gamma   90.00000000
_symmetry_Int_Tables_number   1
_chemical_formula_structural   LiFeP2O7
_chemical_formula_sum   'Li4 Fe4 P8 O28'
_cell_volume   541.30293246
_cell_formula_units_Z   4
loop_
 _symmetry_equiv_pos_site_id
 _symmetry_equiv_pos_as_xyz
  1  'x, y, z'
loop_
 _atom_site_type_symbol
 _atom_site_label
 _atom_site_symmetry_multiplicity
 _atom_site_fract_x
 _atom_site_fract_y
 _atom_site_fract_z
 _atom_site_occupancy
  Li  Li0  1  0.94074400  0.51244700  0.31504000  1
  Li  Li1  1  0.50258900  0.02425700  0.91449600  1
  Li  Li2  1  0.94074400  0.48755300  0.81504000  1
  Li  Li3  1  0.50258900  0.97574300  0.41449600  1
  Fe  Fe4  1  0.22997800  0.98826100  0.98070900  1
  Fe  Fe5  1  0.22997800  0.01173900  0.48070900  1
  Fe  Fe6  1  0.76804500  0.49328800  0.53242300  1
  Fe  Fe7  1  0.76804500  0.50671200  0.03242300  1
  P  P8  1  0.32957500  0.49122300  0.36067600  1
  P  P9  1  0.67393800  0.00214900  0.64412800  1
  P  P10  1  0.19000400  0.51441300  0.61715200  1
  P  P11  1  0.32957500  0.50877700  0.86067600  1
  P  P12  1  0.19000400  0.48558700  0.11715200  1
  P  P13  1  0.67393800  0.99785100  0.14412800  1
  P  P14  1  0.80859000  0.00072500  0.88185500  1
  P  P15  1  0.80859000  0.99927500  0.38185500  1
  O  O16  1  0.79235900  0.79273300  0.63178000  1
  O  O17  1  0.51590800  0.41933300  0.93348000  1
  O  O18  1  0.82439300  0.29518300  0.90509000  1
  O  O19  1  0.72444400  0.85337600  0.94410800  1
  O  O20  1  0.26280100  0.66129500  0.05779000  1
  O  O21  1  0.19460200  0.19724300  0.08766100  1
  O  O22  1  0.48991800  0.02960200  0.05618500  1
  O  O23  1  0.79235900  0.20726700  0.13178000  1
  O  O24  1  0.74603300  0.71888600  0.15262800  1
  O  O25  1  0.01328700  0.56925300  0.10665000  1
  O  O26  1  0.32378900  0.52970600  0.24215000  1
  O  O27  1  0.66370800  0.04843000  0.25727800  1
  O  O28  1  0.51590800  0.58066700  0.43348000  1
  O  O29  1  0.82439300  0.70481700  0.40509000  1
  O  O30  1  0.97529800  0.12407400  0.38786100  1
  O  O31  1  0.19492900  0.33001000  0.87215600  1
  O  O32  1  0.19492900  0.66999000  0.37215600  1
  O  O33  1  0.29594100  0.19854300  0.36783000  1
  O  O34  1  0.72444400  0.14662400  0.44410800  1
  O  O35  1  0.74603300  0.28111400  0.65262800  1
  O  O36  1  0.26280100  0.33870500  0.55779000  1
  O  O37  1  0.01328700  0.43074700  0.60665000  1
  O  O38  1  0.19460200  0.80275700  0.58766100  1
  O  O39  1  0.48991800  0.97039800  0.55618500  1
  O  O40  1  0.32378900  0.47029400  0.74215000  1
  O  O41  1  0.66370800  0.95157000  0.75727800  1
  O  O42  1  0.97529800  0.87592600  0.88786100  1
  O  O43  1  0.29594100  0.80145700  0.86783000  1
