# generated using pymatgen
data_Tb2SmS4
_symmetry_space_group_name_H-M   'P 1'
_cell_length_a   8.39232200
_cell_length_b   8.39232200
_cell_length_c   8.35269400
_cell_angle_alpha   90.00000000
_cell_angle_beta   90.00000000
_cell_angle_gamma   90.00000000
_symmetry_Int_Tables_number   1
_chemical_formula_structural   Tb2SmS4
_chemical_formula_sum   'Tb8 Sm4 S16'
_cell_volume   588.28916371
_cell_formula_units_Z   4
loop_
 _symmetry_equiv_pos_site_id
 _symmetry_equiv_pos_as_xyz
  1  'x, y, z'
loop_
 _atom_site_type_symbol
 _atom_site_label
 _atom_site_symmetry_multiplicity
 _atom_site_fract_x
 _atom_site_fract_y
 _atom_site_fract_z
 _atom_site_occupancy
  Tb  Tb0  1  0.87416200  0.75000000  0.87500000  1
  Tb  Tb1  1  0.75000000  0.12583800  0.12500000  1
  Tb  Tb2  1  0.62583800  0.75000000  0.37500000  1
  Tb  Tb3  1  0.75000000  0.37416200  0.62500000  1
  Tb  Tb4  1  0.37416200  0.25000000  0.37500000  1
  Tb  Tb5  1  0.25000000  0.62583800  0.62500000  1
  Tb  Tb6  1  0.12583800  0.25000000  0.87500000  1
  Tb  Tb7  1  0.25000000  0.87416200  0.12500000  1
  Sm  Sm8  1  0.50000000  0.00000000  0.75000000  1
  Sm  Sm9  1  0.00000000  0.00000000  0.50000000  1
  Sm  Sm10  1  0.00000000  0.50000000  0.25000000  1
  Sm  Sm11  1  0.50000000  0.50000000  0.00000000  1
  S  S12  1  0.07335250  0.32482650  0.55424050  1
  S  S13  1  0.82482650  0.07335250  0.80424050  1
  S  S14  1  0.42664750  0.32482650  0.69575950  1
  S  S15  1  0.82482650  0.42664750  0.94575950  1
  S  S16  1  0.67517350  0.42664750  0.30424050  1
  S  S17  1  0.07335250  0.17517350  0.19575950  1
  S  S18  1  0.67517350  0.07335250  0.44575950  1
  S  S19  1  0.42664750  0.17517350  0.05424050  1
  S  S20  1  0.57335250  0.82482650  0.05424050  1
  S  S21  1  0.32482650  0.57335250  0.30424050  1
  S  S22  1  0.92664750  0.82482650  0.19575950  1
  S  S23  1  0.32482650  0.92664750  0.44575950  1
  S  S24  1  0.17517350  0.92664750  0.80424050  1
  S  S25  1  0.57335250  0.67517350  0.69575950  1
  S  S26  1  0.17517350  0.57335250  0.94575950  1
  S  S27  1  0.92664750  0.67517350  0.55424050  1
