# generated using pymatgen
data_Li2Co(PO3)4
_symmetry_space_group_name_H-M   'P 1'
_cell_length_a   9.28188200
_cell_length_b   14.37638800
_cell_length_c   7.64420249
_cell_angle_alpha   90.00000000
_cell_angle_beta   102.75489618
_cell_angle_gamma   90.00000000
_symmetry_Int_Tables_number   1
_chemical_formula_structural   Li2Co(PO3)4
_chemical_formula_sum   'Li8 Co4 P16 O48'
_cell_volume   994.87079112
_cell_formula_units_Z   4
loop_
 _symmetry_equiv_pos_site_id
 _symmetry_equiv_pos_as_xyz
  1  'x, y, z'
loop_
 _atom_site_type_symbol
 _atom_site_label
 _atom_site_symmetry_multiplicity
 _atom_site_fract_x
 _atom_site_fract_y
 _atom_site_fract_z
 _atom_site_occupancy
  Li  Li0  1  0.66372350  0.84766450  0.24595700  1
  Li  Li1  1  0.33627650  0.15233550  0.75404300  1
  Li  Li2  1  0.33627650  0.84766450  0.25404300  1
  Li  Li3  1  0.66372350  0.15233550  0.74595700  1
  Li  Li4  1  0.16372350  0.34766450  0.24595700  1
  Li  Li5  1  0.83627650  0.65233550  0.75404300  1
  Li  Li6  1  0.83627650  0.34766450  0.25404300  1
  Li  Li7  1  0.16372350  0.65233550  0.74595700  1
  Co  Co8  1  0.50000000  0.62824900  0.75000000  1
  Co  Co9  1  0.50000000  0.37175100  0.25000000  1
  Co  Co10  1  0.00000000  0.12824900  0.75000000  1
  Co  Co11  1  0.00000000  0.87175100  0.25000000  1
  P  P12  1  0.40002850  0.82629050  0.87659200  1
  P  P13  1  0.13625000  0.07162300  0.17289700  1
  P  P14  1  0.86375000  0.07162300  0.32710300  1
  P  P15  1  0.86375000  0.92837700  0.82710300  1
  P  P16  1  0.59997150  0.17370950  0.12340800  1
  P  P17  1  0.13625000  0.92837700  0.67289700  1
  P  P18  1  0.40002850  0.17370950  0.37659200  1
  P  P19  1  0.59997150  0.82629050  0.62340800  1
  P  P20  1  0.90002850  0.32629050  0.87659200  1
  P  P21  1  0.63625000  0.57162300  0.17289700  1
  P  P22  1  0.36375000  0.57162300  0.32710300  1
  P  P23  1  0.36375000  0.42837700  0.82710300  1
  P  P24  1  0.09997150  0.67370950  0.12340800  1
  P  P25  1  0.63625000  0.42837700  0.67289700  1
  P  P26  1  0.90002850  0.67370950  0.37659200  1
  P  P27  1  0.09997150  0.32629050  0.62340800  1
  O  O28  1  0.50000000  0.39057500  0.75000000  1
  O  O29  1  0.13967350  0.03333450  0.66846900  1
  O  O30  1  0.86032650  0.96666550  0.33153100  1
  O  O31  1  0.86032650  0.03333450  0.83153100  1
  O  O32  1  0.85465050  0.12641450  0.49128000  1
  O  O33  1  0.85465050  0.87358550  0.99128000  1
  O  O34  1  0.73327200  0.10157600  0.16011200  1
  O  O35  1  0.73327200  0.89842400  0.66011200  1
  O  O36  1  0.65078200  0.27017700  0.18933000  1
  O  O37  1  0.65078200  0.72982300  0.68933000  1
  O  O38  1  0.52688350  0.83962850  0.42993000  1
  O  O39  1  0.50000000  0.13003500  0.25000000  1
  O  O40  1  0.50000000  0.60942500  0.25000000  1
  O  O41  1  0.14534950  0.87358550  0.50872000  1
  O  O42  1  0.47311650  0.83962850  0.07007000  1
  O  O43  1  0.52688350  0.16037150  0.92993000  1
  O  O44  1  0.50000000  0.86996500  0.75000000  1
  O  O45  1  0.47311650  0.16037150  0.57007000  1
  O  O46  1  0.34921800  0.27017700  0.31067000  1
  O  O47  1  0.34921800  0.72982300  0.81067000  1
  O  O48  1  0.26672800  0.10157600  0.33988800  1
  O  O49  1  0.26672800  0.89842400  0.83988800  1
  O  O50  1  0.14534950  0.12641450  0.00872000  1
  O  O51  1  0.13967350  0.96666550  0.16846900  1
  O  O52  1  0.00000000  0.89057500  0.75000000  1
  O  O53  1  0.63967350  0.53333450  0.66846900  1
  O  O54  1  0.36032650  0.46666550  0.33153100  1
  O  O55  1  0.36032650  0.53333450  0.83153100  1
  O  O56  1  0.35465050  0.62641450  0.49128000  1
  O  O57  1  0.35465050  0.37358550  0.99128000  1
  O  O58  1  0.23327200  0.60157600  0.16011200  1
  O  O59  1  0.23327200  0.39842400  0.66011200  1
  O  O60  1  0.15078200  0.77017700  0.18933000  1
  O  O61  1  0.15078200  0.22982300  0.68933000  1
  O  O62  1  0.02688350  0.33962850  0.42993000  1
  O  O63  1  0.00000000  0.63003500  0.25000000  1
  O  O64  1  0.00000000  0.10942500  0.25000000  1
  O  O65  1  0.64534950  0.37358550  0.50872000  1
  O  O66  1  0.97311650  0.33962850  0.07007000  1
  O  O67  1  0.02688350  0.66037150  0.92993000  1
  O  O68  1  0.00000000  0.36996500  0.75000000  1
  O  O69  1  0.97311650  0.66037150  0.57007000  1
  O  O70  1  0.84921800  0.77017700  0.31067000  1
  O  O71  1  0.84921800  0.22982300  0.81067000  1
  O  O72  1  0.76672800  0.60157600  0.33988800  1
  O  O73  1  0.76672800  0.39842400  0.83988800  1
  O  O74  1  0.64534950  0.62641450  0.00872000  1
  O  O75  1  0.63967350  0.46666550  0.16846900  1
