# generated using pymatgen
data_Tb3ReO7
_symmetry_space_group_name_H-M   'P 1'
_cell_length_a   7.44359800
_cell_length_b   10.61473800
_cell_length_c   7.46541000
_cell_angle_alpha   90.00000000
_cell_angle_beta   90.00000000
_cell_angle_gamma   90.00000000
_symmetry_Int_Tables_number   1
_chemical_formula_structural   Tb3ReO7
_chemical_formula_sum   'Tb12 Re4 O28'
_cell_volume   589.85579947
_cell_formula_units_Z   4
loop_
 _symmetry_equiv_pos_site_id
 _symmetry_equiv_pos_as_xyz
  1  'x, y, z'
loop_
 _atom_site_type_symbol
 _atom_site_label
 _atom_site_symmetry_multiplicity
 _atom_site_fract_x
 _atom_site_fract_y
 _atom_site_fract_z
 _atom_site_occupancy
  Tb  Tb0  1  0.50000000  0.00000000  0.00000000  1
  Tb  Tb1  1  0.50000000  0.00000000  0.50000000  1
  Tb  Tb2  1  0.71280450  0.73230350  0.75000000  1
  Tb  Tb3  1  0.28719550  0.26769650  0.25000000  1
  Tb  Tb4  1  0.71280450  0.26769650  0.75000000  1
  Tb  Tb5  1  0.28719550  0.73230350  0.25000000  1
  Tb  Tb6  1  0.00000000  0.50000000  0.00000000  1
  Tb  Tb7  1  0.00000000  0.50000000  0.50000000  1
  Tb  Tb8  1  0.21280450  0.23230350  0.75000000  1
  Tb  Tb9  1  0.78719550  0.76769650  0.25000000  1
  Tb  Tb10  1  0.21280450  0.76769650  0.75000000  1
  Tb  Tb11  1  0.78719550  0.23230350  0.25000000  1
  Re  Re12  1  0.00000000  0.00000000  0.00000000  1
  Re  Re13  1  0.00000000  0.00000000  0.50000000  1
  Re  Re14  1  0.50000000  0.50000000  0.00000000  1
  Re  Re15  1  0.50000000  0.50000000  0.50000000  1
  O  O16  1  0.47873150  0.13349650  0.75000000  1
  O  O17  1  0.52126850  0.86650350  0.25000000  1
  O  O18  1  0.47873150  0.86650350  0.75000000  1
  O  O19  1  0.52126850  0.13349650  0.25000000  1
  O  O20  1  0.19636000  0.12677200  0.02892700  1
  O  O21  1  0.80364000  0.87322800  0.52892700  1
  O  O22  1  0.19636000  0.87322800  0.47107300  1
  O  O23  1  0.80364000  0.12677200  0.97107300  1
  O  O24  1  0.95017700  0.00000000  0.25000000  1
  O  O25  1  0.04982300  0.00000000  0.75000000  1
  O  O26  1  0.19636000  0.87322800  0.02892700  1
  O  O27  1  0.80364000  0.12677200  0.52892700  1
  O  O28  1  0.19636000  0.12677200  0.47107300  1
  O  O29  1  0.80364000  0.87322800  0.97107300  1
  O  O30  1  0.97873150  0.63349650  0.75000000  1
  O  O31  1  0.02126850  0.36650350  0.25000000  1
  O  O32  1  0.97873150  0.36650350  0.75000000  1
  O  O33  1  0.02126850  0.63349650  0.25000000  1
  O  O34  1  0.69636000  0.62677200  0.02892700  1
  O  O35  1  0.30364000  0.37322800  0.52892700  1
  O  O36  1  0.69636000  0.37322800  0.47107300  1
  O  O37  1  0.30364000  0.62677200  0.97107300  1
  O  O38  1  0.45017700  0.50000000  0.25000000  1
  O  O39  1  0.54982300  0.50000000  0.75000000  1
  O  O40  1  0.69636000  0.37322800  0.02892700  1
  O  O41  1  0.30364000  0.62677200  0.52892700  1
  O  O42  1  0.69636000  0.62677200  0.47107300  1
  O  O43  1  0.30364000  0.37322800  0.97107300  1
