# generated using pymatgen
data_Nb21S8
_symmetry_space_group_name_H-M   'P 1'
_cell_length_a   16.93667600
_cell_length_b   16.93667600
_cell_length_c   3.37938000
_cell_angle_alpha   90.00000000
_cell_angle_beta   90.00000000
_cell_angle_gamma   90.00000000
_symmetry_Int_Tables_number   1
_chemical_formula_structural   Nb21S8
_chemical_formula_sum   'Nb42 S16'
_cell_volume   969.37851186
_cell_formula_units_Z   2
loop_
 _symmetry_equiv_pos_site_id
 _symmetry_equiv_pos_as_xyz
  1  'x, y, z'
loop_
 _atom_site_type_symbol
 _atom_site_label
 _atom_site_symmetry_multiplicity
 _atom_site_fract_x
 _atom_site_fract_y
 _atom_site_fract_z
 _atom_site_occupancy
  Nb  Nb0  1  0.72192700  0.01988600  0.00000000  1
  Nb  Nb1  1  0.38405050  0.81459250  0.00000000  1
  Nb  Nb2  1  0.31459250  0.11594950  0.50000000  1
  Nb  Nb3  1  0.68540750  0.88405050  0.50000000  1
  Nb  Nb4  1  0.61594950  0.18540750  0.00000000  1
  Nb  Nb5  1  0.69184000  0.30225500  0.50000000  1
  Nb  Nb6  1  0.80225500  0.80816000  0.00000000  1
  Nb  Nb7  1  0.19774500  0.19184000  0.00000000  1
  Nb  Nb8  1  0.30816000  0.69774500  0.50000000  1
  Nb  Nb9  1  0.45130400  0.63505800  0.00000000  1
  Nb  Nb10  1  0.13505800  0.04869600  0.50000000  1
  Nb  Nb11  1  0.86494200  0.95130400  0.50000000  1
  Nb  Nb12  1  0.54869600  0.36494200  0.00000000  1
  Nb  Nb13  1  0.51988600  0.77807300  0.50000000  1
  Nb  Nb14  1  0.48011400  0.22192700  0.50000000  1
  Nb  Nb15  1  0.27807300  0.98011400  0.00000000  1
  Nb  Nb16  1  0.41884700  0.95023300  0.50000000  1
  Nb  Nb17  1  0.45023300  0.08115300  0.00000000  1
  Nb  Nb18  1  0.54976700  0.91884700  0.00000000  1
  Nb  Nb19  1  0.58115300  0.04976700  0.50000000  1
  Nb  Nb20  1  0.00000000  0.00000000  0.00000000  1
  Nb  Nb21  1  0.22192700  0.51988600  0.50000000  1
  Nb  Nb22  1  0.88405050  0.31459250  0.50000000  1
  Nb  Nb23  1  0.81459250  0.61594950  0.00000000  1
  Nb  Nb24  1  0.18540750  0.38405050  0.00000000  1
  Nb  Nb25  1  0.11594950  0.68540750  0.50000000  1
  Nb  Nb26  1  0.19184000  0.80225500  0.00000000  1
  Nb  Nb27  1  0.30225500  0.30816000  0.50000000  1
  Nb  Nb28  1  0.69774500  0.69184000  0.50000000  1
  Nb  Nb29  1  0.80816000  0.19774500  0.00000000  1
  Nb  Nb30  1  0.95130400  0.13505800  0.50000000  1
  Nb  Nb31  1  0.63505800  0.54869600  0.00000000  1
  Nb  Nb32  1  0.36494200  0.45130400  0.00000000  1
  Nb  Nb33  1  0.04869600  0.86494200  0.50000000  1
  Nb  Nb34  1  0.01988600  0.27807300  0.00000000  1
  Nb  Nb35  1  0.98011400  0.72192700  0.00000000  1
  Nb  Nb36  1  0.77807300  0.48011400  0.50000000  1
  Nb  Nb37  1  0.91884700  0.45023300  0.00000000  1
  Nb  Nb38  1  0.95023300  0.58115300  0.50000000  1
  Nb  Nb39  1  0.04976700  0.41884700  0.50000000  1
  Nb  Nb40  1  0.08115300  0.54976700  0.00000000  1
  Nb  Nb41  1  0.50000000  0.50000000  0.50000000  1
  S  S42  1  0.28710000  0.86438400  0.50000000  1
  S  S43  1  0.36438400  0.21290000  0.00000000  1
  S  S44  1  0.63561600  0.78710000  0.00000000  1
  S  S45  1  0.71290000  0.13561600  0.50000000  1
  S  S46  1  0.86258000  0.06392500  0.00000000  1
  S  S47  1  0.56392500  0.63742000  0.50000000  1
  S  S48  1  0.43607500  0.36258000  0.50000000  1
  S  S49  1  0.13742000  0.93607500  0.00000000  1
  S  S50  1  0.78710000  0.36438400  0.00000000  1
  S  S51  1  0.86438400  0.71290000  0.50000000  1
  S  S52  1  0.13561600  0.28710000  0.50000000  1
  S  S53  1  0.21290000  0.63561600  0.00000000  1
  S  S54  1  0.36258000  0.56392500  0.50000000  1
  S  S55  1  0.06392500  0.13742000  0.00000000  1
  S  S56  1  0.93607500  0.86258000  0.00000000  1
  S  S57  1  0.63742000  0.43607500  0.50000000  1
