# generated using pymatgen
data_Ho3(GePd)4
_symmetry_space_group_name_H-M   'P 1'
_cell_length_a   4.17201600
_cell_length_b   7.10777800
_cell_length_c   13.98145000
_cell_angle_alpha   90.00000000
_cell_angle_beta   90.00000000
_cell_angle_gamma   90.00000000
_symmetry_Int_Tables_number   1
_chemical_formula_structural   Ho3(GePd)4
_chemical_formula_sum   'Ho6 Ge8 Pd8'
_cell_volume   414.60261225
_cell_formula_units_Z   2
loop_
 _symmetry_equiv_pos_site_id
 _symmetry_equiv_pos_as_xyz
  1  'x, y, z'
loop_
 _atom_site_type_symbol
 _atom_site_label
 _atom_site_symmetry_multiplicity
 _atom_site_fract_x
 _atom_site_fract_y
 _atom_site_fract_z
 _atom_site_occupancy
  Ho  Ho0  1  0.50000000  0.00000000  0.62585400  1
  Ho  Ho1  1  0.00000000  0.50000000  0.87414600  1
  Ho  Ho2  1  0.00000000  0.00000000  0.00000000  1
  Ho  Ho3  1  0.00000000  0.50000000  0.12585400  1
  Ho  Ho4  1  0.50000000  0.00000000  0.37414600  1
  Ho  Ho5  1  0.50000000  0.50000000  0.50000000  1
  Ge  Ge6  1  0.00000000  0.00000000  0.78265100  1
  Ge  Ge7  1  0.50000000  0.50000000  0.71734900  1
  Ge  Ge8  1  0.50000000  0.31112900  0.00000000  1
  Ge  Ge9  1  0.50000000  0.68887100  0.00000000  1
  Ge  Ge10  1  0.50000000  0.50000000  0.28265100  1
  Ge  Ge11  1  0.00000000  0.00000000  0.21734900  1
  Ge  Ge12  1  0.00000000  0.81112900  0.50000000  1
  Ge  Ge13  1  0.00000000  0.18887100  0.50000000  1
  Pd  Pd14  1  0.00000000  0.70159500  0.67560500  1
  Pd  Pd15  1  0.50000000  0.20159500  0.82439500  1
  Pd  Pd16  1  0.00000000  0.29840500  0.67560500  1
  Pd  Pd17  1  0.50000000  0.79840500  0.82439500  1
  Pd  Pd18  1  0.50000000  0.20159500  0.17560500  1
  Pd  Pd19  1  0.00000000  0.70159500  0.32439500  1
  Pd  Pd20  1  0.50000000  0.79840500  0.17560500  1
  Pd  Pd21  1  0.00000000  0.29840500  0.32439500  1
