# generated using pymatgen
data_Ga5Pd
_symmetry_space_group_name_H-M   'P 1'
_cell_length_a   6.52068600
_cell_length_b   6.52068600
_cell_length_c   10.11359200
_cell_angle_alpha   90.00000000
_cell_angle_beta   90.00000000
_cell_angle_gamma   90.00000000
_symmetry_Int_Tables_number   1
_chemical_formula_structural   Ga5Pd
_chemical_formula_sum   'Ga20 Pd4'
_cell_volume   430.02331665
_cell_formula_units_Z   4
loop_
 _symmetry_equiv_pos_site_id
 _symmetry_equiv_pos_as_xyz
  1  'x, y, z'
loop_
 _atom_site_type_symbol
 _atom_site_label
 _atom_site_symmetry_multiplicity
 _atom_site_fract_x
 _atom_site_fract_y
 _atom_site_fract_z
 _atom_site_occupancy
  Ga  Ga0  1  0.00000000  0.00000000  0.00000000  1
  Ga  Ga1  1  0.50000000  0.50000000  0.00000000  1
  Ga  Ga2  1  0.14582800  0.64582800  0.13944100  1
  Ga  Ga3  1  0.35417200  0.14582800  0.13944100  1
  Ga  Ga4  1  0.64582800  0.85417200  0.13944100  1
  Ga  Ga5  1  0.14582800  0.35417200  0.36055900  1
  Ga  Ga6  1  0.85417200  0.64582800  0.36055900  1
  Ga  Ga7  1  0.64582800  0.14582800  0.36055900  1
  Ga  Ga8  1  0.35417200  0.85417200  0.36055900  1
  Ga  Ga9  1  0.85417200  0.35417200  0.13944100  1
  Ga  Ga10  1  0.50000000  0.50000000  0.50000000  1
  Ga  Ga11  1  0.00000000  0.00000000  0.50000000  1
  Ga  Ga12  1  0.64582800  0.14582800  0.63944100  1
  Ga  Ga13  1  0.85417200  0.64582800  0.63944100  1
  Ga  Ga14  1  0.14582800  0.35417200  0.63944100  1
  Ga  Ga15  1  0.64582800  0.85417200  0.86055900  1
  Ga  Ga16  1  0.35417200  0.14582800  0.86055900  1
  Ga  Ga17  1  0.14582800  0.64582800  0.86055900  1
  Ga  Ga18  1  0.85417200  0.35417200  0.86055900  1
  Ga  Ga19  1  0.35417200  0.85417200  0.63944100  1
  Pd  Pd20  1  0.00000000  0.00000000  0.25000000  1
  Pd  Pd21  1  0.50000000  0.50000000  0.25000000  1
  Pd  Pd22  1  0.50000000  0.50000000  0.75000000  1
  Pd  Pd23  1  0.00000000  0.00000000  0.75000000  1
