# generated using pymatgen
data_Mo2PO8
_symmetry_space_group_name_H-M   'P 1'
_cell_length_a   6.66591700
_cell_length_b   5.37262200
_cell_length_c   17.62394947
_cell_angle_alpha   90.00000000
_cell_angle_beta   90.18051958
_cell_angle_gamma   90.00000000
_symmetry_Int_Tables_number   1
_chemical_formula_structural   Mo2PO8
_chemical_formula_sum   'Mo8 P4 O32'
_cell_volume   631.17134151
_cell_formula_units_Z   4
loop_
 _symmetry_equiv_pos_site_id
 _symmetry_equiv_pos_as_xyz
  1  'x, y, z'
loop_
 _atom_site_type_symbol
 _atom_site_label
 _atom_site_symmetry_multiplicity
 _atom_site_fract_x
 _atom_site_fract_y
 _atom_site_fract_z
 _atom_site_occupancy
  Mo  Mo0  1  0.66283100  0.27308100  0.04341300  1
  Mo  Mo1  1  0.83668400  0.27002600  0.54321100  1
  Mo  Mo2  1  0.00371100  0.27283500  0.87261700  1
  Mo  Mo3  1  0.49562400  0.26983600  0.37155600  1
  Mo  Mo4  1  0.50437600  0.76983600  0.62844400  1
  Mo  Mo5  1  0.33716900  0.77308100  0.95658700  1
  Mo  Mo6  1  0.16331600  0.77002600  0.45678900  1
  Mo  Mo7  1  0.99628900  0.77283500  0.12738300  1
  P  P8  1  0.19573500  0.26739900  0.68759000  1
  P  P9  1  0.30370800  0.28377400  0.18641100  1
  P  P10  1  0.69629200  0.78377400  0.81358900  1
  P  P11  1  0.80426500  0.76739900  0.31241000  1
  O  O12  1  0.48670800  0.04417200  0.99609800  1
  O  O13  1  0.81705000  0.99818900  0.08800600  1
  O  O14  1  0.84088000  0.27322600  0.96010200  1
  O  O15  1  0.79791200  0.03777800  0.82510900  1
  O  O16  1  0.99548600  0.76587300  0.36209400  1
  O  O17  1  0.99539700  0.01414200  0.50038500  1
  O  O18  1  0.86573700  0.77837700  0.22829800  1
  O  O19  1  0.84712200  0.50690000  0.09597300  1
  O  O20  1  0.00451400  0.26587300  0.63790600  1
  O  O21  1  0.00460300  0.51414200  0.49961500  1
  O  O22  1  0.13426300  0.27837700  0.77170200  1
  O  O23  1  0.15287800  0.00690000  0.90402700  1
  O  O24  1  0.16516900  0.06668100  0.16563600  1
  O  O25  1  0.18295000  0.49818900  0.91199400  1
  O  O26  1  0.15912000  0.77322600  0.03989800  1
  O  O27  1  0.20208800  0.53777800  0.17489100  1
  O  O28  1  0.32036900  0.49981400  0.67002600  1
  O  O29  1  0.67963100  0.99981400  0.32997400  1
  O  O30  1  0.32833900  0.02924400  0.40896300  1
  O  O31  1  0.34022800  0.77246900  0.54082400  1
  O  O32  1  0.33614100  0.52168000  0.40658100  1
  O  O33  1  0.36072200  0.26067700  0.27093300  1
  O  O34  1  0.31451100  0.02655500  0.67479500  1
  O  O35  1  0.50337400  0.77190500  0.86196100  1
  O  O36  1  0.49662600  0.27190500  0.13803900  1
  O  O37  1  0.51329200  0.54417200  0.00390200  1
  O  O38  1  0.63927800  0.76067700  0.72906700  1
  O  O39  1  0.66385900  0.02168000  0.59341900  1
  O  O40  1  0.65977200  0.27246900  0.45917600  1
  O  O41  1  0.67166100  0.52924400  0.59103700  1
  O  O42  1  0.68548900  0.52655500  0.32520500  1
  O  O43  1  0.83483100  0.56668100  0.83436400  1
