# generated using pymatgen
data_Tl3VO4
_symmetry_space_group_name_H-M   'P 1'
_cell_length_a   6.02005800
_cell_length_b   6.62915000
_cell_length_c   8.48332600
_cell_angle_alpha   90.00000000
_cell_angle_beta   90.00000000
_cell_angle_gamma   90.00000000
_symmetry_Int_Tables_number   1
_chemical_formula_structural   Tl3VO4
_chemical_formula_sum   'Tl6 V2 O8'
_cell_volume   338.55144989
_cell_formula_units_Z   2
loop_
 _symmetry_equiv_pos_site_id
 _symmetry_equiv_pos_as_xyz
  1  'x, y, z'
loop_
 _atom_site_type_symbol
 _atom_site_label
 _atom_site_symmetry_multiplicity
 _atom_site_fract_x
 _atom_site_fract_y
 _atom_site_fract_z
 _atom_site_occupancy
  Tl  Tl0  1  0.50000000  0.97975000  0.73111000  1
  Tl  Tl1  1  0.50000000  0.44307100  0.50000000  1
  Tl  Tl2  1  0.50000000  0.97975000  0.26889000  1
  Tl  Tl3  1  0.00000000  0.47975000  0.23111000  1
  Tl  Tl4  1  0.00000000  0.94307100  0.00000000  1
  Tl  Tl5  1  0.00000000  0.47975000  0.76889000  1
  V  V6  1  0.00000000  0.98949300  0.50000000  1
  V  V7  1  0.50000000  0.48949300  0.00000000  1
  O  O8  1  0.00000000  0.84159800  0.66959900  1
  O  O9  1  0.00000000  0.84159800  0.33040100  1
  O  O10  1  0.75567200  0.13687000  0.50000000  1
  O  O11  1  0.24432800  0.13687000  0.50000000  1
  O  O12  1  0.50000000  0.34159800  0.16959900  1
  O  O13  1  0.50000000  0.34159800  0.83040100  1
  O  O14  1  0.25567200  0.63687000  0.00000000  1
  O  O15  1  0.74432800  0.63687000  0.00000000  1
