# generated using pymatgen
data_LiMo2(PO4)3
_symmetry_space_group_name_H-M   'P 1'
_cell_length_a   8.67546500
_cell_length_b   8.88537900
_cell_length_c   14.97430025
_cell_angle_alpha   90.00000000
_cell_angle_beta   124.77052212
_cell_angle_gamma   90.00000000
_symmetry_Int_Tables_number   1
_chemical_formula_structural   LiMo2(PO4)3
_chemical_formula_sum   'Li4 Mo8 P12 O48'
_cell_volume   948.18382761
_cell_formula_units_Z   4
loop_
 _symmetry_equiv_pos_site_id
 _symmetry_equiv_pos_as_xyz
  1  'x, y, z'
loop_
 _atom_site_type_symbol
 _atom_site_label
 _atom_site_symmetry_multiplicity
 _atom_site_fract_x
 _atom_site_fract_y
 _atom_site_fract_z
 _atom_site_occupancy
  Li  Li0  1  0.98180700  0.77749400  0.18078500  1
  Li  Li1  1  0.01819300  0.27749400  0.31921500  1
  Li  Li2  1  0.98180700  0.72250600  0.68078500  1
  Li  Li3  1  0.01819300  0.22250600  0.81921500  1
  Mo  Mo4  1  0.36967000  0.53031900  0.61786200  1
  Mo  Mo5  1  0.14083800  0.96132700  0.38714300  1
  Mo  Mo6  1  0.63033000  0.03031900  0.88213800  1
  Mo  Mo7  1  0.85916200  0.46132700  0.11285700  1
  Mo  Mo8  1  0.14083800  0.53867300  0.88714300  1
  Mo  Mo9  1  0.36967000  0.96968100  0.11786200  1
  Mo  Mo10  1  0.85916200  0.03867300  0.61285700  1
  Mo  Mo11  1  0.63033000  0.46968100  0.38213800  1
  P  P12  1  0.54287300  0.74951700  0.50799100  1
  P  P13  1  0.25228700  0.61629500  0.14724300  1
  P  P14  1  0.96801000  0.89530300  0.85633000  1
  P  P15  1  0.03199000  0.39530300  0.64367000  1
  P  P16  1  0.74771300  0.11629500  0.35275700  1
  P  P17  1  0.45712700  0.24951700  0.99200900  1
  P  P18  1  0.54287300  0.75048300  0.00799100  1
  P  P19  1  0.25228700  0.88370500  0.64724300  1
  P  P20  1  0.45712700  0.25048300  0.49200900  1
  P  P21  1  0.74771300  0.38370500  0.85275700  1
  P  P22  1  0.96801000  0.60469700  0.35633000  1
  P  P23  1  0.03199000  0.10469700  0.14367000  1
  O  O24  1  0.15336600  0.55737900  0.46181200  1
  O  O25  1  0.19450000  0.10829100  0.12979600  1
  O  O26  1  0.47951700  0.32752900  0.40729200  1
  O  O27  1  0.90530700  0.41174300  0.83495100  1
  O  O28  1  0.53517100  0.63697400  0.42809000  1
  O  O29  1  0.99250900  0.73940200  0.81928500  1
  O  O30  1  0.18432300  0.56930200  0.03185600  1
  O  O31  1  0.92674700  0.01521700  0.76921000  1
  O  O32  1  0.38702200  0.86636000  0.44077500  1
  O  O33  1  0.80550000  0.89170900  0.87020400  1
  O  O34  1  0.52048300  0.67247100  0.59270800  1
  O  O35  1  0.09469300  0.58825700  0.16504900  1
  O  O36  1  0.46482900  0.36302600  0.57191000  1
  O  O37  1  0.71054100  0.21236200  0.83582400  1
  O  O38  1  0.81567700  0.43069800  0.96814400  1
  O  O39  1  0.07325300  0.98478300  0.23079000  1
  O  O40  1  0.00749100  0.26059800  0.18071500  1
  O  O41  1  0.26136500  0.17425900  0.42699100  1
  O  O42  1  0.57406000  0.47896300  0.77120500  1
  O  O43  1  0.84663400  0.05737900  0.03818800  1
  O  O44  1  0.42594000  0.97896300  0.72879500  1
  O  O45  1  0.61297800  0.13364000  0.55922500  1
  O  O46  1  0.73863500  0.67425900  0.07300900  1
  O  O47  1  0.99250900  0.76059800  0.31928500  1
  O  O48  1  0.92674700  0.48478300  0.26921000  1
  O  O49  1  0.18432300  0.93069800  0.53185600  1
  O  O50  1  0.28945900  0.71236200  0.66417600  1
  O  O51  1  0.53517100  0.86302600  0.92809000  1
  O  O52  1  0.47951700  0.17247100  0.90729200  1
  O  O53  1  0.90530700  0.08825700  0.33495100  1
  O  O54  1  0.19450000  0.39170900  0.62979600  1
  O  O55  1  0.61297800  0.36636000  0.05922500  1
  O  O56  1  0.38702200  0.63364000  0.94077500  1
  O  O57  1  0.80550000  0.60829100  0.37020400  1
  O  O58  1  0.09469300  0.91174300  0.66504900  1
  O  O59  1  0.52048300  0.82752900  0.09270800  1
  O  O60  1  0.46482900  0.13697400  0.07191000  1
  O  O61  1  0.71054100  0.28763800  0.33582400  1
  O  O62  1  0.81567700  0.06930200  0.46814400  1
  O  O63  1  0.07325300  0.51521700  0.73079000  1
  O  O64  1  0.00749100  0.23940200  0.68071500  1
  O  O65  1  0.26136500  0.32574100  0.92699100  1
  O  O66  1  0.84663400  0.44262100  0.53818800  1
  O  O67  1  0.57406000  0.02103700  0.27120500  1
  O  O68  1  0.15336600  0.94262100  0.96181200  1
  O  O69  1  0.42594000  0.52103700  0.22879500  1
  O  O70  1  0.73863500  0.82574100  0.57300900  1
  O  O71  1  0.28945900  0.78763800  0.16417600  1
