# generated using pymatgen
data_Zr9Pt11
_symmetry_space_group_name_H-M   'P 1'
_cell_length_a   10.49477400
_cell_length_b   10.49477400
_cell_length_c   6.86006000
_cell_angle_alpha   90.00000000
_cell_angle_beta   90.00000000
_cell_angle_gamma   90.00000000
_symmetry_Int_Tables_number   1
_chemical_formula_structural   Zr9Pt11
_chemical_formula_sum   'Zr18 Pt22'
_cell_volume   755.56893821
_cell_formula_units_Z   2
loop_
 _symmetry_equiv_pos_site_id
 _symmetry_equiv_pos_as_xyz
  1  'x, y, z'
loop_
 _atom_site_type_symbol
 _atom_site_label
 _atom_site_symmetry_multiplicity
 _atom_site_fract_x
 _atom_site_fract_y
 _atom_site_fract_z
 _atom_site_occupancy
  Zr  Zr0  1  0.58208650  0.24679250  0.00000000  1
  Zr  Zr1  1  0.74679250  0.91791350  0.50000000  1
  Zr  Zr2  1  0.25320750  0.08208650  0.50000000  1
  Zr  Zr3  1  0.41791350  0.75320750  0.00000000  1
  Zr  Zr4  1  0.40458400  0.80732200  0.50000000  1
  Zr  Zr5  1  0.30732200  0.09541600  0.00000000  1
  Zr  Zr6  1  0.69267800  0.90458400  0.00000000  1
  Zr  Zr7  1  0.59541600  0.19267800  0.50000000  1
  Zr  Zr8  1  0.00000000  0.00000000  0.00000000  1
  Zr  Zr9  1  0.08208650  0.74679250  0.50000000  1
  Zr  Zr10  1  0.24679250  0.41791350  0.00000000  1
  Zr  Zr11  1  0.75320750  0.58208650  0.00000000  1
  Zr  Zr12  1  0.91791350  0.25320750  0.50000000  1
  Zr  Zr13  1  0.90458400  0.30732200  0.00000000  1
  Zr  Zr14  1  0.80732200  0.59541600  0.50000000  1
  Zr  Zr15  1  0.19267800  0.40458400  0.50000000  1
  Zr  Zr16  1  0.09541600  0.69267800  0.00000000  1
  Zr  Zr17  1  0.50000000  0.50000000  0.50000000  1
  Pt  Pt18  1  0.38556950  0.27260450  0.70957350  1
  Pt  Pt19  1  0.22739550  0.88556950  0.20957350  1
  Pt  Pt20  1  0.61443050  0.72739550  0.70957350  1
  Pt  Pt21  1  0.77260450  0.11443050  0.20957350  1
  Pt  Pt22  1  0.77260450  0.11443050  0.79042650  1
  Pt  Pt23  1  0.61443050  0.72739550  0.29042650  1
  Pt  Pt24  1  0.38556950  0.27260450  0.29042650  1
  Pt  Pt25  1  0.22739550  0.88556950  0.79042650  1
  Pt  Pt26  1  0.50000000  0.00000000  0.75000000  1
  Pt  Pt27  1  0.50000000  0.00000000  0.25000000  1
  Pt  Pt28  1  0.00000000  0.00000000  0.50000000  1
  Pt  Pt29  1  0.88556950  0.77260450  0.20957350  1
  Pt  Pt30  1  0.72739550  0.38556950  0.70957350  1
  Pt  Pt31  1  0.11443050  0.22739550  0.20957350  1
  Pt  Pt32  1  0.27260450  0.61443050  0.70957350  1
  Pt  Pt33  1  0.27260450  0.61443050  0.29042650  1
  Pt  Pt34  1  0.11443050  0.22739550  0.79042650  1
  Pt  Pt35  1  0.88556950  0.77260450  0.79042650  1
  Pt  Pt36  1  0.72739550  0.38556950  0.29042650  1
  Pt  Pt37  1  0.00000000  0.50000000  0.25000000  1
  Pt  Pt38  1  0.00000000  0.50000000  0.75000000  1
  Pt  Pt39  1  0.50000000  0.50000000  0.00000000  1
