# generated using pymatgen
data_Ce3Ga4Cl
_symmetry_space_group_name_H-M   'P 1'
_cell_length_a   8.01695400
_cell_length_b   8.01695400
_cell_length_c   11.13630200
_cell_angle_alpha   90.00000000
_cell_angle_beta   90.00000000
_cell_angle_gamma   90.00000000
_symmetry_Int_Tables_number   1
_chemical_formula_structural   Ce3Ga4Cl
_chemical_formula_sum   'Ce12 Ga16 Cl4'
_cell_volume   715.74740682
_cell_formula_units_Z   4
loop_
 _symmetry_equiv_pos_site_id
 _symmetry_equiv_pos_as_xyz
  1  'x, y, z'
loop_
 _atom_site_type_symbol
 _atom_site_label
 _atom_site_symmetry_multiplicity
 _atom_site_fract_x
 _atom_site_fract_y
 _atom_site_fract_z
 _atom_site_occupancy
  Ce  Ce0  1  0.15948900  0.34051100  0.50000000  1
  Ce  Ce1  1  0.15948900  0.65948900  0.00000000  1
  Ce  Ce2  1  0.34051100  0.84051100  0.50000000  1
  Ce  Ce3  1  0.34051100  0.15948900  0.00000000  1
  Ce  Ce4  1  0.00000000  0.00000000  0.25000000  1
  Ce  Ce5  1  0.00000000  0.00000000  0.75000000  1
  Ce  Ce6  1  0.65948900  0.84051100  0.00000000  1
  Ce  Ce7  1  0.65948900  0.15948900  0.50000000  1
  Ce  Ce8  1  0.84051100  0.34051100  0.00000000  1
  Ce  Ce9  1  0.84051100  0.65948900  0.50000000  1
  Ce  Ce10  1  0.50000000  0.50000000  0.75000000  1
  Ce  Ce11  1  0.50000000  0.50000000  0.25000000  1
  Ga  Ga12  1  0.64373700  0.85626300  0.30604200  1
  Ga  Ga13  1  0.35626300  0.14373700  0.30604200  1
  Ga  Ga14  1  0.14373700  0.35626300  0.19395800  1
  Ga  Ga15  1  0.85626300  0.35626300  0.30604200  1
  Ga  Ga16  1  0.85626300  0.64373700  0.19395800  1
  Ga  Ga17  1  0.35626300  0.85626300  0.19395800  1
  Ga  Ga18  1  0.64373700  0.14373700  0.19395800  1
  Ga  Ga19  1  0.14373700  0.64373700  0.30604200  1
  Ga  Ga20  1  0.14373700  0.35626300  0.80604200  1
  Ga  Ga21  1  0.85626300  0.64373700  0.80604200  1
  Ga  Ga22  1  0.64373700  0.85626300  0.69395800  1
  Ga  Ga23  1  0.35626300  0.85626300  0.80604200  1
  Ga  Ga24  1  0.35626300  0.14373700  0.69395800  1
  Ga  Ga25  1  0.85626300  0.35626300  0.69395800  1
  Ga  Ga26  1  0.14373700  0.64373700  0.69395800  1
  Ga  Ga27  1  0.64373700  0.14373700  0.80604200  1
  Cl  Cl28  1  0.00000000  0.00000000  0.00000000  1
  Cl  Cl29  1  0.00000000  0.00000000  0.50000000  1
  Cl  Cl30  1  0.50000000  0.50000000  0.50000000  1
  Cl  Cl31  1  0.50000000  0.50000000  0.00000000  1
