# generated using pymatgen
data_Mg32Al36Ag13
_symmetry_space_group_name_H-M   'P 1'
_cell_length_a   14.53539600
_cell_length_b   14.53539600
_cell_length_c   14.53539600
_cell_angle_alpha   90.00000000
_cell_angle_beta   90.00000000
_cell_angle_gamma   90.00000000
_symmetry_Int_Tables_number   1
_chemical_formula_structural   Mg32Al36Ag13
_chemical_formula_sum   'Mg64 Al72 Ag26'
_cell_volume   3071.00557149
_cell_formula_units_Z   2
loop_
 _symmetry_equiv_pos_site_id
 _symmetry_equiv_pos_as_xyz
  1  'x, y, z'
loop_
 _atom_site_type_symbol
 _atom_site_label
 _atom_site_symmetry_multiplicity
 _atom_site_fract_x
 _atom_site_fract_y
 _atom_site_fract_z
 _atom_site_occupancy
  Mg  Mg0  1  0.31208950  0.31208950  0.68791050  1
  Mg  Mg1  1  0.00000000  0.50000000  0.40282700  1
  Mg  Mg2  1  0.00000000  0.09717300  0.50000000  1
  Mg  Mg3  1  0.09717300  0.50000000  0.00000000  1
  Mg  Mg4  1  0.50000000  0.40282700  0.00000000  1
  Mg  Mg5  1  0.40282700  0.00000000  0.50000000  1
  Mg  Mg6  1  0.50000000  0.00000000  0.09717300  1
  Mg  Mg7  1  0.00000000  0.50000000  0.19733200  1
  Mg  Mg8  1  0.00000000  0.30266800  0.50000000  1
  Mg  Mg9  1  0.30266800  0.50000000  0.00000000  1
  Mg  Mg10  1  0.50000000  0.19733200  0.00000000  1
  Mg  Mg11  1  0.19733200  0.00000000  0.50000000  1
  Mg  Mg12  1  0.50000000  0.00000000  0.30266800  1
  Mg  Mg13  1  0.18791050  0.18791050  0.18791050  1
  Mg  Mg14  1  0.68791050  0.31208950  0.31208950  1
  Mg  Mg15  1  0.31208950  0.68791050  0.31208950  1
  Mg  Mg16  1  0.19489500  0.38359900  0.50000000  1
  Mg  Mg17  1  0.31208950  0.31208950  0.31208950  1
  Mg  Mg18  1  0.81208950  0.18791050  0.18791050  1
  Mg  Mg19  1  0.18791050  0.81208950  0.18791050  1
  Mg  Mg20  1  0.18791050  0.18791050  0.81208950  1
  Mg  Mg21  1  0.80510500  0.38359900  0.50000000  1
  Mg  Mg22  1  0.69489500  0.11640100  0.00000000  1
  Mg  Mg23  1  0.11640100  0.00000000  0.30510500  1
  Mg  Mg24  1  0.00000000  0.30510500  0.11640100  1
  Mg  Mg25  1  0.50000000  0.19489500  0.38359900  1
  Mg  Mg26  1  0.38359900  0.50000000  0.80510500  1
  Mg  Mg27  1  0.00000000  0.69489500  0.11640100  1
  Mg  Mg28  1  0.38359900  0.50000000  0.19489500  1
  Mg  Mg29  1  0.50000000  0.80510500  0.38359900  1
  Mg  Mg30  1  0.11640100  0.00000000  0.69489500  1
  Mg  Mg31  1  0.30510500  0.11640100  0.00000000  1
  Mg  Mg32  1  0.81208950  0.81208950  0.18791050  1
  Mg  Mg33  1  0.50000000  0.00000000  0.90282700  1
  Mg  Mg34  1  0.50000000  0.59717300  0.00000000  1
  Mg  Mg35  1  0.59717300  0.00000000  0.50000000  1
  Mg  Mg36  1  0.00000000  0.90282700  0.50000000  1
  Mg  Mg37  1  0.90282700  0.50000000  0.00000000  1
  Mg  Mg38  1  0.00000000  0.50000000  0.59717300  1
  Mg  Mg39  1  0.50000000  0.00000000  0.69733200  1
  Mg  Mg40  1  0.50000000  0.80266800  0.00000000  1
  Mg  Mg41  1  0.80266800  0.00000000  0.50000000  1
  Mg  Mg42  1  0.00000000  0.69733200  0.50000000  1
  Mg  Mg43  1  0.69733200  0.50000000  0.00000000  1
  Mg  Mg44  1  0.00000000  0.50000000  0.80266800  1
  Mg  Mg45  1  0.68791050  0.68791050  0.68791050  1
  Mg  Mg46  1  0.18791050  0.81208950  0.81208950  1
  Mg  Mg47  1  0.81208950  0.18791050  0.81208950  1
  Mg  Mg48  1  0.69489500  0.88359900  0.00000000  1
  Mg  Mg49  1  0.81208950  0.81208950  0.81208950  1
  Mg  Mg50  1  0.31208950  0.68791050  0.68791050  1
  Mg  Mg51  1  0.68791050  0.31208950  0.68791050  1
  Mg  Mg52  1  0.68791050  0.68791050  0.31208950  1
  Mg  Mg53  1  0.30510500  0.88359900  0.00000000  1
  Mg  Mg54  1  0.19489500  0.61640100  0.50000000  1
  Mg  Mg55  1  0.61640100  0.50000000  0.80510500  1
  Mg  Mg56  1  0.50000000  0.80510500  0.61640100  1
  Mg  Mg57  1  0.00000000  0.69489500  0.88359900  1
  Mg  Mg58  1  0.88359900  0.00000000  0.30510500  1
  Mg  Mg59  1  0.50000000  0.19489500  0.61640100  1
  Mg  Mg60  1  0.88359900  0.00000000  0.69489500  1
  Mg  Mg61  1  0.00000000  0.30510500  0.88359900  1
  Mg  Mg62  1  0.61640100  0.50000000  0.19489500  1
  Mg  Mg63  1  0.80510500  0.61640100  0.50000000  1
  Al  Al64  1  0.18984350  0.40402450  0.83960450  1
  Al  Al65  1  0.31015650  0.90402450  0.66039550  1
  Al  Al66  1  0.18984350  0.59597550  0.16039550  1
  Al  Al67  1  0.09597550  0.33960450  0.31015650  1
  Al  Al68  1  0.33960450  0.31015650  0.09597550  1
  Al  Al69  1  0.83960450  0.18984350  0.40402450  1
  Al  Al70  1  0.90402450  0.66039550  0.31015650  1
  Al  Al71  1  0.16039550  0.18984350  0.59597550  1
  Al  Al72  1  0.40402450  0.83960450  0.18984350  1
  Al  Al73  1  0.66039550  0.31015650  0.90402450  1
  Al  Al74  1  0.59597550  0.16039550  0.18984350  1
  Al  Al75  1  0.31015650  0.09597550  0.33960450  1
  Al  Al76  1  0.31015650  0.09597550  0.66039550  1
  Al  Al77  1  0.09850200  0.84211900  0.00000000  1
  Al  Al78  1  0.40149800  0.65788100  0.50000000  1
  Al  Al79  1  0.15788100  0.00000000  0.09850200  1
  Al  Al80  1  0.00000000  0.09850200  0.15788100  1
  Al  Al81  1  0.50000000  0.40149800  0.34211900  1
  Al  Al82  1  0.84211900  0.00000000  0.09850200  1
  Al  Al83  1  0.50000000  0.40149800  0.65788100  1
  Al  Al84  1  0.34211900  0.50000000  0.40149800  1
  Al  Al85  1  0.00000000  0.09850200  0.84211900  1
  Al  Al86  1  0.65788100  0.50000000  0.40149800  1
  Al  Al87  1  0.09850200  0.15788100  0.00000000  1
  Al  Al88  1  0.40149800  0.34211900  0.50000000  1
  Al  Al89  1  0.18984350  0.40402450  0.16039550  1
  Al  Al90  1  0.90402450  0.33960450  0.31015650  1
  Al  Al91  1  0.83960450  0.18984350  0.59597550  1
  Al  Al92  1  0.18984350  0.59597550  0.83960450  1
  Al  Al93  1  0.33960450  0.31015650  0.90402450  1
  Al  Al94  1  0.59597550  0.83960450  0.18984350  1
  Al  Al95  1  0.66039550  0.31015650  0.09597550  1
  Al  Al96  1  0.16039550  0.18984350  0.40402450  1
  Al  Al97  1  0.40402450  0.16039550  0.18984350  1
  Al  Al98  1  0.31015650  0.90402450  0.33960450  1
  Al  Al99  1  0.09597550  0.66039550  0.31015650  1
  Al  Al100  1  0.68984350  0.90402450  0.33960450  1
  Al  Al101  1  0.81015650  0.40402450  0.16039550  1
  Al  Al102  1  0.68984350  0.09597550  0.66039550  1
  Al  Al103  1  0.59597550  0.83960450  0.81015650  1
  Al  Al104  1  0.83960450  0.81015650  0.59597550  1
  Al  Al105  1  0.33960450  0.68984350  0.90402450  1
  Al  Al106  1  0.40402450  0.16039550  0.81015650  1
  Al  Al107  1  0.66039550  0.68984350  0.09597550  1
  Al  Al108  1  0.90402450  0.33960450  0.68984350  1
  Al  Al109  1  0.16039550  0.81015650  0.40402450  1
  Al  Al110  1  0.09597550  0.66039550  0.68984350  1
  Al  Al111  1  0.81015650  0.59597550  0.83960450  1
  Al  Al112  1  0.81015650  0.59597550  0.16039550  1
  Al  Al113  1  0.59850200  0.34211900  0.50000000  1
  Al  Al114  1  0.90149800  0.15788100  0.00000000  1
  Al  Al115  1  0.65788100  0.50000000  0.59850200  1
  Al  Al116  1  0.50000000  0.59850200  0.65788100  1
  Al  Al117  1  0.00000000  0.90149800  0.84211900  1
  Al  Al118  1  0.34211900  0.50000000  0.59850200  1
  Al  Al119  1  0.00000000  0.90149800  0.15788100  1
  Al  Al120  1  0.84211900  0.00000000  0.90149800  1
  Al  Al121  1  0.50000000  0.59850200  0.34211900  1
  Al  Al122  1  0.15788100  0.00000000  0.90149800  1
  Al  Al123  1  0.59850200  0.65788100  0.50000000  1
  Al  Al124  1  0.90149800  0.84211900  0.00000000  1
  Al  Al125  1  0.68984350  0.90402450  0.66039550  1
  Al  Al126  1  0.40402450  0.83960450  0.81015650  1
  Al  Al127  1  0.33960450  0.68984350  0.09597550  1
  Al  Al128  1  0.68984350  0.09597550  0.33960450  1
  Al  Al129  1  0.83960450  0.81015650  0.40402450  1
  Al  Al130  1  0.09597550  0.33960450  0.68984350  1
  Al  Al131  1  0.16039550  0.81015650  0.59597550  1
  Al  Al132  1  0.66039550  0.68984350  0.90402450  1
  Al  Al133  1  0.90402450  0.66039550  0.68984350  1
  Al  Al134  1  0.81015650  0.40402450  0.83960450  1
  Al  Al135  1  0.59597550  0.16039550  0.81015650  1
  Ag  Ag136  1  0.32374700  0.18526600  0.50000000  1
  Ag  Ag137  1  0.17625300  0.68526600  0.00000000  1
  Ag  Ag138  1  0.32374700  0.81473400  0.50000000  1
  Ag  Ag139  1  0.31473400  0.00000000  0.17625300  1
  Ag  Ag140  1  0.00000000  0.17625300  0.31473400  1
  Ag  Ag141  1  0.50000000  0.32374700  0.18526600  1
  Ag  Ag142  1  0.68526600  0.00000000  0.17625300  1
  Ag  Ag143  1  0.50000000  0.32374700  0.81473400  1
  Ag  Ag144  1  0.18526600  0.50000000  0.32374700  1
  Ag  Ag145  1  0.00000000  0.17625300  0.68526600  1
  Ag  Ag146  1  0.81473400  0.50000000  0.32374700  1
  Ag  Ag147  1  0.17625300  0.31473400  0.00000000  1
  Ag  Ag148  1  0.00000000  0.00000000  0.00000000  1
  Ag  Ag149  1  0.82374700  0.68526600  0.00000000  1
  Ag  Ag150  1  0.67625300  0.18526600  0.50000000  1
  Ag  Ag151  1  0.82374700  0.31473400  0.00000000  1
  Ag  Ag152  1  0.81473400  0.50000000  0.67625300  1
  Ag  Ag153  1  0.50000000  0.67625300  0.81473400  1
  Ag  Ag154  1  0.00000000  0.82374700  0.68526600  1
  Ag  Ag155  1  0.18526600  0.50000000  0.67625300  1
  Ag  Ag156  1  0.00000000  0.82374700  0.31473400  1
  Ag  Ag157  1  0.68526600  0.00000000  0.82374700  1
  Ag  Ag158  1  0.50000000  0.67625300  0.18526600  1
  Ag  Ag159  1  0.31473400  0.00000000  0.82374700  1
  Ag  Ag160  1  0.67625300  0.81473400  0.50000000  1
  Ag  Ag161  1  0.50000000  0.50000000  0.50000000  1
