# generated using pymatgen
data_Fe5CuO8
_symmetry_space_group_name_H-M   'P 1'
_cell_length_a   6.07254213
_cell_length_b   6.07254213
_cell_length_c   14.73781992
_cell_angle_alpha   90.00000000
_cell_angle_beta   90.00000000
_cell_angle_gamma   120.00000000
_symmetry_Int_Tables_number   1
_chemical_formula_structural   Fe5CuO8
_chemical_formula_sum   'Fe15 Cu3 O24'
_cell_volume   470.65746436
_cell_formula_units_Z   3
loop_
 _symmetry_equiv_pos_site_id
 _symmetry_equiv_pos_as_xyz
  1  'x, y, z'
loop_
 _atom_site_type_symbol
 _atom_site_label
 _atom_site_symmetry_multiplicity
 _atom_site_fract_x
 _atom_site_fract_y
 _atom_site_fract_z
 _atom_site_occupancy
  Fe  Fe0  1  0.33333333  0.66666667  0.04535867  1
  Fe  Fe1  1  0.33333333  0.66666667  0.28797467  1
  Fe  Fe2  1  0.83333333  0.16666667  0.16666667  1
  Fe  Fe3  1  0.33333333  0.16666667  0.16666667  1
  Fe  Fe4  1  0.16666667  0.33333333  0.83333333  1
  Fe  Fe5  1  0.00000000  0.00000000  0.37869200  1
  Fe  Fe6  1  0.00000000  0.00000000  0.62130800  1
  Fe  Fe7  1  0.50000000  0.50000000  0.50000000  1
  Fe  Fe8  1  0.00000000  0.50000000  0.50000000  1
  Fe  Fe9  1  0.83333333  0.66666667  0.16666667  1
  Fe  Fe10  1  0.66666667  0.33333333  0.71202533  1
  Fe  Fe11  1  0.66666667  0.33333333  0.95464133  1
  Fe  Fe12  1  0.16666667  0.83333333  0.83333333  1
  Fe  Fe13  1  0.66666667  0.83333333  0.83333333  1
  Fe  Fe14  1  0.50000000  0.00000000  0.50000000  1
  Cu  Cu15  1  0.00000000  0.00000000  0.00000000  1
  Cu  Cu16  1  0.66666667  0.33333333  0.33333333  1
  Cu  Cu17  1  0.33333333  0.66666667  0.66666667  1
  O  O18  1  0.33333333  0.66666667  0.42522467  1
  O  O19  1  0.98619600  0.49309800  0.24351500  1
  O  O20  1  0.50690200  0.01380400  0.24351500  1
  O  O21  1  0.50690200  0.49309800  0.24351500  1
  O  O22  1  0.15976467  0.84023533  0.08981833  1
  O  O23  1  0.15976467  0.31952933  0.08981833  1
  O  O24  1  0.68047067  0.84023533  0.08981833  1
  O  O25  1  0.33333333  0.66666667  0.90810867  1
  O  O26  1  0.00000000  0.00000000  0.75855800  1
  O  O27  1  0.65286267  0.82643133  0.57684833  1
  O  O28  1  0.17356867  0.34713733  0.57684833  1
  O  O29  1  0.17356867  0.82643133  0.57684833  1
  O  O30  1  0.82643133  0.17356867  0.42315167  1
  O  O31  1  0.82643133  0.65286267  0.42315167  1
  O  O32  1  0.34713733  0.17356867  0.42315167  1
  O  O33  1  0.00000000  0.00000000  0.24144200  1
  O  O34  1  0.66666667  0.33333333  0.09189133  1
  O  O35  1  0.31952933  0.15976467  0.91018167  1
  O  O36  1  0.84023533  0.68047067  0.91018167  1
  O  O37  1  0.84023533  0.15976467  0.91018167  1
  O  O38  1  0.49309800  0.50690200  0.75648500  1
  O  O39  1  0.49309800  0.98619600  0.75648500  1
  O  O40  1  0.01380400  0.50690200  0.75648500  1
  O  O41  1  0.66666667  0.33333333  0.57477533  1
