# generated using pymatgen
data_CrP2O7
_symmetry_space_group_name_H-M   'P 1'
_cell_length_a   9.50407104
_cell_length_b   8.06402800
_cell_length_c   13.17288839
_cell_angle_alpha   90.00000000
_cell_angle_beta   110.31361535
_cell_angle_gamma   90.00000000
_symmetry_Int_Tables_number   1
_chemical_formula_structural   CrP2O7
_chemical_formula_sum   'Cr8 P16 O56'
_cell_volume   946.79495515
_cell_formula_units_Z   8
loop_
 _symmetry_equiv_pos_site_id
 _symmetry_equiv_pos_as_xyz
  1  'x, y, z'
loop_
 _atom_site_type_symbol
 _atom_site_label
 _atom_site_symmetry_multiplicity
 _atom_site_fract_x
 _atom_site_fract_y
 _atom_site_fract_z
 _atom_site_occupancy
  Cr  Cr0  1  0.64637850  0.76746950  0.14509200  1
  Cr  Cr1  1  0.14637850  0.73253050  0.64509200  1
  Cr  Cr2  1  0.35362150  0.76746950  0.35490800  1
  Cr  Cr3  1  0.85362150  0.73253050  0.85490800  1
  Cr  Cr4  1  0.14637850  0.26746950  0.14509200  1
  Cr  Cr5  1  0.64637850  0.23253050  0.64509200  1
  Cr  Cr6  1  0.85362150  0.26746950  0.35490800  1
  Cr  Cr7  1  0.35362150  0.23253050  0.85490800  1
  P  P8  1  0.83244350  0.08575050  0.13602600  1
  P  P9  1  0.66755650  0.41424950  0.86397400  1
  P  P10  1  0.83244350  0.91424950  0.63602600  1
  P  P11  1  0.62605100  0.04120200  0.42969500  1
  P  P12  1  0.12605100  0.45879800  0.92969500  1
  P  P13  1  0.87394900  0.45879800  0.57030500  1
  P  P14  1  0.37394900  0.04120200  0.07030500  1
  P  P15  1  0.66755650  0.58575050  0.36397400  1
  P  P16  1  0.33244350  0.58575050  0.13602600  1
  P  P17  1  0.16755650  0.91424950  0.86397400  1
  P  P18  1  0.33244350  0.41424950  0.63602600  1
  P  P19  1  0.12605100  0.54120200  0.42969500  1
  P  P20  1  0.62605100  0.95879800  0.92969500  1
  P  P21  1  0.37394900  0.95879800  0.57030500  1
  P  P22  1  0.87394900  0.54120200  0.07030500  1
  P  P23  1  0.16755650  0.08575050  0.36397400  1
  O  O24  1  0.72954100  0.08745200  0.36778900  1
  O  O25  1  0.27045900  0.08745200  0.13221100  1
  O  O26  1  0.48376600  0.95573600  0.35535800  1
  O  O27  1  0.70336650  0.72571850  0.29719100  1
  O  O28  1  0.22954100  0.41254800  0.86778900  1
  O  O29  1  0.01623400  0.54426400  0.64464200  1
  O  O30  1  0.79663350  0.77428150  0.70280900  1
  O  O31  1  0.48369800  0.61157600  0.12224900  1
  O  O32  1  0.79258050  0.59928550  0.48264400  1
  O  O33  1  0.98376600  0.54426400  0.85535800  1
  O  O34  1  0.51630200  0.61157600  0.37775100  1
  O  O35  1  0.40369800  0.80904900  0.50791800  1
  O  O36  1  0.29663350  0.72571850  0.20280900  1
  O  O37  1  0.09630200  0.30904900  0.99208200  1
  O  O38  1  0.68345500  0.41186700  0.32216300  1
  O  O39  1  0.77045900  0.41254800  0.63221100  1
  O  O40  1  0.70741950  0.09928550  0.01735600  1
  O  O41  1  0.70741950  0.90071450  0.51735600  1
  O  O42  1  0.81654500  0.91186700  0.17783700  1
  O  O43  1  0.79258050  0.40071450  0.98264400  1
  O  O44  1  0.68345500  0.58813300  0.82216300  1
  O  O45  1  0.81654500  0.08813300  0.67783700  1
  O  O46  1  0.40369800  0.19095100  0.00791800  1
  O  O47  1  0.20336650  0.77428150  0.79719100  1
  O  O48  1  0.09630200  0.69095100  0.49208200  1
  O  O49  1  0.98369800  0.88842400  0.62224900  1
  O  O50  1  0.51623400  0.95573600  0.14464200  1
  O  O51  1  0.01630200  0.88842400  0.87775100  1
  O  O52  1  0.22954100  0.58745200  0.36778900  1
  O  O53  1  0.77045900  0.58745200  0.13221100  1
  O  O54  1  0.98376600  0.45573600  0.35535800  1
  O  O55  1  0.20336650  0.22571850  0.29719100  1
  O  O56  1  0.72954100  0.91254800  0.86778900  1
  O  O57  1  0.51623400  0.04426400  0.64464200  1
  O  O58  1  0.29663350  0.27428150  0.70280900  1
  O  O59  1  0.98369800  0.11157600  0.12224900  1
  O  O60  1  0.29258050  0.09928550  0.48264400  1
  O  O61  1  0.48376600  0.04426400  0.85535800  1
  O  O62  1  0.01630200  0.11157600  0.37775100  1
  O  O63  1  0.90369800  0.30904900  0.50791800  1
  O  O64  1  0.79663350  0.22571850  0.20280900  1
  O  O65  1  0.59630200  0.80904900  0.99208200  1
  O  O66  1  0.18345500  0.91186700  0.32216300  1
  O  O67  1  0.27045900  0.91254800  0.63221100  1
  O  O68  1  0.20741950  0.59928550  0.01735600  1
  O  O69  1  0.20741950  0.40071450  0.51735600  1
  O  O70  1  0.31654500  0.41186700  0.17783700  1
  O  O71  1  0.29258050  0.90071450  0.98264400  1
  O  O72  1  0.18345500  0.08813300  0.82216300  1
  O  O73  1  0.31654500  0.58813300  0.67783700  1
  O  O74  1  0.90369800  0.69095100  0.00791800  1
  O  O75  1  0.70336650  0.27428150  0.79719100  1
  O  O76  1  0.59630200  0.19095100  0.49208200  1
  O  O77  1  0.48369800  0.38842400  0.62224900  1
  O  O78  1  0.01623400  0.45573600  0.14464200  1
  O  O79  1  0.51630200  0.38842400  0.87775100  1
