# generated using pymatgen
data_CoReO4
_symmetry_space_group_name_H-M   'P 1'
_cell_length_a   6.34688600
_cell_length_b   6.65338800
_cell_length_c   2.86866500
_cell_angle_alpha   90.00000000
_cell_angle_beta   90.00000000
_cell_angle_gamma   90.00000000
_symmetry_Int_Tables_number   1
_chemical_formula_structural   CoReO4
_chemical_formula_sum   'Co2 Re2 O8'
_cell_volume   121.13883231
_cell_formula_units_Z   2
loop_
 _symmetry_equiv_pos_site_id
 _symmetry_equiv_pos_as_xyz
  1  'x, y, z'
loop_
 _atom_site_type_symbol
 _atom_site_label
 _atom_site_symmetry_multiplicity
 _atom_site_fract_x
 _atom_site_fract_y
 _atom_site_fract_z
 _atom_site_occupancy
  Co  Co0  1  0.00000000  0.00000000  0.00000000  1
  Co  Co1  1  0.50000000  0.50000000  0.00000000  1
  Re  Re2  1  0.50000000  0.00000000  0.50000000  1
  Re  Re3  1  0.00000000  0.50000000  0.50000000  1
  O  O4  1  0.50000000  0.78989600  0.00000000  1
  O  O5  1  0.20226900  0.00000000  0.50000000  1
  O  O6  1  0.50000000  0.21010400  0.00000000  1
  O  O7  1  0.79773100  0.00000000  0.50000000  1
  O  O8  1  0.00000000  0.28989600  0.00000000  1
  O  O9  1  0.70226900  0.50000000  0.50000000  1
  O  O10  1  0.00000000  0.71010400  0.00000000  1
  O  O11  1  0.29773100  0.50000000  0.50000000  1
