# generated using pymatgen
data_HoCu2
_symmetry_space_group_name_H-M   'P 1'
_cell_length_a   4.30478200
_cell_length_b   6.81963000
_cell_length_c   7.29500600
_cell_angle_alpha   90.00000000
_cell_angle_beta   90.00000000
_cell_angle_gamma   90.00000000
_symmetry_Int_Tables_number   1
_chemical_formula_structural   HoCu2
_chemical_formula_sum   'Ho4 Cu8'
_cell_volume   214.15964048
_cell_formula_units_Z   4
loop_
 _symmetry_equiv_pos_site_id
 _symmetry_equiv_pos_as_xyz
  1  'x, y, z'
loop_
 _atom_site_type_symbol
 _atom_site_label
 _atom_site_symmetry_multiplicity
 _atom_site_fract_x
 _atom_site_fract_y
 _atom_site_fract_z
 _atom_site_occupancy
  Ho  Ho0  1  0.00000000  0.25000000  0.45564200  1
  Ho  Ho1  1  0.00000000  0.75000000  0.54435800  1
  Ho  Ho2  1  0.50000000  0.75000000  0.95564200  1
  Ho  Ho3  1  0.50000000  0.25000000  0.04435800  1
  Cu  Cu4  1  0.00000000  0.05442500  0.83632600  1
  Cu  Cu5  1  0.00000000  0.94557500  0.16367400  1
  Cu  Cu6  1  0.50000000  0.05442500  0.66367400  1
  Cu  Cu7  1  0.50000000  0.94557500  0.33632600  1
  Cu  Cu8  1  0.50000000  0.55442500  0.33632600  1
  Cu  Cu9  1  0.50000000  0.44557500  0.66367400  1
  Cu  Cu10  1  0.00000000  0.55442500  0.16367400  1
  Cu  Cu11  1  0.00000000  0.44557500  0.83632600  1
