# generated using pymatgen
data_TbGe2Pd
_symmetry_space_group_name_H-M   'P 1'
_cell_length_a   4.34111800
_cell_length_b   8.81978600
_cell_length_c   16.52645200
_cell_angle_alpha   90.00000000
_cell_angle_beta   90.00000000
_cell_angle_gamma   90.00000000
_symmetry_Int_Tables_number   1
_chemical_formula_structural   TbGe2Pd
_chemical_formula_sum   'Tb8 Ge16 Pd8'
_cell_volume   632.76036113
_cell_formula_units_Z   8
loop_
 _symmetry_equiv_pos_site_id
 _symmetry_equiv_pos_as_xyz
  1  'x, y, z'
loop_
 _atom_site_type_symbol
 _atom_site_label
 _atom_site_symmetry_multiplicity
 _atom_site_fract_x
 _atom_site_fract_y
 _atom_site_fract_z
 _atom_site_occupancy
  Tb  Tb0  1  0.50000000  0.74001700  0.00000000  1
  Tb  Tb1  1  0.50000000  0.25998300  0.00000000  1
  Tb  Tb2  1  0.00000000  0.00000000  0.70182100  1
  Tb  Tb3  1  0.50000000  0.50000000  0.79817900  1
  Tb  Tb4  1  0.00000000  0.24001700  0.50000000  1
  Tb  Tb5  1  0.00000000  0.75998300  0.50000000  1
  Tb  Tb6  1  0.50000000  0.50000000  0.20182100  1
  Tb  Tb7  1  0.00000000  0.00000000  0.29817900  1
  Ge  Ge8  1  0.00000000  0.64976400  0.69778800  1
  Ge  Ge9  1  0.50000000  0.85023600  0.80221200  1
  Ge  Ge10  1  0.50000000  0.14976400  0.80221200  1
  Ge  Ge11  1  0.00000000  0.35023600  0.69778800  1
  Ge  Ge12  1  0.50000000  0.00000000  0.57402400  1
  Ge  Ge13  1  0.00000000  0.00000000  0.92539500  1
  Ge  Ge14  1  0.50000000  0.50000000  0.57460500  1
  Ge  Ge15  1  0.00000000  0.50000000  0.92597600  1
  Ge  Ge16  1  0.50000000  0.14976400  0.19778800  1
  Ge  Ge17  1  0.00000000  0.35023600  0.30221200  1
  Ge  Ge18  1  0.00000000  0.64976400  0.30221200  1
  Ge  Ge19  1  0.50000000  0.85023600  0.19778800  1
  Ge  Ge20  1  0.00000000  0.50000000  0.07402400  1
  Ge  Ge21  1  0.50000000  0.50000000  0.42539500  1
  Ge  Ge22  1  0.00000000  0.00000000  0.07460500  1
  Ge  Ge23  1  0.50000000  0.00000000  0.42597600  1
  Pd  Pd24  1  0.00000000  0.74975200  0.85234600  1
  Pd  Pd25  1  0.50000000  0.24975200  0.64765400  1
  Pd  Pd26  1  0.50000000  0.75024800  0.64765400  1
  Pd  Pd27  1  0.00000000  0.25024800  0.85234600  1
  Pd  Pd28  1  0.50000000  0.24975200  0.35234600  1
  Pd  Pd29  1  0.00000000  0.74975200  0.14765400  1
  Pd  Pd30  1  0.00000000  0.25024800  0.14765400  1
  Pd  Pd31  1  0.50000000  0.75024800  0.35234600  1
