# generated using pymatgen
data_MnReO4
_symmetry_space_group_name_H-M   'P 1'
_cell_length_a   4.83827689
_cell_length_b   5.73419018
_cell_length_c   5.16472768
_cell_angle_alpha   90.00000000
_cell_angle_beta   92.97217695
_cell_angle_gamma   90.00000000
_symmetry_Int_Tables_number   1
_chemical_formula_structural   MnReO4
_chemical_formula_sum   'Mn2 Re2 O8'
_cell_volume   143.09539114
_cell_formula_units_Z   2
loop_
 _symmetry_equiv_pos_site_id
 _symmetry_equiv_pos_as_xyz
  1  'x, y, z'
loop_
 _atom_site_type_symbol
 _atom_site_label
 _atom_site_symmetry_multiplicity
 _atom_site_fract_x
 _atom_site_fract_y
 _atom_site_fract_z
 _atom_site_occupancy
  Mn  Mn0  1  0.50000000  0.67549300  0.75000000  1
  Mn  Mn1  1  0.50000000  0.32450700  0.25000000  1
  Re  Re2  1  0.00000000  0.16743750  0.75000000  1
  Re  Re3  1  0.00000000  0.83256250  0.25000000  1
  O  O4  1  0.74036050  0.36890600  0.61387550  1
  O  O5  1  0.25963950  0.36890600  0.88612450  1
  O  O6  1  0.25963950  0.63109400  0.38612450  1
  O  O7  1  0.74036050  0.63109400  0.11387550  1
  O  O8  1  0.79579850  0.89702250  0.55544950  1
  O  O9  1  0.20420150  0.89702250  0.94455050  1
  O  O10  1  0.79579850  0.10297750  0.05544950  1
  O  O11  1  0.20420150  0.10297750  0.44455050  1
