# generated using pymatgen
data_UNb3O10
_symmetry_space_group_name_H-M   'P 1'
_cell_length_a   7.52545400
_cell_length_b   13.04555000
_cell_length_c   16.17509400
_cell_angle_alpha   90.00000000
_cell_angle_beta   90.00000000
_cell_angle_gamma   90.00000000
_symmetry_Int_Tables_number   1
_chemical_formula_structural   UNb3O10
_chemical_formula_sum   'U8 Nb24 O80'
_cell_volume   1587.96860633
_cell_formula_units_Z   8
loop_
 _symmetry_equiv_pos_site_id
 _symmetry_equiv_pos_as_xyz
  1  'x, y, z'
loop_
 _atom_site_type_symbol
 _atom_site_label
 _atom_site_symmetry_multiplicity
 _atom_site_fract_x
 _atom_site_fract_y
 _atom_site_fract_z
 _atom_site_occupancy
  U  U0  1  0.00000000  0.00000000  0.00000000  1
  U  U1  1  0.25000000  0.75000000  0.75000000  1
  U  U2  1  0.00000000  0.50000000  0.50000000  1
  U  U3  1  0.25000000  0.25000000  0.25000000  1
  U  U4  1  0.50000000  0.00000000  0.50000000  1
  U  U5  1  0.75000000  0.75000000  0.25000000  1
  U  U6  1  0.50000000  0.50000000  0.00000000  1
  U  U7  1  0.75000000  0.25000000  0.75000000  1
  Nb  Nb8  1  0.00000000  0.00000000  0.73873500  1
  Nb  Nb9  1  0.50000000  0.00000000  0.76126500  1
  Nb  Nb10  1  0.75000000  0.75000000  0.51126500  1
  Nb  Nb11  1  0.75000000  0.75000000  0.98873500  1
  Nb  Nb12  1  0.50000000  0.00000000  0.00000000  1
  Nb  Nb13  1  0.75000000  0.75000000  0.75000000  1
  Nb  Nb14  1  0.00000000  0.50000000  0.23873500  1
  Nb  Nb15  1  0.50000000  0.50000000  0.26126500  1
  Nb  Nb16  1  0.75000000  0.25000000  0.01126500  1
  Nb  Nb17  1  0.75000000  0.25000000  0.48873500  1
  Nb  Nb18  1  0.50000000  0.50000000  0.50000000  1
  Nb  Nb19  1  0.75000000  0.25000000  0.25000000  1
  Nb  Nb20  1  0.50000000  0.00000000  0.23873500  1
  Nb  Nb21  1  0.00000000  0.00000000  0.26126500  1
  Nb  Nb22  1  0.25000000  0.75000000  0.01126500  1
  Nb  Nb23  1  0.25000000  0.75000000  0.48873500  1
  Nb  Nb24  1  0.00000000  0.00000000  0.50000000  1
  Nb  Nb25  1  0.25000000  0.75000000  0.25000000  1
  Nb  Nb26  1  0.50000000  0.50000000  0.73873500  1
  Nb  Nb27  1  0.00000000  0.50000000  0.76126500  1
  Nb  Nb28  1  0.25000000  0.25000000  0.51126500  1
  Nb  Nb29  1  0.25000000  0.25000000  0.98873500  1
  Nb  Nb30  1  0.00000000  0.50000000  0.00000000  1
  Nb  Nb31  1  0.25000000  0.25000000  0.75000000  1
  O  O32  1  0.00000000  0.79692900  0.00000000  1
  O  O33  1  0.50000000  0.70307100  0.00000000  1
  O  O34  1  0.25000000  0.95307100  0.75000000  1
  O  O35  1  0.25000000  0.54692900  0.75000000  1
  O  O36  1  0.00000000  0.00000000  0.88421100  1
  O  O37  1  0.50000000  0.00000000  0.61578900  1
  O  O38  1  0.25000000  0.75000000  0.86578900  1
  O  O39  1  0.25000000  0.75000000  0.63421100  1
  O  O40  1  0.55119750  0.64896000  0.75223050  1
  O  O41  1  0.55119750  0.85104000  0.74776950  1
  O  O42  1  0.94880250  0.64896000  0.74776950  1
  O  O43  1  0.94880250  0.85104000  0.75223050  1
  O  O44  1  0.19880250  0.60104000  0.99776950  1
  O  O45  1  0.19880250  0.89896000  0.50223050  1
  O  O46  1  0.30119750  0.60104000  0.50223050  1
  O  O47  1  0.30119750  0.89896000  0.99776950  1
  O  O48  1  0.75000000  0.75000000  0.87393500  1
  O  O49  1  0.75000000  0.75000000  0.62606500  1
  O  O50  1  0.50000000  0.00000000  0.87606500  1
  O  O51  1  0.00000000  0.00000000  0.62393500  1
  O  O52  1  0.00000000  0.29692900  0.50000000  1
  O  O53  1  0.50000000  0.20307100  0.50000000  1
  O  O54  1  0.25000000  0.45307100  0.25000000  1
  O  O55  1  0.25000000  0.04692900  0.25000000  1
  O  O56  1  0.00000000  0.50000000  0.38421100  1
  O  O57  1  0.50000000  0.50000000  0.11578900  1
  O  O58  1  0.25000000  0.25000000  0.36578900  1
  O  O59  1  0.25000000  0.25000000  0.13421100  1
  O  O60  1  0.55119750  0.14896000  0.25223050  1
  O  O61  1  0.55119750  0.35104000  0.24776950  1
  O  O62  1  0.94880250  0.14896000  0.24776950  1
  O  O63  1  0.94880250  0.35104000  0.25223050  1
  O  O64  1  0.19880250  0.10104000  0.49776950  1
  O  O65  1  0.19880250  0.39896000  0.00223050  1
  O  O66  1  0.30119750  0.10104000  0.00223050  1
  O  O67  1  0.30119750  0.39896000  0.49776950  1
  O  O68  1  0.75000000  0.25000000  0.37393500  1
  O  O69  1  0.75000000  0.25000000  0.12606500  1
  O  O70  1  0.50000000  0.50000000  0.37606500  1
  O  O71  1  0.00000000  0.50000000  0.12393500  1
  O  O72  1  0.50000000  0.79692900  0.50000000  1
  O  O73  1  0.00000000  0.70307100  0.50000000  1
  O  O74  1  0.75000000  0.95307100  0.25000000  1
  O  O75  1  0.75000000  0.54692900  0.25000000  1
  O  O76  1  0.50000000  0.00000000  0.38421100  1
  O  O77  1  0.00000000  0.00000000  0.11578900  1
  O  O78  1  0.75000000  0.75000000  0.36578900  1
  O  O79  1  0.75000000  0.75000000  0.13421100  1
  O  O80  1  0.05119750  0.64896000  0.25223050  1
  O  O81  1  0.05119750  0.85104000  0.24776950  1
  O  O82  1  0.44880250  0.64896000  0.24776950  1
  O  O83  1  0.44880250  0.85104000  0.25223050  1
  O  O84  1  0.69880250  0.60104000  0.49776950  1
  O  O85  1  0.69880250  0.89896000  0.00223050  1
  O  O86  1  0.80119750  0.60104000  0.00223050  1
  O  O87  1  0.80119750  0.89896000  0.49776950  1
  O  O88  1  0.25000000  0.75000000  0.37393500  1
  O  O89  1  0.25000000  0.75000000  0.12606500  1
  O  O90  1  0.00000000  0.00000000  0.37606500  1
  O  O91  1  0.50000000  0.00000000  0.12393500  1
  O  O92  1  0.50000000  0.29692900  0.00000000  1
  O  O93  1  0.00000000  0.20307100  0.00000000  1
  O  O94  1  0.75000000  0.45307100  0.75000000  1
  O  O95  1  0.75000000  0.04692900  0.75000000  1
  O  O96  1  0.50000000  0.50000000  0.88421100  1
  O  O97  1  0.00000000  0.50000000  0.61578900  1
  O  O98  1  0.75000000  0.25000000  0.86578900  1
  O  O99  1  0.75000000  0.25000000  0.63421100  1
  O  O100  1  0.05119750  0.14896000  0.75223050  1
  O  O101  1  0.05119750  0.35104000  0.74776950  1
  O  O102  1  0.44880250  0.14896000  0.74776950  1
  O  O103  1  0.44880250  0.35104000  0.75223050  1
  O  O104  1  0.69880250  0.10104000  0.99776950  1
  O  O105  1  0.69880250  0.39896000  0.50223050  1
  O  O106  1  0.80119750  0.10104000  0.50223050  1
  O  O107  1  0.80119750  0.39896000  0.99776950  1
  O  O108  1  0.25000000  0.25000000  0.87393500  1
  O  O109  1  0.25000000  0.25000000  0.62606500  1
  O  O110  1  0.00000000  0.50000000  0.87606500  1
  O  O111  1  0.50000000  0.50000000  0.62393500  1
