# generated using pymatgen
data_SrLaMn2O6
_symmetry_space_group_name_H-M   'P 1'
_cell_length_a   5.49461000
_cell_length_b   5.49461000
_cell_length_c   7.89812600
_cell_angle_alpha   90.00000000
_cell_angle_beta   90.00000000
_cell_angle_gamma   90.00000000
_symmetry_Int_Tables_number   1
_chemical_formula_structural   SrLaMn2O6
_chemical_formula_sum   'Sr2 La2 Mn4 O12'
_cell_volume   238.45026107
_cell_formula_units_Z   2
loop_
 _symmetry_equiv_pos_site_id
 _symmetry_equiv_pos_as_xyz
  1  'x, y, z'
loop_
 _atom_site_type_symbol
 _atom_site_label
 _atom_site_symmetry_multiplicity
 _atom_site_fract_x
 _atom_site_fract_y
 _atom_site_fract_z
 _atom_site_occupancy
  Sr  Sr0  1  0.00000000  0.00000000  0.00000000  1
  Sr  Sr1  1  0.50000000  0.50000000  0.50000000  1
  La  La2  1  0.50000000  0.50000000  0.00000000  1
  La  La3  1  0.00000000  0.00000000  0.50000000  1
  Mn  Mn4  1  0.50000000  0.00000000  0.25000000  1
  Mn  Mn5  1  0.00000000  0.50000000  0.25000000  1
  Mn  Mn6  1  0.00000000  0.50000000  0.75000000  1
  Mn  Mn7  1  0.50000000  0.00000000  0.75000000  1
  O  O8  1  0.00000000  0.50000000  0.00000000  1
  O  O9  1  0.71480350  0.71480350  0.24282950  1
  O  O10  1  0.78519650  0.21480350  0.25717050  1
  O  O11  1  0.50000000  0.00000000  0.00000000  1
  O  O12  1  0.21480350  0.78519650  0.25717050  1
  O  O13  1  0.28519650  0.28519650  0.24282950  1
  O  O14  1  0.50000000  0.00000000  0.50000000  1
  O  O15  1  0.21480350  0.21480350  0.74282950  1
  O  O16  1  0.28519650  0.71480350  0.75717050  1
  O  O17  1  0.00000000  0.50000000  0.50000000  1
  O  O18  1  0.71480350  0.28519650  0.75717050  1
  O  O19  1  0.78519650  0.78519650  0.74282950  1
