# generated using pymatgen
data_U2Al19Co6
_symmetry_space_group_name_H-M   'P 1'
_cell_length_a   17.50671400
_cell_length_b   12.00677800
_cell_length_c   8.15856288
_cell_angle_alpha   90.00000000
_cell_angle_beta   103.94732231
_cell_angle_gamma   90.00000000
_symmetry_Int_Tables_number   1
_chemical_formula_structural   U2Al19Co6
_chemical_formula_sum   'U8 Al76 Co24'
_cell_volume   1664.36379730
_cell_formula_units_Z   4
loop_
 _symmetry_equiv_pos_site_id
 _symmetry_equiv_pos_as_xyz
  1  'x, y, z'
loop_
 _atom_site_type_symbol
 _atom_site_label
 _atom_site_symmetry_multiplicity
 _atom_site_fract_x
 _atom_site_fract_y
 _atom_site_fract_z
 _atom_site_occupancy
  U  U0  1  0.28114600  0.00000000  0.25449300  1
  U  U1  1  0.71885400  0.00000000  0.74550700  1
  U  U2  1  0.28148900  0.00000000  0.77630900  1
  U  U3  1  0.71851100  0.00000000  0.22369100  1
  U  U4  1  0.78114600  0.50000000  0.25449300  1
  U  U5  1  0.21885400  0.50000000  0.74550700  1
  U  U6  1  0.78148900  0.50000000  0.77630900  1
  U  U7  1  0.21851100  0.50000000  0.22369100  1
  Al  Al8  1  0.52693200  0.32628900  0.36284500  1
  Al  Al9  1  0.35978550  0.82602550  0.05414400  1
  Al  Al10  1  0.44788700  0.11840200  0.84503200  1
  Al  Al11  1  0.64936200  0.83509900  0.44859100  1
  Al  Al12  1  0.25238450  0.25048750  0.23944400  1
  Al  Al13  1  0.74761550  0.25048750  0.76055600  1
  Al  Al14  1  0.50000000  0.33242600  0.00000000  1
  Al  Al15  1  0.90979700  0.00000000  0.81433700  1
  Al  Al16  1  0.09020300  0.00000000  0.18566300  1
  Al  Al17  1  0.91759100  0.00000000  0.35516800  1
  Al  Al18  1  0.44788700  0.88159800  0.84503200  1
  Al  Al19  1  0.64021450  0.82602550  0.94585600  1
  Al  Al20  1  0.08240900  0.00000000  0.64483200  1
  Al  Al21  1  0.50000000  0.66757400  0.00000000  1
  Al  Al22  1  0.55211300  0.11840200  0.15496800  1
  Al  Al23  1  0.81572550  0.11531350  0.53307100  1
  Al  Al24  1  0.18427450  0.11531350  0.46692900  1
  Al  Al25  1  0.47306800  0.67371100  0.63715500  1
  Al  Al26  1  0.16660450  0.88773350  0.95371400  1
  Al  Al27  1  0.83339550  0.88773350  0.04628600  1
  Al  Al28  1  0.35978550  0.17397450  0.05414400  1
  Al  Al29  1  0.52693200  0.67371100  0.36284500  1
  Al  Al30  1  0.18427450  0.88468650  0.46692900  1
  Al  Al31  1  0.44555250  0.11773150  0.35176400  1
  Al  Al32  1  0.16660450  0.11226650  0.95371400  1
  Al  Al33  1  0.35063800  0.16490100  0.55140900  1
  Al  Al34  1  0.81572550  0.88468650  0.53307100  1
  Al  Al35  1  0.44555250  0.88226850  0.35176400  1
  Al  Al36  1  0.55211300  0.88159800  0.15496800  1
  Al  Al37  1  0.55444750  0.88226850  0.64823600  1
  Al  Al38  1  0.83339550  0.11226650  0.04628600  1
  Al  Al39  1  0.47306800  0.32628900  0.63715500  1
  Al  Al40  1  0.64021450  0.17397450  0.94585600  1
  Al  Al41  1  0.35063800  0.83509900  0.55140900  1
  Al  Al42  1  0.64936200  0.16490100  0.44859100  1
  Al  Al43  1  0.25238450  0.74951250  0.23944400  1
  Al  Al44  1  0.55444750  0.11773150  0.64823600  1
  Al  Al45  1  0.74761550  0.74951250  0.76055600  1
  Al  Al46  1  0.02693200  0.82628900  0.36284500  1
  Al  Al47  1  0.85978550  0.32602550  0.05414400  1
  Al  Al48  1  0.94788700  0.61840200  0.84503200  1
  Al  Al49  1  0.14936200  0.33509900  0.44859100  1
  Al  Al50  1  0.75238450  0.75048750  0.23944400  1
  Al  Al51  1  0.24761550  0.75048750  0.76055600  1
  Al  Al52  1  0.00000000  0.83242600  0.00000000  1
  Al  Al53  1  0.40979700  0.50000000  0.81433700  1
  Al  Al54  1  0.59020300  0.50000000  0.18566300  1
  Al  Al55  1  0.41759100  0.50000000  0.35516800  1
  Al  Al56  1  0.94788700  0.38159800  0.84503200  1
  Al  Al57  1  0.14021450  0.32602550  0.94585600  1
  Al  Al58  1  0.58240900  0.50000000  0.64483200  1
  Al  Al59  1  0.00000000  0.16757400  0.00000000  1
  Al  Al60  1  0.05211300  0.61840200  0.15496800  1
  Al  Al61  1  0.31572550  0.61531350  0.53307100  1
  Al  Al62  1  0.68427450  0.61531350  0.46692900  1
  Al  Al63  1  0.97306800  0.17371100  0.63715500  1
  Al  Al64  1  0.66660450  0.38773350  0.95371400  1
  Al  Al65  1  0.33339550  0.38773350  0.04628600  1
  Al  Al66  1  0.85978550  0.67397450  0.05414400  1
  Al  Al67  1  0.02693200  0.17371100  0.36284500  1
  Al  Al68  1  0.68427450  0.38468650  0.46692900  1
  Al  Al69  1  0.94555250  0.61773150  0.35176400  1
  Al  Al70  1  0.66660450  0.61226650  0.95371400  1
  Al  Al71  1  0.85063800  0.66490100  0.55140900  1
  Al  Al72  1  0.31572550  0.38468650  0.53307100  1
  Al  Al73  1  0.94555250  0.38226850  0.35176400  1
  Al  Al74  1  0.05211300  0.38159800  0.15496800  1
  Al  Al75  1  0.05444750  0.38226850  0.64823600  1
  Al  Al76  1  0.33339550  0.61226650  0.04628600  1
  Al  Al77  1  0.97306800  0.82628900  0.63715500  1
  Al  Al78  1  0.14021450  0.67397450  0.94585600  1
  Al  Al79  1  0.85063800  0.33509900  0.55140900  1
  Al  Al80  1  0.14936200  0.66490100  0.44859100  1
  Al  Al81  1  0.75238450  0.24951250  0.23944400  1
  Al  Al82  1  0.05444750  0.61773150  0.64823600  1
  Al  Al83  1  0.24761550  0.24951250  0.76055600  1
  Co  Co84  1  0.62113250  0.30072350  0.18894300  1
  Co  Co85  1  0.38410200  0.30254500  0.32991900  1
  Co  Co86  1  0.56406300  0.00000000  0.90750000  1
  Co  Co87  1  0.62113250  0.69927650  0.18894300  1
  Co  Co88  1  0.61589800  0.30254500  0.67008100  1
  Co  Co89  1  0.43593700  0.00000000  0.09250000  1
  Co  Co90  1  0.43904700  0.00000000  0.59486800  1
  Co  Co91  1  0.61589800  0.69745500  0.67008100  1
  Co  Co92  1  0.37886750  0.69927650  0.81105700  1
  Co  Co93  1  0.38410200  0.69745500  0.32991900  1
  Co  Co94  1  0.56095300  0.00000000  0.40513200  1
  Co  Co95  1  0.37886750  0.30072350  0.81105700  1
  Co  Co96  1  0.12113250  0.80072350  0.18894300  1
  Co  Co97  1  0.88410200  0.80254500  0.32991900  1
  Co  Co98  1  0.06406300  0.50000000  0.90750000  1
  Co  Co99  1  0.12113250  0.19927650  0.18894300  1
  Co  Co100  1  0.11589800  0.80254500  0.67008100  1
  Co  Co101  1  0.93593700  0.50000000  0.09250000  1
  Co  Co102  1  0.93904700  0.50000000  0.59486800  1
  Co  Co103  1  0.11589800  0.19745500  0.67008100  1
  Co  Co104  1  0.87886750  0.19927650  0.81105700  1
  Co  Co105  1  0.88410200  0.19745500  0.32991900  1
  Co  Co106  1  0.06095300  0.50000000  0.40513200  1
  Co  Co107  1  0.87886750  0.80072350  0.81105700  1
