# generated using pymatgen
data_CeSi2Pt
_symmetry_space_group_name_H-M   'P 1'
_cell_length_a   4.26930200
_cell_length_b   16.66104800
_cell_length_c   4.24702100
_cell_angle_alpha   90.00000000
_cell_angle_beta   90.00000000
_cell_angle_gamma   90.00000000
_symmetry_Int_Tables_number   1
_chemical_formula_structural   CeSi2Pt
_chemical_formula_sum   'Ce4 Si8 Pt4'
_cell_volume   302.09504420
_cell_formula_units_Z   4
loop_
 _symmetry_equiv_pos_site_id
 _symmetry_equiv_pos_as_xyz
  1  'x, y, z'
loop_
 _atom_site_type_symbol
 _atom_site_label
 _atom_site_symmetry_multiplicity
 _atom_site_fract_x
 _atom_site_fract_y
 _atom_site_fract_z
 _atom_site_occupancy
  Ce  Ce0  1  0.50000000  0.10358300  0.75000000  1
  Ce  Ce1  1  0.00000000  0.39641700  0.25000000  1
  Ce  Ce2  1  0.00000000  0.60358300  0.75000000  1
  Ce  Ce3  1  0.50000000  0.89641700  0.25000000  1
  Si  Si4  1  0.50000000  0.46552700  0.75000000  1
  Si  Si5  1  0.00000000  0.03447300  0.25000000  1
  Si  Si6  1  0.50000000  0.24925800  0.25000000  1
  Si  Si7  1  0.00000000  0.25074200  0.75000000  1
  Si  Si8  1  0.00000000  0.96552700  0.75000000  1
  Si  Si9  1  0.50000000  0.53447300  0.25000000  1
  Si  Si10  1  0.00000000  0.74925800  0.25000000  1
  Si  Si11  1  0.50000000  0.75074200  0.75000000  1
  Pt  Pt12  1  0.00000000  0.17898000  0.25000000  1
  Pt  Pt13  1  0.50000000  0.32102000  0.75000000  1
  Pt  Pt14  1  0.50000000  0.67898000  0.25000000  1
  Pt  Pt15  1  0.00000000  0.82102000  0.75000000  1
