# generated using pymatgen
data_LiNiPO4
_symmetry_space_group_name_H-M   'P 1'
_cell_length_a   13.51672365
_cell_length_b   13.51672365
_cell_length_c   9.49713306
_cell_angle_alpha   90.00000000
_cell_angle_beta   90.00000000
_cell_angle_gamma   120.00000000
_symmetry_Int_Tables_number   1
_chemical_formula_structural   LiNiPO4
_chemical_formula_sum   'Li18 Ni18 P18 O72'
_cell_volume   1502.67833258
_cell_formula_units_Z   18
loop_
 _symmetry_equiv_pos_site_id
 _symmetry_equiv_pos_as_xyz
  1  'x, y, z'
loop_
 _atom_site_type_symbol
 _atom_site_label
 _atom_site_symmetry_multiplicity
 _atom_site_fract_x
 _atom_site_fract_y
 _atom_site_fract_z
 _atom_site_occupancy
  Li  Li0  1  0.54682000  0.86055800  0.57767700  1
  Li  Li1  1  0.78793967  0.80506033  0.41510133  1
  Li  Li2  1  0.01712067  0.21206033  0.41510133  1
  Li  Li3  1  0.13944200  0.68626200  0.57767700  1
  Li  Li4  1  0.19493967  0.98287933  0.41510133  1
  Li  Li5  1  0.31373800  0.45318000  0.57767700  1
  Li  Li6  1  0.21348667  0.19389133  0.91101033  1
  Li  Li7  1  0.45460633  0.13839367  0.74843467  1
  Li  Li8  1  0.68378733  0.54539367  0.74843467  1
  Li  Li9  1  0.80610867  0.01959533  0.91101033  1
  Li  Li10  1  0.86160633  0.31621267  0.74843467  1
  Li  Li11  1  0.98040467  0.78651333  0.91101033  1
  Li  Li12  1  0.88015333  0.52722467  0.24434367  1
  Li  Li13  1  0.12127300  0.47172700  0.08176800  1
  Li  Li14  1  0.35045400  0.87872700  0.08176800  1
  Li  Li15  1  0.47277533  0.35292867  0.24434367  1
  Li  Li16  1  0.52827300  0.64954600  0.08176800  1
  Li  Li17  1  0.64707133  0.11984667  0.24434367  1
  Ni  Ni18  1  0.81512667  0.01744333  0.25305733  1
  Ni  Ni19  1  0.79069333  0.81951767  0.75226367  1
  Ni  Ni20  1  0.98255667  0.79768333  0.25305733  1
  Ni  Ni21  1  0.02882433  0.20930667  0.75226367  1
  Ni  Ni22  1  0.20231667  0.18487333  0.25305733  1
  Ni  Ni23  1  0.18048233  0.97117567  0.75226367  1
  Ni  Ni24  1  0.48179333  0.35077667  0.58639067  1
  Ni  Ni25  1  0.45736000  0.15285100  0.08559700  1
  Ni  Ni26  1  0.64922333  0.13101667  0.58639067  1
  Ni  Ni27  1  0.69549100  0.54264000  0.08559700  1
  Ni  Ni28  1  0.86898333  0.51820667  0.58639067  1
  Ni  Ni29  1  0.84714900  0.30450900  0.08559700  1
  Ni  Ni30  1  0.14846000  0.68411000  0.91972400  1
  Ni  Ni31  1  0.12402667  0.48618433  0.41893033  1
  Ni  Ni32  1  0.31589000  0.46435000  0.91972400  1
  Ni  Ni33  1  0.36215767  0.87597333  0.41893033  1
  Ni  Ni34  1  0.53565000  0.85154000  0.91972400  1
  Ni  Ni35  1  0.51381567  0.63784233  0.41893033  1
  P  P36  1  0.46093100  0.13447400  0.41645300  1
  P  P37  1  0.21050533  0.19577267  0.58155567  1
  P  P38  1  0.98526733  0.78949467  0.58155567  1
  P  P39  1  0.86552600  0.32645700  0.41645300  1
  P  P40  1  0.80422733  0.01473267  0.58155567  1
  P  P41  1  0.67354300  0.53906900  0.41645300  1
  P  P42  1  0.12759767  0.46780733  0.74978633  1
  P  P43  1  0.87717200  0.52910600  0.91488900  1
  P  P44  1  0.65193400  0.12282800  0.91488900  1
  P  P45  1  0.53219267  0.65979033  0.74978633  1
  P  P46  1  0.47089400  0.34806600  0.91488900  1
  P  P47  1  0.34020967  0.87240233  0.74978633  1
  P  P48  1  0.79426433  0.80114067  0.08311967  1
  P  P49  1  0.54383867  0.86243933  0.24822233  1
  P  P50  1  0.31860067  0.45616133  0.24822233  1
  P  P51  1  0.19885933  0.99312367  0.08311967  1
  P  P52  1  0.13756067  0.68139933  0.24822233  1
  P  P53  1  0.00687633  0.20573567  0.08311967  1
  O  O54  1  0.46002067  0.20072133  0.28316033  1
  O  O55  1  0.32213233  0.31346367  0.59013467  1
  O  O56  1  0.35099200  0.01526300  0.42113700  1
  O  O57  1  0.23236800  0.44936300  0.74382000  1
  O  O58  1  0.21699500  0.76763200  0.74382000  1
  O  O59  1  0.19901100  0.12355700  0.71576600  1
  O  O60  1  0.55063700  0.78300500  0.74382000  1
  O  O61  1  0.66427100  0.64900800  0.42113700  1
  O  O62  1  0.74070067  0.53997933  0.28316033  1
  O  O63  1  0.68653633  0.00866867  0.59013467  1
  O  O64  1  0.80375400  0.86919300  0.22004100  1
  O  O65  1  0.79927867  0.25929933  0.28316033  1
  O  O66  1  0.78125867  0.88977233  0.57610533  1
  O  O67  1  0.86814200  0.07512400  0.44453200  1
  O  O68  1  0.92487600  0.79301800  0.44453200  1
  O  O69  1  0.87644300  0.07545400  0.71576600  1
  O  O70  1  0.98473700  0.33572900  0.42113700  1
  O  O71  1  0.92454600  0.80098900  0.71576600  1
  O  O72  1  0.06543900  0.19624600  0.22004100  1
  O  O73  1  0.99133133  0.67786767  0.59013467  1
  O  O74  1  0.13080700  0.93456100  0.22004100  1
  O  O75  1  0.10851367  0.21874133  0.57610533  1
  O  O76  1  0.11022767  0.89148633  0.57610533  1
  O  O77  1  0.20698200  0.13185800  0.44453200  1
  O  O78  1  0.12668733  0.53405467  0.61649367  1
  O  O79  1  0.98879900  0.64679700  0.92346800  1
  O  O80  1  0.01765867  0.34859633  0.75447033  1
  O  O81  1  0.89903467  0.78269633  0.07715333  1
  O  O82  1  0.88366167  0.10096533  0.07715333  1
  O  O83  1  0.86567767  0.45689033  0.04909933  1
  O  O84  1  0.21730367  0.11633833  0.07715333  1
  O  O85  1  0.33093767  0.98234133  0.75447033  1
  O  O86  1  0.40736733  0.87331267  0.61649367  1
  O  O87  1  0.35320300  0.34200200  0.92346800  1
  O  O88  1  0.47042067  0.20252633  0.55337433  1
  O  O89  1  0.46594533  0.59263267  0.61649367  1
  O  O90  1  0.44792533  0.22310567  0.90943867  1
  O  O91  1  0.53480867  0.40845733  0.77786533  1
  O  O92  1  0.59154267  0.12635133  0.77786533  1
  O  O93  1  0.54310967  0.40878733  0.04909933  1
  O  O94  1  0.65140367  0.66906233  0.75447033  1
  O  O95  1  0.59121267  0.13432233  0.04909933  1
  O  O96  1  0.73210567  0.52957933  0.55337433  1
  O  O97  1  0.65799800  0.01120100  0.92346800  1
  O  O98  1  0.79747367  0.26789433  0.55337433  1
  O  O99  1  0.77518033  0.55207467  0.90943867  1
  O  O100  1  0.77689433  0.22481967  0.90943867  1
  O  O101  1  0.87364867  0.46519133  0.77786533  1
  O  O102  1  0.79335400  0.86738800  0.94982700  1
  O  O103  1  0.65546567  0.98013033  0.25680133  1
  O  O104  1  0.68432533  0.68192967  0.08780367  1
  O  O105  1  0.56570133  0.11602967  0.41048667  1
  O  O106  1  0.55032833  0.43429867  0.41048667  1
  O  O107  1  0.53234433  0.79022367  0.38243267  1
  O  O108  1  0.88397033  0.44967167  0.41048667  1
  O  O109  1  0.99760433  0.31567467  0.08780367  1
  O  O110  1  0.07403400  0.20664600  0.94982700  1
  O  O111  1  0.01986967  0.67533533  0.25680133  1
  O  O112  1  0.13708733  0.53585967  0.88670767  1
  O  O113  1  0.13261200  0.92596600  0.94982700  1
  O  O114  1  0.11459200  0.55643900  0.24277200  1
  O  O115  1  0.20147533  0.74179067  0.11119867  1
  O  O116  1  0.25820933  0.45968467  0.11119867  1
  O  O117  1  0.20977633  0.74212067  0.38243267  1
  O  O118  1  0.31807033  0.00239567  0.08780367  1
  O  O119  1  0.25787933  0.46765567  0.38243267  1
  O  O120  1  0.39877233  0.86291267  0.88670767  1
  O  O121  1  0.32466467  0.34453433  0.25680133  1
  O  O122  1  0.46414033  0.60122767  0.88670767  1
  O  O123  1  0.44184700  0.88540800  0.24277200  1
  O  O124  1  0.44356100  0.55815300  0.24277200  1
  O  O125  1  0.54031533  0.79852467  0.11119867  1
