# generated using pymatgen
data_LiVP2O7
_symmetry_space_group_name_H-M   'P 1'
_cell_length_a   6.59903860
_cell_length_b   8.29268642
_cell_length_c   4.55013914
_cell_angle_alpha   90.00000000
_cell_angle_beta   103.17060461
_cell_angle_gamma   90.00000000
_symmetry_Int_Tables_number   1
_chemical_formula_structural   LiVP2O7
_chemical_formula_sum   'Li2 V2 P4 O14'
_cell_volume   242.45098003
_cell_formula_units_Z   2
loop_
 _symmetry_equiv_pos_site_id
 _symmetry_equiv_pos_as_xyz
  1  'x, y, z'
loop_
 _atom_site_type_symbol
 _atom_site_label
 _atom_site_symmetry_multiplicity
 _atom_site_fract_x
 _atom_site_fract_y
 _atom_site_fract_z
 _atom_site_occupancy
  Li  Li0  1  0.50000000  0.75037125  0.00000000  1
  Li  Li1  1  0.00000000  0.25037125  0.00000000  1
  V  V2  1  0.50000000  0.37497937  0.00000000  1
  V  V3  1  0.00000000  0.87497937  0.00000000  1
  P  P4  1  0.29229613  0.03994513  0.58897425  1
  P  P5  1  0.70770387  0.03994513  0.41102575  1
  P  P6  1  0.79229613  0.53994513  0.58897425  1
  P  P7  1  0.20770387  0.53994513  0.41102575  1
  O  O8  1  0.50000000  0.97170650  0.50000000  1
  O  O9  1  0.13027475  0.05613675  0.28844350  1
  O  O10  1  0.86972525  0.05613675  0.71155650  1
  O  O11  1  0.24965988  0.90597037  0.80257775  1
  O  O12  1  0.75034012  0.90597037  0.19742225  1
  O  O13  1  0.33188888  0.20291337  0.74229075  1
  O  O14  1  0.66811112  0.20291337  0.25770925  1
  O  O15  1  0.00000000  0.47170650  0.50000000  1
  O  O16  1  0.63027475  0.55613675  0.28844350  1
  O  O17  1  0.36972525  0.55613675  0.71155650  1
  O  O18  1  0.74965988  0.40597037  0.80257775  1
  O  O19  1  0.25034012  0.40597037  0.19742225  1
  O  O20  1  0.83188888  0.70291338  0.74229075  1
  O  O21  1  0.16811112  0.70291338  0.25770925  1
