# generated using pymatgen
data_Y4AsSe3
_symmetry_space_group_name_H-M   'P 1'
_cell_length_a   5.79275200
_cell_length_b   5.79275200
_cell_length_c   11.60468800
_cell_angle_alpha   90.00000000
_cell_angle_beta   90.00000000
_cell_angle_gamma   90.00000000
_symmetry_Int_Tables_number   1
_chemical_formula_structural   Y4AsSe3
_chemical_formula_sum   'Y8 As2 Se6'
_cell_volume   389.40662892
_cell_formula_units_Z   2
loop_
 _symmetry_equiv_pos_site_id
 _symmetry_equiv_pos_as_xyz
  1  'x, y, z'
loop_
 _atom_site_type_symbol
 _atom_site_label
 _atom_site_symmetry_multiplicity
 _atom_site_fract_x
 _atom_site_fract_y
 _atom_site_fract_z
 _atom_site_occupancy
  Y  Y0  1  0.00000000  0.00000000  0.24348700  1
  Y  Y1  1  0.50000000  0.50000000  0.25651300  1
  Y  Y2  1  0.00000000  0.50000000  0.00000000  1
  Y  Y3  1  0.50000000  0.00000000  0.00000000  1
  Y  Y4  1  0.50000000  0.50000000  0.74348700  1
  Y  Y5  1  0.00000000  0.00000000  0.75651300  1
  Y  Y6  1  0.50000000  0.00000000  0.50000000  1
  Y  Y7  1  0.00000000  0.50000000  0.50000000  1
  As  As8  1  0.00000000  0.00000000  0.00000000  1
  As  As9  1  0.50000000  0.50000000  0.50000000  1
  Se  Se10  1  0.00000000  0.50000000  0.25000000  1
  Se  Se11  1  0.50000000  0.00000000  0.25000000  1
  Se  Se12  1  0.50000000  0.50000000  0.00000000  1
  Se  Se13  1  0.50000000  0.00000000  0.75000000  1
  Se  Se14  1  0.00000000  0.50000000  0.75000000  1
  Se  Se15  1  0.00000000  0.00000000  0.50000000  1
