# generated using pymatgen
data_LiCrPO4
_symmetry_space_group_name_H-M   'P 1'
_cell_length_a   5.65849400
_cell_length_b   9.62776400
_cell_length_c   11.22134200
_cell_angle_alpha   90.00000000
_cell_angle_beta   90.00000000
_cell_angle_gamma   90.00000000
_symmetry_Int_Tables_number   1
_chemical_formula_structural   LiCrPO4
_chemical_formula_sum   'Li8 Cr8 P8 O32'
_cell_volume   611.32350530
_cell_formula_units_Z   8
loop_
 _symmetry_equiv_pos_site_id
 _symmetry_equiv_pos_as_xyz
  1  'x, y, z'
loop_
 _atom_site_type_symbol
 _atom_site_label
 _atom_site_symmetry_multiplicity
 _atom_site_fract_x
 _atom_site_fract_y
 _atom_site_fract_z
 _atom_site_occupancy
  Li  Li0  1  0.50000000  0.43547300  0.00000000  1
  Li  Li1  1  0.75000000  0.18547300  0.75000000  1
  Li  Li2  1  0.50000000  0.93547300  0.50000000  1
  Li  Li3  1  0.75000000  0.68547300  0.25000000  1
  Li  Li4  1  0.00000000  0.93547300  0.00000000  1
  Li  Li5  1  0.25000000  0.68547300  0.75000000  1
  Li  Li6  1  0.00000000  0.43547300  0.50000000  1
  Li  Li7  1  0.25000000  0.18547300  0.25000000  1
  Cr  Cr8  1  0.75000000  0.52706700  0.75000000  1
  Cr  Cr9  1  0.50000000  0.77706700  0.00000000  1
  Cr  Cr10  1  0.75000000  0.02706700  0.25000000  1
  Cr  Cr11  1  0.50000000  0.27706700  0.50000000  1
  Cr  Cr12  1  0.25000000  0.02706700  0.75000000  1
  Cr  Cr13  1  0.00000000  0.27706700  0.00000000  1
  Cr  Cr14  1  0.25000000  0.52706700  0.25000000  1
  Cr  Cr15  1  0.00000000  0.77706700  0.50000000  1
  P  P16  1  0.50000000  0.13261700  0.00000000  1
  P  P17  1  0.75000000  0.88261700  0.75000000  1
  P  P18  1  0.50000000  0.63261700  0.50000000  1
  P  P19  1  0.75000000  0.38261700  0.25000000  1
  P  P20  1  0.00000000  0.63261700  0.00000000  1
  P  P21  1  0.25000000  0.38261700  0.75000000  1
  P  P22  1  0.00000000  0.13261700  0.50000000  1
  P  P23  1  0.25000000  0.88261700  0.25000000  1
  O  O24  1  0.39797800  0.78440450  0.16999950  1
  O  O25  1  0.60202200  0.78440450  0.83000050  1
  O  O26  1  0.35202200  0.03440450  0.91999950  1
  O  O27  1  0.64797800  0.03440450  0.08000050  1
  O  O28  1  0.08195500  0.98053800  0.17800700  1
  O  O29  1  0.66804500  0.23053800  0.92800700  1
  O  O30  1  0.33195500  0.23053800  0.07199300  1
  O  O31  1  0.91804500  0.98053800  0.82199300  1
  O  O32  1  0.39797800  0.28440450  0.66999950  1
  O  O33  1  0.60202200  0.28440450  0.33000050  1
  O  O34  1  0.35202200  0.53440450  0.41999950  1
  O  O35  1  0.64797800  0.53440450  0.58000050  1
  O  O36  1  0.08195500  0.48053800  0.67800700  1
  O  O37  1  0.66804500  0.73053800  0.42800700  1
  O  O38  1  0.33195500  0.73053800  0.57199300  1
  O  O39  1  0.91804500  0.48053800  0.32199300  1
  O  O40  1  0.89797800  0.28440450  0.16999950  1
  O  O41  1  0.10202200  0.28440450  0.83000050  1
  O  O42  1  0.85202200  0.53440450  0.91999950  1
  O  O43  1  0.14797800  0.53440450  0.08000050  1
  O  O44  1  0.58195500  0.48053800  0.17800700  1
  O  O45  1  0.16804500  0.73053800  0.92800700  1
  O  O46  1  0.83195500  0.73053800  0.07199300  1
  O  O47  1  0.41804500  0.48053800  0.82199300  1
  O  O48  1  0.89797800  0.78440450  0.66999950  1
  O  O49  1  0.10202200  0.78440450  0.33000050  1
  O  O50  1  0.85202200  0.03440450  0.41999950  1
  O  O51  1  0.14797800  0.03440450  0.58000050  1
  O  O52  1  0.58195500  0.98053800  0.67800700  1
  O  O53  1  0.16804500  0.23053800  0.42800700  1
  O  O54  1  0.83195500  0.23053800  0.57199300  1
  O  O55  1  0.41804500  0.98053800  0.32199300  1
