# generated using pymatgen
data_Mn2CuO4
_symmetry_space_group_name_H-M   'P 1'
_cell_length_a   6.04757381
_cell_length_b   6.04757381
_cell_length_c   14.71235439
_cell_angle_alpha   90.00000000
_cell_angle_beta   90.00000000
_cell_angle_gamma   120.00000000
_symmetry_Int_Tables_number   1
_chemical_formula_structural   Mn2CuO4
_chemical_formula_sum   'Mn12 Cu6 O24'
_cell_volume   465.98846236
_cell_formula_units_Z   6
loop_
 _symmetry_equiv_pos_site_id
 _symmetry_equiv_pos_as_xyz
  1  'x, y, z'
loop_
 _atom_site_type_symbol
 _atom_site_label
 _atom_site_symmetry_multiplicity
 _atom_site_fract_x
 _atom_site_fract_y
 _atom_site_fract_z
 _atom_site_occupancy
  Mn  Mn0  1  0.33333333  0.66666667  0.66455667  1
  Mn  Mn1  1  0.16769467  0.33538933  0.20806433  1
  Mn  Mn2  1  0.16769467  0.83230533  0.20806433  1
  Mn  Mn3  1  0.66461067  0.83230533  0.20806433  1
  Mn  Mn4  1  0.00000000  0.00000000  0.99789000  1
  Mn  Mn5  1  0.83436133  0.66872267  0.54139767  1
  Mn  Mn6  1  0.83436133  0.16563867  0.54139767  1
  Mn  Mn7  1  0.33127733  0.16563867  0.54139767  1
  Mn  Mn8  1  0.66666667  0.33333333  0.33122333  1
  Mn  Mn9  1  0.50102800  0.00205600  0.87473100  1
  Mn  Mn10  1  0.50102800  0.49897200  0.87473100  1
  Mn  Mn11  1  0.99794400  0.49897200  0.87473100  1
  Cu  Cu12  1  0.33333333  0.66666667  0.41802967  1
  Cu  Cu13  1  0.33333333  0.66666667  0.04207167  1
  Cu  Cu14  1  0.00000000  0.00000000  0.75136300  1
  Cu  Cu15  1  0.00000000  0.00000000  0.37540500  1
  Cu  Cu16  1  0.66666667  0.33333333  0.08469633  1
  Cu  Cu17  1  0.66666667  0.33333333  0.70873833  1
  O  O18  1  0.33333333  0.66666667  0.28582667  1
  O  O19  1  0.02886400  0.51443200  0.13399100  1
  O  O20  1  0.48556800  0.51443200  0.13399100  1
  O  O21  1  0.48556800  0.97113600  0.13399100  1
  O  O22  1  0.18273967  0.36547933  0.94881433  1
  O  O23  1  0.63452067  0.81726033  0.94881433  1
  O  O24  1  0.18273967  0.81726033  0.94881433  1
  O  O25  1  0.33333333  0.66666667  0.80023867  1
  O  O26  1  0.00000000  0.00000000  0.61916000  1
  O  O27  1  0.69553067  0.84776533  0.46732433  1
  O  O28  1  0.15223467  0.84776533  0.46732433  1
  O  O29  1  0.15223467  0.30446933  0.46732433  1
  O  O30  1  0.84940633  0.69881267  0.28214767  1
  O  O31  1  0.30118733  0.15059367  0.28214767  1
  O  O32  1  0.84940633  0.15059367  0.28214767  1
  O  O33  1  0.00000000  0.00000000  0.13357200  1
  O  O34  1  0.66666667  0.33333333  0.95249333  1
  O  O35  1  0.36219733  0.18109867  0.80065767  1
  O  O36  1  0.81890133  0.18109867  0.80065767  1
  O  O37  1  0.81890133  0.63780267  0.80065767  1
  O  O38  1  0.51607300  0.03214600  0.61548100  1
  O  O39  1  0.96785400  0.48392700  0.61548100  1
  O  O40  1  0.51607300  0.48392700  0.61548100  1
  O  O41  1  0.66666667  0.33333333  0.46690533  1
