# generated using pymatgen
data_BaIn
_symmetry_space_group_name_H-M   'P 1'
_cell_length_a   8.30570000
_cell_length_b   12.71130800
_cell_length_c   5.70094700
_cell_angle_alpha   90.00000000
_cell_angle_beta   90.00000000
_cell_angle_gamma   90.00000000
_symmetry_Int_Tables_number   1
_chemical_formula_structural   BaIn
_chemical_formula_sum   'Ba8 In8'
_cell_volume   601.88495264
_cell_formula_units_Z   8
loop_
 _symmetry_equiv_pos_site_id
 _symmetry_equiv_pos_as_xyz
  1  'x, y, z'
loop_
 _atom_site_type_symbol
 _atom_site_label
 _atom_site_symmetry_multiplicity
 _atom_site_fract_x
 _atom_site_fract_y
 _atom_site_fract_z
 _atom_site_occupancy
  Ba  Ba0  1  0.50000000  0.82399700  0.75000000  1
  Ba  Ba1  1  0.50000000  0.17600300  0.25000000  1
  Ba  Ba2  1  0.50000000  0.37475700  0.75000000  1
  Ba  Ba3  1  0.50000000  0.62524300  0.25000000  1
  Ba  Ba4  1  0.00000000  0.32399700  0.75000000  1
  Ba  Ba5  1  0.00000000  0.67600300  0.25000000  1
  Ba  Ba6  1  0.00000000  0.87475700  0.75000000  1
  Ba  Ba7  1  0.00000000  0.12524300  0.25000000  1
  In  In8  1  0.29932800  0.92056300  0.25000000  1
  In  In9  1  0.70067200  0.07943700  0.75000000  1
  In  In10  1  0.29932800  0.07943700  0.75000000  1
  In  In11  1  0.70067200  0.92056300  0.25000000  1
  In  In12  1  0.79932800  0.42056300  0.25000000  1
  In  In13  1  0.20067200  0.57943700  0.75000000  1
  In  In14  1  0.79932800  0.57943700  0.75000000  1
  In  In15  1  0.20067200  0.42056300  0.25000000  1
