# generated using pymatgen
data_CrReO4
_symmetry_space_group_name_H-M   'P 1'
_cell_length_a   9.41242486
_cell_length_b   5.77836543
_cell_length_c   4.75138106
_cell_angle_alpha   90.00000000
_cell_angle_beta   92.28539336
_cell_angle_gamma   90.00000000
_symmetry_Int_Tables_number   1
_chemical_formula_structural   CrReO4
_chemical_formula_sum   'Cr4 Re4 O16'
_cell_volume   258.21460905
_cell_formula_units_Z   4
loop_
 _symmetry_equiv_pos_site_id
 _symmetry_equiv_pos_as_xyz
  1  'x, y, z'
loop_
 _atom_site_type_symbol
 _atom_site_label
 _atom_site_symmetry_multiplicity
 _atom_site_fract_x
 _atom_site_fract_y
 _atom_site_fract_z
 _atom_site_occupancy
  Cr  Cr0  1  0.23661675  0.50000000  0.50726600  1
  Cr  Cr1  1  0.76338325  0.50000000  0.49273400  1
  Cr  Cr2  1  0.73661675  0.00000000  0.50726600  1
  Cr  Cr3  1  0.26338325  0.00000000  0.49273400  1
  Re  Re4  1  0.00000000  0.22178375  0.00000000  1
  Re  Re5  1  0.00000000  0.77821625  0.00000000  1
  Re  Re6  1  0.50000000  0.72178375  0.00000000  1
  Re  Re7  1  0.50000000  0.27821625  0.00000000  1
  O  O8  1  0.90861450  0.50000000  0.18341850  1
  O  O9  1  0.09138550  0.50000000  0.81658150  1
  O  O10  1  0.61629000  0.50000000  0.78660550  1
  O  O11  1  0.38371000  0.50000000  0.21339450  1
  O  O12  1  0.85473650  0.76147350  0.70240050  1
  O  O13  1  0.14526350  0.76147350  0.29759950  1
  O  O14  1  0.14526350  0.23852650  0.29759950  1
  O  O15  1  0.85473650  0.23852650  0.70240050  1
  O  O16  1  0.40861450  0.00000000  0.18341850  1
  O  O17  1  0.59138550  0.00000000  0.81658150  1
  O  O18  1  0.11629000  0.00000000  0.78660550  1
  O  O19  1  0.88371000  0.00000000  0.21339450  1
  O  O20  1  0.35473650  0.26147350  0.70240050  1
  O  O21  1  0.64526350  0.26147350  0.29759950  1
  O  O22  1  0.64526350  0.73852650  0.29759950  1
  O  O23  1  0.35473650  0.73852650  0.70240050  1
