# generated using pymatgen
data_V3(P3O10)2
_symmetry_space_group_name_H-M   'P 1'
_cell_length_a   10.25308000
_cell_length_b   13.40578400
_cell_length_c   12.34589100
_cell_angle_alpha   90.00000000
_cell_angle_beta   90.00000000
_cell_angle_gamma   90.00000000
_symmetry_Int_Tables_number   1
_chemical_formula_structural   V3(P3O10)2
_chemical_formula_sum   'V12 P24 O80'
_cell_volume   1696.94982690
_cell_formula_units_Z   4
loop_
 _symmetry_equiv_pos_site_id
 _symmetry_equiv_pos_as_xyz
  1  'x, y, z'
loop_
 _atom_site_type_symbol
 _atom_site_label
 _atom_site_symmetry_multiplicity
 _atom_site_fract_x
 _atom_site_fract_y
 _atom_site_fract_z
 _atom_site_occupancy
  V  V0  1  0.50000000  0.73821000  0.75000000  1
  V  V1  1  0.13962100  0.00000000  0.00000000  1
  V  V2  1  0.50000000  0.79456500  0.25000000  1
  V  V3  1  0.50000000  0.20543500  0.75000000  1
  V  V4  1  0.86037900  0.00000000  0.50000000  1
  V  V5  1  0.50000000  0.26179000  0.25000000  1
  V  V6  1  0.00000000  0.23821000  0.75000000  1
  V  V7  1  0.63962100  0.50000000  0.00000000  1
  V  V8  1  0.00000000  0.29456500  0.25000000  1
  V  V9  1  0.00000000  0.70543500  0.75000000  1
  V  V10  1  0.36037900  0.50000000  0.50000000  1
  V  V11  1  0.00000000  0.76179000  0.25000000  1
  P  P12  1  0.44651950  0.70321850  0.01456000  1
  P  P13  1  0.23104250  0.86145650  0.68112600  1
  P  P14  1  0.55348050  0.70321850  0.48544000  1
  P  P15  1  0.24029100  0.93913100  0.22352400  1
  P  P16  1  0.24029100  0.06086900  0.77647600  1
  P  P17  1  0.23104250  0.13854350  0.31887400  1
  P  P18  1  0.76895750  0.86145650  0.81887400  1
  P  P19  1  0.75970900  0.93913100  0.27647600  1
  P  P20  1  0.75970900  0.06086900  0.72352400  1
  P  P21  1  0.44651950  0.29678150  0.98544000  1
  P  P22  1  0.76895750  0.13854350  0.18112600  1
  P  P23  1  0.55348050  0.29678150  0.51456000  1
  P  P24  1  0.94651950  0.20321850  0.01456000  1
  P  P25  1  0.73104250  0.36145650  0.68112600  1
  P  P26  1  0.05348050  0.20321850  0.48544000  1
  P  P27  1  0.74029100  0.43913100  0.22352400  1
  P  P28  1  0.74029100  0.56086900  0.77647600  1
  P  P29  1  0.73104250  0.63854350  0.31887400  1
  P  P30  1  0.26895750  0.36145650  0.81887400  1
  P  P31  1  0.25970900  0.43913100  0.27647600  1
  P  P32  1  0.25970900  0.56086900  0.72352400  1
  P  P33  1  0.94651950  0.79678150  0.98544000  1
  P  P34  1  0.26895750  0.63854350  0.18112600  1
  P  P35  1  0.05348050  0.79678150  0.51456000  1
  O  O36  1  0.37236250  0.63233050  0.71143700  1
  O  O37  1  0.46324800  0.61112500  0.47363000  1
  O  O38  1  0.36399800  0.69124500  0.25564300  1
  O  O39  1  0.53675200  0.61112500  0.02637000  1
  O  O40  1  0.62763750  0.36766950  0.21143700  1
  O  O41  1  0.19622500  0.83670500  0.55717900  1
  O  O42  1  0.42559150  0.73367650  0.89813000  1
  O  O43  1  0.62763750  0.63233050  0.78856300  1
  O  O44  1  0.37360850  0.84446650  0.70162300  1
  O  O45  1  0.63600200  0.69124500  0.24435700  1
  O  O46  1  0.57440850  0.73367650  0.60187000  1
  O  O47  1  0.48587550  0.78826650  0.08901100  1
  O  O48  1  0.19921050  0.97859850  0.68594800  1
  O  O49  1  0.51412450  0.78826650  0.41098900  1
  O  O50  1  0.36767300  0.89609700  0.26349500  1
  O  O51  1  0.19921050  0.02140150  0.31405200  1
  O  O52  1  0.25809650  0.99765950  0.11566100  1
  O  O53  1  0.25809650  0.00234050  0.88433900  1
  O  O54  1  0.62639150  0.84446650  0.79837700  1
  O  O55  1  0.63232700  0.89609700  0.23650500  1
  O  O56  1  0.19622500  0.16329500  0.44282100  1
  O  O57  1  0.80377500  0.83670500  0.94282100  1
  O  O58  1  0.36767300  0.10390300  0.73650500  1
  O  O59  1  0.37360850  0.15553350  0.29837700  1
  O  O60  1  0.37236250  0.36766950  0.28856300  1
  O  O61  1  0.74190350  0.99765950  0.38433900  1
  O  O62  1  0.74190350  0.00234050  0.61566100  1
  O  O63  1  0.80078950  0.97859850  0.81405200  1
  O  O64  1  0.63232700  0.10390300  0.76349500  1
  O  O65  1  0.48587550  0.21173350  0.91098900  1
  O  O66  1  0.80078950  0.02140150  0.18594800  1
  O  O67  1  0.51412450  0.21173350  0.58901100  1
  O  O68  1  0.42559150  0.26632350  0.10187000  1
  O  O69  1  0.36399800  0.30875500  0.74435700  1
  O  O70  1  0.62639150  0.15553350  0.20162300  1
  O  O71  1  0.57440850  0.26632350  0.39813000  1
  O  O72  1  0.80377500  0.16329500  0.05717900  1
  O  O73  1  0.46324800  0.38887500  0.52637000  1
  O  O74  1  0.63600200  0.30875500  0.75564300  1
  O  O75  1  0.53675200  0.38887500  0.97363000  1
  O  O76  1  0.87236250  0.13233050  0.71143700  1
  O  O77  1  0.96324800  0.11112500  0.47363000  1
  O  O78  1  0.86399800  0.19124500  0.25564300  1
  O  O79  1  0.03675200  0.11112500  0.02637000  1
  O  O80  1  0.12763750  0.86766950  0.21143700  1
  O  O81  1  0.69622500  0.33670500  0.55717900  1
  O  O82  1  0.92559150  0.23367650  0.89813000  1
  O  O83  1  0.12763750  0.13233050  0.78856300  1
  O  O84  1  0.87360850  0.34446650  0.70162300  1
  O  O85  1  0.13600200  0.19124500  0.24435700  1
  O  O86  1  0.07440850  0.23367650  0.60187000  1
  O  O87  1  0.98587550  0.28826650  0.08901100  1
  O  O88  1  0.69921050  0.47859850  0.68594800  1
  O  O89  1  0.01412450  0.28826650  0.41098900  1
  O  O90  1  0.86767300  0.39609700  0.26349500  1
  O  O91  1  0.69921050  0.52140150  0.31405200  1
  O  O92  1  0.75809650  0.49765950  0.11566100  1
  O  O93  1  0.75809650  0.50234050  0.88433900  1
  O  O94  1  0.12639150  0.34446650  0.79837700  1
  O  O95  1  0.13232700  0.39609700  0.23650500  1
  O  O96  1  0.69622500  0.66329500  0.44282100  1
  O  O97  1  0.30377500  0.33670500  0.94282100  1
  O  O98  1  0.86767300  0.60390300  0.73650500  1
  O  O99  1  0.87360850  0.65553350  0.29837700  1
  O  O100  1  0.87236250  0.86766950  0.28856300  1
  O  O101  1  0.24190350  0.49765950  0.38433900  1
  O  O102  1  0.24190350  0.50234050  0.61566100  1
  O  O103  1  0.30078950  0.47859850  0.81405200  1
  O  O104  1  0.13232700  0.60390300  0.76349500  1
  O  O105  1  0.98587550  0.71173350  0.91098900  1
  O  O106  1  0.30078950  0.52140150  0.18594800  1
  O  O107  1  0.01412450  0.71173350  0.58901100  1
  O  O108  1  0.92559150  0.76632350  0.10187000  1
  O  O109  1  0.86399800  0.80875500  0.74435700  1
  O  O110  1  0.12639150  0.65553350  0.20162300  1
  O  O111  1  0.07440850  0.76632350  0.39813000  1
  O  O112  1  0.30377500  0.66329500  0.05717900  1
  O  O113  1  0.96324800  0.88887500  0.52637000  1
  O  O114  1  0.13600200  0.80875500  0.75564300  1
  O  O115  1  0.03675200  0.88887500  0.97363000  1
