# generated using pymatgen
data_Cr(PO3)3
_symmetry_space_group_name_H-M   'P 1'
_cell_length_a   6.59421908
_cell_length_b   6.59421908
_cell_length_c   9.62378765
_cell_angle_alpha   90.00000000
_cell_angle_beta   90.00000000
_cell_angle_gamma   120.00000000
_symmetry_Int_Tables_number   1
_chemical_formula_structural   Cr(PO3)3
_chemical_formula_sum   'Cr2 P6 O18'
_cell_volume   362.41269873
_cell_formula_units_Z   2
loop_
 _symmetry_equiv_pos_site_id
 _symmetry_equiv_pos_as_xyz
  1  'x, y, z'
loop_
 _atom_site_type_symbol
 _atom_site_label
 _atom_site_symmetry_multiplicity
 _atom_site_fract_x
 _atom_site_fract_y
 _atom_site_fract_z
 _atom_site_occupancy
  Cr  Cr0  1  0.33333333  0.66666667  0.50000000  1
  Cr  Cr1  1  0.33333333  0.66666667  0.00000000  1
  P  P2  1  0.95373667  0.39932333  0.75000000  1
  P  P3  1  0.60067667  0.55441333  0.75000000  1
  P  P4  1  0.44558667  0.04626333  0.75000000  1
  P  P5  1  0.60067667  0.04626333  0.25000000  1
  P  P6  1  0.44558667  0.39932333  0.25000000  1
  P  P7  1  0.95373667  0.55441333  0.25000000  1
  O  O8  1  0.72318667  0.14709933  0.75000000  1
  O  O9  1  0.85290067  0.57608733  0.75000000  1
  O  O10  1  0.34051467  0.92336333  0.61330600  1
  O  O11  1  0.34051467  0.92336333  0.88669400  1
  O  O12  1  0.58284867  0.92336333  0.38669400  1
  O  O13  1  0.07663667  0.65948533  0.38669400  1
  O  O14  1  0.07663667  0.65948533  0.11330600  1
  O  O15  1  0.58284867  0.92336333  0.11330600  1
  O  O16  1  0.07663667  0.41715133  0.88669400  1
  O  O17  1  0.07663667  0.41715133  0.61330600  1
  O  O18  1  0.58284867  0.65948533  0.88669400  1
  O  O19  1  0.42391267  0.14709933  0.25000000  1
  O  O20  1  0.85290067  0.27681333  0.25000000  1
  O  O21  1  0.58284867  0.65948533  0.61330600  1
  O  O22  1  0.34051467  0.41715133  0.38669400  1
  O  O23  1  0.34051467  0.41715133  0.11330600  1
  O  O24  1  0.42391267  0.27681333  0.75000000  1
  O  O25  1  0.72318667  0.57608733  0.25000000  1
