# generated using pymatgen
data_Fe3(PO4)4
_symmetry_space_group_name_H-M   'P 1'
_cell_length_a   6.01182200
_cell_length_b   11.81012700
_cell_length_c   8.88703539
_cell_angle_alpha   90.00000000
_cell_angle_beta   100.39973104
_cell_angle_gamma   90.00000000
_symmetry_Int_Tables_number   1
_chemical_formula_structural   Fe3(PO4)4
_chemical_formula_sum   'Fe6 P8 O32'
_cell_volume   620.61731515
_cell_formula_units_Z   2
loop_
 _symmetry_equiv_pos_site_id
 _symmetry_equiv_pos_as_xyz
  1  'x, y, z'
loop_
 _atom_site_type_symbol
 _atom_site_label
 _atom_site_symmetry_multiplicity
 _atom_site_fract_x
 _atom_site_fract_y
 _atom_site_fract_z
 _atom_site_occupancy
  Fe  Fe0  1  0.11066700  0.91374900  0.75679300  1
  Fe  Fe1  1  0.42996400  0.07151300  0.27736000  1
  Fe  Fe2  1  0.86876500  0.79741200  0.36116800  1
  Fe  Fe3  1  0.57003600  0.57151300  0.72264000  1
  Fe  Fe4  1  0.88933300  0.41374900  0.24320700  1
  Fe  Fe5  1  0.13123500  0.29741200  0.63883200  1
  P  P6  1  0.37137000  0.13697900  0.91229900  1
  P  P7  1  0.03721800  0.58569600  0.60409800  1
  P  P8  1  0.62863000  0.63697900  0.08770100  1
  P  P9  1  0.57006000  0.90834900  0.58573500  1
  P  P10  1  0.96278200  0.08569600  0.39590200  1
  P  P11  1  0.85837600  0.37036600  0.89948300  1
  P  P12  1  0.14162400  0.87036600  0.10051700  1
  P  P13  1  0.42994000  0.40834900  0.41426500  1
  O  O14  1  0.73594100  0.11163100  0.28903900  1
  O  O15  1  0.08103600  0.43833400  0.90055500  1
  O  O16  1  0.09938200  0.78090500  0.22062900  1
  O  O17  1  0.49848400  0.51875900  0.50666100  1
  O  O18  1  0.64141200  0.43651700  0.83714100  1
  O  O19  1  0.62532500  0.66838000  0.91840200  1
  O  O20  1  0.26405900  0.61163100  0.71096100  1
  O  O21  1  0.82496900  0.55581500  0.15032100  1
  O  O22  1  0.34965000  0.24273200  0.81022300  1
  O  O23  1  0.21319700  0.42489400  0.29195500  1
  O  O24  1  0.60726800  0.08182100  0.92256700  1
  O  O25  1  0.15437700  0.82250300  0.94170600  1
  O  O26  1  0.17503100  0.05581500  0.84967900  1
  O  O27  1  0.37467500  0.16838000  0.08159800  1
  O  O28  1  0.85907300  0.62391800  0.69894400  1
  O  O29  1  0.36915700  0.87531300  0.66506300  1
  O  O30  1  0.14092700  0.12391800  0.30105600  1
  O  O31  1  0.01097000  0.66420100  0.46295000  1
  O  O32  1  0.98169300  0.95794100  0.44011900  1
  O  O33  1  0.38130800  0.31315200  0.52395500  1
  O  O34  1  0.78680300  0.92489400  0.70804500  1
  O  O35  1  0.61869200  0.81315200  0.47604500  1
  O  O36  1  0.35858800  0.93651700  0.16285900  1
  O  O37  1  0.91896400  0.93833400  0.09944500  1
  O  O38  1  0.50151600  0.01875900  0.49333900  1
  O  O39  1  0.39273200  0.58182100  0.07743300  1
  O  O40  1  0.63084300  0.37531300  0.33493700  1
  O  O41  1  0.84562300  0.32250300  0.05829400  1
  O  O42  1  0.65035000  0.74273200  0.18977700  1
  O  O43  1  0.90061800  0.28090500  0.77937100  1
  O  O44  1  0.98903000  0.16420100  0.53705000  1
  O  O45  1  0.01830700  0.45794100  0.55988100  1
