# generated using pymatgen
data_ThFe3
_symmetry_space_group_name_H-M   'P 1'
_cell_length_a   5.14252626
_cell_length_b   5.14252626
_cell_length_c   24.98087116
_cell_angle_alpha   90.00000000
_cell_angle_beta   90.00000000
_cell_angle_gamma   120.00000000
_symmetry_Int_Tables_number   1
_chemical_formula_structural   ThFe3
_chemical_formula_sum   'Th9 Fe27'
_cell_volume   572.12542429
_cell_formula_units_Z   9
loop_
 _symmetry_equiv_pos_site_id
 _symmetry_equiv_pos_as_xyz
  1  'x, y, z'
loop_
 _atom_site_type_symbol
 _atom_site_label
 _atom_site_symmetry_multiplicity
 _atom_site_fract_x
 _atom_site_fract_y
 _atom_site_fract_z
 _atom_site_occupancy
  Th  Th0  1  0.00000000  0.00000000  0.14117600  1
  Th  Th1  1  0.66666667  0.33333333  0.19215733  1
  Th  Th2  1  0.00000000  0.00000000  0.00000000  1
  Th  Th3  1  0.66666667  0.33333333  0.47450933  1
  Th  Th4  1  0.33333333  0.66666667  0.52549067  1
  Th  Th5  1  0.66666667  0.33333333  0.33333333  1
  Th  Th6  1  0.33333333  0.66666667  0.80784267  1
  Th  Th7  1  0.00000000  0.00000000  0.85882400  1
  Th  Th8  1  0.33333333  0.66666667  0.66666667  1
  Fe  Fe9  1  0.49905667  0.50094333  0.08126333  1
  Fe  Fe10  1  0.00188667  0.50094333  0.08126333  1
  Fe  Fe11  1  0.49905667  0.99811333  0.08126333  1
  Fe  Fe12  1  0.16761000  0.83239000  0.25207000  1
  Fe  Fe13  1  0.66478000  0.83239000  0.25207000  1
  Fe  Fe14  1  0.16761000  0.33522000  0.25207000  1
  Fe  Fe15  1  0.00000000  0.00000000  0.33256400  1
  Fe  Fe16  1  0.66666667  0.33333333  0.00076933  1
  Fe  Fe17  1  0.33333333  0.66666667  0.16666667  1
  Fe  Fe18  1  0.16572333  0.83427667  0.41459667  1
  Fe  Fe19  1  0.66855333  0.83427667  0.41459667  1
  Fe  Fe20  1  0.16572333  0.33144667  0.41459667  1
  Fe  Fe21  1  0.83427667  0.16572333  0.58540333  1
  Fe  Fe22  1  0.33144667  0.16572333  0.58540333  1
  Fe  Fe23  1  0.83427667  0.66855333  0.58540333  1
  Fe  Fe24  1  0.66666667  0.33333333  0.66589733  1
  Fe  Fe25  1  0.33333333  0.66666667  0.33410267  1
  Fe  Fe26  1  1.00000000  1.00000000  0.50000000  1
  Fe  Fe27  1  0.83239000  0.16761000  0.74793000  1
  Fe  Fe28  1  0.33522000  0.16761000  0.74793000  1
  Fe  Fe29  1  0.83239000  0.66478000  0.74793000  1
  Fe  Fe30  1  0.50094333  0.49905667  0.91873667  1
  Fe  Fe31  1  0.99811333  0.49905667  0.91873667  1
  Fe  Fe32  1  0.50094333  0.00188667  0.91873667  1
  Fe  Fe33  1  0.33333333  0.66666667  0.99923067  1
  Fe  Fe34  1  0.00000000  0.00000000  0.66743600  1
  Fe  Fe35  1  0.66666667  0.33333333  0.83333333  1
