# generated using pymatgen
data_Ce2SmS4
_symmetry_space_group_name_H-M   'P 1'
_cell_length_a   8.50687800
_cell_length_b   8.50687800
_cell_length_c   8.57816600
_cell_angle_alpha   90.00000000
_cell_angle_beta   90.00000000
_cell_angle_gamma   90.00000000
_symmetry_Int_Tables_number   1
_chemical_formula_structural   Ce2SmS4
_chemical_formula_sum   'Ce8 Sm4 S16'
_cell_volume   620.77590994
_cell_formula_units_Z   4
loop_
 _symmetry_equiv_pos_site_id
 _symmetry_equiv_pos_as_xyz
  1  'x, y, z'
loop_
 _atom_site_type_symbol
 _atom_site_label
 _atom_site_symmetry_multiplicity
 _atom_site_fract_x
 _atom_site_fract_y
 _atom_site_fract_z
 _atom_site_occupancy
  Ce  Ce0  1  0.87407300  0.25000000  0.62500000  1
  Ce  Ce1  1  0.25000000  0.37407300  0.87500000  1
  Ce  Ce2  1  0.62592700  0.25000000  0.12500000  1
  Ce  Ce3  1  0.25000000  0.12592700  0.37500000  1
  Ce  Ce4  1  0.37407300  0.75000000  0.12500000  1
  Ce  Ce5  1  0.75000000  0.87407300  0.37500000  1
  Ce  Ce6  1  0.12592700  0.75000000  0.62500000  1
  Ce  Ce7  1  0.75000000  0.62592700  0.87500000  1
  Sm  Sm8  1  0.00000000  0.50000000  0.25000000  1
  Sm  Sm9  1  0.00000000  0.00000000  0.00000000  1
  Sm  Sm10  1  0.50000000  0.00000000  0.75000000  1
  Sm  Sm11  1  0.50000000  0.50000000  0.50000000  1
  S  S12  1  0.07477850  0.67569550  0.95295850  1
  S  S13  1  0.32430450  0.42522150  0.20295850  1
  S  S14  1  0.17569550  0.07477850  0.70295850  1
  S  S15  1  0.17569550  0.42522150  0.54704150  1
  S  S16  1  0.42522150  0.82430450  0.45295850  1
  S  S17  1  0.57477850  0.32430450  0.79704150  1
  S  S18  1  0.32430450  0.07477850  0.04704150  1
  S  S19  1  0.92522150  0.17569550  0.29704150  1
  S  S20  1  0.57477850  0.17569550  0.45295850  1
  S  S21  1  0.82430450  0.92522150  0.70295850  1
  S  S22  1  0.67569550  0.57477850  0.20295850  1
  S  S23  1  0.67569550  0.92522150  0.04704150  1
  S  S24  1  0.92522150  0.32430450  0.95295850  1
  S  S25  1  0.07477850  0.82430450  0.29704150  1
  S  S26  1  0.82430450  0.57477850  0.54704150  1
  S  S27  1  0.42522150  0.67569550  0.79704150  1
