# generated using pymatgen
data_La2UTe4
_symmetry_space_group_name_H-M   'P 1'
_cell_length_a   9.58692200
_cell_length_b   9.58692200
_cell_length_c   9.53754600
_cell_angle_alpha   90.00000000
_cell_angle_beta   90.00000000
_cell_angle_gamma   90.00000000
_symmetry_Int_Tables_number   1
_chemical_formula_structural   La2UTe4
_chemical_formula_sum   'La8 U4 Te16'
_cell_volume   876.58701569
_cell_formula_units_Z   4
loop_
 _symmetry_equiv_pos_site_id
 _symmetry_equiv_pos_as_xyz
  1  'x, y, z'
loop_
 _atom_site_type_symbol
 _atom_site_label
 _atom_site_symmetry_multiplicity
 _atom_site_fract_x
 _atom_site_fract_y
 _atom_site_fract_z
 _atom_site_occupancy
  La  La0  1  0.37410400  0.25000000  0.87500000  1
  La  La1  1  0.12589600  0.25000000  0.37500000  1
  La  La2  1  0.75000000  0.37410400  0.12500000  1
  La  La3  1  0.75000000  0.12589600  0.62500000  1
  La  La4  1  0.87410400  0.75000000  0.37500000  1
  La  La5  1  0.62589600  0.75000000  0.87500000  1
  La  La6  1  0.25000000  0.87410400  0.62500000  1
  La  La7  1  0.25000000  0.62589600  0.12500000  1
  U  U8  1  0.50000000  0.50000000  0.50000000  1
  U  U9  1  0.50000000  0.00000000  0.25000000  1
  U  U10  1  0.00000000  0.00000000  0.00000000  1
  U  U11  1  0.00000000  0.50000000  0.75000000  1
  Te  Te12  1  0.82467100  0.42505800  0.45624500  1
  Te  Te13  1  0.67532900  0.07494200  0.95624500  1
  Te  Te14  1  0.67532900  0.42505800  0.79375500  1
  Te  Te15  1  0.07494200  0.32467100  0.04375500  1
  Te  Te16  1  0.92505800  0.82467100  0.70624500  1
  Te  Te17  1  0.82467100  0.07494200  0.29375500  1
  Te  Te18  1  0.57494200  0.67532900  0.20624500  1
  Te  Te19  1  0.42505800  0.17532900  0.54375500  1
  Te  Te20  1  0.32467100  0.92505800  0.95624500  1
  Te  Te21  1  0.17532900  0.57494200  0.45624500  1
  Te  Te22  1  0.17532900  0.92505800  0.29375500  1
  Te  Te23  1  0.57494200  0.82467100  0.54375500  1
  Te  Te24  1  0.42505800  0.32467100  0.20624500  1
  Te  Te25  1  0.32467100  0.57494200  0.79375500  1
  Te  Te26  1  0.07494200  0.17532900  0.70624500  1
  Te  Te27  1  0.92505800  0.67532900  0.04375500  1
