# generated using pymatgen
data_Ca3Ga5
_symmetry_space_group_name_H-M   'P 1'
_cell_length_a   4.47368600
_cell_length_b   10.84287400
_cell_length_c   15.04904900
_cell_angle_alpha   90.00000000
_cell_angle_beta   90.00000000
_cell_angle_gamma   90.00000000
_symmetry_Int_Tables_number   1
_chemical_formula_structural   Ca3Ga5
_chemical_formula_sum   'Ca12 Ga20'
_cell_volume   729.99345414
_cell_formula_units_Z   4
loop_
 _symmetry_equiv_pos_site_id
 _symmetry_equiv_pos_as_xyz
  1  'x, y, z'
loop_
 _atom_site_type_symbol
 _atom_site_label
 _atom_site_symmetry_multiplicity
 _atom_site_fract_x
 _atom_site_fract_y
 _atom_site_fract_z
 _atom_site_occupancy
  Ca  Ca0  1  0.00000000  0.13032000  0.25000000  1
  Ca  Ca1  1  0.50000000  0.36968000  0.75000000  1
  Ca  Ca2  1  0.50000000  0.08814000  0.61000800  1
  Ca  Ca3  1  0.00000000  0.41186000  0.38999200  1
  Ca  Ca4  1  0.00000000  0.41186000  0.11000800  1
  Ca  Ca5  1  0.50000000  0.08814000  0.88999200  1
  Ca  Ca6  1  0.50000000  0.63032000  0.25000000  1
  Ca  Ca7  1  0.00000000  0.86968000  0.75000000  1
  Ca  Ca8  1  0.00000000  0.58814000  0.61000800  1
  Ca  Ca9  1  0.50000000  0.91186000  0.38999200  1
  Ca  Ca10  1  0.50000000  0.91186000  0.11000800  1
  Ca  Ca11  1  0.00000000  0.58814000  0.88999200  1
  Ga  Ga12  1  0.50000000  0.33797100  0.25000000  1
  Ga  Ga13  1  0.00000000  0.16202900  0.75000000  1
  Ga  Ga14  1  0.00000000  0.29220100  0.90033600  1
  Ga  Ga15  1  0.50000000  0.20779900  0.09966400  1
  Ga  Ga16  1  0.50000000  0.20779900  0.40033600  1
  Ga  Ga17  1  0.00000000  0.29220100  0.59966400  1
  Ga  Ga18  1  0.00000000  0.11508400  0.03399700  1
  Ga  Ga19  1  0.50000000  0.38491600  0.96600300  1
  Ga  Ga20  1  0.50000000  0.38491600  0.53399700  1
  Ga  Ga21  1  0.00000000  0.11508400  0.46600300  1
  Ga  Ga22  1  0.00000000  0.83797100  0.25000000  1
  Ga  Ga23  1  0.50000000  0.66202900  0.75000000  1
  Ga  Ga24  1  0.50000000  0.79220100  0.90033600  1
  Ga  Ga25  1  0.00000000  0.70779900  0.09966400  1
  Ga  Ga26  1  0.00000000  0.70779900  0.40033600  1
  Ga  Ga27  1  0.50000000  0.79220100  0.59966400  1
  Ga  Ga28  1  0.50000000  0.61508400  0.03399700  1
  Ga  Ga29  1  0.00000000  0.88491600  0.96600300  1
  Ga  Ga30  1  0.00000000  0.88491600  0.53399700  1
  Ga  Ga31  1  0.50000000  0.61508400  0.46600300  1
