# generated using pymatgen
data_Li11(NiO2)12
_symmetry_space_group_name_H-M   'P 1'
_cell_length_a   12.53812600
_cell_length_b   8.73989800
_cell_length_c   9.75054535
_cell_angle_alpha   90.00000000
_cell_angle_beta   129.01935167
_cell_angle_gamma   90.00000000
_symmetry_Int_Tables_number   1
_chemical_formula_structural   Li11(NiO2)12
_chemical_formula_sum   'Li22 Ni24 O48'
_cell_volume   830.14063425
_cell_formula_units_Z   2
loop_
 _symmetry_equiv_pos_site_id
 _symmetry_equiv_pos_as_xyz
  1  'x, y, z'
loop_
 _atom_site_type_symbol
 _atom_site_label
 _atom_site_symmetry_multiplicity
 _atom_site_fract_x
 _atom_site_fract_y
 _atom_site_fract_z
 _atom_site_occupancy
  Li  Li0  1  0.25081800  0.00000000  0.74972100  1
  Li  Li1  1  0.24468750  0.83680750  0.24610800  1
  Li  Li2  1  0.50000000  0.00000000  0.50000000  1
  Li  Li3  1  0.00000000  0.32573200  0.00000000  1
  Li  Li4  1  0.24918200  0.50000000  0.25027900  1
  Li  Li5  1  0.50000000  0.66954400  0.50000000  1
  Li  Li6  1  0.75531250  0.83680750  0.75389200  1
  Li  Li7  1  0.74468750  0.66319250  0.24610800  1
  Li  Li8  1  0.00000000  0.83045600  0.50000000  1
  Li  Li9  1  0.00000000  0.67426800  0.00000000  1
  Li  Li10  1  0.25531250  0.66319250  0.75389200  1
  Li  Li11  1  0.75081800  0.50000000  0.74972100  1
  Li  Li12  1  0.74468750  0.33680750  0.24610800  1
  Li  Li13  1  0.00000000  0.50000000  0.50000000  1
  Li  Li14  1  0.50000000  0.82573200  0.00000000  1
  Li  Li15  1  0.74918200  0.00000000  0.25027900  1
  Li  Li16  1  0.00000000  0.16954400  0.50000000  1
  Li  Li17  1  0.25531250  0.33680750  0.75389200  1
  Li  Li18  1  0.24468750  0.16319250  0.24610800  1
  Li  Li19  1  0.50000000  0.33045600  0.50000000  1
  Li  Li20  1  0.50000000  0.17426800  0.00000000  1
  Li  Li21  1  0.75531250  0.16319250  0.75389200  1
  Ni  Ni22  1  0.12471300  0.00000000  0.37641100  1
  Ni  Ni23  1  0.87656400  0.50000000  0.12791300  1
  Ni  Ni24  1  0.37632900  0.83434300  0.62452700  1
  Ni  Ni25  1  0.62343600  0.00000000  0.87208700  1
  Ni  Ni26  1  0.37400800  0.66653600  0.12360100  1
  Ni  Ni27  1  0.12367100  0.33434300  0.37547300  1
  Ni  Ni28  1  0.37528700  0.50000000  0.62358900  1
  Ni  Ni29  1  0.62599200  0.66653600  0.87639900  1
  Ni  Ni30  1  0.87400800  0.83346400  0.12360100  1
  Ni  Ni31  1  0.37632900  0.16565700  0.62452700  1
  Ni  Ni32  1  0.12599200  0.83346400  0.87639900  1
  Ni  Ni33  1  0.12367100  0.66565700  0.37547300  1
  Ni  Ni34  1  0.62471300  0.50000000  0.37641100  1
  Ni  Ni35  1  0.37656400  0.00000000  0.12791300  1
  Ni  Ni36  1  0.87632900  0.33434300  0.62452700  1
  Ni  Ni37  1  0.12343600  0.50000000  0.87208700  1
  Ni  Ni38  1  0.87400800  0.16653600  0.12360100  1
  Ni  Ni39  1  0.62367100  0.83434300  0.37547300  1
  Ni  Ni40  1  0.87528700  0.00000000  0.62358900  1
  Ni  Ni41  1  0.12599200  0.16653600  0.87639900  1
  Ni  Ni42  1  0.37400800  0.33346400  0.12360100  1
  Ni  Ni43  1  0.87632900  0.66565700  0.62452700  1
  Ni  Ni44  1  0.62599200  0.33346400  0.87639900  1
  Ni  Ni45  1  0.62367100  0.16565700  0.37547300  1
  O  O46  1  0.06979800  0.00000000  0.70807600  1
  O  O47  1  0.31806400  0.00000000  0.45945400  1
  O  O48  1  0.30823200  0.83152300  0.94951300  1
  O  O49  1  0.05330900  0.50000000  0.19025100  1
  O  O50  1  0.19793100  0.82903400  0.56328100  1
  O  O51  1  0.55566750  0.83479950  0.69160300  1
  O  O52  1  0.79679600  0.00000000  0.93365000  1
  O  O53  1  0.44433250  0.83479950  0.30839700  1
  O  O54  1  0.05713500  0.17929400  0.20268000  1
  O  O55  1  0.30206900  0.32903400  0.43671900  1
  O  O56  1  0.44286500  0.67929400  0.79732000  1
  O  O57  1  0.19176800  0.33152300  0.05048700  1
  O  O58  1  0.30823200  0.16847700  0.94951300  1
  O  O59  1  0.05713500  0.82070600  0.20268000  1
  O  O60  1  0.19793100  0.17096600  0.56328100  1
  O  O61  1  0.44286500  0.32070600  0.79732000  1
  O  O62  1  0.05566750  0.66520050  0.69160300  1
  O  O63  1  0.70320400  0.50000000  0.06635000  1
  O  O64  1  0.94433250  0.66520050  0.30839700  1
  O  O65  1  0.30206900  0.67096600  0.43671900  1
  O  O66  1  0.44669100  0.00000000  0.80974900  1
  O  O67  1  0.19176800  0.66847700  0.05048700  1
  O  O68  1  0.18193600  0.50000000  0.54054600  1
  O  O69  1  0.43020200  0.50000000  0.29192400  1
  O  O70  1  0.56979800  0.50000000  0.70807600  1
  O  O71  1  0.81806400  0.50000000  0.45945400  1
  O  O72  1  0.80823200  0.33152300  0.94951300  1
  O  O73  1  0.55330900  0.00000000  0.19025100  1
  O  O74  1  0.69793100  0.32903400  0.56328100  1
  O  O75  1  0.05566750  0.33479950  0.69160300  1
  O  O76  1  0.29679600  0.50000000  0.93365000  1
  O  O77  1  0.94433250  0.33479950  0.30839700  1
  O  O78  1  0.55713500  0.67929400  0.20268000  1
  O  O79  1  0.80206900  0.82903400  0.43671900  1
  O  O80  1  0.94286500  0.17929400  0.79732000  1
  O  O81  1  0.69176800  0.83152300  0.05048700  1
  O  O82  1  0.80823200  0.66847700  0.94951300  1
  O  O83  1  0.55713500  0.32070600  0.20268000  1
  O  O84  1  0.69793100  0.67096600  0.56328100  1
  O  O85  1  0.94286500  0.82070600  0.79732000  1
  O  O86  1  0.55566750  0.16520050  0.69160300  1
  O  O87  1  0.20320400  0.00000000  0.06635000  1
  O  O88  1  0.44433250  0.16520050  0.30839700  1
  O  O89  1  0.80206900  0.17096600  0.43671900  1
  O  O90  1  0.94669100  0.50000000  0.80974900  1
  O  O91  1  0.69176800  0.16847700  0.05048700  1
  O  O92  1  0.68193600  0.00000000  0.54054600  1
  O  O93  1  0.93020200  0.00000000  0.29192400  1
