# generated using pymatgen
data_DyGa
_symmetry_space_group_name_H-M   'P 1'
_cell_length_a   4.39741400
_cell_length_b   10.92280600
_cell_length_c   4.02984500
_cell_angle_alpha   90.00000000
_cell_angle_beta   90.00000000
_cell_angle_gamma   90.00000000
_symmetry_Int_Tables_number   1
_chemical_formula_structural   DyGa
_chemical_formula_sum   'Dy4 Ga4'
_cell_volume   193.56191812
_cell_formula_units_Z   4
loop_
 _symmetry_equiv_pos_site_id
 _symmetry_equiv_pos_as_xyz
  1  'x, y, z'
loop_
 _atom_site_type_symbol
 _atom_site_label
 _atom_site_symmetry_multiplicity
 _atom_site_fract_x
 _atom_site_fract_y
 _atom_site_fract_z
 _atom_site_occupancy
  Dy  Dy0  1  0.00000000  0.36041900  0.25000000  1
  Dy  Dy1  1  0.50000000  0.13958100  0.75000000  1
  Dy  Dy2  1  0.50000000  0.86041900  0.25000000  1
  Dy  Dy3  1  0.00000000  0.63958100  0.75000000  1
  Ga  Ga4  1  0.00000000  0.07675000  0.25000000  1
  Ga  Ga5  1  0.50000000  0.42325000  0.75000000  1
  Ga  Ga6  1  0.50000000  0.57675000  0.25000000  1
  Ga  Ga7  1  0.00000000  0.92325000  0.75000000  1
