# generated using pymatgen
data_SrNbFeO6
_symmetry_space_group_name_H-M   'P 1'
_cell_length_a   5.58483400
_cell_length_b   5.58483400
_cell_length_c   7.97217200
_cell_angle_alpha   90.00000000
_cell_angle_beta   90.00000000
_cell_angle_gamma   90.00000000
_symmetry_Int_Tables_number   1
_chemical_formula_structural   SrNbFeO6
_chemical_formula_sum   'Sr2 Nb2 Fe2 O12'
_cell_volume   248.65500082
_cell_formula_units_Z   2
loop_
 _symmetry_equiv_pos_site_id
 _symmetry_equiv_pos_as_xyz
  1  'x, y, z'
loop_
 _atom_site_type_symbol
 _atom_site_label
 _atom_site_symmetry_multiplicity
 _atom_site_fract_x
 _atom_site_fract_y
 _atom_site_fract_z
 _atom_site_occupancy
  Sr  Sr0  1  0.00000000  0.50000000  0.25000000  1
  Sr  Sr1  1  0.50000000  0.00000000  0.75000000  1
  Nb  Nb2  1  0.00000000  0.00000000  0.00000000  1
  Nb  Nb3  1  0.50000000  0.50000000  0.50000000  1
  Fe  Fe4  1  0.50000000  0.50000000  0.00000000  1
  Fe  Fe5  1  0.00000000  0.00000000  0.50000000  1
  O  O6  1  0.00000000  0.00000000  0.25066500  1
  O  O7  1  0.76842400  0.72718600  0.00158900  1
  O  O8  1  0.50000000  0.50000000  0.24933500  1
  O  O9  1  0.22718600  0.73157600  0.49841100  1
  O  O10  1  0.77281400  0.26842400  0.49841100  1
  O  O11  1  0.23157600  0.27281400  0.00158900  1
  O  O12  1  0.50000000  0.50000000  0.75066500  1
  O  O13  1  0.26842400  0.22718600  0.50158900  1
  O  O14  1  0.00000000  0.00000000  0.74933500  1
  O  O15  1  0.72718600  0.23157600  0.99841100  1
  O  O16  1  0.27281400  0.76842400  0.99841100  1
  O  O17  1  0.73157600  0.77281400  0.50158900  1
