# generated using pymatgen
data_Ho3CrB7
_symmetry_space_group_name_H-M   'P 1'
_cell_length_a   3.42778000
_cell_length_b   15.75858200
_cell_length_c   9.32185700
_cell_angle_alpha   90.00000000
_cell_angle_beta   90.00000000
_cell_angle_gamma   90.00000000
_symmetry_Int_Tables_number   1
_chemical_formula_structural   Ho3CrB7
_chemical_formula_sum   'Ho12 Cr4 B28'
_cell_volume   503.53830406
_cell_formula_units_Z   4
loop_
 _symmetry_equiv_pos_site_id
 _symmetry_equiv_pos_as_xyz
  1  'x, y, z'
loop_
 _atom_site_type_symbol
 _atom_site_label
 _atom_site_symmetry_multiplicity
 _atom_site_fract_x
 _atom_site_fract_y
 _atom_site_fract_z
 _atom_site_occupancy
  Ho  Ho0  1  0.50000000  0.39507700  0.55971500  1
  Ho  Ho1  1  0.00000000  0.10492300  0.44028500  1
  Ho  Ho2  1  0.00000000  0.24149000  0.75000000  1
  Ho  Ho3  1  0.50000000  0.25851000  0.25000000  1
  Ho  Ho4  1  0.50000000  0.39507700  0.94028500  1
  Ho  Ho5  1  0.00000000  0.10492300  0.05971500  1
  Ho  Ho6  1  0.00000000  0.89507700  0.55971500  1
  Ho  Ho7  1  0.50000000  0.60492300  0.44028500  1
  Ho  Ho8  1  0.50000000  0.74149000  0.75000000  1
  Ho  Ho9  1  0.00000000  0.75851000  0.25000000  1
  Ho  Ho10  1  0.00000000  0.89507700  0.94028500  1
  Ho  Ho11  1  0.50000000  0.60492300  0.05971500  1
  Cr  Cr12  1  0.50000000  0.44672900  0.25000000  1
  Cr  Cr13  1  0.00000000  0.05327100  0.75000000  1
  Cr  Cr14  1  0.00000000  0.94672900  0.25000000  1
  Cr  Cr15  1  0.50000000  0.55327100  0.75000000  1
  B  B16  1  0.00000000  0.27285100  0.03222900  1
  B  B17  1  0.50000000  0.22714900  0.96777100  1
  B  B18  1  0.50000000  0.22714900  0.53222900  1
  B  B19  1  0.00000000  0.27285100  0.46777100  1
  B  B20  1  0.00000000  0.47882600  0.40369000  1
  B  B21  1  0.50000000  0.02117400  0.59631000  1
  B  B22  1  0.50000000  0.02117400  0.90369000  1
  B  B23  1  0.00000000  0.47882600  0.09631000  1
  B  B24  1  0.50000000  0.04097000  0.25000000  1
  B  B25  1  0.00000000  0.45903000  0.75000000  1
  B  B26  1  0.00000000  0.36886700  0.15131100  1
  B  B27  1  0.50000000  0.13113300  0.84868900  1
  B  B28  1  0.50000000  0.13113300  0.65131100  1
  B  B29  1  0.00000000  0.36886700  0.34868900  1
  B  B30  1  0.50000000  0.77285100  0.03222900  1
  B  B31  1  0.00000000  0.72714900  0.96777100  1
  B  B32  1  0.00000000  0.72714900  0.53222900  1
  B  B33  1  0.50000000  0.77285100  0.46777100  1
  B  B34  1  0.50000000  0.97882600  0.40369000  1
  B  B35  1  0.00000000  0.52117400  0.59631000  1
  B  B36  1  0.00000000  0.52117400  0.90369000  1
  B  B37  1  0.50000000  0.97882600  0.09631000  1
  B  B38  1  0.00000000  0.54097000  0.25000000  1
  B  B39  1  0.50000000  0.95903000  0.75000000  1
  B  B40  1  0.50000000  0.86886700  0.15131100  1
  B  B41  1  0.00000000  0.63113300  0.84868900  1
  B  B42  1  0.00000000  0.63113300  0.65131100  1
  B  B43  1  0.50000000  0.86886700  0.34868900  1
