# generated using pymatgen
data_ErAl4Ni
_symmetry_space_group_name_H-M   'P 1'
_cell_length_a   4.08736000
_cell_length_b   15.34840000
_cell_length_c   6.51524900
_cell_angle_alpha   90.00000000
_cell_angle_beta   90.00000000
_cell_angle_gamma   90.00000000
_symmetry_Int_Tables_number   1
_chemical_formula_structural   ErAl4Ni
_chemical_formula_sum   'Er4 Al16 Ni4'
_cell_volume   408.73047287
_cell_formula_units_Z   4
loop_
 _symmetry_equiv_pos_site_id
 _symmetry_equiv_pos_as_xyz
  1  'x, y, z'
loop_
 _atom_site_type_symbol
 _atom_site_label
 _atom_site_symmetry_multiplicity
 _atom_site_fract_x
 _atom_site_fract_y
 _atom_site_fract_z
 _atom_site_occupancy
  Er  Er0  1  0.00000000  0.88160100  0.75000000  1
  Er  Er1  1  0.50000000  0.61839900  0.25000000  1
  Er  Er2  1  0.50000000  0.38160100  0.75000000  1
  Er  Er3  1  0.00000000  0.11839900  0.25000000  1
  Al  Al4  1  0.50000000  0.57469200  0.75000000  1
  Al  Al5  1  0.50000000  0.81169700  0.44880700  1
  Al  Al6  1  0.00000000  0.92530800  0.25000000  1
  Al  Al7  1  0.00000000  0.68830300  0.94880700  1
  Al  Al8  1  0.50000000  0.00000000  0.00000000  1
  Al  Al9  1  0.50000000  0.81169700  0.05119300  1
  Al  Al10  1  0.50000000  0.00000000  0.50000000  1
  Al  Al11  1  0.00000000  0.68830300  0.55119300  1
  Al  Al12  1  0.00000000  0.07469200  0.75000000  1
  Al  Al13  1  0.00000000  0.31169700  0.44880700  1
  Al  Al14  1  0.50000000  0.42530800  0.25000000  1
  Al  Al15  1  0.50000000  0.18830300  0.94880700  1
  Al  Al16  1  0.00000000  0.50000000  0.00000000  1
  Al  Al17  1  0.00000000  0.31169700  0.05119300  1
  Al  Al18  1  0.00000000  0.50000000  0.50000000  1
  Al  Al19  1  0.50000000  0.18830300  0.55119300  1
  Ni  Ni20  1  0.00000000  0.77551200  0.25000000  1
  Ni  Ni21  1  0.50000000  0.72448800  0.75000000  1
  Ni  Ni22  1  0.50000000  0.27551200  0.25000000  1
  Ni  Ni23  1  0.00000000  0.22448800  0.75000000  1
