# generated using pymatgen
data_Li3Mn3O8
_symmetry_space_group_name_H-M   'P 1'
_cell_length_a   5.80716569
_cell_length_b   5.80716569
_cell_length_c   14.56027253
_cell_angle_alpha   90.00000000
_cell_angle_beta   90.00000000
_cell_angle_gamma   120.00000000
_symmetry_Int_Tables_number   1
_chemical_formula_structural   Li3Mn3O8
_chemical_formula_sum   'Li9 Mn9 O24'
_cell_volume   425.23457621
_cell_formula_units_Z   3
loop_
 _symmetry_equiv_pos_site_id
 _symmetry_equiv_pos_as_xyz
  1  'x, y, z'
loop_
 _atom_site_type_symbol
 _atom_site_label
 _atom_site_symmetry_multiplicity
 _atom_site_fract_x
 _atom_site_fract_y
 _atom_site_fract_z
 _atom_site_occupancy
  Li  Li0  1  0.33333333  0.66666667  0.04564867  1
  Li  Li1  1  0.33333333  0.66666667  0.28768467  1
  Li  Li2  1  0.66666667  0.33333333  0.33333333  1
  Li  Li3  1  0.00000000  0.00000000  0.37898200  1
  Li  Li4  1  0.00000000  0.00000000  0.62101800  1
  Li  Li5  1  0.33333333  0.66666667  0.66666667  1
  Li  Li6  1  0.66666667  0.33333333  0.71231533  1
  Li  Li7  1  0.66666667  0.33333333  0.95435133  1
  Li  Li8  1  1.00000000  1.00000000  0.00000000  1
  Mn  Mn9  1  0.33333333  0.16666667  0.16666667  1
  Mn  Mn10  1  0.83333333  0.16666667  0.16666667  1
  Mn  Mn11  1  0.83333333  0.66666667  0.16666667  1
  Mn  Mn12  1  0.00000000  0.50000000  0.50000000  1
  Mn  Mn13  1  0.50000000  0.50000000  0.50000000  1
  Mn  Mn14  1  0.50000000  0.00000000  0.50000000  1
  Mn  Mn15  1  0.66666667  0.83333333  0.83333333  1
  Mn  Mn16  1  0.16666667  0.83333333  0.83333333  1
  Mn  Mn17  1  0.16666667  0.33333333  0.83333333  1
  O  O18  1  0.66666667  0.33333333  0.09523733  1
  O  O19  1  0.51385000  0.02770000  0.23683800  1
  O  O20  1  0.51385000  0.48615000  0.23683800  1
  O  O21  1  0.97230000  0.48615000  0.23683800  1
  O  O22  1  0.69436667  0.84718333  0.09649533  1
  O  O23  1  0.15281667  0.30563333  0.09649533  1
  O  O24  1  0.15281667  0.84718333  0.09649533  1
  O  O25  1  0.00000000  0.00000000  0.23809600  1
  O  O26  1  0.33333333  0.66666667  0.42857067  1
  O  O27  1  0.18051667  0.36103333  0.57017133  1
  O  O28  1  0.18051667  0.81948333  0.57017133  1
  O  O29  1  0.63896667  0.81948333  0.57017133  1
  O  O30  1  0.36103333  0.18051667  0.42982867  1
  O  O31  1  0.81948333  0.63896667  0.42982867  1
  O  O32  1  0.81948333  0.18051667  0.42982867  1
  O  O33  1  0.66666667  0.33333333  0.57142933  1
  O  O34  1  0.00000000  0.00000000  0.76190400  1
  O  O35  1  0.84718333  0.69436667  0.90350467  1
  O  O36  1  0.84718333  0.15281667  0.90350467  1
  O  O37  1  0.30563333  0.15281667  0.90350467  1
  O  O38  1  0.02770000  0.51385000  0.76316200  1
  O  O39  1  0.48615000  0.97230000  0.76316200  1
  O  O40  1  0.48615000  0.51385000  0.76316200  1
  O  O41  1  0.33333333  0.66666667  0.90476267  1
