# generated using pymatgen
data_Mn2TcO4
_symmetry_space_group_name_H-M   'P 1'
_cell_length_a   6.16183410
_cell_length_b   6.26662077
_cell_length_c   9.02461190
_cell_angle_alpha   90.00000000
_cell_angle_beta   90.00000000
_cell_angle_gamma   90.00000000
_symmetry_Int_Tables_number   1
_chemical_formula_structural   Mn2TcO4
_chemical_formula_sum   'Mn8 Tc4 O16'
_cell_volume   348.47525875
_cell_formula_units_Z   4
loop_
 _symmetry_equiv_pos_site_id
 _symmetry_equiv_pos_as_xyz
  1  'x, y, z'
loop_
 _atom_site_type_symbol
 _atom_site_label
 _atom_site_symmetry_multiplicity
 _atom_site_fract_x
 _atom_site_fract_y
 _atom_site_fract_z
 _atom_site_occupancy
  Mn  Mn0  1  0.00000000  0.75000000  0.13807000  1
  Mn  Mn1  1  0.50000000  0.75000000  0.36193000  1
  Mn  Mn2  1  0.75000000  0.25000000  0.25000000  1
  Mn  Mn3  1  0.25000000  0.25000000  0.25000000  1
  Mn  Mn4  1  0.50000000  0.25000000  0.63807000  1
  Mn  Mn5  1  0.00000000  0.25000000  0.86193000  1
  Mn  Mn6  1  0.25000000  0.75000000  0.75000000  1
  Mn  Mn7  1  0.75000000  0.75000000  0.75000000  1
  Tc  Tc8  1  0.00000000  0.50000000  0.50000000  1
  Tc  Tc9  1  0.00000000  0.00000000  0.50000000  1
  Tc  Tc10  1  0.50000000  0.00000000  0.00000000  1
  Tc  Tc11  1  0.50000000  0.50000000  0.00000000  1
  O  O12  1  0.22221800  0.75000000  0.49928200  1
  O  O13  1  0.77778200  0.75000000  0.49928200  1
  O  O14  1  0.50000000  0.01387000  0.22531000  1
  O  O15  1  0.50000000  0.48613000  0.22531000  1
  O  O16  1  0.00000000  0.01387000  0.27469000  1
  O  O17  1  0.00000000  0.48613000  0.27469000  1
  O  O18  1  0.22221800  0.25000000  0.50071800  1
  O  O19  1  0.77778200  0.25000000  0.50071800  1
  O  O20  1  0.72221800  0.25000000  0.99928200  1
  O  O21  1  0.27778200  0.25000000  0.99928200  1
  O  O22  1  0.00000000  0.51387000  0.72531000  1
  O  O23  1  0.00000000  0.98613000  0.72531000  1
  O  O24  1  0.50000000  0.51387000  0.77469000  1
  O  O25  1  0.50000000  0.98613000  0.77469000  1
  O  O26  1  0.72221800  0.75000000  0.00071800  1
  O  O27  1  0.27778200  0.75000000  0.00071800  1
