# generated using pymatgen
data_Ce2Te3
_symmetry_space_group_name_H-M   'P 1'
_cell_length_a   9.49559400
_cell_length_b   9.49559400
_cell_length_c   28.62578400
_cell_angle_alpha   90.00000000
_cell_angle_beta   90.00000000
_cell_angle_gamma   90.00000000
_symmetry_Int_Tables_number   1
_chemical_formula_structural   Ce2Te3
_chemical_formula_sum   'Ce32 Te48'
_cell_volume   2581.08118283
_cell_formula_units_Z   16
loop_
 _symmetry_equiv_pos_site_id
 _symmetry_equiv_pos_as_xyz
  1  'x, y, z'
loop_
 _atom_site_type_symbol
 _atom_site_label
 _atom_site_symmetry_multiplicity
 _atom_site_fract_x
 _atom_site_fract_y
 _atom_site_fract_z
 _atom_site_occupancy
  Ce  Ce0  1  0.74550850  0.62986800  0.20951825  1
  Ce  Ce1  1  0.00000000  0.00000000  0.16729775  1
  Ce  Ce2  1  0.37934100  0.75000000  0.12500000  1
  Ce  Ce3  1  0.00000000  0.50000000  0.08270225  1
  Ce  Ce4  1  0.25449150  0.12986800  0.04048175  1
  Ce  Ce5  1  0.74550850  0.87013200  0.04048175  1
  Ce  Ce6  1  0.62065900  0.25000000  0.12500000  1
  Ce  Ce7  1  0.37013200  0.75449150  0.45951825  1
  Ce  Ce8  1  0.00000000  0.50000000  0.41729775  1
  Ce  Ce9  1  0.25000000  0.12065900  0.37500000  1
  Ce  Ce10  1  0.75000000  0.87934100  0.37500000  1
  Ce  Ce11  1  0.62986800  0.24550850  0.45951825  1
  Ce  Ce12  1  0.50000000  0.50000000  0.33270225  1
  Ce  Ce13  1  0.87013200  0.24550850  0.29048175  1
  Ce  Ce14  1  0.12986800  0.75449150  0.29048175  1
  Ce  Ce15  1  0.25449150  0.37013200  0.20951825  1
  Ce  Ce16  1  0.24550850  0.12986800  0.70951825  1
  Ce  Ce17  1  0.50000000  0.50000000  0.66729775  1
  Ce  Ce18  1  0.87934100  0.25000000  0.62500000  1
  Ce  Ce19  1  0.50000000  0.00000000  0.58270225  1
  Ce  Ce20  1  0.75449150  0.62986800  0.54048175  1
  Ce  Ce21  1  0.24550850  0.37013200  0.54048175  1
  Ce  Ce22  1  0.12065900  0.75000000  0.62500000  1
  Ce  Ce23  1  0.87013200  0.25449150  0.95951825  1
  Ce  Ce24  1  0.50000000  0.00000000  0.91729775  1
  Ce  Ce25  1  0.75000000  0.62065900  0.87500000  1
  Ce  Ce26  1  0.25000000  0.37934100  0.87500000  1
  Ce  Ce27  1  0.12986800  0.74550850  0.95951825  1
  Ce  Ce28  1  0.00000000  0.00000000  0.83270225  1
  Ce  Ce29  1  0.37013200  0.74550850  0.79048175  1
  Ce  Ce30  1  0.62986800  0.25449150  0.79048175  1
  Ce  Ce31  1  0.75449150  0.87013200  0.70951825  1
  Te  Te32  1  0.92450150  0.32710600  0.18266925  1
  Te  Te33  1  0.67743700  0.92456450  0.14792075  1
  Te  Te34  1  0.07549850  0.67289400  0.18266925  1
  Te  Te35  1  0.07549850  0.82710600  0.06733075  1
  Te  Te36  1  0.92450150  0.17289400  0.06733075  1
  Te  Te37  1  0.32256300  0.07543550  0.14792075  1
  Te  Te38  1  0.42088650  0.82562800  0.01575625  1
  Te  Te39  1  0.32256300  0.42456450  0.10207925  1
  Te  Te40  1  0.67437200  0.92088650  0.48424375  1
  Te  Te41  1  0.57911350  0.17437200  0.01575625  1
  Te  Te42  1  0.67743700  0.57543550  0.10207925  1
  Te  Te43  1  0.07543550  0.82256300  0.39792075  1
  Te  Te44  1  0.92456450  0.17743700  0.39792075  1
  Te  Te45  1  0.32562800  0.07911350  0.48424375  1
  Te  Te46  1  0.42456450  0.82256300  0.35207925  1
  Te  Te47  1  0.32710600  0.42450150  0.43266925  1
  Te  Te48  1  0.17289400  0.42450150  0.31733075  1
  Te  Te49  1  0.57543550  0.17743700  0.35207925  1
  Te  Te50  1  0.67289400  0.57549850  0.43266925  1
  Te  Te51  1  0.57911350  0.32562800  0.23424375  1
  Te  Te52  1  0.42088650  0.67437200  0.23424375  1
  Te  Te53  1  0.82710600  0.57549850  0.31733075  1
  Te  Te54  1  0.82562800  0.92088650  0.26575625  1
  Te  Te55  1  0.17437200  0.07911350  0.26575625  1
  Te  Te56  1  0.42450150  0.82710600  0.68266925  1
  Te  Te57  1  0.17743700  0.42456450  0.64792075  1
  Te  Te58  1  0.57549850  0.17289400  0.68266925  1
  Te  Te59  1  0.57549850  0.32710600  0.56733075  1
  Te  Te60  1  0.42450150  0.67289400  0.56733075  1
  Te  Te61  1  0.82256300  0.57543550  0.64792075  1
  Te  Te62  1  0.92088650  0.32562800  0.51575625  1
  Te  Te63  1  0.82256300  0.92456450  0.60207925  1
  Te  Te64  1  0.17437200  0.42088650  0.98424375  1
  Te  Te65  1  0.07911350  0.67437200  0.51575625  1
  Te  Te66  1  0.17743700  0.07543550  0.60207925  1
  Te  Te67  1  0.57543550  0.32256300  0.89792075  1
  Te  Te68  1  0.42456450  0.67743700  0.89792075  1
  Te  Te69  1  0.82562800  0.57911350  0.98424375  1
  Te  Te70  1  0.92456450  0.32256300  0.85207925  1
  Te  Te71  1  0.82710600  0.92450150  0.93266925  1
  Te  Te72  1  0.67289400  0.92450150  0.81733075  1
  Te  Te73  1  0.07543550  0.67743700  0.85207925  1
  Te  Te74  1  0.17289400  0.07549850  0.93266925  1
  Te  Te75  1  0.07911350  0.82562800  0.73424375  1
  Te  Te76  1  0.92088650  0.17437200  0.73424375  1
  Te  Te77  1  0.32710600  0.07549850  0.81733075  1
  Te  Te78  1  0.32562800  0.42088650  0.76575625  1
  Te  Te79  1  0.67437200  0.57911350  0.76575625  1
