# generated using pymatgen
data_Cu11Sb3
_symmetry_space_group_name_H-M   'P 1'
_cell_length_a   4.82201800
_cell_length_b   19.25427400
_cell_length_c   4.32139900
_cell_angle_alpha   90.00000000
_cell_angle_beta   90.00000000
_cell_angle_gamma   90.00000000
_symmetry_Int_Tables_number   1
_chemical_formula_structural   Cu11Sb3
_chemical_formula_sum   'Cu22 Sb6'
_cell_volume   401.21793847
_cell_formula_units_Z   2
loop_
 _symmetry_equiv_pos_site_id
 _symmetry_equiv_pos_as_xyz
  1  'x, y, z'
loop_
 _atom_site_type_symbol
 _atom_site_label
 _atom_site_symmetry_multiplicity
 _atom_site_fract_x
 _atom_site_fract_y
 _atom_site_fract_z
 _atom_site_occupancy
  Cu  Cu0  1  0.19650200  0.00000000  0.00000000  1
  Cu  Cu1  1  0.14998750  0.42705350  0.00000000  1
  Cu  Cu2  1  0.64998750  0.07294650  0.00000000  1
  Cu  Cu3  1  0.16042250  0.28605450  0.00000000  1
  Cu  Cu4  1  0.66042250  0.21394550  0.00000000  1
  Cu  Cu5  1  0.84560500  0.42669200  0.50000000  1
  Cu  Cu6  1  0.34560500  0.07330800  0.50000000  1
  Cu  Cu7  1  0.84722700  0.28008600  0.50000000  1
  Cu  Cu8  1  0.34722700  0.21991400  0.50000000  1
  Cu  Cu9  1  0.30255550  0.35224950  0.50000000  1
  Cu  Cu10  1  0.80255550  0.14775050  0.50000000  1
  Cu  Cu11  1  0.69650200  0.50000000  0.00000000  1
  Cu  Cu12  1  0.64998750  0.92705350  0.00000000  1
  Cu  Cu13  1  0.14998750  0.57294650  0.00000000  1
  Cu  Cu14  1  0.66042250  0.78605450  0.00000000  1
  Cu  Cu15  1  0.16042250  0.71394550  0.00000000  1
  Cu  Cu16  1  0.34560500  0.92669200  0.50000000  1
  Cu  Cu17  1  0.84560500  0.57330800  0.50000000  1
  Cu  Cu18  1  0.34722700  0.78008600  0.50000000  1
  Cu  Cu19  1  0.84722700  0.71991400  0.50000000  1
  Cu  Cu20  1  0.80255550  0.85224950  0.50000000  1
  Cu  Cu21  1  0.30255550  0.64775050  0.50000000  1
  Sb  Sb22  1  0.83451500  0.00000000  0.50000000  1
  Sb  Sb23  1  0.65869300  0.35418600  0.00000000  1
  Sb  Sb24  1  0.15869300  0.14581400  0.00000000  1
  Sb  Sb25  1  0.33451500  0.50000000  0.50000000  1
  Sb  Sb26  1  0.15869300  0.85418600  0.00000000  1
  Sb  Sb27  1  0.65869300  0.64581400  0.00000000  1
