# generated using pymatgen
data_Co2NiO4
_symmetry_space_group_name_H-M   'P 1'
_cell_length_a   5.81482400
_cell_length_b   5.82253200
_cell_length_c   8.15339800
_cell_angle_alpha   90.00000000
_cell_angle_beta   90.00000000
_cell_angle_gamma   90.00000000
_symmetry_Int_Tables_number   1
_chemical_formula_structural   Co2NiO4
_chemical_formula_sum   'Co8 Ni4 O16'
_cell_volume   276.04958642
_cell_formula_units_Z   4
loop_
 _symmetry_equiv_pos_site_id
 _symmetry_equiv_pos_as_xyz
  1  'x, y, z'
loop_
 _atom_site_type_symbol
 _atom_site_label
 _atom_site_symmetry_multiplicity
 _atom_site_fract_x
 _atom_site_fract_y
 _atom_site_fract_z
 _atom_site_occupancy
  Co  Co0  1  0.00000000  0.25000000  0.13298800  1
  Co  Co1  1  0.50000000  0.00000000  0.00000000  1
  Co  Co2  1  0.00000000  0.00000000  0.50000000  1
  Co  Co3  1  0.50000000  0.25000000  0.36701200  1
  Co  Co4  1  0.50000000  0.75000000  0.63298800  1
  Co  Co5  1  0.00000000  0.50000000  0.50000000  1
  Co  Co6  1  0.50000000  0.50000000  0.00000000  1
  Co  Co7  1  0.00000000  0.75000000  0.86701200  1
  Ni  Ni8  1  0.25000000  0.25000000  0.75000000  1
  Ni  Ni9  1  0.25000000  0.75000000  0.25000000  1
  Ni  Ni10  1  0.75000000  0.75000000  0.25000000  1
  Ni  Ni11  1  0.75000000  0.25000000  0.75000000  1
  O  O12  1  0.00000000  0.51077950  0.26469750  1
  O  O13  1  0.27584600  0.25000000  0.99983700  1
  O  O14  1  0.50000000  0.48922050  0.76469750  1
  O  O15  1  0.72415400  0.25000000  0.99983700  1
  O  O16  1  0.77584600  0.25000000  0.50016300  1
  O  O17  1  0.00000000  0.01077950  0.73530250  1
  O  O18  1  0.22415400  0.25000000  0.50016300  1
  O  O19  1  0.50000000  0.98922050  0.23530250  1
  O  O20  1  0.50000000  0.01077950  0.76469750  1
  O  O21  1  0.77584600  0.75000000  0.49983700  1
  O  O22  1  0.00000000  0.98922050  0.26469750  1
  O  O23  1  0.22415400  0.75000000  0.49983700  1
  O  O24  1  0.27584600  0.75000000  0.00016300  1
  O  O25  1  0.50000000  0.51077950  0.23530250  1
  O  O26  1  0.72415400  0.75000000  0.00016300  1
  O  O27  1  0.00000000  0.48922050  0.73530250  1
