# generated using pymatgen
data_MoP2O7
_symmetry_space_group_name_H-M   'P 1'
_cell_length_a   7.22032000
_cell_length_b   8.32159400
_cell_length_c   9.18417660
_cell_angle_alpha   90.00000000
_cell_angle_beta   114.80268710
_cell_angle_gamma   90.00000000
_symmetry_Int_Tables_number   1
_chemical_formula_structural   MoP2O7
_chemical_formula_sum   'Mo4 P8 O28'
_cell_volume   500.92555402
_cell_formula_units_Z   4
loop_
 _symmetry_equiv_pos_site_id
 _symmetry_equiv_pos_as_xyz
  1  'x, y, z'
loop_
 _atom_site_type_symbol
 _atom_site_label
 _atom_site_symmetry_multiplicity
 _atom_site_fract_x
 _atom_site_fract_y
 _atom_site_fract_z
 _atom_site_occupancy
  Mo  Mo0  1  0.23373000  0.41064600  0.11216100  1
  Mo  Mo1  1  0.76627000  0.91064600  0.38783900  1
  Mo  Mo2  1  0.23373000  0.08935400  0.61216100  1
  Mo  Mo3  1  0.76627000  0.58935400  0.88783900  1
  P  P4  1  0.92831100  0.23106800  0.25239700  1
  P  P5  1  0.07168900  0.76893200  0.74760300  1
  P  P6  1  0.92831100  0.26893200  0.75239700  1
  P  P7  1  0.45069100  0.76334800  0.03375100  1
  P  P8  1  0.45069100  0.73665200  0.53375100  1
  P  P9  1  0.54930900  0.23665200  0.96624900  1
  P  P10  1  0.54930900  0.26334800  0.46624900  1
  P  P11  1  0.07168900  0.73106800  0.24760300  1
  O  O12  1  0.73811000  0.14904900  0.10397600  1
  O  O13  1  0.46748100  0.38896400  0.33403600  1
  O  O14  1  0.37648700  0.60630400  0.07715000  1
  O  O15  1  0.61135700  0.76944600  0.46784900  1
  O  O16  1  0.53251900  0.61103600  0.66596400  1
  O  O17  1  0.62351300  0.39369600  0.92285000  1
  O  O18  1  0.38864300  0.23055400  0.53215100  1
  O  O19  1  0.61135700  0.73055400  0.96784900  1
  O  O20  1  0.37648700  0.89369600  0.57715000  1
  O  O21  1  0.26189000  0.64904900  0.39602400  1
  O  O22  1  0.46748100  0.11103600  0.83403600  1
  O  O23  1  0.12594100  0.87699900  0.18403500  1
  O  O24  1  0.09442600  0.24736800  0.18724700  1
  O  O25  1  0.01249800  0.58141300  0.12439900  1
  O  O26  1  0.98750200  0.08141300  0.37560100  1
  O  O27  1  0.26189000  0.85095100  0.89602400  1
  O  O28  1  0.12594100  0.62300100  0.68403500  1
  O  O29  1  0.62351300  0.10630400  0.42285000  1
  O  O30  1  0.09442600  0.25263200  0.68724700  1
  O  O31  1  0.87405900  0.37699900  0.31596500  1
  O  O32  1  0.90557400  0.74736800  0.31275300  1
  O  O33  1  0.01249800  0.91858700  0.62439900  1
  O  O34  1  0.98750200  0.41858700  0.87560100  1
  O  O35  1  0.90557400  0.75263200  0.81275300  1
  O  O36  1  0.87405900  0.12300100  0.81596500  1
  O  O37  1  0.53251900  0.88896400  0.16596400  1
  O  O38  1  0.73811000  0.35095100  0.60397600  1
  O  O39  1  0.38864300  0.26944600  0.03215100  1
