# generated using pymatgen
data_Li3V3(PO4)4
_symmetry_space_group_name_H-M   'P 1'
_cell_length_a   19.15882600
_cell_length_b   6.46103400
_cell_length_c   10.60131014
_cell_angle_alpha   90.00000000
_cell_angle_beta   91.61307912
_cell_angle_gamma   90.00000000
_symmetry_Int_Tables_number   1
_chemical_formula_structural   Li3V3(PO4)4
_chemical_formula_sum   'Li12 V12 P16 O64'
_cell_volume   1311.77189275
_cell_formula_units_Z   4
loop_
 _symmetry_equiv_pos_site_id
 _symmetry_equiv_pos_as_xyz
  1  'x, y, z'
loop_
 _atom_site_type_symbol
 _atom_site_label
 _atom_site_symmetry_multiplicity
 _atom_site_fract_x
 _atom_site_fract_y
 _atom_site_fract_z
 _atom_site_occupancy
  Li  Li0  1  0.56789350  0.59422450  0.05106200  1
  Li  Li1  1  0.56789350  0.40577550  0.55106200  1
  Li  Li2  1  0.93210650  0.09422450  0.44893800  1
  Li  Li3  1  0.93210650  0.90577550  0.94893800  1
  Li  Li4  1  0.00000000  0.52545400  0.25000000  1
  Li  Li5  1  0.00000000  0.47454600  0.75000000  1
  Li  Li6  1  0.06789350  0.09422450  0.05106200  1
  Li  Li7  1  0.06789350  0.90577550  0.55106200  1
  Li  Li8  1  0.43210650  0.59422450  0.44893800  1
  Li  Li9  1  0.43210650  0.40577550  0.94893800  1
  Li  Li10  1  0.50000000  0.02545400  0.25000000  1
  Li  Li11  1  0.50000000  0.97454600  0.75000000  1
  V  V12  1  0.65593600  0.98474000  0.24323100  1
  V  V13  1  0.65593600  0.01526000  0.74323100  1
  V  V14  1  0.75000000  0.75000000  0.50000000  1
  V  V15  1  0.75000000  0.25000000  0.00000000  1
  V  V16  1  0.84406400  0.48474000  0.25676900  1
  V  V17  1  0.84406400  0.51526000  0.75676900  1
  V  V18  1  0.15593600  0.48474000  0.24323100  1
  V  V19  1  0.15593600  0.51526000  0.74323100  1
  V  V20  1  0.25000000  0.25000000  0.50000000  1
  V  V21  1  0.25000000  0.75000000  0.00000000  1
  V  V22  1  0.34406400  0.98474000  0.25676900  1
  V  V23  1  0.34406400  0.01526000  0.75676900  1
  P  P24  1  0.58174150  0.16296150  0.99666800  1
  P  P25  1  0.58174150  0.83703850  0.49666800  1
  P  P26  1  0.69917000  0.48193500  0.25170200  1
  P  P27  1  0.69917000  0.51806500  0.75170200  1
  P  P28  1  0.80083000  0.98193500  0.24829800  1
  P  P29  1  0.80083000  0.01806500  0.74829800  1
  P  P30  1  0.91825850  0.66296150  0.50333200  1
  P  P31  1  0.91825850  0.33703850  0.00333200  1
  P  P32  1  0.08174150  0.66296150  0.99666800  1
  P  P33  1  0.08174150  0.33703850  0.49666800  1
  P  P34  1  0.19917000  0.98193500  0.25170200  1
  P  P35  1  0.19917000  0.01806500  0.75170200  1
  P  P36  1  0.30083000  0.48193500  0.24829800  1
  P  P37  1  0.30083000  0.51806500  0.74829800  1
  P  P38  1  0.41825850  0.16296150  0.50333200  1
  P  P39  1  0.41825850  0.83703850  0.00333200  1
  O  O40  1  0.52013850  0.30525450  0.01627400  1
  O  O41  1  0.52013850  0.69474550  0.51627400  1
  O  O42  1  0.57861550  0.95514250  0.36847600  1
  O  O43  1  0.58559900  0.99843400  0.10696300  1
  O  O44  1  0.57861550  0.04485750  0.86847600  1
  O  O45  1  0.58559900  0.00156600  0.60696300  1
  O  O46  1  0.64912600  0.29825100  0.00239400  1
  O  O47  1  0.64912600  0.70174900  0.50239400  1
  O  O48  1  0.65238450  0.66462150  0.21316900  1
  O  O49  1  0.65570000  0.28971800  0.27839200  1
  O  O50  1  0.65238450  0.33537850  0.71316900  1
  O  O51  1  0.65570000  0.71028200  0.77839200  1
  O  O52  1  0.74663950  0.02664650  0.13565100  1
  O  O53  1  0.74336150  0.94364550  0.35280300  1
  O  O54  1  0.74663950  0.97335350  0.63565100  1
  O  O55  1  0.74336150  0.05635450  0.85280300  1
  O  O56  1  0.75663850  0.44364550  0.14719700  1
  O  O57  1  0.75336050  0.52664650  0.36434900  1
  O  O58  1  0.75663850  0.55635450  0.64719700  1
  O  O59  1  0.75336050  0.47335350  0.86434900  1
  O  O60  1  0.84430000  0.78971800  0.22160800  1
  O  O61  1  0.84761550  0.16462150  0.28683100  1
  O  O62  1  0.84430000  0.21028200  0.72160800  1
  O  O63  1  0.84761550  0.83537850  0.78683100  1
  O  O64  1  0.85087400  0.79825100  0.49760600  1
  O  O65  1  0.85087400  0.20174900  0.99760600  1
  O  O66  1  0.91440100  0.49843400  0.39303700  1
  O  O67  1  0.92138450  0.45514250  0.13152400  1
  O  O68  1  0.91440100  0.50156600  0.89303700  1
  O  O69  1  0.92138450  0.54485750  0.63152400  1
  O  O70  1  0.97986150  0.80525450  0.48372600  1
  O  O71  1  0.97986150  0.19474550  0.98372600  1
  O  O72  1  0.02013850  0.80525450  0.01627400  1
  O  O73  1  0.02013850  0.19474550  0.51627400  1
  O  O74  1  0.07861550  0.45514250  0.36847600  1
  O  O75  1  0.08559900  0.49843400  0.10696300  1
  O  O76  1  0.07861550  0.54485750  0.86847600  1
  O  O77  1  0.08559900  0.50156600  0.60696300  1
  O  O78  1  0.14912600  0.79825100  0.00239400  1
  O  O79  1  0.14912600  0.20174900  0.50239400  1
  O  O80  1  0.15238450  0.16462150  0.21316900  1
  O  O81  1  0.15570000  0.78971800  0.27839200  1
  O  O82  1  0.15238450  0.83537850  0.71316900  1
  O  O83  1  0.15570000  0.21028200  0.77839200  1
  O  O84  1  0.24663950  0.52664650  0.13565100  1
  O  O85  1  0.24336150  0.44364550  0.35280300  1
  O  O86  1  0.24663950  0.47335350  0.63565100  1
  O  O87  1  0.24336150  0.55635450  0.85280300  1
  O  O88  1  0.25663850  0.94364550  0.14719700  1
  O  O89  1  0.25336050  0.02664650  0.36434900  1
  O  O90  1  0.25663850  0.05635450  0.64719700  1
  O  O91  1  0.25336050  0.97335350  0.86434900  1
  O  O92  1  0.34430000  0.28971800  0.22160800  1
  O  O93  1  0.34761550  0.66462150  0.28683100  1
  O  O94  1  0.34430000  0.71028200  0.72160800  1
  O  O95  1  0.34761550  0.33537850  0.78683100  1
  O  O96  1  0.35087400  0.29825100  0.49760600  1
  O  O97  1  0.35087400  0.70174900  0.99760600  1
  O  O98  1  0.41440100  0.99843400  0.39303700  1
  O  O99  1  0.42138450  0.95514250  0.13152400  1
  O  O100  1  0.41440100  0.00156600  0.89303700  1
  O  O101  1  0.42138450  0.04485750  0.63152400  1
  O  O102  1  0.47986150  0.30525450  0.48372600  1
  O  O103  1  0.47986150  0.69474550  0.98372600  1
