# generated using pymatgen
data_LiFeP2O7
_symmetry_space_group_name_H-M   'P 1'
_cell_length_a   7.00149600
_cell_length_b   8.30007500
_cell_length_c   9.12639533
_cell_angle_alpha   90.00000000
_cell_angle_beta   114.00154349
_cell_angle_gamma   90.00000000
_symmetry_Int_Tables_number   1
_chemical_formula_structural   LiFeP2O7
_chemical_formula_sum   'Li4 Fe4 P8 O28'
_cell_volume   484.50369401
_cell_formula_units_Z   4
loop_
 _symmetry_equiv_pos_site_id
 _symmetry_equiv_pos_as_xyz
  1  'x, y, z'
loop_
 _atom_site_type_symbol
 _atom_site_label
 _atom_site_symmetry_multiplicity
 _atom_site_fract_x
 _atom_site_fract_y
 _atom_site_fract_z
 _atom_site_occupancy
  Li  Li0  1  0.71156100  0.94638000  0.83909700  1
  Li  Li1  1  0.28843900  0.05362000  0.16090300  1
  Li  Li2  1  0.71156100  0.55362000  0.33909700  1
  Li  Li3  1  0.28843900  0.44638000  0.66090300  1
  Fe  Fe4  1  0.24209800  0.42458300  0.12121400  1
  Fe  Fe5  1  0.75790200  0.92458300  0.37878600  1
  Fe  Fe6  1  0.24209800  0.07541700  0.62121400  1
  Fe  Fe7  1  0.75790200  0.57541700  0.87878600  1
  P  P8  1  0.94064700  0.23376300  0.25949700  1
  P  P9  1  0.05935300  0.76623700  0.74050300  1
  P  P10  1  0.94064700  0.26623700  0.75949700  1
  P  P11  1  0.46459500  0.76562400  0.03364700  1
  P  P12  1  0.46459500  0.73437600  0.53364700  1
  P  P13  1  0.53540500  0.23437600  0.96635300  1
  P  P14  1  0.53540500  0.26562400  0.46635300  1
  P  P15  1  0.05935300  0.73376300  0.24050300  1
  O  O16  1  0.88303400  0.74401500  0.30093400  1
  O  O17  1  0.57614800  0.10528100  0.40064800  1
  O  O18  1  0.37442700  0.25129900  0.04081400  1
  O  O19  1  0.47804000  0.40341100  0.34287600  1
  O  O20  1  0.52196000  0.59658900  0.65712400  1
  O  O21  1  0.62557300  0.74870100  0.95918600  1
  O  O22  1  0.42385200  0.89471900  0.59935200  1
  O  O23  1  0.57614800  0.39471900  0.90064800  1
  O  O24  1  0.37442700  0.24870100  0.54081400  1
  O  O25  1  0.25471500  0.66632200  0.39645700  1
  O  O26  1  0.47804000  0.09658900  0.84287600  1
  O  O27  1  0.11212700  0.88601400  0.17967700  1
  O  O28  1  0.11696600  0.24401500  0.19906600  1
  O  O29  1  0.01793800  0.58866700  0.12017200  1
  O  O30  1  0.25471500  0.83367800  0.89645700  1
  O  O31  1  0.62557300  0.75129900  0.45918600  1
  O  O32  1  0.11212700  0.61398600  0.67967700  1
  O  O33  1  0.11696600  0.25598500  0.69906600  1
  O  O34  1  0.98206200  0.08866700  0.37982800  1
  O  O35  1  0.88787300  0.38601400  0.32032300  1
  O  O36  1  0.01793800  0.91133300  0.62017200  1
  O  O37  1  0.74528500  0.16632200  0.10354300  1
  O  O38  1  0.98206200  0.41133300  0.87982800  1
  O  O39  1  0.88303400  0.75598500  0.80093400  1
  O  O40  1  0.88787300  0.11398600  0.82032300  1
  O  O41  1  0.52196000  0.90341100  0.15712400  1
  O  O42  1  0.74528500  0.33367800  0.60354300  1
  O  O43  1  0.42385200  0.60528100  0.09935200  1
