# generated using pymatgen
data_LiCr(PO3)4
_symmetry_space_group_name_H-M   'P 1'
_cell_length_a   8.03634400
_cell_length_b   11.32094000
_cell_length_c   9.54001153
_cell_angle_alpha   90.00000000
_cell_angle_beta   91.97192625
_cell_angle_gamma   90.00000000
_symmetry_Int_Tables_number   1
_chemical_formula_structural   LiCr(PO3)4
_chemical_formula_sum   'Li4 Cr4 P16 O48'
_cell_volume   867.42641762
_cell_formula_units_Z   4
loop_
 _symmetry_equiv_pos_site_id
 _symmetry_equiv_pos_as_xyz
  1  'x, y, z'
loop_
 _atom_site_type_symbol
 _atom_site_label
 _atom_site_symmetry_multiplicity
 _atom_site_fract_x
 _atom_site_fract_y
 _atom_site_fract_z
 _atom_site_occupancy
  Li  Li0  1  0.50000000  0.33337200  0.25000000  1
  Li  Li1  1  0.50000000  0.66662800  0.75000000  1
  Li  Li2  1  0.00000000  0.83337200  0.25000000  1
  Li  Li3  1  0.00000000  0.16662800  0.75000000  1
  Cr  Cr4  1  0.50000000  0.38679300  0.75000000  1
  Cr  Cr5  1  0.50000000  0.61320700  0.25000000  1
  Cr  Cr6  1  0.00000000  0.88679300  0.75000000  1
  Cr  Cr7  1  0.00000000  0.11320700  0.25000000  1
  P  P8  1  0.44609050  0.17714650  0.96355000  1
  P  P9  1  0.55390950  0.17714650  0.53645000  1
  P  P10  1  0.23757100  0.96007100  0.02609000  1
  P  P11  1  0.44609050  0.82285350  0.46355000  1
  P  P12  1  0.55390950  0.82285350  0.03645000  1
  P  P13  1  0.76242900  0.03992900  0.97391000  1
  P  P14  1  0.76242900  0.96007100  0.47391000  1
  P  P15  1  0.23757100  0.03992900  0.52609000  1
  P  P16  1  0.94609050  0.67714650  0.96355000  1
  P  P17  1  0.05390950  0.67714650  0.53645000  1
  P  P18  1  0.73757100  0.46007100  0.02609000  1
  P  P19  1  0.94609050  0.32285350  0.46355000  1
  P  P20  1  0.05390950  0.32285350  0.03645000  1
  P  P21  1  0.26242900  0.53992900  0.97391000  1
  P  P22  1  0.26242900  0.46007100  0.47391000  1
  P  P23  1  0.73757100  0.53992900  0.52609000  1
  O  O24  1  0.40233450  0.09710850  0.59589100  1
  O  O25  1  0.51100500  0.77861300  0.89495500  1
  O  O26  1  0.48899500  0.22138700  0.10504500  1
  O  O27  1  0.12094600  0.98047600  0.14615100  1
  O  O28  1  0.38667150  0.73989550  0.34747100  1
  O  O29  1  0.82731050  0.11396050  0.09487500  1
  O  O30  1  0.48899500  0.77861300  0.60504500  1
  O  O31  1  0.40233450  0.90289150  0.09589100  1
  O  O32  1  0.59766550  0.90289150  0.40410900  1
  O  O33  1  0.70441950  0.08220850  0.53854500  1
  O  O34  1  0.17268950  0.11396050  0.40512500  1
  O  O35  1  0.61332850  0.73989550  0.15252900  1
  O  O36  1  0.87905400  0.01952400  0.85384900  1
  O  O37  1  0.38667150  0.26010450  0.84747100  1
  O  O38  1  0.12094600  0.01952400  0.64615100  1
  O  O39  1  0.29558050  0.91779150  0.46145500  1
  O  O40  1  0.82731050  0.88603950  0.59487500  1
  O  O41  1  0.87905400  0.98047600  0.35384900  1
  O  O42  1  0.59766550  0.09710850  0.90410900  1
  O  O43  1  0.51100500  0.22138700  0.39495500  1
  O  O44  1  0.70441950  0.91779150  0.03854500  1
  O  O45  1  0.17268950  0.88603950  0.90512500  1
  O  O46  1  0.61332850  0.26010450  0.65252900  1
  O  O47  1  0.29558050  0.08220850  0.96145500  1
  O  O48  1  0.90233450  0.59710850  0.59589100  1
  O  O49  1  0.01100500  0.27861300  0.89495500  1
  O  O50  1  0.98899500  0.72138700  0.10504500  1
  O  O51  1  0.62094600  0.48047600  0.14615100  1
  O  O52  1  0.88667150  0.23989550  0.34747100  1
  O  O53  1  0.32731050  0.61396050  0.09487500  1
  O  O54  1  0.98899500  0.27861300  0.60504500  1
  O  O55  1  0.90233450  0.40289150  0.09589100  1
  O  O56  1  0.09766550  0.40289150  0.40410900  1
  O  O57  1  0.20441950  0.58220850  0.53854500  1
  O  O58  1  0.67268950  0.61396050  0.40512500  1
  O  O59  1  0.11332850  0.23989550  0.15252900  1
  O  O60  1  0.37905400  0.51952400  0.85384900  1
  O  O61  1  0.88667150  0.76010450  0.84747100  1
  O  O62  1  0.62094600  0.51952400  0.64615100  1
  O  O63  1  0.79558050  0.41779150  0.46145500  1
  O  O64  1  0.32731050  0.38603950  0.59487500  1
  O  O65  1  0.37905400  0.48047600  0.35384900  1
  O  O66  1  0.09766550  0.59710850  0.90410900  1
  O  O67  1  0.01100500  0.72138700  0.39495500  1
  O  O68  1  0.20441950  0.41779150  0.03854500  1
  O  O69  1  0.67268950  0.38603950  0.90512500  1
  O  O70  1  0.11332850  0.76010450  0.65252900  1
  O  O71  1  0.79558050  0.58220850  0.96145500  1
