# generated using pymatgen
data_KCe5S8
_symmetry_space_group_name_H-M   'P 1'
_cell_length_a   8.64766200
_cell_length_b   8.64766200
_cell_length_c   8.58411400
_cell_angle_alpha   90.00000000
_cell_angle_beta   90.00000000
_cell_angle_gamma   90.00000000
_symmetry_Int_Tables_number   1
_chemical_formula_structural   KCe5S8
_chemical_formula_sum   'K2 Ce10 S16'
_cell_volume   641.93771160
_cell_formula_units_Z   2
loop_
 _symmetry_equiv_pos_site_id
 _symmetry_equiv_pos_as_xyz
  1  'x, y, z'
loop_
 _atom_site_type_symbol
 _atom_site_label
 _atom_site_symmetry_multiplicity
 _atom_site_fract_x
 _atom_site_fract_y
 _atom_site_fract_z
 _atom_site_occupancy
  K  K0  1  0.00000000  0.00000000  0.00000000  1
  K  K1  1  0.50000000  0.50000000  0.50000000  1
  Ce  Ce2  1  0.37120850  0.24822950  0.87070650  1
  Ce  Ce3  1  0.50000000  0.00000000  0.25000000  1
  Ce  Ce4  1  0.12879150  0.25177050  0.37070650  1
  Ce  Ce5  1  0.25177050  0.87120850  0.62929350  1
  Ce  Ce6  1  0.24822950  0.62879150  0.12929350  1
  Ce  Ce7  1  0.87120850  0.74822950  0.37070650  1
  Ce  Ce8  1  0.00000000  0.50000000  0.75000000  1
  Ce  Ce9  1  0.62879150  0.75177050  0.87070650  1
  Ce  Ce10  1  0.75177050  0.37120850  0.12929350  1
  Ce  Ce11  1  0.74822950  0.12879150  0.62929350  1
  S  S12  1  0.07557950  0.18268850  0.68851450  1
  S  S13  1  0.83632700  0.42228800  0.44803400  1
  S  S14  1  0.07771200  0.33632700  0.05196600  1
  S  S15  1  0.66367300  0.07771200  0.94803400  1
  S  S16  1  0.18268850  0.92442050  0.31148550  1
  S  S17  1  0.42442050  0.31731150  0.18851450  1
  S  S18  1  0.31731150  0.57557950  0.81148550  1
  S  S19  1  0.42228800  0.16367300  0.55196600  1
  S  S20  1  0.57557950  0.68268850  0.18851450  1
  S  S21  1  0.33632700  0.92228800  0.94803400  1
  S  S22  1  0.57771200  0.83632700  0.55196600  1
  S  S23  1  0.16367300  0.57771200  0.44803400  1
  S  S24  1  0.68268850  0.42442050  0.81148550  1
  S  S25  1  0.92442050  0.81731150  0.68851450  1
  S  S26  1  0.81731150  0.07557950  0.31148550  1
  S  S27  1  0.92228800  0.66367300  0.05196600  1
