# generated using pymatgen
data_Ho12InPt7
_symmetry_space_group_name_H-M   'P 1'
_cell_length_a   11.56226000
_cell_length_b   11.56226000
_cell_length_c   14.46038400
_cell_angle_alpha   90.00000000
_cell_angle_beta   90.00000000
_cell_angle_gamma   90.00000000
_symmetry_Int_Tables_number   1
_chemical_formula_structural   Ho12InPt7
_chemical_formula_sum   'Ho48 In4 Pt28'
_cell_volume   1933.14881758
_cell_formula_units_Z   4
loop_
 _symmetry_equiv_pos_site_id
 _symmetry_equiv_pos_as_xyz
  1  'x, y, z'
loop_
 _atom_site_type_symbol
 _atom_site_label
 _atom_site_symmetry_multiplicity
 _atom_site_fract_x
 _atom_site_fract_y
 _atom_site_fract_z
 _atom_site_occupancy
  Ho  Ho0  1  0.92648000  0.20722100  0.64523000  1
  Ho  Ho1  1  0.92648000  0.20722100  0.35477000  1
  Ho  Ho2  1  0.57352000  0.29277900  0.85477000  1
  Ho  Ho3  1  0.92648000  0.79277900  0.14523000  1
  Ho  Ho4  1  0.29277900  0.42648000  0.85477000  1
  Ho  Ho5  1  0.20722100  0.07352000  0.35477000  1
  Ho  Ho6  1  0.42648000  0.29277900  0.35477000  1
  Ho  Ho7  1  0.70722100  0.42648000  0.35477000  1
  Ho  Ho8  1  0.29277900  0.57352000  0.35477000  1
  Ho  Ho9  1  0.57352000  0.29277900  0.14523000  1
  Ho  Ho10  1  0.17711750  0.67711750  0.00000000  1
  Ho  Ho11  1  0.57352000  0.70722100  0.35477000  1
  Ho  Ho12  1  0.20722100  0.07352000  0.64523000  1
  Ho  Ho13  1  0.29277900  0.42648000  0.14523000  1
  Ho  Ho14  1  0.00000000  0.50000000  0.13328100  1
  Ho  Ho15  1  0.50000000  0.00000000  0.13328100  1
  Ho  Ho16  1  0.00000000  0.50000000  0.36671900  1
  Ho  Ho17  1  0.50000000  0.00000000  0.36671900  1
  Ho  Ho18  1  0.32288250  0.17711750  0.00000000  1
  Ho  Ho19  1  0.79277900  0.07352000  0.14523000  1
  Ho  Ho20  1  0.17711750  0.32288250  0.50000000  1
  Ho  Ho21  1  0.32288250  0.82288250  0.50000000  1
  Ho  Ho22  1  0.07352000  0.20722100  0.14523000  1
  Ho  Ho23  1  0.20722100  0.92648000  0.14523000  1
  Ho  Ho24  1  0.42648000  0.70722100  0.14523000  1
  Ho  Ho25  1  0.42648000  0.70722100  0.85477000  1
  Ho  Ho26  1  0.07352000  0.79277900  0.35477000  1
  Ho  Ho27  1  0.42648000  0.29277900  0.64523000  1
  Ho  Ho28  1  0.79277900  0.92648000  0.35477000  1
  Ho  Ho29  1  0.70722100  0.57352000  0.85477000  1
  Ho  Ho30  1  0.92648000  0.79277900  0.85477000  1
  Ho  Ho31  1  0.20722100  0.92648000  0.85477000  1
  Ho  Ho32  1  0.79277900  0.07352000  0.85477000  1
  Ho  Ho33  1  0.07352000  0.79277900  0.64523000  1
  Ho  Ho34  1  0.67711750  0.17711750  0.50000000  1
  Ho  Ho35  1  0.07352000  0.20722100  0.85477000  1
  Ho  Ho36  1  0.70722100  0.57352000  0.14523000  1
  Ho  Ho37  1  0.79277900  0.92648000  0.64523000  1
  Ho  Ho38  1  0.50000000  0.00000000  0.63328100  1
  Ho  Ho39  1  0.00000000  0.50000000  0.63328100  1
  Ho  Ho40  1  0.50000000  0.00000000  0.86671900  1
  Ho  Ho41  1  0.00000000  0.50000000  0.86671900  1
  Ho  Ho42  1  0.82288250  0.67711750  0.50000000  1
  Ho  Ho43  1  0.29277900  0.57352000  0.64523000  1
  Ho  Ho44  1  0.67711750  0.82288250  0.00000000  1
  Ho  Ho45  1  0.82288250  0.32288250  0.00000000  1
  Ho  Ho46  1  0.57352000  0.70722100  0.64523000  1
  Ho  Ho47  1  0.70722100  0.42648000  0.64523000  1
  In  In48  1  0.00000000  0.00000000  0.50000000  1
  In  In49  1  0.00000000  0.00000000  0.00000000  1
  In  In50  1  0.50000000  0.50000000  0.00000000  1
  In  In51  1  0.50000000  0.50000000  0.50000000  1
  Pt  Pt52  1  0.67150000  0.82850000  0.19228500  1
  Pt  Pt53  1  0.82850000  0.67150000  0.30771500  1
  Pt  Pt54  1  0.17150000  0.32850000  0.30771500  1
  Pt  Pt55  1  0.82850000  0.32850000  0.19228500  1
  Pt  Pt56  1  0.32850000  0.82850000  0.30771500  1
  Pt  Pt57  1  0.67150000  0.17150000  0.30771500  1
  Pt  Pt58  1  0.62832300  0.12832300  0.00000000  1
  Pt  Pt59  1  0.37167700  0.12832300  0.50000000  1
  Pt  Pt60  1  0.12832300  0.37167700  0.00000000  1
  Pt  Pt61  1  0.87167700  0.37167700  0.50000000  1
  Pt  Pt62  1  0.00000000  0.00000000  0.25000000  1
  Pt  Pt63  1  0.00000000  0.00000000  0.75000000  1
  Pt  Pt64  1  0.32850000  0.17150000  0.19228500  1
  Pt  Pt65  1  0.17150000  0.67150000  0.19228500  1
  Pt  Pt66  1  0.17150000  0.32850000  0.69228500  1
  Pt  Pt67  1  0.32850000  0.17150000  0.80771500  1
  Pt  Pt68  1  0.67150000  0.82850000  0.80771500  1
  Pt  Pt69  1  0.32850000  0.82850000  0.69228500  1
  Pt  Pt70  1  0.82850000  0.32850000  0.80771500  1
  Pt  Pt71  1  0.17150000  0.67150000  0.80771500  1
  Pt  Pt72  1  0.12832300  0.62832300  0.50000000  1
  Pt  Pt73  1  0.87167700  0.62832300  0.00000000  1
  Pt  Pt74  1  0.62832300  0.87167700  0.50000000  1
  Pt  Pt75  1  0.37167700  0.87167700  0.00000000  1
  Pt  Pt76  1  0.50000000  0.50000000  0.75000000  1
  Pt  Pt77  1  0.50000000  0.50000000  0.25000000  1
  Pt  Pt78  1  0.82850000  0.67150000  0.69228500  1
  Pt  Pt79  1  0.67150000  0.17150000  0.69228500  1
