# generated using pymatgen
data_LiNi2(PO4)3
_symmetry_space_group_name_H-M   'P 1'
_cell_length_a   12.13078600
_cell_length_b   12.56581400
_cell_length_c   6.50523708
_cell_angle_alpha   90.00000000
_cell_angle_beta   113.74094838
_cell_angle_gamma   90.00000000
_symmetry_Int_Tables_number   1
_chemical_formula_structural   LiNi2(PO4)3
_chemical_formula_sum   'Li4 Ni8 P12 O48'
_cell_volume   907.69885718
_cell_formula_units_Z   4
loop_
 _symmetry_equiv_pos_site_id
 _symmetry_equiv_pos_as_xyz
  1  'x, y, z'
loop_
 _atom_site_type_symbol
 _atom_site_label
 _atom_site_symmetry_multiplicity
 _atom_site_fract_x
 _atom_site_fract_y
 _atom_site_fract_z
 _atom_site_occupancy
  Li  Li0  1  0.50000000  0.00000000  0.00000000  1
  Li  Li1  1  0.50000000  0.00000000  0.50000000  1
  Li  Li2  1  0.00000000  0.50000000  0.00000000  1
  Li  Li3  1  0.00000000  0.50000000  0.50000000  1
  Ni  Ni4  1  0.21947950  0.16069950  0.63521500  1
  Ni  Ni5  1  0.78052050  0.16069950  0.86478500  1
  Ni  Ni6  1  0.78052050  0.83930050  0.36478500  1
  Ni  Ni7  1  0.21947950  0.83930050  0.13521500  1
  Ni  Ni8  1  0.71947950  0.66069950  0.63521500  1
  Ni  Ni9  1  0.28052050  0.66069950  0.86478500  1
  Ni  Ni10  1  0.28052050  0.33930050  0.36478500  1
  Ni  Ni11  1  0.71947950  0.33930050  0.13521500  1
  P  P12  1  0.50000000  0.78875100  0.25000000  1
  P  P13  1  0.50000000  0.21124900  0.75000000  1
  P  P14  1  0.75380300  0.89660000  0.85324200  1
  P  P15  1  0.75380300  0.10340000  0.35324200  1
  P  P16  1  0.24619700  0.10340000  0.14675800  1
  P  P17  1  0.24619700  0.89660000  0.64675800  1
  P  P18  1  0.00000000  0.28875100  0.25000000  1
  P  P19  1  0.00000000  0.71124900  0.75000000  1
  P  P20  1  0.25380300  0.39660000  0.85324200  1
  P  P21  1  0.25380300  0.60340000  0.35324200  1
  P  P22  1  0.74619700  0.60340000  0.14675800  1
  P  P23  1  0.74619700  0.39660000  0.64675800  1
  O  O24  1  0.80605200  0.83355500  0.07726000  1
  O  O25  1  0.59497200  0.13721500  0.72118200  1
  O  O26  1  0.82175150  0.99731450  0.38467500  1
  O  O27  1  0.40502800  0.86278500  0.27881800  1
  O  O28  1  0.37924550  0.93143050  0.71603400  1
  O  O29  1  0.62075450  0.93143050  0.78396600  1
  O  O30  1  0.54735300  0.28866000  0.95292300  1
  O  O31  1  0.40502800  0.13721500  0.77881800  1
  O  O32  1  0.23683050  0.17497450  0.33152800  1
  O  O33  1  0.54735300  0.71134000  0.45292300  1
  O  O34  1  0.37924550  0.06856950  0.21603400  1
  O  O35  1  0.62075450  0.06856950  0.28396600  1
  O  O36  1  0.45264700  0.71134000  0.04707700  1
  O  O37  1  0.19394800  0.83355500  0.42274000  1
  O  O38  1  0.59497200  0.86278500  0.22118200  1
  O  O39  1  0.19394800  0.16644500  0.92274000  1
  O  O40  1  0.17824850  0.99731450  0.11532500  1
  O  O41  1  0.76316950  0.17497450  0.16847200  1
  O  O42  1  0.80605200  0.16644500  0.57726000  1
  O  O43  1  0.45264700  0.28866000  0.54707700  1
  O  O44  1  0.82175150  0.00268550  0.88467500  1
  O  O45  1  0.23683050  0.82502550  0.83152800  1
  O  O46  1  0.76316950  0.82502550  0.66847200  1
  O  O47  1  0.17824850  0.00268550  0.61532500  1
  O  O48  1  0.30605200  0.33355500  0.07726000  1
  O  O49  1  0.09497200  0.63721500  0.72118200  1
  O  O50  1  0.32175150  0.49731450  0.38467500  1
  O  O51  1  0.90502800  0.36278500  0.27881800  1
  O  O52  1  0.87924550  0.43143050  0.71603400  1
  O  O53  1  0.12075450  0.43143050  0.78396600  1
  O  O54  1  0.04735300  0.78866000  0.95292300  1
  O  O55  1  0.90502800  0.63721500  0.77881800  1
  O  O56  1  0.73683050  0.67497450  0.33152800  1
  O  O57  1  0.04735300  0.21134000  0.45292300  1
  O  O58  1  0.87924550  0.56856950  0.21603400  1
  O  O59  1  0.12075450  0.56856950  0.28396600  1
  O  O60  1  0.95264700  0.21134000  0.04707700  1
  O  O61  1  0.69394800  0.33355500  0.42274000  1
  O  O62  1  0.09497200  0.36278500  0.22118200  1
  O  O63  1  0.69394800  0.66644500  0.92274000  1
  O  O64  1  0.67824850  0.49731450  0.11532500  1
  O  O65  1  0.26316950  0.67497450  0.16847200  1
  O  O66  1  0.30605200  0.66644500  0.57726000  1
  O  O67  1  0.95264700  0.78866000  0.54707700  1
  O  O68  1  0.32175150  0.50268550  0.88467500  1
  O  O69  1  0.73683050  0.32502550  0.83152800  1
  O  O70  1  0.26316950  0.32502550  0.66847200  1
  O  O71  1  0.67824850  0.50268550  0.61532500  1
