# generated using pymatgen
data_Na(Nd2Se3)4
_symmetry_space_group_name_H-M   'P 1'
_cell_length_a   8.94678800
_cell_length_b   8.94678800
_cell_length_c   26.93389000
_cell_angle_alpha   90.00000000
_cell_angle_beta   90.00000000
_cell_angle_gamma   90.00000000
_symmetry_Int_Tables_number   1
_chemical_formula_structural   Na(Nd2Se3)4
_chemical_formula_sum   'Na4 Nd32 Se48'
_cell_volume   2155.92364298
_cell_formula_units_Z   4
loop_
 _symmetry_equiv_pos_site_id
 _symmetry_equiv_pos_as_xyz
  1  'x, y, z'
loop_
 _atom_site_type_symbol
 _atom_site_label
 _atom_site_symmetry_multiplicity
 _atom_site_fract_x
 _atom_site_fract_y
 _atom_site_fract_z
 _atom_site_occupancy
  Na  Na0  1  0.50000000  0.50000000  0.00000000  1
  Na  Na1  1  0.50000000  0.00000000  0.25000000  1
  Na  Na2  1  0.00000000  0.00000000  0.50000000  1
  Na  Na3  1  0.00000000  0.50000000  0.75000000  1
  Nd  Nd4  1  0.37199950  0.75375950  0.45937850  1
  Nd  Nd5  1  0.25000000  0.11986000  0.37500000  1
  Nd  Nd6  1  0.00000000  0.50000000  0.41772300  1
  Nd  Nd7  1  0.75000000  0.88014000  0.37500000  1
  Nd  Nd8  1  0.62800050  0.24624050  0.45937850  1
  Nd  Nd9  1  0.50000000  0.50000000  0.33227700  1
  Nd  Nd10  1  0.87199950  0.24624050  0.29062150  1
  Nd  Nd11  1  0.74624050  0.62800050  0.20937850  1
  Nd  Nd12  1  0.25375950  0.37199950  0.20937850  1
  Nd  Nd13  1  0.12800050  0.75375950  0.29062150  1
  Nd  Nd14  1  0.00000000  0.00000000  0.16772300  1
  Nd  Nd15  1  0.38014000  0.75000000  0.12500000  1
  Nd  Nd16  1  0.25375950  0.12800050  0.04062150  1
  Nd  Nd17  1  0.00000000  0.50000000  0.08227700  1
  Nd  Nd18  1  0.74624050  0.87199950  0.04062150  1
  Nd  Nd19  1  0.61986000  0.25000000  0.12500000  1
  Nd  Nd20  1  0.87199950  0.25375950  0.95937850  1
  Nd  Nd21  1  0.75000000  0.61986000  0.87500000  1
  Nd  Nd22  1  0.50000000  0.00000000  0.91772300  1
  Nd  Nd23  1  0.25000000  0.38014000  0.87500000  1
  Nd  Nd24  1  0.12800050  0.74624050  0.95937850  1
  Nd  Nd25  1  0.00000000  0.00000000  0.83227700  1
  Nd  Nd26  1  0.37199950  0.74624050  0.79062150  1
  Nd  Nd27  1  0.24624050  0.12800050  0.70937850  1
  Nd  Nd28  1  0.75375950  0.87199950  0.70937850  1
  Nd  Nd29  1  0.62800050  0.25375950  0.79062150  1
  Nd  Nd30  1  0.50000000  0.50000000  0.66772300  1
  Nd  Nd31  1  0.88014000  0.25000000  0.62500000  1
  Nd  Nd32  1  0.75375950  0.62800050  0.54062150  1
  Nd  Nd33  1  0.50000000  0.00000000  0.58227700  1
  Nd  Nd34  1  0.24624050  0.37199950  0.54062150  1
  Nd  Nd35  1  0.11986000  0.75000000  0.62500000  1
  Se  Se36  1  0.42213600  0.82548700  0.01620000  1
  Se  Se37  1  0.67451300  0.92213600  0.48380000  1
  Se  Se38  1  0.57786400  0.17451300  0.01620000  1
  Se  Se39  1  0.07326950  0.82017050  0.39717650  1
  Se  Se40  1  0.92673050  0.17982950  0.39717650  1
  Se  Se41  1  0.67493450  0.57342750  0.43333350  1
  Se  Se42  1  0.32548700  0.07786400  0.48380000  1
  Se  Se43  1  0.42673050  0.82017050  0.35282350  1
  Se  Se44  1  0.32506550  0.42657250  0.43333350  1
  Se  Se45  1  0.17493450  0.42657250  0.31666650  1
  Se  Se46  1  0.57326950  0.17982950  0.35282350  1
  Se  Se47  1  0.57786400  0.32548700  0.23380000  1
  Se  Se48  1  0.42213600  0.67451300  0.23380000  1
  Se  Se49  1  0.82506550  0.57342750  0.31666650  1
  Se  Se50  1  0.17451300  0.07786400  0.26620000  1
  Se  Se51  1  0.92657250  0.32506550  0.18333350  1
  Se  Se52  1  0.82548700  0.92213600  0.26620000  1
  Se  Se53  1  0.67982950  0.92673050  0.14717650  1
  Se  Se54  1  0.07342750  0.67493450  0.18333350  1
  Se  Se55  1  0.07342750  0.82506550  0.06666650  1
  Se  Se56  1  0.92657250  0.17493450  0.06666650  1
  Se  Se57  1  0.67982950  0.57326950  0.10282350  1
  Se  Se58  1  0.32017050  0.07326950  0.14717650  1
  Se  Se59  1  0.32017050  0.42673050  0.10282350  1
  Se  Se60  1  0.92213600  0.32548700  0.51620000  1
  Se  Se61  1  0.17451300  0.42213600  0.98380000  1
  Se  Se62  1  0.07786400  0.67451300  0.51620000  1
  Se  Se63  1  0.57326950  0.32017050  0.89717650  1
  Se  Se64  1  0.42673050  0.67982950  0.89717650  1
  Se  Se65  1  0.17493450  0.07342750  0.93333350  1
  Se  Se66  1  0.82548700  0.57786400  0.98380000  1
  Se  Se67  1  0.92673050  0.32017050  0.85282350  1
  Se  Se68  1  0.82506550  0.92657250  0.93333350  1
  Se  Se69  1  0.67493450  0.92657250  0.81666650  1
  Se  Se70  1  0.07326950  0.67982950  0.85282350  1
  Se  Se71  1  0.07786400  0.82548700  0.73380000  1
  Se  Se72  1  0.92213600  0.17451300  0.73380000  1
  Se  Se73  1  0.32506550  0.07342750  0.81666650  1
  Se  Se74  1  0.67451300  0.57786400  0.76620000  1
  Se  Se75  1  0.42657250  0.82506550  0.68333350  1
  Se  Se76  1  0.32548700  0.42213600  0.76620000  1
  Se  Se77  1  0.17982950  0.42673050  0.64717650  1
  Se  Se78  1  0.57342750  0.17493450  0.68333350  1
  Se  Se79  1  0.57342750  0.32506550  0.56666650  1
  Se  Se80  1  0.42657250  0.67493450  0.56666650  1
  Se  Se81  1  0.17982950  0.07326950  0.60282350  1
  Se  Se82  1  0.82017050  0.57326950  0.64717650  1
  Se  Se83  1  0.82017050  0.92673050  0.60282350  1
