# generated using pymatgen
data_Al2CuO4
_symmetry_space_group_name_H-M   'P 1'
_cell_length_a   5.74969531
_cell_length_b   5.74969531
_cell_length_c   14.18636500
_cell_angle_alpha   90.00000000
_cell_angle_beta   90.00000000
_cell_angle_gamma   120.00000000
_symmetry_Int_Tables_number   1
_chemical_formula_structural   Al2CuO4
_chemical_formula_sum   'Al12 Cu6 O24'
_cell_volume   406.15464354
_cell_formula_units_Z   6
loop_
 _symmetry_equiv_pos_site_id
 _symmetry_equiv_pos_as_xyz
  1  'x, y, z'
loop_
 _atom_site_type_symbol
 _atom_site_label
 _atom_site_symmetry_multiplicity
 _atom_site_fract_x
 _atom_site_fract_y
 _atom_site_fract_z
 _atom_site_occupancy
  Al  Al0  1  0.83092233  0.16907767  0.83282000  1
  Al  Al1  1  0.83092233  0.66184467  0.83282000  1
  Al  Al2  1  0.16574333  0.83425667  0.49908500  1
  Al  Al3  1  0.33815533  0.16907767  0.83282000  1
  Al  Al4  1  0.33333333  0.66666667  0.71201600  1
  Al  Al5  1  0.33333333  0.66666667  0.33391600  1
  Al  Al6  1  0.16574333  0.33148667  0.49908500  1
  Al  Al7  1  0.49885133  0.50114867  0.16727700  1
  Al  Al8  1  0.66851333  0.83425667  0.49908500  1
  Al  Al9  1  0.49885133  0.99770267  0.16727700  1
  Al  Al10  1  0.00229733  0.50114867  0.16727700  1
  Al  Al11  1  0.00000000  0.00000000  0.04218300  1
  Cu  Cu12  1  0.33333333  0.66666667  0.95938200  1
  Cu  Cu13  1  0.66666667  0.33333333  0.99746300  1
  Cu  Cu14  1  0.66666667  0.33333333  0.62280600  1
  Cu  Cu15  1  0.00000000  0.00000000  0.29262100  1
  Cu  Cu16  1  0.00000000  0.00000000  0.66232700  1
  Cu  Cu17  1  0.66666667  0.33333333  0.37555400  1
  O  O18  1  0.51414933  0.48585067  0.90613600  1
  O  O19  1  0.66666667  0.33333333  0.76249000  1
  O  O20  1  0.51414933  0.02829867  0.90613600  1
  O  O21  1  0.97170133  0.48585067  0.90613600  1
  O  O22  1  0.84696333  0.15303667  0.57193900  1
  O  O23  1  0.67750733  0.83875367  0.75928000  1
  O  O24  1  0.00000000  0.00000000  0.90938500  1
  O  O25  1  0.00000000  0.00000000  0.43048800  1
  O  O26  1  0.84696333  0.69392667  0.57193900  1
  O  O27  1  0.16124633  0.32249267  0.75928000  1
  O  O28  1  0.30607333  0.15303667  0.57193900  1
  O  O29  1  0.16124633  0.83875367  0.75928000  1
  O  O30  1  0.04271633  0.52135817  0.42368500  1
  O  O31  1  0.18685633  0.81314367  0.24627000  1
  O  O32  1  0.33333333  0.66666667  0.58263900  1
  O  O33  1  0.47864183  0.95728367  0.42368500  1
  O  O34  1  0.33333333  0.66666667  0.09824100  1
  O  O35  1  0.18685633  0.37371267  0.24627000  1
  O  O36  1  0.62628733  0.81314367  0.24627000  1
  O  O37  1  0.47864183  0.52135817  0.42368500  1
  O  O38  1  0.33770833  0.16885417  0.09014200  1
  O  O39  1  0.66666667  0.33333333  0.22872200  1
  O  O40  1  0.83114583  0.66229167  0.09014200  1
  O  O41  1  0.83114583  0.16885417  0.09014200  1
