# generated using pymatgen
data_In2HgTe4
_symmetry_space_group_name_H-M   'P 1'
_cell_length_a   6.16721800
_cell_length_b   6.16721800
_cell_length_c   11.96495400
_cell_angle_alpha   90.00000000
_cell_angle_beta   90.00000000
_cell_angle_gamma   90.00000000
_symmetry_Int_Tables_number   1
_chemical_formula_structural   In2HgTe4
_chemical_formula_sum   'In4 Hg2 Te8'
_cell_volume   455.08197450
_cell_formula_units_Z   2
loop_
 _symmetry_equiv_pos_site_id
 _symmetry_equiv_pos_as_xyz
  1  'x, y, z'
loop_
 _atom_site_type_symbol
 _atom_site_label
 _atom_site_symmetry_multiplicity
 _atom_site_fract_x
 _atom_site_fract_y
 _atom_site_fract_z
 _atom_site_occupancy
  In  In0  1  0.50000000  0.00000000  0.25000000  1
  In  In1  1  0.50000000  0.50000000  0.00000000  1
  In  In2  1  0.00000000  0.50000000  0.75000000  1
  In  In3  1  0.00000000  0.00000000  0.50000000  1
  Hg  Hg4  1  0.00000000  0.50000000  0.25000000  1
  Hg  Hg5  1  0.50000000  0.00000000  0.75000000  1
  Te  Te6  1  0.50000000  0.00000000  0.49154200  1
  Te  Te7  1  0.50000000  0.50000000  0.24416900  1
  Te  Te8  1  0.50000000  0.00000000  0.00845800  1
  Te  Te9  1  0.00000000  0.00000000  0.25583100  1
  Te  Te10  1  0.00000000  0.50000000  0.99154200  1
  Te  Te11  1  0.00000000  0.00000000  0.74416900  1
  Te  Te12  1  0.00000000  0.50000000  0.50845800  1
  Te  Te13  1  0.50000000  0.50000000  0.75583100  1
