# generated using pymatgen
data_Lu2Zn17
_symmetry_space_group_name_H-M   'P 1'
_cell_length_a   8.91857127
_cell_length_b   8.91857127
_cell_length_c   13.18215225
_cell_angle_alpha   90.00000000
_cell_angle_beta   90.00000000
_cell_angle_gamma   120.00000000
_symmetry_Int_Tables_number   1
_chemical_formula_structural   Lu2Zn17
_chemical_formula_sum   'Lu6 Zn51'
_cell_volume   908.04532934
_cell_formula_units_Z   3
loop_
 _symmetry_equiv_pos_site_id
 _symmetry_equiv_pos_as_xyz
  1  'x, y, z'
loop_
 _atom_site_type_symbol
 _atom_site_label
 _atom_site_symmetry_multiplicity
 _atom_site_fract_x
 _atom_site_fract_y
 _atom_site_fract_z
 _atom_site_occupancy
  Lu  Lu0  1  0.33333333  0.66666667  0.33179767  1
  Lu  Lu1  1  0.33333333  0.66666667  0.00153567  1
  Lu  Lu2  1  0.00000000  0.00000000  0.66513100  1
  Lu  Lu3  1  0.00000000  0.00000000  0.33486900  1
  Lu  Lu4  1  0.66666667  0.33333333  0.99846433  1
  Lu  Lu5  1  0.66666667  0.33333333  0.66820233  1
  Zn  Zn6  1  0.17168933  0.82831067  0.18128467  1
  Zn  Zn7  1  0.17168933  0.34337867  0.18128467  1
  Zn  Zn8  1  0.33333333  0.66666667  0.76755867  1
  Zn  Zn9  1  0.33333333  0.66666667  0.56577467  1
  Zn  Zn10  1  0.16666667  0.83333333  0.83333333  1
  Zn  Zn11  1  0.33333333  0.16666667  0.16666667  1
  Zn  Zn12  1  0.83333333  0.66666667  0.16666667  1
  Zn  Zn13  1  0.36711167  0.03377833  0.33333333  1
  Zn  Zn14  1  0.00000000  0.29955500  0.00000000  1
  Zn  Zn15  1  0.29955500  1.00000000  0.00000000  1
  Zn  Zn16  1  0.96622167  0.63288833  0.33333333  1
  Zn  Zn17  1  0.00000000  0.70044500  0.00000000  1
  Zn  Zn18  1  0.70044500  1.00000000  0.00000000  1
  Zn  Zn19  1  0.49497733  0.98995467  0.15204867  1
  Zn  Zn20  1  0.49497733  0.50502267  0.15204867  1
  Zn  Zn21  1  0.01004533  0.50502267  0.15204867  1
  Zn  Zn22  1  0.65662133  0.82831067  0.18128467  1
  Zn  Zn23  1  0.83835600  0.16164400  0.51461800  1
  Zn  Zn24  1  0.83835600  0.67671200  0.51461800  1
  Zn  Zn25  1  0.00000000  0.00000000  0.10089200  1
  Zn  Zn26  1  0.00000000  0.00000000  0.89910800  1
  Zn  Zn27  1  0.83333333  0.16666667  0.16666667  1
  Zn  Zn28  1  0.00000000  0.50000000  0.50000000  1
  Zn  Zn29  1  0.50000000  0.00000000  0.50000000  1
  Zn  Zn30  1  0.03377833  0.36711167  0.66666667  1
  Zn  Zn31  1  0.66666667  0.63288833  0.33333333  1
  Zn  Zn32  1  0.96622167  0.33333333  0.33333333  1
  Zn  Zn33  1  0.63288833  0.96622167  0.66666667  1
  Zn  Zn34  1  0.66666667  0.03377833  0.33333333  1
  Zn  Zn35  1  0.36711167  0.33333333  0.33333333  1
  Zn  Zn36  1  0.16164400  0.32328800  0.48538200  1
  Zn  Zn37  1  0.16164400  0.83835600  0.48538200  1
  Zn  Zn38  1  0.67671200  0.83835600  0.48538200  1
  Zn  Zn39  1  0.32328800  0.16164400  0.51461800  1
  Zn  Zn40  1  0.50502267  0.49497733  0.84795133  1
  Zn  Zn41  1  0.50502267  0.01004533  0.84795133  1
  Zn  Zn42  1  0.66666667  0.33333333  0.43422533  1
  Zn  Zn43  1  0.66666667  0.33333333  0.23244133  1
  Zn  Zn44  1  0.50000000  0.50000000  0.50000000  1
  Zn  Zn45  1  0.66666667  0.83333333  0.83333333  1
  Zn  Zn46  1  0.16666667  0.33333333  0.83333333  1
  Zn  Zn47  1  0.70044500  0.70044500  0.00000000  1
  Zn  Zn48  1  0.33333333  0.96622167  0.66666667  1
  Zn  Zn49  1  0.63288833  0.66666667  0.66666667  1
  Zn  Zn50  1  0.29955500  0.29955500  0.00000000  1
  Zn  Zn51  1  0.33333333  0.36711167  0.66666667  1
  Zn  Zn52  1  0.03377833  0.66666667  0.66666667  1
  Zn  Zn53  1  0.82831067  0.65662133  0.81871533  1
  Zn  Zn54  1  0.82831067  0.17168933  0.81871533  1
  Zn  Zn55  1  0.34337867  0.17168933  0.81871533  1
  Zn  Zn56  1  0.98995467  0.49497733  0.84795133  1
