# generated using pymatgen
data_Ni(PO3)4
_symmetry_space_group_name_H-M   'P 1'
_cell_length_a   9.54186200
_cell_length_b   13.36807800
_cell_length_c   7.55901357
_cell_angle_alpha   90.00000000
_cell_angle_beta   110.63430678
_cell_angle_gamma   90.00000000
_symmetry_Int_Tables_number   1
_chemical_formula_structural   Ni(PO3)4
_chemical_formula_sum   'Ni4 P16 O48'
_cell_volume   902.34552142
_cell_formula_units_Z   4
loop_
 _symmetry_equiv_pos_site_id
 _symmetry_equiv_pos_as_xyz
  1  'x, y, z'
loop_
 _atom_site_type_symbol
 _atom_site_label
 _atom_site_symmetry_multiplicity
 _atom_site_fract_x
 _atom_site_fract_y
 _atom_site_fract_z
 _atom_site_occupancy
  Ni  Ni0  1  0.50066000  0.62903000  0.74360400  1
  Ni  Ni1  1  0.50066000  0.37097000  0.24360400  1
  Ni  Ni2  1  0.00066000  0.12903000  0.74360400  1
  Ni  Ni3  1  0.00066000  0.87097000  0.24360400  1
  P  P4  1  0.56362650  0.83481950  0.61594600  1
  P  P5  1  0.43555100  0.82841900  0.90042900  1
  P  P6  1  0.87245150  0.08121750  0.30979900  1
  P  P7  1  0.56362650  0.16518050  0.11594600  1
  P  P8  1  0.43555100  0.17158100  0.40042900  1
  P  P9  1  0.12929850  0.91845650  0.67888600  1
  P  P10  1  0.12929850  0.08154350  0.17888600  1
  P  P11  1  0.87245150  0.91878250  0.80979900  1
  P  P12  1  0.06362650  0.33481950  0.61594600  1
  P  P13  1  0.93555100  0.32841900  0.90042900  1
  P  P14  1  0.37245150  0.58121750  0.30979900  1
  P  P15  1  0.06362650  0.66518050  0.11594600  1
  P  P16  1  0.93555100  0.67158100  0.40042900  1
  P  P17  1  0.62929850  0.41845650  0.67888600  1
  P  P18  1  0.62929850  0.58154350  0.17888600  1
  P  P19  1  0.37245150  0.41878250  0.80979900  1
  O  O20  1  0.51627200  0.83493600  0.10413600  1
  O  O21  1  0.50065250  0.62832950  0.24459300  1
  O  O22  1  0.50065250  0.37167050  0.74459300  1
  O  O23  1  0.61805650  0.27365050  0.18369800  1
  O  O24  1  0.86470050  0.13142750  0.48734400  1
  O  O25  1  0.72459050  0.11278950  0.14373800  1
  O  O26  1  0.38021450  0.27309650  0.29658700  1
  O  O27  1  0.88398600  0.03211000  0.81780800  1
  O  O28  1  0.88398600  0.96789000  0.31780800  1
  O  O29  1  0.52133100  0.11202700  0.28325900  1
  O  O30  1  0.51627200  0.16506400  0.60413600  1
  O  O31  1  0.45420100  0.14356500  0.92866600  1
  O  O32  1  0.27632100  0.11226900  0.34527200  1
  O  O33  1  0.86470050  0.86857250  0.98734400  1
  O  O34  1  0.72459050  0.88721050  0.64373800  1
  O  O35  1  0.13620550  0.86796750  0.50091800  1
  O  O36  1  0.52133100  0.88797300  0.78325900  1
  O  O37  1  0.13620550  0.13203250  0.00091800  1
  O  O38  1  0.11670000  0.03175500  0.66933400  1
  O  O39  1  0.45420100  0.85643500  0.42866600  1
  O  O40  1  0.11670000  0.96824500  0.16933400  1
  O  O41  1  0.61805650  0.72634950  0.68369800  1
  O  O42  1  0.27632100  0.88773100  0.84527200  1
  O  O43  1  0.38021450  0.72690350  0.79658700  1
  O  O44  1  0.01627200  0.33493600  0.10413600  1
  O  O45  1  0.00065250  0.12832950  0.24459300  1
  O  O46  1  0.00065250  0.87167050  0.74459300  1
  O  O47  1  0.11805650  0.77365050  0.18369800  1
  O  O48  1  0.36470050  0.63142750  0.48734400  1
  O  O49  1  0.22459050  0.61278950  0.14373800  1
  O  O50  1  0.88021450  0.77309650  0.29658700  1
  O  O51  1  0.38398600  0.53211000  0.81780800  1
  O  O52  1  0.38398600  0.46789000  0.31780800  1
  O  O53  1  0.02133100  0.61202700  0.28325900  1
  O  O54  1  0.01627200  0.66506400  0.60413600  1
  O  O55  1  0.95420100  0.64356500  0.92866600  1
  O  O56  1  0.77632100  0.61226900  0.34527200  1
  O  O57  1  0.36470050  0.36857250  0.98734400  1
  O  O58  1  0.22459050  0.38721050  0.64373800  1
  O  O59  1  0.63620550  0.36796750  0.50091800  1
  O  O60  1  0.02133100  0.38797300  0.78325900  1
  O  O61  1  0.63620550  0.63203250  0.00091800  1
  O  O62  1  0.61670000  0.53175500  0.66933400  1
  O  O63  1  0.95420100  0.35643500  0.42866600  1
  O  O64  1  0.61670000  0.46824500  0.16933400  1
  O  O65  1  0.11805650  0.22634950  0.68369800  1
  O  O66  1  0.77632100  0.38773100  0.84527200  1
  O  O67  1  0.88021450  0.22690350  0.79658700  1
