# generated using pymatgen
data_U2PS
_symmetry_space_group_name_H-M   'P 1'
_cell_length_a   5.50915800
_cell_length_b   5.50915800
_cell_length_c   11.02493200
_cell_angle_alpha   90.00000000
_cell_angle_beta   90.00000000
_cell_angle_gamma   90.00000000
_symmetry_Int_Tables_number   1
_chemical_formula_structural   U2PS
_chemical_formula_sum   'U8 P4 S4'
_cell_volume   334.61574725
_cell_formula_units_Z   4
loop_
 _symmetry_equiv_pos_site_id
 _symmetry_equiv_pos_as_xyz
  1  'x, y, z'
loop_
 _atom_site_type_symbol
 _atom_site_label
 _atom_site_symmetry_multiplicity
 _atom_site_fract_x
 _atom_site_fract_y
 _atom_site_fract_z
 _atom_site_occupancy
  U  U0  1  0.50000000  0.00000000  0.49998800  1
  U  U1  1  0.50000000  0.00000000  0.00001200  1
  U  U2  1  0.50000000  0.50000000  0.24998800  1
  U  U3  1  0.00000000  0.00000000  0.25001200  1
  U  U4  1  0.00000000  0.50000000  0.99998800  1
  U  U5  1  0.00000000  0.50000000  0.50001200  1
  U  U6  1  0.00000000  0.00000000  0.74998800  1
  U  U7  1  0.50000000  0.50000000  0.75001200  1
  P  P8  1  0.50000000  0.00000000  0.25000000  1
  P  P9  1  0.50000000  0.50000000  0.00000000  1
  P  P10  1  0.00000000  0.50000000  0.75000000  1
  P  P11  1  0.00000000  0.00000000  0.50000000  1
  S  S12  1  0.00000000  0.00000000  0.00000000  1
  S  S13  1  0.00000000  0.50000000  0.25000000  1
  S  S14  1  0.50000000  0.50000000  0.50000000  1
  S  S15  1  0.50000000  0.00000000  0.75000000  1
