# generated using pymatgen
data_Bi2Pd5
_symmetry_space_group_name_H-M   'P 1'
_cell_length_a   14.40551200
_cell_length_b   5.91394200
_cell_length_c   6.87809816
_cell_angle_alpha   90.00000000
_cell_angle_beta   117.12864149
_cell_angle_gamma   90.00000000
_symmetry_Int_Tables_number   1
_chemical_formula_structural   Bi2Pd5
_chemical_formula_sum   'Bi8 Pd20'
_cell_volume   521.50298966
_cell_formula_units_Z   4
loop_
 _symmetry_equiv_pos_site_id
 _symmetry_equiv_pos_as_xyz
  1  'x, y, z'
loop_
 _atom_site_type_symbol
 _atom_site_label
 _atom_site_symmetry_multiplicity
 _atom_site_fract_x
 _atom_site_fract_y
 _atom_site_fract_z
 _atom_site_occupancy
  Bi  Bi0  1  0.40090500  0.00000000  0.09401200  1
  Bi  Bi1  1  0.09909500  0.50000000  0.90598800  1
  Bi  Bi2  1  0.13086700  0.00000000  0.35662000  1
  Bi  Bi3  1  0.36913300  0.50000000  0.64338000  1
  Bi  Bi4  1  0.90090500  0.50000000  0.09401200  1
  Bi  Bi5  1  0.59909500  0.00000000  0.90598800  1
  Bi  Bi6  1  0.63086700  0.50000000  0.35662000  1
  Bi  Bi7  1  0.86913300  0.00000000  0.64338000  1
  Pd  Pd8  1  0.22612500  0.75189400  0.76598100  1
  Pd  Pd9  1  0.27387500  0.25189400  0.23401900  1
  Pd  Pd10  1  0.27387500  0.74810600  0.23401900  1
  Pd  Pd11  1  0.22612500  0.24810600  0.76598100  1
  Pd  Pd12  1  0.00000000  0.74895500  0.50000000  1
  Pd  Pd13  1  0.00000000  0.25104500  0.50000000  1
  Pd  Pd14  1  0.40458400  0.50000000  0.08754200  1
  Pd  Pd15  1  0.09541600  0.00000000  0.91245800  1
  Pd  Pd16  1  0.13327600  0.50000000  0.36060800  1
  Pd  Pd17  1  0.36672400  0.00000000  0.63939200  1
  Pd  Pd18  1  0.72612500  0.25189400  0.76598100  1
  Pd  Pd19  1  0.77387500  0.75189400  0.23401900  1
  Pd  Pd20  1  0.77387500  0.24810600  0.23401900  1
  Pd  Pd21  1  0.72612500  0.74810600  0.76598100  1
  Pd  Pd22  1  0.50000000  0.24895500  0.50000000  1
  Pd  Pd23  1  0.50000000  0.75104500  0.50000000  1
  Pd  Pd24  1  0.90458400  0.00000000  0.08754200  1
  Pd  Pd25  1  0.59541600  0.50000000  0.91245800  1
  Pd  Pd26  1  0.63327600  0.00000000  0.36060800  1
  Pd  Pd27  1  0.86672400  0.50000000  0.63939200  1
