# generated using pymatgen
data_Li3Ni3(PO4)4
_symmetry_space_group_name_H-M   'P 1'
_cell_length_a   7.56657000
_cell_length_b   7.96221700
_cell_length_c   9.91354018
_cell_angle_alpha   90.00000000
_cell_angle_beta   92.38106142
_cell_angle_gamma   90.00000000
_symmetry_Int_Tables_number   1
_chemical_formula_structural   Li3Ni3(PO4)4
_chemical_formula_sum   'Li6 Ni6 P8 O32'
_cell_volume   596.74214430
_cell_formula_units_Z   2
loop_
 _symmetry_equiv_pos_site_id
 _symmetry_equiv_pos_as_xyz
  1  'x, y, z'
loop_
 _atom_site_type_symbol
 _atom_site_label
 _atom_site_symmetry_multiplicity
 _atom_site_fract_x
 _atom_site_fract_y
 _atom_site_fract_z
 _atom_site_occupancy
  Li  Li0  1  0.66898600  0.63017200  0.81945100  1
  Li  Li1  1  0.33101400  0.13017200  0.18054900  1
  Li  Li2  1  0.16483000  0.85950200  0.57337100  1
  Li  Li3  1  0.16713300  0.85867700  0.07443900  1
  Li  Li4  1  0.83517000  0.35950200  0.42662900  1
  Li  Li5  1  0.83286700  0.35867700  0.92556100  1
  Ni  Ni6  1  0.65562700  0.64537600  0.30964900  1
  Ni  Ni7  1  0.34437300  0.14537600  0.69035100  1
  Ni  Ni8  1  0.22138400  0.48831600  0.12488000  1
  Ni  Ni9  1  0.24267900  0.50466800  0.62239800  1
  Ni  Ni10  1  0.75732100  0.00466800  0.37760200  1
  Ni  Ni11  1  0.77861600  0.98831600  0.87512000  1
  P  P12  1  0.94634500  0.19374400  0.64062300  1
  P  P13  1  0.93802500  0.17653300  0.14114200  1
  P  P14  1  0.06197500  0.67653300  0.85885800  1
  P  P15  1  0.05365500  0.69374400  0.35937700  1
  P  P16  1  0.43244700  0.31923600  0.89969900  1
  P  P17  1  0.43035300  0.31914800  0.38507100  1
  P  P18  1  0.56964700  0.81914800  0.61492900  1
  P  P19  1  0.56755300  0.81923600  0.10030100  1
  O  O20  1  0.78844100  0.12094800  0.03400300  1
  O  O21  1  0.79634800  0.13913600  0.53702300  1
  O  O22  1  0.86968100  0.18185400  0.78462700  1
  O  O23  1  0.90709900  0.55973300  0.85148300  1
  O  O24  1  0.84448100  0.18793600  0.27995900  1
  O  O25  1  0.88950800  0.57879900  0.36868200  1
  O  O26  1  0.71361900  0.84913100  0.22236200  1
  O  O27  1  0.72654200  0.86489500  0.71378400  1
  O  O28  1  0.64552400  0.82025000  0.46795900  1
  O  O29  1  0.58729700  0.44441300  0.38843200  1
  O  O30  1  0.66509800  0.80458300  0.96801200  1
  O  O31  1  0.58504300  0.43688400  0.90382100  1
  O  O32  1  0.49297900  0.14125300  0.35274400  1
  O  O33  1  0.51159500  0.63742000  0.15418000  1
  O  O34  1  0.48840500  0.13742000  0.84582000  1
  O  O35  1  0.50702100  0.64125300  0.64725600  1
  O  O36  1  0.41270300  0.94441300  0.61156800  1
  O  O37  1  0.35447600  0.32025000  0.53204100  1
  O  O38  1  0.41495700  0.93688400  0.09617900  1
  O  O39  1  0.27345800  0.36489500  0.28621600  1
  O  O40  1  0.33490200  0.30458300  0.03198800  1
  O  O41  1  0.28638100  0.34913100  0.77763800  1
  O  O42  1  0.20365200  0.63913600  0.46297700  1
  O  O43  1  0.13031900  0.68185400  0.21537300  1
  O  O44  1  0.21155900  0.62094800  0.96599700  1
  O  O45  1  0.09290100  0.05973300  0.14851700  1
  O  O46  1  0.15551900  0.68793600  0.72004100  1
  O  O47  1  0.11049200  0.07879900  0.63131800  1
  O  O48  1  0.99409600  0.37614900  0.60516600  1
  O  O49  1  0.00590400  0.87614900  0.39483400  1
  O  O50  1  0.98132000  0.36124600  0.10243700  1
  O  O51  1  0.01868000  0.86124600  0.89756300  1
