# generated using pymatgen
data_Ce(Al5Ru)2
_symmetry_space_group_name_H-M   'P 1'
_cell_length_a   9.09187800
_cell_length_b   10.32695200
_cell_length_c   9.15261900
_cell_angle_alpha   90.00000000
_cell_angle_beta   90.00000000
_cell_angle_gamma   90.00000000
_symmetry_Int_Tables_number   1
_chemical_formula_structural   Ce(Al5Ru)2
_chemical_formula_sum   'Ce4 Al40 Ru8'
_cell_volume   859.35209896
_cell_formula_units_Z   4
loop_
 _symmetry_equiv_pos_site_id
 _symmetry_equiv_pos_as_xyz
  1  'x, y, z'
loop_
 _atom_site_type_symbol
 _atom_site_label
 _atom_site_symmetry_multiplicity
 _atom_site_fract_x
 _atom_site_fract_y
 _atom_site_fract_z
 _atom_site_occupancy
  Ce  Ce0  1  0.50000000  0.62333400  0.75000000  1
  Ce  Ce1  1  0.50000000  0.37666600  0.25000000  1
  Ce  Ce2  1  0.00000000  0.12333400  0.75000000  1
  Ce  Ce3  1  0.00000000  0.87666600  0.25000000  1
  Al  Al4  1  0.72451450  0.13543750  0.25000000  1
  Al  Al5  1  0.64927250  0.87044950  0.25000000  1
  Al  Al6  1  0.50000000  0.34071600  0.89882500  1
  Al  Al7  1  0.27548550  0.86456250  0.75000000  1
  Al  Al8  1  0.50000000  0.87737000  0.94853300  1
  Al  Al9  1  0.50000000  0.65928400  0.39882500  1
  Al  Al10  1  0.77354600  0.00000000  0.00000000  1
  Al  Al11  1  0.72451450  0.86456250  0.75000000  1
  Al  Al12  1  0.50000000  0.65928400  0.10117500  1
  Al  Al13  1  0.35072750  0.12955050  0.75000000  1
  Al  Al14  1  0.50000000  0.34071600  0.60117500  1
  Al  Al15  1  0.77354600  0.00000000  0.50000000  1
  Al  Al16  1  0.35072750  0.87044950  0.25000000  1
  Al  Al17  1  0.50000000  0.87737000  0.55146700  1
  Al  Al18  1  0.22645400  0.00000000  0.50000000  1
  Al  Al19  1  0.50000000  0.12263000  0.44853300  1
  Al  Al20  1  0.27548550  0.13543750  0.25000000  1
  Al  Al21  1  0.64927250  0.12955050  0.75000000  1
  Al  Al22  1  0.50000000  0.12263000  0.05146700  1
  Al  Al23  1  0.22645400  0.00000000  0.00000000  1
  Al  Al24  1  0.22451450  0.63543750  0.25000000  1
  Al  Al25  1  0.14927250  0.37044950  0.25000000  1
  Al  Al26  1  0.00000000  0.84071600  0.89882500  1
  Al  Al27  1  0.77548550  0.36456250  0.75000000  1
  Al  Al28  1  0.00000000  0.37737000  0.94853300  1
  Al  Al29  1  0.00000000  0.15928400  0.39882500  1
  Al  Al30  1  0.27354600  0.50000000  0.00000000  1
  Al  Al31  1  0.22451450  0.36456250  0.75000000  1
  Al  Al32  1  0.00000000  0.15928400  0.10117500  1
  Al  Al33  1  0.85072750  0.62955050  0.75000000  1
  Al  Al34  1  0.00000000  0.84071600  0.60117500  1
  Al  Al35  1  0.27354600  0.50000000  0.50000000  1
  Al  Al36  1  0.85072750  0.37044950  0.25000000  1
  Al  Al37  1  0.00000000  0.37737000  0.55146700  1
  Al  Al38  1  0.72645400  0.50000000  0.50000000  1
  Al  Al39  1  0.00000000  0.62263000  0.44853300  1
  Al  Al40  1  0.77548550  0.63543750  0.25000000  1
  Al  Al41  1  0.14927250  0.62955050  0.75000000  1
  Al  Al42  1  0.00000000  0.62263000  0.05146700  1
  Al  Al43  1  0.72645400  0.50000000  0.00000000  1
  Ru  Ru44  1  0.25000000  0.75000000  0.00000000  1
  Ru  Ru45  1  0.25000000  0.75000000  0.50000000  1
  Ru  Ru46  1  0.25000000  0.25000000  0.00000000  1
  Ru  Ru47  1  0.25000000  0.25000000  0.50000000  1
  Ru  Ru48  1  0.75000000  0.25000000  0.00000000  1
  Ru  Ru49  1  0.75000000  0.25000000  0.50000000  1
  Ru  Ru50  1  0.75000000  0.75000000  0.00000000  1
  Ru  Ru51  1  0.75000000  0.75000000  0.50000000  1
