# generated using pymatgen
data_MoP2O7
_symmetry_space_group_name_H-M   'P 1'
_cell_length_a   9.03398200
_cell_length_b   5.33649300
_cell_length_c   13.59482038
_cell_angle_alpha   90.00000000
_cell_angle_beta   116.97139946
_cell_angle_gamma   90.00000000
_symmetry_Int_Tables_number   1
_chemical_formula_structural   MoP2O7
_chemical_formula_sum   'Mo4 P8 O28'
_cell_volume   584.11709124
_cell_formula_units_Z   4
loop_
 _symmetry_equiv_pos_site_id
 _symmetry_equiv_pos_as_xyz
  1  'x, y, z'
loop_
 _atom_site_type_symbol
 _atom_site_label
 _atom_site_symmetry_multiplicity
 _atom_site_fract_x
 _atom_site_fract_y
 _atom_site_fract_z
 _atom_site_occupancy
  Mo  Mo0  1  0.26952400  0.24817600  0.03079500  1
  Mo  Mo1  1  0.73047600  0.74817600  0.46920500  1
  Mo  Mo2  1  0.26952400  0.25182400  0.53079500  1
  Mo  Mo3  1  0.73047600  0.75182400  0.96920500  1
  P  P4  1  0.31482700  0.73829200  0.88215600  1
  P  P5  1  0.68517300  0.26170800  0.11784400  1
  P  P6  1  0.83654300  0.25917900  0.36258100  1
  P  P7  1  0.68517300  0.23829200  0.61784400  1
  P  P8  1  0.83654300  0.24082100  0.86258100  1
  P  P9  1  0.31482700  0.76170800  0.38215600  1
  P  P10  1  0.16345700  0.75917900  0.13741900  1
  P  P11  1  0.16345700  0.74082100  0.63741900  1
  O  O12  1  0.28185400  0.94481900  0.94626100  1
  O  O13  1  0.24078800  0.01537900  0.13908200  1
  O  O14  1  0.26125800  0.54485600  0.12032100  1
  O  O15  1  0.48147600  0.73766200  0.37919500  1
  O  O16  1  0.75921200  0.98462100  0.86091800  1
  O  O17  1  0.73874200  0.45514400  0.87967900  1
  O  O18  1  0.51852400  0.26233800  0.62080500  1
  O  O19  1  0.28998600  0.02244900  0.41819400  1
  O  O20  1  0.17291200  0.72427300  0.25754900  1
  O  O21  1  0.28185400  0.55518100  0.44626100  1
  O  O22  1  0.97964200  0.74442100  0.05825400  1
  O  O23  1  0.48147600  0.76233800  0.87919500  1
  O  O24  1  0.26125800  0.95514400  0.62032100  1
  O  O25  1  0.24078800  0.48462100  0.63908200  1
  O  O26  1  0.02035800  0.24442100  0.44174600  1
  O  O27  1  0.71814600  0.05518100  0.05373900  1
  O  O28  1  0.28998600  0.47755100  0.91819400  1
  O  O29  1  0.82708800  0.27572700  0.74245100  1
  O  O30  1  0.17291200  0.77572700  0.75754900  1
  O  O31  1  0.71001400  0.52244900  0.08180600  1
  O  O32  1  0.82708800  0.22427300  0.24245100  1
  O  O33  1  0.97964200  0.75557900  0.55825400  1
  O  O34  1  0.75921200  0.51537900  0.36091800  1
  O  O35  1  0.73874200  0.04485600  0.37967900  1
  O  O36  1  0.51852400  0.23766200  0.12080500  1
  O  O37  1  0.02035800  0.25557900  0.94174600  1
  O  O38  1  0.71814600  0.44481900  0.55373900  1
  O  O39  1  0.71001400  0.97755100  0.58180600  1
