# generated using pymatgen
data_Mn2BO4
_symmetry_space_group_name_H-M   'P 1'
_cell_length_a   3.31694970
_cell_length_b   9.63219172
_cell_length_c   9.95677354
_cell_angle_alpha   90.00000000
_cell_angle_beta   108.75800520
_cell_angle_gamma   90.00000000
_symmetry_Int_Tables_number   1
_chemical_formula_structural   Mn2BO4
_chemical_formula_sum   'Mn8 B4 O16'
_cell_volume   301.21733784
_cell_formula_units_Z   4
loop_
 _symmetry_equiv_pos_site_id
 _symmetry_equiv_pos_as_xyz
  1  'x, y, z'
loop_
 _atom_site_type_symbol
 _atom_site_label
 _atom_site_symmetry_multiplicity
 _atom_site_fract_x
 _atom_site_fract_y
 _atom_site_fract_z
 _atom_site_occupancy
  Mn  Mn0  1  0.90730832  0.90239206  0.18027604  1
  Mn  Mn1  1  0.09269168  0.40239206  0.31972396  1
  Mn  Mn2  1  0.09269168  0.09760794  0.81972396  1
  Mn  Mn3  1  0.90730832  0.59760794  0.68027604  1
  Mn  Mn4  1  0.29053913  0.88177962  0.56324061  1
  Mn  Mn5  1  0.70946087  0.38177962  0.93675939  1
  Mn  Mn6  1  0.70946087  0.11822038  0.43675939  1
  Mn  Mn7  1  0.29053913  0.61822038  0.06324061  1
  B  B8  1  0.56757747  0.83050261  0.86771663  1
  B  B9  1  0.43242253  0.33050261  0.63228337  1
  B  B10  1  0.43242253  0.16949739  0.13228337  1
  B  B11  1  0.56757747  0.66949739  0.36771663  1
  O  O12  1  0.10527814  0.51148338  0.88751325  1
  O  O13  1  0.36122493  0.46980446  0.63075419  1
  O  O14  1  0.36122493  0.03019554  0.13075419  1
  O  O15  1  0.63877507  0.53019554  0.36924581  1
  O  O16  1  0.89472186  0.01148338  0.61248675  1
  O  O17  1  0.63877507  0.96980446  0.86924581  1
  O  O18  1  0.10527814  0.98851662  0.38751325  1
  O  O19  1  0.89472186  0.48851662  0.11248675  1
  O  O20  1  0.64856340  0.74072593  0.49614570  1
  O  O21  1  0.35143660  0.24072593  0.00385430  1
  O  O22  1  0.42027740  0.75925049  0.73830959  1
  O  O23  1  0.64856340  0.75927407  0.99614570  1
  O  O24  1  0.42027740  0.74074951  0.23830959  1
  O  O25  1  0.57972260  0.24074951  0.26169041  1
  O  O26  1  0.57972260  0.25925049  0.76169041  1
  O  O27  1  0.35143660  0.25927407  0.50385430  1
