# generated using pymatgen
data_LiFeP2O7
_symmetry_space_group_name_H-M   'P 1'
_cell_length_a   6.60730600
_cell_length_b   8.22243800
_cell_length_c   4.56605105
_cell_angle_alpha   90.00000000
_cell_angle_beta   103.76511610
_cell_angle_gamma   90.00000000
_symmetry_Int_Tables_number   1
_chemical_formula_structural   LiFeP2O7
_chemical_formula_sum   'Li2 Fe2 P4 O14'
_cell_volume   240.94057183
_cell_formula_units_Z   2
loop_
 _symmetry_equiv_pos_site_id
 _symmetry_equiv_pos_as_xyz
  1  'x, y, z'
loop_
 _atom_site_type_symbol
 _atom_site_label
 _atom_site_symmetry_multiplicity
 _atom_site_fract_x
 _atom_site_fract_y
 _atom_site_fract_z
 _atom_site_occupancy
  Li  Li0  1  0.50000000  0.74925700  0.00000000  1
  Li  Li1  1  0.00000000  0.24925700  0.00000000  1
  Fe  Fe2  1  0.50000000  0.37361700  0.00000000  1
  Fe  Fe3  1  0.00000000  0.87361700  0.00000000  1
  P  P4  1  0.70737150  0.03960750  0.40997400  1
  P  P5  1  0.29262850  0.03960750  0.59002600  1
  P  P6  1  0.20737150  0.53960750  0.40997400  1
  P  P7  1  0.79262850  0.53960750  0.59002600  1
  O  O8  1  0.66752050  0.20480150  0.25502800  1
  O  O9  1  0.87187700  0.05537200  0.70984000  1
  O  O10  1  0.74712350  0.90426550  0.19754500  1
  O  O11  1  0.50000000  0.97418400  0.50000000  1
  O  O12  1  0.12812300  0.05537200  0.29016000  1
  O  O13  1  0.33247950  0.20480150  0.74497200  1
  O  O14  1  0.25287650  0.90426550  0.80245500  1
  O  O15  1  0.16752050  0.70480150  0.25502800  1
  O  O16  1  0.37187700  0.55537200  0.70984000  1
  O  O17  1  0.24712350  0.40426550  0.19754500  1
  O  O18  1  0.00000000  0.47418400  0.50000000  1
  O  O19  1  0.62812300  0.55537200  0.29016000  1
  O  O20  1  0.83247950  0.70480150  0.74497200  1
  O  O21  1  0.75287650  0.40426550  0.80245500  1
