# generated using pymatgen
data_Sc2Te3
_symmetry_space_group_name_H-M   'P 1'
_cell_length_a   7.22932800
_cell_length_b   12.45336200
_cell_length_c   7.12119136
_cell_angle_alpha   90.00000000
_cell_angle_beta   109.39653695
_cell_angle_gamma   90.00000000
_symmetry_Int_Tables_number   1
_chemical_formula_structural   Sc2Te3
_chemical_formula_sum   'Sc8 Te12'
_cell_volume   604.72881943
_cell_formula_units_Z   4
loop_
 _symmetry_equiv_pos_site_id
 _symmetry_equiv_pos_as_xyz
  1  'x, y, z'
loop_
 _atom_site_type_symbol
 _atom_site_label
 _atom_site_symmetry_multiplicity
 _atom_site_fract_x
 _atom_site_fract_y
 _atom_site_fract_z
 _atom_site_occupancy
  Sc  Sc0  1  0.50000000  0.58497700  0.75000000  1
  Sc  Sc1  1  0.50000000  0.41502300  0.25000000  1
  Sc  Sc2  1  0.50000000  0.74927500  0.25000000  1
  Sc  Sc3  1  0.50000000  0.25072500  0.75000000  1
  Sc  Sc4  1  0.00000000  0.08497700  0.75000000  1
  Sc  Sc5  1  0.00000000  0.91502300  0.25000000  1
  Sc  Sc6  1  0.00000000  0.24927500  0.25000000  1
  Sc  Sc7  1  0.00000000  0.75072500  0.75000000  1
  Te  Te8  1  0.75195300  0.08381000  0.99970400  1
  Te  Te9  1  0.24804700  0.91619000  0.00029600  1
  Te  Te10  1  0.24804700  0.08381000  0.50029600  1
  Te  Te11  1  0.75000000  0.75000000  0.00000000  1
  Te  Te12  1  0.75195300  0.91619000  0.49970400  1
  Te  Te13  1  0.75000000  0.25000000  0.50000000  1
  Te  Te14  1  0.25195300  0.58381000  0.99970400  1
  Te  Te15  1  0.74804700  0.41619000  0.00029600  1
  Te  Te16  1  0.74804700  0.58381000  0.50029600  1
  Te  Te17  1  0.25000000  0.25000000  0.00000000  1
  Te  Te18  1  0.25195300  0.41619000  0.49970400  1
  Te  Te19  1  0.25000000  0.75000000  0.50000000  1
