# generated using pymatgen
data_K3CoO2
_symmetry_space_group_name_H-M   'P 1'
_cell_length_a   6.05586726
_cell_length_b   7.37385300
_cell_length_c   11.96947304
_cell_angle_alpha   90.00000000
_cell_angle_beta   90.00000000
_cell_angle_gamma   90.00000000
_symmetry_Int_Tables_number   1
_chemical_formula_structural   K3CoO2
_chemical_formula_sum   'K12 Co4 O8'
_cell_volume   534.49771570
_cell_formula_units_Z   4
loop_
 _symmetry_equiv_pos_site_id
 _symmetry_equiv_pos_as_xyz
  1  'x, y, z'
loop_
 _atom_site_type_symbol
 _atom_site_label
 _atom_site_symmetry_multiplicity
 _atom_site_fract_x
 _atom_site_fract_y
 _atom_site_fract_z
 _atom_site_occupancy
  K  K0  1  0.71915150  0.25000000  0.90566500  1
  K  K1  1  0.28084850  0.75000000  0.09433500  1
  K  K2  1  0.78084850  0.25000000  0.40566500  1
  K  K3  1  0.21915150  0.75000000  0.59433500  1
  K  K4  1  0.66519550  0.50004400  0.63980300  1
  K  K5  1  0.16519550  0.00004400  0.86019700  1
  K  K6  1  0.33480450  0.00004400  0.36019700  1
  K  K7  1  0.16519550  0.49995600  0.86019700  1
  K  K8  1  0.33480450  0.49995600  0.36019700  1
  K  K9  1  0.66519550  0.99995600  0.63980300  1
  K  K10  1  0.83480450  0.99995600  0.13980300  1
  K  K11  1  0.83480450  0.50004400  0.13980300  1
  Co  Co12  1  0.67714650  0.75000000  0.88187000  1
  Co  Co13  1  0.82285350  0.75000000  0.38187000  1
  Co  Co14  1  0.32285350  0.25000000  0.11813000  1
  Co  Co15  1  0.17714650  0.25000000  0.61813000  1
  O  O16  1  0.04051650  0.75000000  0.28262500  1
  O  O17  1  0.95948350  0.25000000  0.71737500  1
  O  O18  1  0.54051650  0.25000000  0.21737500  1
  O  O19  1  0.45948350  0.75000000  0.78262500  1
  O  O20  1  0.40506450  0.25000000  0.52579500  1
  O  O21  1  0.90506450  0.75000000  0.97420500  1
  O  O22  1  0.09493550  0.25000000  0.02579500  1
  O  O23  1  0.59493550  0.75000000  0.47420500  1
