# generated using pymatgen
data_Mn4(PO4)3
_symmetry_space_group_name_H-M   'P 1'
_cell_length_a   6.77356600
_cell_length_b   6.77356600
_cell_length_c   19.58937600
_cell_angle_alpha   90.00000000
_cell_angle_beta   90.00000000
_cell_angle_gamma   90.00000000
_symmetry_Int_Tables_number   1
_chemical_formula_structural   Mn4(PO4)3
_chemical_formula_sum   'Mn16 P12 O48'
_cell_volume   898.78400675
_cell_formula_units_Z   4
loop_
 _symmetry_equiv_pos_site_id
 _symmetry_equiv_pos_as_xyz
  1  'x, y, z'
loop_
 _atom_site_type_symbol
 _atom_site_label
 _atom_site_symmetry_multiplicity
 _atom_site_fract_x
 _atom_site_fract_y
 _atom_site_fract_z
 _atom_site_occupancy
  Mn  Mn0  1  0.50000000  0.50000000  0.26947600  1
  Mn  Mn1  1  0.75000000  0.75134400  0.37500000  1
  Mn  Mn2  1  0.74865600  0.25000000  0.12500000  1
  Mn  Mn3  1  0.00000000  0.00000000  0.23052400  1
  Mn  Mn4  1  0.25134400  0.75000000  0.12500000  1
  Mn  Mn5  1  0.00000000  0.50000000  0.48052400  1
  Mn  Mn6  1  0.00000000  0.50000000  0.01947600  1
  Mn  Mn7  1  0.25000000  0.24865600  0.37500000  1
  Mn  Mn8  1  0.00000000  0.00000000  0.76947600  1
  Mn  Mn9  1  0.25000000  0.25134400  0.87500000  1
  Mn  Mn10  1  0.24865600  0.75000000  0.62500000  1
  Mn  Mn11  1  0.50000000  0.50000000  0.73052400  1
  Mn  Mn12  1  0.75134400  0.25000000  0.62500000  1
  Mn  Mn13  1  0.50000000  0.00000000  0.98052400  1
  Mn  Mn14  1  0.50000000  0.00000000  0.51947600  1
  Mn  Mn15  1  0.75000000  0.74865600  0.87500000  1
  P  P16  1  0.00000000  0.00000000  0.00000000  1
  P  P17  1  0.00000000  0.50000000  0.25000000  1
  P  P18  1  0.75000000  0.15552500  0.37500000  1
  P  P19  1  0.65552500  0.75000000  0.12500000  1
  P  P20  1  0.25000000  0.84447500  0.37500000  1
  P  P21  1  0.34447500  0.25000000  0.12500000  1
  P  P22  1  0.50000000  0.50000000  0.50000000  1
  P  P23  1  0.50000000  0.00000000  0.75000000  1
  P  P24  1  0.25000000  0.65552500  0.87500000  1
  P  P25  1  0.15552500  0.25000000  0.62500000  1
  P  P26  1  0.75000000  0.34447500  0.87500000  1
  P  P27  1  0.84447500  0.75000000  0.62500000  1
  O  O28  1  0.43147300  0.72052100  0.35340300  1
  O  O29  1  0.70116100  0.00638300  0.43443300  1
  O  O30  1  0.50638300  0.79883900  0.06556700  1
  O  O31  1  0.06852700  0.72052100  0.39659700  1
  O  O32  1  0.49361700  0.20116100  0.06556700  1
  O  O33  1  0.50638300  0.70116100  0.18443300  1
  O  O34  1  0.93433200  0.18497100  0.04160600  1
  O  O35  1  0.06566800  0.68497100  0.20839400  1
  O  O36  1  0.22052100  0.06852700  0.14659700  1
  O  O37  1  0.77947900  0.56852700  0.10340300  1
  O  O38  1  0.68497100  0.56566800  0.45839400  1
  O  O39  1  0.81502900  0.56566800  0.29160600  1
  O  O40  1  0.93147300  0.27947900  0.39659700  1
  O  O41  1  0.20116100  0.99361700  0.31556700  1
  O  O42  1  0.31502900  0.43433200  0.45839400  1
  O  O43  1  0.18497100  0.43433200  0.29160600  1
  O  O44  1  0.77947900  0.93147300  0.14659700  1
  O  O45  1  0.22052100  0.43147300  0.10340300  1
  O  O46  1  0.79883900  0.00638300  0.31556700  1
  O  O47  1  0.56852700  0.27947900  0.35340300  1
  O  O48  1  0.49361700  0.29883900  0.18443300  1
  O  O49  1  0.29883900  0.99361700  0.43443300  1
  O  O50  1  0.06566800  0.81502900  0.04160600  1
  O  O51  1  0.93433200  0.31502900  0.20839400  1
  O  O52  1  0.93147300  0.22052100  0.85340300  1
  O  O53  1  0.20116100  0.50638300  0.93443300  1
  O  O54  1  0.00638300  0.29883900  0.56556700  1
  O  O55  1  0.56852700  0.22052100  0.89659700  1
  O  O56  1  0.99361700  0.70116100  0.56556700  1
  O  O57  1  0.00638300  0.20116100  0.68443300  1
  O  O58  1  0.43433200  0.68497100  0.54160600  1
  O  O59  1  0.56566800  0.18497100  0.70839400  1
  O  O60  1  0.72052100  0.56852700  0.64659700  1
  O  O61  1  0.27947900  0.06852700  0.60340300  1
  O  O62  1  0.18497100  0.06566800  0.95839400  1
  O  O63  1  0.31502900  0.06566800  0.79160600  1
  O  O64  1  0.43147300  0.77947900  0.89659700  1
  O  O65  1  0.70116100  0.49361700  0.81556700  1
  O  O66  1  0.81502900  0.93433200  0.95839400  1
  O  O67  1  0.68497100  0.93433200  0.79160600  1
  O  O68  1  0.27947900  0.43147300  0.64659700  1
  O  O69  1  0.72052100  0.93147300  0.60340300  1
  O  O70  1  0.29883900  0.50638300  0.81556700  1
  O  O71  1  0.06852700  0.77947900  0.85340300  1
  O  O72  1  0.99361700  0.79883900  0.68443300  1
  O  O73  1  0.79883900  0.49361700  0.93443300  1
  O  O74  1  0.56566800  0.31502900  0.54160600  1
  O  O75  1  0.43433200  0.81502900  0.70839400  1
