# generated using pymatgen
data_Li3Fe2(PO4)3
_symmetry_space_group_name_H-M   'P 1'
_cell_length_a   8.15069200
_cell_length_b   5.40523800
_cell_length_c   18.88889830
_cell_angle_alpha   90.00000000
_cell_angle_beta   90.29496286
_cell_angle_gamma   90.00000000
_symmetry_Int_Tables_number   1
_chemical_formula_structural   Li3Fe2(PO4)3
_chemical_formula_sum   'Li12 Fe8 P12 O48'
_cell_volume   832.16640076
_cell_formula_units_Z   4
loop_
 _symmetry_equiv_pos_site_id
 _symmetry_equiv_pos_as_xyz
  1  'x, y, z'
loop_
 _atom_site_type_symbol
 _atom_site_label
 _atom_site_symmetry_multiplicity
 _atom_site_fract_x
 _atom_site_fract_y
 _atom_site_fract_z
 _atom_site_occupancy
  Li  Li0  1  0.67306000  0.00000000  0.41376100  1
  Li  Li1  1  0.67253400  0.00000000  0.74671700  1
  Li  Li2  1  0.00037000  0.00000000  0.66596500  1
  Li  Li3  1  0.32694000  0.00000000  0.58623900  1
  Li  Li4  1  0.99963000  0.00000000  0.33403500  1
  Li  Li5  1  0.32746600  0.00000000  0.25328300  1
  Li  Li6  1  0.17306000  0.50000000  0.41376100  1
  Li  Li7  1  0.17253400  0.50000000  0.74671700  1
  Li  Li8  1  0.50037000  0.50000000  0.66596500  1
  Li  Li9  1  0.82694000  0.50000000  0.58623900  1
  Li  Li10  1  0.49963000  0.50000000  0.33403500  1
  Li  Li11  1  0.82746600  0.50000000  0.25328300  1
  Fe  Fe12  1  0.00093800  0.00000000  0.83187700  1
  Fe  Fe13  1  0.00000000  0.00000000  0.00000000  1
  Fe  Fe14  1  0.99906200  0.00000000  0.16812300  1
  Fe  Fe15  1  0.00000000  0.00000000  0.50000000  1
  Fe  Fe16  1  0.50093800  0.50000000  0.83187700  1
  Fe  Fe17  1  0.50000000  0.50000000  0.00000000  1
  Fe  Fe18  1  0.49906200  0.50000000  0.16812300  1
  Fe  Fe19  1  0.50000000  0.50000000  0.50000000  1
  P  P20  1  0.35131300  0.00000000  0.41825200  1
  P  P21  1  0.65144700  0.00000000  0.24836900  1
  P  P22  1  0.64868700  0.00000000  0.58174800  1
  P  P23  1  0.34855300  0.00000000  0.75163100  1
  P  P24  1  0.65174700  0.00000000  0.91655600  1
  P  P25  1  0.34825300  0.00000000  0.08344400  1
  P  P26  1  0.85131300  0.50000000  0.41825200  1
  P  P27  1  0.15144700  0.50000000  0.24836900  1
  P  P28  1  0.14868700  0.50000000  0.58174800  1
  P  P29  1  0.84855300  0.50000000  0.75163100  1
  P  P30  1  0.15174700  0.50000000  0.91655600  1
  P  P31  1  0.84825300  0.50000000  0.08344400  1
  O  O32  1  0.53118700  0.23143700  0.57743200  1
  O  O33  1  0.53253450  0.23079050  0.24318800  1
  O  O34  1  0.46881300  0.23143700  0.42256800  1
  O  O35  1  0.76629500  0.00000000  0.18396400  1
  O  O36  1  0.23370500  0.00000000  0.81603600  1
  O  O37  1  0.46746550  0.76920950  0.75681200  1
  O  O38  1  0.23638800  0.00000000  0.01824900  1
  O  O39  1  0.75995200  0.00000000  0.51496900  1
  O  O40  1  0.75448600  0.00000000  0.84788900  1
  O  O41  1  0.46881300  0.76856300  0.42256800  1
  O  O42  1  0.46746550  0.23079050  0.75681200  1
  O  O43  1  0.46221400  0.76220300  0.08258200  1
  O  O44  1  0.53778600  0.23779700  0.91741800  1
  O  O45  1  0.74845200  0.00000000  0.64936100  1
  O  O46  1  0.24551400  0.00000000  0.15211100  1
  O  O47  1  0.53778600  0.76220300  0.91741800  1
  O  O48  1  0.53253450  0.76920950  0.24318800  1
  O  O49  1  0.24004800  0.00000000  0.48503100  1
  O  O50  1  0.46221400  0.23779700  0.08258200  1
  O  O51  1  0.53118700  0.76856300  0.57743200  1
  O  O52  1  0.74608800  0.00000000  0.31745200  1
  O  O53  1  0.25154800  0.00000000  0.35063900  1
  O  O54  1  0.76361200  0.00000000  0.98175100  1
  O  O55  1  0.25391200  0.00000000  0.68254800  1
  O  O56  1  0.03118700  0.73143700  0.57743200  1
  O  O57  1  0.03253450  0.73079050  0.24318800  1
  O  O58  1  0.96881300  0.73143700  0.42256800  1
  O  O59  1  0.26629500  0.50000000  0.18396400  1
  O  O60  1  0.73370500  0.50000000  0.81603600  1
  O  O61  1  0.96746550  0.26920950  0.75681200  1
  O  O62  1  0.73638800  0.50000000  0.01824900  1
  O  O63  1  0.25995200  0.50000000  0.51496900  1
  O  O64  1  0.25448600  0.50000000  0.84788900  1
  O  O65  1  0.96881300  0.26856300  0.42256800  1
  O  O66  1  0.96746550  0.73079050  0.75681200  1
  O  O67  1  0.96221400  0.26220300  0.08258200  1
  O  O68  1  0.03778600  0.73779700  0.91741800  1
  O  O69  1  0.24845200  0.50000000  0.64936100  1
  O  O70  1  0.74551400  0.50000000  0.15211100  1
  O  O71  1  0.03778600  0.26220300  0.91741800  1
  O  O72  1  0.03253450  0.26920950  0.24318800  1
  O  O73  1  0.74004800  0.50000000  0.48503100  1
  O  O74  1  0.96221400  0.73779700  0.08258200  1
  O  O75  1  0.03118700  0.26856300  0.57743200  1
  O  O76  1  0.24608800  0.50000000  0.31745200  1
  O  O77  1  0.75154800  0.50000000  0.35063900  1
  O  O78  1  0.26361200  0.50000000  0.98175100  1
  O  O79  1  0.75391200  0.50000000  0.68254800  1
