# generated using pymatgen
data_Sr3Au2
_symmetry_space_group_name_H-M   'P 1'
_cell_length_a   9.76338988
_cell_length_b   9.76338988
_cell_length_c   18.59182312
_cell_angle_alpha   90.00000000
_cell_angle_beta   90.00000000
_cell_angle_gamma   120.00000000
_symmetry_Int_Tables_number   1
_chemical_formula_structural   Sr3Au2
_chemical_formula_sum   'Sr27 Au18'
_cell_volume   1534.80736703
_cell_formula_units_Z   9
loop_
 _symmetry_equiv_pos_site_id
 _symmetry_equiv_pos_as_xyz
  1  'x, y, z'
loop_
 _atom_site_type_symbol
 _atom_site_label
 _atom_site_symmetry_multiplicity
 _atom_site_fract_x
 _atom_site_fract_y
 _atom_site_fract_z
 _atom_site_occupancy
  Sr  Sr0  1  0.65344567  0.58197633  0.24009333  1
  Sr  Sr1  1  0.41802367  0.07146933  0.24009333  1
  Sr  Sr2  1  0.92853067  0.34655433  0.24009333  1
  Sr  Sr3  1  0.01322100  0.75135700  0.09324000  1
  Sr  Sr4  1  0.24864300  0.26186400  0.09324000  1
  Sr  Sr5  1  0.73813600  0.98677900  0.09324000  1
  Sr  Sr6  1  0.33333333  0.66666667  0.16666667  1
  Sr  Sr7  1  0.33333333  0.66666667  0.96470367  1
  Sr  Sr8  1  0.33333333  0.66666667  0.36862967  1
  Sr  Sr9  1  0.32011233  0.91530967  0.57342667  1
  Sr  Sr10  1  0.08469033  0.40480267  0.57342667  1
  Sr  Sr11  1  0.59519733  0.67988767  0.57342667  1
  Sr  Sr12  1  0.67988767  0.08469033  0.42657333  1
  Sr  Sr13  1  0.91530967  0.59519733  0.42657333  1
  Sr  Sr14  1  0.40480267  0.32011233  0.42657333  1
  Sr  Sr15  1  1.00000000  0.00000000  0.50000000  1
  Sr  Sr16  1  0.00000000  0.00000000  0.29803700  1
  Sr  Sr17  1  0.00000000  0.00000000  0.70196300  1
  Sr  Sr18  1  0.98677900  0.24864300  0.90676000  1
  Sr  Sr19  1  0.75135700  0.73813600  0.90676000  1
  Sr  Sr20  1  0.26186400  0.01322100  0.90676000  1
  Sr  Sr21  1  0.34655433  0.41802367  0.75990667  1
  Sr  Sr22  1  0.58197633  0.92853067  0.75990667  1
  Sr  Sr23  1  0.07146933  0.65344567  0.75990667  1
  Sr  Sr24  1  0.66666667  0.33333333  0.83333333  1
  Sr  Sr25  1  0.66666667  0.33333333  0.63137033  1
  Sr  Sr26  1  0.66666667  0.33333333  0.03529633  1
  Au  Au27  1  0.64197033  0.91968267  0.26602167  1
  Au  Au28  1  0.08031733  0.72228767  0.26602167  1
  Au  Au29  1  0.27771233  0.35802967  0.26602167  1
  Au  Au30  1  0.02469633  0.41365067  0.06731167  1
  Au  Au31  1  0.58634933  0.61104567  0.06731167  1
  Au  Au32  1  0.38895433  0.97530367  0.06731167  1
  Au  Au33  1  0.30863700  0.25301600  0.59935500  1
  Au  Au34  1  0.74698400  0.05562100  0.59935500  1
  Au  Au35  1  0.94437900  0.69136300  0.59935500  1
  Au  Au36  1  0.69136300  0.74698400  0.40064500  1
  Au  Au37  1  0.25301600  0.94437900  0.40064500  1
  Au  Au38  1  0.05562100  0.30863700  0.40064500  1
  Au  Au39  1  0.97530367  0.58634933  0.93268833  1
  Au  Au40  1  0.41365067  0.38895433  0.93268833  1
  Au  Au41  1  0.61104567  0.02469633  0.93268833  1
  Au  Au42  1  0.35802967  0.08031733  0.73397833  1
  Au  Au43  1  0.91968267  0.27771233  0.73397833  1
  Au  Au44  1  0.72228767  0.64197033  0.73397833  1
