# generated using pymatgen
data_Nd2Ni5B4
_symmetry_space_group_name_H-M   'P 1'
_cell_length_a   9.80343400
_cell_length_b   5.09494600
_cell_length_c   6.77831408
_cell_angle_alpha   90.00000000
_cell_angle_beta   125.77002357
_cell_angle_gamma   90.00000000
_symmetry_Int_Tables_number   1
_chemical_formula_structural   Nd2Ni5B4
_chemical_formula_sum   'Nd4 Ni10 B8'
_cell_volume   274.69978227
_cell_formula_units_Z   2
loop_
 _symmetry_equiv_pos_site_id
 _symmetry_equiv_pos_as_xyz
  1  'x, y, z'
loop_
 _atom_site_type_symbol
 _atom_site_label
 _atom_site_symmetry_multiplicity
 _atom_site_fract_x
 _atom_site_fract_y
 _atom_site_fract_z
 _atom_site_occupancy
  Nd  Nd0  1  0.27459500  0.00000000  0.35108300  1
  Nd  Nd1  1  0.72540500  0.00000000  0.64891700  1
  Nd  Nd2  1  0.77459500  0.50000000  0.35108300  1
  Nd  Nd3  1  0.22540500  0.50000000  0.64891700  1
  Ni  Ni4  1  0.42497900  0.24811400  0.12791500  1
  Ni  Ni5  1  0.57502100  0.75188600  0.87208500  1
  Ni  Ni6  1  0.50000000  0.50000000  0.50000000  1
  Ni  Ni7  1  0.42497900  0.75188600  0.12791500  1
  Ni  Ni8  1  0.57502100  0.24811400  0.87208500  1
  Ni  Ni9  1  0.92497900  0.74811400  0.12791500  1
  Ni  Ni10  1  0.07502100  0.25188600  0.87208500  1
  Ni  Ni11  1  0.00000000  0.00000000  0.50000000  1
  Ni  Ni12  1  0.92497900  0.25188600  0.12791500  1
  Ni  Ni13  1  0.07502100  0.74811400  0.87208500  1
  B  B14  1  0.90076600  0.50000000  0.85974100  1
  B  B15  1  0.09923400  0.50000000  0.14025900  1
  B  B16  1  0.27815800  0.50000000  0.15956100  1
  B  B17  1  0.72184200  0.50000000  0.84043900  1
  B  B18  1  0.40076600  0.00000000  0.85974100  1
  B  B19  1  0.59923400  0.00000000  0.14025900  1
  B  B20  1  0.77815800  0.00000000  0.15956100  1
  B  B21  1  0.22184200  0.00000000  0.84043900  1
