# generated using pymatgen
data_Nb6Si7Ni16
_symmetry_space_group_name_H-M   'P 1'
_cell_length_a   11.25888800
_cell_length_b   11.25888800
_cell_length_c   11.25888800
_cell_angle_alpha   90.00000000
_cell_angle_beta   90.00000000
_cell_angle_gamma   90.00000000
_symmetry_Int_Tables_number   1
_chemical_formula_structural   Nb6Si7Ni16
_chemical_formula_sum   'Nb24 Si28 Ni64'
_cell_volume   1427.20545434
_cell_formula_units_Z   4
loop_
 _symmetry_equiv_pos_site_id
 _symmetry_equiv_pos_as_xyz
  1  'x, y, z'
loop_
 _atom_site_type_symbol
 _atom_site_label
 _atom_site_symmetry_multiplicity
 _atom_site_fract_x
 _atom_site_fract_y
 _atom_site_fract_z
 _atom_site_occupancy
  Nb  Nb0  1  0.00000000  0.00000000  0.79681900  1
  Nb  Nb1  1  0.50000000  0.29681900  0.00000000  1
  Nb  Nb2  1  0.50000000  0.70318100  0.00000000  1
  Nb  Nb3  1  0.20318100  0.00000000  0.00000000  1
  Nb  Nb4  1  0.79681900  0.00000000  0.00000000  1
  Nb  Nb5  1  0.50000000  0.00000000  0.70318100  1
  Nb  Nb6  1  0.00000000  0.50000000  0.29681900  1
  Nb  Nb7  1  0.50000000  0.79681900  0.50000000  1
  Nb  Nb8  1  0.50000000  0.20318100  0.50000000  1
  Nb  Nb9  1  0.20318100  0.50000000  0.50000000  1
  Nb  Nb10  1  0.79681900  0.50000000  0.50000000  1
  Nb  Nb11  1  0.50000000  0.50000000  0.20318100  1
  Nb  Nb12  1  0.50000000  0.00000000  0.29681900  1
  Nb  Nb13  1  0.00000000  0.29681900  0.50000000  1
  Nb  Nb14  1  0.00000000  0.70318100  0.50000000  1
  Nb  Nb15  1  0.70318100  0.00000000  0.50000000  1
  Nb  Nb16  1  0.29681900  0.00000000  0.50000000  1
  Nb  Nb17  1  0.00000000  0.00000000  0.20318100  1
  Nb  Nb18  1  0.50000000  0.50000000  0.79681900  1
  Nb  Nb19  1  0.00000000  0.79681900  0.00000000  1
  Nb  Nb20  1  0.00000000  0.20318100  0.00000000  1
  Nb  Nb21  1  0.70318100  0.50000000  0.00000000  1
  Nb  Nb22  1  0.29681900  0.50000000  0.00000000  1
  Nb  Nb23  1  0.00000000  0.50000000  0.70318100  1
  Si  Si24  1  0.50000000  0.00000000  0.00000000  1
  Si  Si25  1  0.25000000  0.00000000  0.75000000  1
  Si  Si26  1  0.75000000  0.00000000  0.75000000  1
  Si  Si27  1  0.25000000  0.25000000  0.00000000  1
  Si  Si28  1  0.00000000  0.75000000  0.75000000  1
  Si  Si29  1  0.00000000  0.25000000  0.75000000  1
  Si  Si30  1  0.25000000  0.75000000  0.00000000  1
  Si  Si31  1  0.50000000  0.50000000  0.50000000  1
  Si  Si32  1  0.25000000  0.50000000  0.25000000  1
  Si  Si33  1  0.75000000  0.50000000  0.25000000  1
  Si  Si34  1  0.25000000  0.75000000  0.50000000  1
  Si  Si35  1  0.00000000  0.25000000  0.25000000  1
  Si  Si36  1  0.00000000  0.75000000  0.25000000  1
  Si  Si37  1  0.25000000  0.25000000  0.50000000  1
  Si  Si38  1  0.00000000  0.00000000  0.50000000  1
  Si  Si39  1  0.75000000  0.00000000  0.25000000  1
  Si  Si40  1  0.25000000  0.00000000  0.25000000  1
  Si  Si41  1  0.75000000  0.25000000  0.50000000  1
  Si  Si42  1  0.50000000  0.75000000  0.25000000  1
  Si  Si43  1  0.50000000  0.25000000  0.25000000  1
  Si  Si44  1  0.75000000  0.75000000  0.50000000  1
  Si  Si45  1  0.00000000  0.50000000  0.00000000  1
  Si  Si46  1  0.75000000  0.50000000  0.75000000  1
  Si  Si47  1  0.25000000  0.50000000  0.75000000  1
  Si  Si48  1  0.75000000  0.75000000  0.00000000  1
  Si  Si49  1  0.50000000  0.25000000  0.75000000  1
  Si  Si50  1  0.50000000  0.75000000  0.75000000  1
  Si  Si51  1  0.75000000  0.25000000  0.00000000  1
  Ni  Ni52  1  0.33173933  0.83173933  0.66826067  1
  Ni  Ni53  1  0.16826067  0.83173933  0.83173933  1
  Ni  Ni54  1  0.16826067  0.66826067  0.66826067  1
  Ni  Ni55  1  0.33173933  0.16826067  0.66826067  1
  Ni  Ni56  1  0.33173933  0.33173933  0.83173933  1
  Ni  Ni57  1  0.16826067  0.16826067  0.83173933  1
  Ni  Ni58  1  0.33173933  0.66826067  0.83173933  1
  Ni  Ni59  1  0.38338800  0.11661200  0.88338800  1
  Ni  Ni60  1  0.61661200  0.11661200  0.88338800  1
  Ni  Ni61  1  0.88338800  0.11661200  0.61661200  1
  Ni  Ni62  1  0.38338800  0.88338800  0.88338800  1
  Ni  Ni63  1  0.61661200  0.88338800  0.88338800  1
  Ni  Ni64  1  0.11661200  0.11661200  0.61661200  1
  Ni  Ni65  1  0.88338800  0.88338800  0.61661200  1
  Ni  Ni66  1  0.11661200  0.88338800  0.61661200  1
  Ni  Ni67  1  0.16826067  0.33173933  0.66826067  1
  Ni  Ni68  1  0.33173933  0.33173933  0.16826067  1
  Ni  Ni69  1  0.16826067  0.33173933  0.33173933  1
  Ni  Ni70  1  0.16826067  0.16826067  0.16826067  1
  Ni  Ni71  1  0.33173933  0.66826067  0.16826067  1
  Ni  Ni72  1  0.33173933  0.83173933  0.33173933  1
  Ni  Ni73  1  0.16826067  0.66826067  0.33173933  1
  Ni  Ni74  1  0.33173933  0.16826067  0.33173933  1
  Ni  Ni75  1  0.38338800  0.61661200  0.38338800  1
  Ni  Ni76  1  0.61661200  0.61661200  0.38338800  1
  Ni  Ni77  1  0.88338800  0.61661200  0.11661200  1
  Ni  Ni78  1  0.38338800  0.38338800  0.38338800  1
  Ni  Ni79  1  0.61661200  0.38338800  0.38338800  1
  Ni  Ni80  1  0.11661200  0.61661200  0.11661200  1
  Ni  Ni81  1  0.88338800  0.38338800  0.11661200  1
  Ni  Ni82  1  0.11661200  0.38338800  0.11661200  1
  Ni  Ni83  1  0.16826067  0.83173933  0.16826067  1
  Ni  Ni84  1  0.83173933  0.83173933  0.16826067  1
  Ni  Ni85  1  0.66826067  0.83173933  0.33173933  1
  Ni  Ni86  1  0.66826067  0.66826067  0.16826067  1
  Ni  Ni87  1  0.83173933  0.16826067  0.16826067  1
  Ni  Ni88  1  0.83173933  0.33173933  0.33173933  1
  Ni  Ni89  1  0.66826067  0.16826067  0.33173933  1
  Ni  Ni90  1  0.83173933  0.66826067  0.33173933  1
  Ni  Ni91  1  0.88338800  0.11661200  0.38338800  1
  Ni  Ni92  1  0.11661200  0.11661200  0.38338800  1
  Ni  Ni93  1  0.38338800  0.11661200  0.11661200  1
  Ni  Ni94  1  0.88338800  0.88338800  0.38338800  1
  Ni  Ni95  1  0.11661200  0.88338800  0.38338800  1
  Ni  Ni96  1  0.61661200  0.11661200  0.11661200  1
  Ni  Ni97  1  0.38338800  0.88338800  0.11661200  1
  Ni  Ni98  1  0.61661200  0.88338800  0.11661200  1
  Ni  Ni99  1  0.66826067  0.33173933  0.16826067  1
  Ni  Ni100  1  0.83173933  0.33173933  0.66826067  1
  Ni  Ni101  1  0.66826067  0.33173933  0.83173933  1
  Ni  Ni102  1  0.66826067  0.16826067  0.66826067  1
  Ni  Ni103  1  0.83173933  0.66826067  0.66826067  1
  Ni  Ni104  1  0.83173933  0.83173933  0.83173933  1
  Ni  Ni105  1  0.66826067  0.66826067  0.83173933  1
  Ni  Ni106  1  0.83173933  0.16826067  0.83173933  1
  Ni  Ni107  1  0.88338800  0.61661200  0.88338800  1
  Ni  Ni108  1  0.11661200  0.61661200  0.88338800  1
  Ni  Ni109  1  0.38338800  0.61661200  0.61661200  1
  Ni  Ni110  1  0.88338800  0.38338800  0.88338800  1
  Ni  Ni111  1  0.11661200  0.38338800  0.88338800  1
  Ni  Ni112  1  0.61661200  0.61661200  0.61661200  1
  Ni  Ni113  1  0.38338800  0.38338800  0.61661200  1
  Ni  Ni114  1  0.61661200  0.38338800  0.61661200  1
  Ni  Ni115  1  0.66826067  0.83173933  0.66826067  1
