# generated using pymatgen
data_Nd2Zn17
_symmetry_space_group_name_H-M   'P 1'
_cell_length_a   9.05767835
_cell_length_b   9.05767835
_cell_length_c   13.31093925
_cell_angle_alpha   90.00000000
_cell_angle_beta   90.00000000
_cell_angle_gamma   120.00000000
_symmetry_Int_Tables_number   1
_chemical_formula_structural   Nd2Zn17
_chemical_formula_sum   'Nd6 Zn51'
_cell_volume   945.74296861
_cell_formula_units_Z   3
loop_
 _symmetry_equiv_pos_site_id
 _symmetry_equiv_pos_as_xyz
  1  'x, y, z'
loop_
 _atom_site_type_symbol
 _atom_site_label
 _atom_site_symmetry_multiplicity
 _atom_site_fract_x
 _atom_site_fract_y
 _atom_site_fract_z
 _atom_site_occupancy
  Nd  Nd0  1  0.33333333  0.66666667  0.33103567  1
  Nd  Nd1  1  0.33333333  0.66666667  0.00229767  1
  Nd  Nd2  1  0.00000000  0.00000000  0.66436900  1
  Nd  Nd3  1  0.00000000  0.00000000  0.33563100  1
  Nd  Nd4  1  0.66666667  0.33333333  0.99770233  1
  Nd  Nd5  1  0.66666667  0.33333333  0.66896433  1
  Zn  Zn6  1  0.17040367  0.82959633  0.17965633  1
  Zn  Zn7  1  0.17040367  0.34080733  0.17965633  1
  Zn  Zn8  1  0.33333333  0.66666667  0.76546067  1
  Zn  Zn9  1  0.33333333  0.66666667  0.56787267  1
  Zn  Zn10  1  0.16666667  0.83333333  0.83333333  1
  Zn  Zn11  1  0.33333333  0.16666667  0.16666667  1
  Zn  Zn12  1  0.83333333  0.66666667  0.16666667  1
  Zn  Zn13  1  0.37346267  0.04012933  0.33333333  1
  Zn  Zn14  1  0.00000000  0.29320400  0.00000000  1
  Zn  Zn15  1  0.29320400  0.00000000  0.00000000  1
  Zn  Zn16  1  0.95987067  0.62653733  0.33333333  1
  Zn  Zn17  1  0.00000000  0.70679600  0.00000000  1
  Zn  Zn18  1  0.70679600  0.00000000  0.00000000  1
  Zn  Zn19  1  0.49626300  0.99252600  0.15367700  1
  Zn  Zn20  1  0.49626300  0.50373700  0.15367700  1
  Zn  Zn21  1  0.00747400  0.50373700  0.15367700  1
  Zn  Zn22  1  0.65919267  0.82959633  0.17965633  1
  Zn  Zn23  1  0.83707033  0.16292967  0.51298967  1
  Zn  Zn24  1  0.83707033  0.67414067  0.51298967  1
  Zn  Zn25  1  0.00000000  0.00000000  0.09879400  1
  Zn  Zn26  1  0.00000000  0.00000000  0.90120600  1
  Zn  Zn27  1  0.83333333  0.16666667  0.16666667  1
  Zn  Zn28  1  0.00000000  0.50000000  0.50000000  1
  Zn  Zn29  1  0.50000000  0.00000000  0.50000000  1
  Zn  Zn30  1  0.04012933  0.37346267  0.66666667  1
  Zn  Zn31  1  0.66666667  0.62653733  0.33333333  1
  Zn  Zn32  1  0.95987067  0.33333333  0.33333333  1
  Zn  Zn33  1  0.62653733  0.95987067  0.66666667  1
  Zn  Zn34  1  0.66666667  0.04012933  0.33333333  1
  Zn  Zn35  1  0.37346267  0.33333333  0.33333333  1
  Zn  Zn36  1  0.16292967  0.32585933  0.48701033  1
  Zn  Zn37  1  0.16292967  0.83707033  0.48701033  1
  Zn  Zn38  1  0.67414067  0.83707033  0.48701033  1
  Zn  Zn39  1  0.32585933  0.16292967  0.51298967  1
  Zn  Zn40  1  0.50373700  0.49626300  0.84632300  1
  Zn  Zn41  1  0.50373700  0.00747400  0.84632300  1
  Zn  Zn42  1  0.66666667  0.33333333  0.43212733  1
  Zn  Zn43  1  0.66666667  0.33333333  0.23453933  1
  Zn  Zn44  1  0.50000000  0.50000000  0.50000000  1
  Zn  Zn45  1  0.66666667  0.83333333  0.83333333  1
  Zn  Zn46  1  0.16666667  0.33333333  0.83333333  1
  Zn  Zn47  1  0.70679600  0.70679600  0.00000000  1
  Zn  Zn48  1  0.33333333  0.95987067  0.66666667  1
  Zn  Zn49  1  0.62653733  0.66666667  0.66666667  1
  Zn  Zn50  1  0.29320400  0.29320400  0.00000000  1
  Zn  Zn51  1  0.33333333  0.37346267  0.66666667  1
  Zn  Zn52  1  0.04012933  0.66666667  0.66666667  1
  Zn  Zn53  1  0.82959633  0.65919267  0.82034367  1
  Zn  Zn54  1  0.82959633  0.17040367  0.82034367  1
  Zn  Zn55  1  0.34080733  0.17040367  0.82034367  1
  Zn  Zn56  1  0.99252600  0.49626300  0.84632300  1
