# generated using pymatgen
data_LiCr2(PO4)3
_symmetry_space_group_name_H-M   'P 1'
_cell_length_a   7.97965800
_cell_length_b   5.23779600
_cell_length_c   19.13264576
_cell_angle_alpha   90.00000000
_cell_angle_beta   90.84724730
_cell_angle_gamma   90.00000000
_symmetry_Int_Tables_number   1
_chemical_formula_structural   LiCr2(PO4)3
_chemical_formula_sum   'Li4 Cr8 P12 O48'
_cell_volume   799.57720590
_cell_formula_units_Z   4
loop_
 _symmetry_equiv_pos_site_id
 _symmetry_equiv_pos_as_xyz
  1  'x, y, z'
loop_
 _atom_site_type_symbol
 _atom_site_label
 _atom_site_symmetry_multiplicity
 _atom_site_fract_x
 _atom_site_fract_y
 _atom_site_fract_z
 _atom_site_occupancy
  Li  Li0  1  0.00019700  0.00000000  0.16542700  1
  Li  Li1  1  0.99980300  0.00000000  0.83457300  1
  Li  Li2  1  0.50019700  0.50000000  0.16542700  1
  Li  Li3  1  0.49980300  0.50000000  0.83457300  1
  Cr  Cr4  1  0.99524700  0.00000000  0.33327100  1
  Cr  Cr5  1  0.00000000  0.00000000  0.50000000  1
  Cr  Cr6  1  0.00475300  0.00000000  0.66672900  1
  Cr  Cr7  1  0.00000000  0.00000000  0.00000000  1
  Cr  Cr8  1  0.49524700  0.50000000  0.33327100  1
  Cr  Cr9  1  0.50000000  0.50000000  0.50000000  1
  Cr  Cr10  1  0.50475300  0.50000000  0.66672900  1
  Cr  Cr11  1  0.50000000  0.50000000  0.00000000  1
  P  P12  1  0.64986900  0.00000000  0.74477700  1
  P  P13  1  0.64669300  0.00000000  0.07943800  1
  P  P14  1  0.34910000  0.00000000  0.58257200  1
  P  P15  1  0.65090000  0.00000000  0.41742800  1
  P  P16  1  0.35330700  0.00000000  0.92056200  1
  P  P17  1  0.35013100  0.00000000  0.25522300  1
  P  P18  1  0.14986900  0.50000000  0.74477700  1
  P  P19  1  0.14669300  0.50000000  0.07943800  1
  P  P20  1  0.84910000  0.50000000  0.58257200  1
  P  P21  1  0.15090000  0.50000000  0.41742800  1
  P  P22  1  0.85330700  0.50000000  0.92056200  1
  P  P23  1  0.85013100  0.50000000  0.25522300  1
  O  O24  1  0.75588200  0.00000000  0.48458600  1
  O  O25  1  0.53354450  0.75550250  0.41716000  1
  O  O26  1  0.24411800  0.00000000  0.51541400  1
  O  O27  1  0.46566550  0.24136050  0.92613200  1
  O  O28  1  0.53654050  0.75954850  0.73955700  1
  O  O29  1  0.46566550  0.75863950  0.92613200  1
  O  O30  1  0.74021200  0.00000000  0.14998300  1
  O  O31  1  0.75357300  0.00000000  0.35066100  1
  O  O32  1  0.46345950  0.75954850  0.26044300  1
  O  O33  1  0.76677500  0.00000000  0.68043200  1
  O  O34  1  0.53354450  0.24449750  0.41716000  1
  O  O35  1  0.74196200  0.00000000  0.81593600  1
  O  O36  1  0.25803800  0.00000000  0.18406400  1
  O  O37  1  0.23322500  0.00000000  0.31956800  1
  O  O38  1  0.24642700  0.00000000  0.64933900  1
  O  O39  1  0.23358900  0.00000000  0.98450700  1
  O  O40  1  0.53433450  0.75863950  0.07386800  1
  O  O41  1  0.46645550  0.24449750  0.58284000  1
  O  O42  1  0.53433450  0.24136050  0.07386800  1
  O  O43  1  0.46645550  0.75550250  0.58284000  1
  O  O44  1  0.46345950  0.24045150  0.26044300  1
  O  O45  1  0.76641100  0.00000000  0.01549300  1
  O  O46  1  0.25978800  0.00000000  0.85001700  1
  O  O47  1  0.53654050  0.24045150  0.73955700  1
  O  O48  1  0.25588200  0.50000000  0.48458600  1
  O  O49  1  0.03354450  0.25550250  0.41716000  1
  O  O50  1  0.74411800  0.50000000  0.51541400  1
  O  O51  1  0.96566550  0.74136050  0.92613200  1
  O  O52  1  0.03654050  0.25954850  0.73955700  1
  O  O53  1  0.96566550  0.25863950  0.92613200  1
  O  O54  1  0.24021200  0.50000000  0.14998300  1
  O  O55  1  0.25357300  0.50000000  0.35066100  1
  O  O56  1  0.96345950  0.25954850  0.26044300  1
  O  O57  1  0.26677500  0.50000000  0.68043200  1
  O  O58  1  0.03354450  0.74449750  0.41716000  1
  O  O59  1  0.24196200  0.50000000  0.81593600  1
  O  O60  1  0.75803800  0.50000000  0.18406400  1
  O  O61  1  0.73322500  0.50000000  0.31956800  1
  O  O62  1  0.74642700  0.50000000  0.64933900  1
  O  O63  1  0.73358900  0.50000000  0.98450700  1
  O  O64  1  0.03433450  0.25863950  0.07386800  1
  O  O65  1  0.96645550  0.74449750  0.58284000  1
  O  O66  1  0.03433450  0.74136050  0.07386800  1
  O  O67  1  0.96645550  0.25550250  0.58284000  1
  O  O68  1  0.96345950  0.74045150  0.26044300  1
  O  O69  1  0.26641100  0.50000000  0.01549300  1
  O  O70  1  0.75978800  0.50000000  0.85001700  1
  O  O71  1  0.03654050  0.74045150  0.73955700  1
