# generated using pymatgen
data_Li3Mo(PO4)2
_symmetry_space_group_name_H-M   'P 1'
_cell_length_a   5.04573300
_cell_length_b   18.30686700
_cell_length_c   7.92842281
_cell_angle_alpha   90.00000000
_cell_angle_beta   126.95529477
_cell_angle_gamma   90.00000000
_symmetry_Int_Tables_number   1
_chemical_formula_structural   Li3Mo(PO4)2
_chemical_formula_sum   'Li12 Mo4 P8 O32'
_cell_volume   585.23306145
_cell_formula_units_Z   4
loop_
 _symmetry_equiv_pos_site_id
 _symmetry_equiv_pos_as_xyz
  1  'x, y, z'
loop_
 _atom_site_type_symbol
 _atom_site_label
 _atom_site_symmetry_multiplicity
 _atom_site_fract_x
 _atom_site_fract_y
 _atom_site_fract_z
 _atom_site_occupancy
  Li  Li0  1  0.62756200  0.29943900  0.81392400  1
  Li  Li1  1  0.27860000  0.11624500  0.49934300  1
  Li  Li2  1  0.72140000  0.61624500  0.00065700  1
  Li  Li3  1  0.00325400  0.44425600  0.21386700  1
  Li  Li4  1  0.99674600  0.94425600  0.28613300  1
  Li  Li5  1  0.37243800  0.79943900  0.68607600  1
  Li  Li6  1  0.62756200  0.20056100  0.31392400  1
  Li  Li7  1  0.00325400  0.05574400  0.71386700  1
  Li  Li8  1  0.99674600  0.55574400  0.78613300  1
  Li  Li9  1  0.27860000  0.38375500  0.99934300  1
  Li  Li10  1  0.72140000  0.88375500  0.50065700  1
  Li  Li11  1  0.37243800  0.70056100  0.18607600  1
  Mo  Mo12  1  0.82197600  0.12664900  0.01704900  1
  Mo  Mo13  1  0.17802400  0.62664900  0.48295100  1
  Mo  Mo14  1  0.82197600  0.37335100  0.51704900  1
  Mo  Mo15  1  0.17802400  0.87335100  0.98295100  1
  P  P16  1  0.88029200  0.71533800  0.70729100  1
  P  P17  1  0.48492500  0.53552000  0.26679800  1
  P  P18  1  0.51507500  0.03552000  0.23320200  1
  P  P19  1  0.11970800  0.21533800  0.79270900  1
  P  P20  1  0.11970800  0.28466200  0.29270900  1
  P  P21  1  0.51507500  0.46448000  0.73320200  1
  P  P22  1  0.48492500  0.96448000  0.76679800  1
  P  P23  1  0.88029200  0.78466200  0.20729100  1
  O  O24  1  0.83897300  0.20162600  0.81805100  1
  O  O25  1  0.54012700  0.69165900  0.50063500  1
  O  O26  1  0.95446800  0.67326400  0.89726100  1
  O  O27  1  0.82136000  0.44140700  0.73769900  1
  O  O28  1  0.16102700  0.79837400  0.18194900  1
  O  O29  1  0.45987300  0.30834100  0.49936500  1
  O  O30  1  0.04553200  0.32673600  0.10273900  1
  O  O31  1  0.17864000  0.55859300  0.26230100  1
  O  O32  1  0.43742500  0.93485300  0.57147700  1
  O  O33  1  0.15783300  0.20010100  0.27190300  1
  O  O34  1  0.81292400  0.93617600  0.97241500  1
  O  O35  1  0.52136700  0.55065700  0.73213000  1
  O  O36  1  0.47863300  0.05065700  0.76787000  1
  O  O37  1  0.18707600  0.43617600  0.52758500  1
  O  O38  1  0.56257500  0.43485300  0.92852300  1
  O  O39  1  0.84216700  0.70010100  0.22809700  1
  O  O40  1  0.82136000  0.05859300  0.23769900  1
  O  O41  1  0.95446800  0.82673600  0.39726100  1
  O  O42  1  0.54012700  0.80834100  0.00063500  1
  O  O43  1  0.83897300  0.29837400  0.31805100  1
  O  O44  1  0.16102700  0.70162600  0.68194900  1
  O  O45  1  0.45987300  0.19165900  0.99936500  1
  O  O46  1  0.04553200  0.17326400  0.60273900  1
  O  O47  1  0.17864000  0.94140700  0.76230100  1
  O  O48  1  0.15783300  0.29989900  0.77190300  1
  O  O49  1  0.43742500  0.56514700  0.07147700  1
  O  O50  1  0.81292400  0.56382400  0.47241500  1
  O  O51  1  0.52136700  0.94934300  0.23213000  1
  O  O52  1  0.47863300  0.44934300  0.26787000  1
  O  O53  1  0.18707600  0.06382400  0.02758500  1
  O  O54  1  0.84216700  0.79989900  0.72809700  1
  O  O55  1  0.56257500  0.06514700  0.42852300  1
