# generated using pymatgen
data_Hf2Si4Ru3
_symmetry_space_group_name_H-M   'P 1'
_cell_length_a   19.00645400
_cell_length_b   5.35755800
_cell_length_c   13.31602978
_cell_angle_alpha   90.00000000
_cell_angle_beta   127.58177011
_cell_angle_gamma   90.00000000
_symmetry_Int_Tables_number   1
_chemical_formula_structural   Hf2Si4Ru3
_chemical_formula_sum   'Hf16 Si32 Ru24'
_cell_volume   1074.56599934
_cell_formula_units_Z   8
loop_
 _symmetry_equiv_pos_site_id
 _symmetry_equiv_pos_as_xyz
  1  'x, y, z'
loop_
 _atom_site_type_symbol
 _atom_site_label
 _atom_site_symmetry_multiplicity
 _atom_site_fract_x
 _atom_site_fract_y
 _atom_site_fract_z
 _atom_site_occupancy
  Hf  Hf0  1  0.07347500  0.62853600  0.64822300  1
  Hf  Hf1  1  0.92652500  0.62853600  0.85177700  1
  Hf  Hf2  1  0.92652500  0.37146400  0.35177700  1
  Hf  Hf3  1  0.07347500  0.37146400  0.14822300  1
  Hf  Hf4  1  0.83410100  0.12819900  0.63784800  1
  Hf  Hf5  1  0.16589900  0.12819900  0.86215200  1
  Hf  Hf6  1  0.16589900  0.87180100  0.36215200  1
  Hf  Hf7  1  0.83410100  0.87180100  0.13784800  1
  Hf  Hf8  1  0.57347500  0.12853600  0.64822300  1
  Hf  Hf9  1  0.42652500  0.12853600  0.85177700  1
  Hf  Hf10  1  0.42652500  0.87146400  0.35177700  1
  Hf  Hf11  1  0.57347500  0.87146400  0.14822300  1
  Hf  Hf12  1  0.33410100  0.62819900  0.63784800  1
  Hf  Hf13  1  0.66589900  0.62819900  0.86215200  1
  Hf  Hf14  1  0.66589900  0.37180100  0.36215200  1
  Hf  Hf15  1  0.33410100  0.37180100  0.13784800  1
  Si  Si16  1  0.00000000  0.12730100  0.25000000  1
  Si  Si17  1  0.00000000  0.87269900  0.75000000  1
  Si  Si18  1  0.00000000  0.61858900  0.25000000  1
  Si  Si19  1  0.00000000  0.38141100  0.75000000  1
  Si  Si20  1  0.38680500  0.64219700  0.89426800  1
  Si  Si21  1  0.11319500  0.14219700  0.60573200  1
  Si  Si22  1  0.61319500  0.35780300  0.10573200  1
  Si  Si23  1  0.88680500  0.85780300  0.39426800  1
  Si  Si24  1  0.67081450  0.75683050  0.06440800  1
  Si  Si25  1  0.82918550  0.25683050  0.43559200  1
  Si  Si26  1  0.32918550  0.24316950  0.93559200  1
  Si  Si27  1  0.17081450  0.74316950  0.56440800  1
  Si  Si28  1  0.73452000  0.87713800  0.39549900  1
  Si  Si29  1  0.76548000  0.37713800  0.10450100  1
  Si  Si30  1  0.26548000  0.12286200  0.60450100  1
  Si  Si31  1  0.23452000  0.62286200  0.89549900  1
  Si  Si32  1  0.50000000  0.62730100  0.25000000  1
  Si  Si33  1  0.50000000  0.37269900  0.75000000  1
  Si  Si34  1  0.50000000  0.11858900  0.25000000  1
  Si  Si35  1  0.50000000  0.88141100  0.75000000  1
  Si  Si36  1  0.88680500  0.14219700  0.89426800  1
  Si  Si37  1  0.61319500  0.64219700  0.60573200  1
  Si  Si38  1  0.11319500  0.85780300  0.10573200  1
  Si  Si39  1  0.38680500  0.35780300  0.39426800  1
  Si  Si40  1  0.17081450  0.25683050  0.06440800  1
  Si  Si41  1  0.32918550  0.75683050  0.43559200  1
  Si  Si42  1  0.82918550  0.74316950  0.93559200  1
  Si  Si43  1  0.67081450  0.24316950  0.56440800  1
  Si  Si44  1  0.23452000  0.37713800  0.39549900  1
  Si  Si45  1  0.26548000  0.87713800  0.10450100  1
  Si  Si46  1  0.76548000  0.62286200  0.60450100  1
  Si  Si47  1  0.73452000  0.12286200  0.89549900  1
  Ru  Ru48  1  0.76198650  0.58764150  0.28030600  1
  Ru  Ru49  1  0.73801350  0.08764150  0.21969400  1
  Ru  Ru50  1  0.87734450  0.35605350  0.06740500  1
  Ru  Ru51  1  0.26198650  0.91235850  0.78030600  1
  Ru  Ru52  1  0.97879600  0.11296500  0.58428600  1
  Ru  Ru53  1  0.02120400  0.11296500  0.91571400  1
  Ru  Ru54  1  0.02120400  0.88703500  0.41571400  1
  Ru  Ru55  1  0.97879600  0.88703500  0.08428600  1
  Ru  Ru56  1  0.12265550  0.64394650  0.93259500  1
  Ru  Ru57  1  0.87734450  0.64394650  0.56740500  1
  Ru  Ru58  1  0.12265550  0.35605350  0.43259500  1
  Ru  Ru59  1  0.23801350  0.41235850  0.71969400  1
  Ru  Ru60  1  0.26198650  0.08764150  0.28030600  1
  Ru  Ru61  1  0.23801350  0.58764150  0.21969400  1
  Ru  Ru62  1  0.37734450  0.85605350  0.06740500  1
  Ru  Ru63  1  0.76198650  0.41235850  0.78030600  1
  Ru  Ru64  1  0.47879600  0.61296500  0.58428600  1
  Ru  Ru65  1  0.52120400  0.61296500  0.91571400  1
  Ru  Ru66  1  0.52120400  0.38703500  0.41571400  1
  Ru  Ru67  1  0.47879600  0.38703500  0.08428600  1
  Ru  Ru68  1  0.62265550  0.14394650  0.93259500  1
  Ru  Ru69  1  0.37734450  0.14394650  0.56740500  1
  Ru  Ru70  1  0.62265550  0.85605350  0.43259500  1
  Ru  Ru71  1  0.73801350  0.91235850  0.71969400  1
