# generated using pymatgen
data_Li3Cr3(PO4)4
_symmetry_space_group_name_H-M   'P 1'
_cell_length_a   7.57061500
_cell_length_b   7.95772600
_cell_length_c   10.12537269
_cell_angle_alpha   90.00000000
_cell_angle_beta   93.72878555
_cell_angle_gamma   90.00000000
_symmetry_Int_Tables_number   1
_chemical_formula_structural   Li3Cr3(PO4)4
_chemical_formula_sum   'Li6 Cr6 P8 O32'
_cell_volume   608.71053053
_cell_formula_units_Z   2
loop_
 _symmetry_equiv_pos_site_id
 _symmetry_equiv_pos_as_xyz
  1  'x, y, z'
loop_
 _atom_site_type_symbol
 _atom_site_label
 _atom_site_symmetry_multiplicity
 _atom_site_fract_x
 _atom_site_fract_y
 _atom_site_fract_z
 _atom_site_occupancy
  Li  Li0  1  0.14519400  0.64006800  0.07638400  1
  Li  Li1  1  0.33958000  0.36742900  0.67197300  1
  Li  Li2  1  0.66042000  0.86742900  0.32802700  1
  Li  Li3  1  0.84889200  0.13630300  0.42415500  1
  Li  Li4  1  0.85480600  0.14006800  0.92361600  1
  Li  Li5  1  0.15110800  0.63630300  0.57584500  1
  Cr  Cr6  1  0.35747600  0.35686400  0.17908400  1
  Cr  Cr7  1  0.64252400  0.85686400  0.82091600  1
  Cr  Cr8  1  0.75706900  0.48966100  0.87429800  1
  Cr  Cr9  1  0.76671700  0.50635600  0.37608700  1
  Cr  Cr10  1  0.23328300  0.00635600  0.62391300  1
  Cr  Cr11  1  0.24293100  0.98966100  0.12570200  1
  P  P12  1  0.04843700  0.79991600  0.85630000  1
  P  P13  1  0.95156300  0.29991600  0.14370000  1
  P  P14  1  0.94738600  0.31206000  0.64278100  1
  P  P15  1  0.55600900  0.69748300  0.10954700  1
  P  P16  1  0.55130700  0.68759400  0.60013800  1
  P  P17  1  0.44399100  0.19748300  0.89045300  1
  P  P18  1  0.05261400  0.81206000  0.35721900  1
  P  P19  1  0.44869300  0.18759400  0.39986200  1
  O  O20  1  0.85221400  0.30225700  0.77607200  1
  O  O21  1  0.35774600  0.19881700  0.02947600  1
  O  O22  1  0.39936600  0.56892900  0.59234300  1
  O  O23  1  0.34927100  0.19786600  0.52649800  1
  O  O24  1  0.30755900  0.14871500  0.27805400  1
  O  O25  1  0.30006700  0.14467000  0.78520100  1
  O  O26  1  0.18937500  0.85701600  0.96523000  1
  O  O27  1  0.19706300  0.86334800  0.46776700  1
  O  O28  1  0.14778600  0.80225700  0.22392800  1
  O  O29  1  0.11524200  0.41942600  0.14447200  1
  O  O30  1  0.13028000  0.81083400  0.72106500  1
  O  O31  1  0.09916400  0.43313100  0.65560900  1
  O  O32  1  0.01089600  0.12094300  0.10451800  1
  O  O33  1  0.98910400  0.62094300  0.89548200  1
  O  O34  1  0.99557000  0.62895400  0.39575700  1
  O  O35  1  0.00443000  0.12895400  0.60424300  1
  O  O36  1  0.49283000  0.87024300  0.65395500  1
  O  O37  1  0.86972000  0.31083400  0.27893500  1
  O  O38  1  0.88475800  0.91942600  0.85552800  1
  O  O39  1  0.81062500  0.35701600  0.03477000  1
  O  O40  1  0.90083600  0.93313100  0.34439100  1
  O  O41  1  0.80293700  0.36334800  0.53223300  1
  O  O42  1  0.69993300  0.64467000  0.21479900  1
  O  O43  1  0.64225400  0.69881700  0.97052400  1
  O  O44  1  0.69244100  0.64871500  0.72194600  1
  O  O45  1  0.59619800  0.06815500  0.90385100  1
  O  O46  1  0.65072900  0.69786600  0.47350200  1
  O  O47  1  0.60063400  0.06892900  0.40765700  1
  O  O48  1  0.50717000  0.37024300  0.34604500  1
  O  O49  1  0.48566000  0.87296200  0.14359300  1
  O  O50  1  0.51434000  0.37296200  0.85640700  1
  O  O51  1  0.40380200  0.56815500  0.09614900  1
