# generated using pymatgen
data_U4N7
_symmetry_space_group_name_H-M   'P 1'
_cell_length_a   10.63216000
_cell_length_b   10.63216000
_cell_length_c   10.61987000
_cell_angle_alpha   90.00000000
_cell_angle_beta   90.00000000
_cell_angle_gamma   90.00000000
_symmetry_Int_Tables_number   1
_chemical_formula_structural   U4N7
_chemical_formula_sum   'U32 N56'
_cell_volume   1200.50011937
_cell_formula_units_Z   8
loop_
 _symmetry_equiv_pos_site_id
 _symmetry_equiv_pos_as_xyz
  1  'x, y, z'
loop_
 _atom_site_type_symbol
 _atom_site_label
 _atom_site_symmetry_multiplicity
 _atom_site_fract_x
 _atom_site_fract_y
 _atom_site_fract_z
 _atom_site_occupancy
  U  U0  1  0.01437850  0.24123850  0.75796550  1
  U  U1  1  0.26244350  0.23755650  0.99532000  1
  U  U2  1  0.24123850  0.01437850  0.25796550  1
  U  U3  1  0.00000000  0.50000000  0.47967550  1
  U  U4  1  0.23755650  0.26244350  0.49532000  1
  U  U5  1  0.50000000  0.00000000  0.47967550  1
  U  U6  1  0.48562150  0.25876150  0.25796550  1
  U  U7  1  0.25876150  0.51437850  0.25796550  1
  U  U8  1  0.51437850  0.25876150  0.75796550  1
  U  U9  1  0.00000000  0.00000000  0.00509650  1
  U  U10  1  0.23755650  0.73755650  0.99532000  1
  U  U11  1  0.00000000  0.00000000  0.50509650  1
  U  U12  1  0.25876150  0.48562150  0.75796550  1
  U  U13  1  0.26244350  0.76244350  0.49532000  1
  U  U14  1  0.98562150  0.24123850  0.25796550  1
  U  U15  1  0.24123850  0.98562150  0.75796550  1
  U  U16  1  0.51437850  0.74123850  0.25796550  1
  U  U17  1  0.76244350  0.73755650  0.49532000  1
  U  U18  1  0.74123850  0.51437850  0.75796550  1
  U  U19  1  0.50000000  0.00000000  0.97967550  1
  U  U20  1  0.73755650  0.76244350  0.99532000  1
  U  U21  1  0.00000000  0.50000000  0.97967550  1
  U  U22  1  0.98562150  0.75876150  0.75796550  1
  U  U23  1  0.75876150  0.01437850  0.75796550  1
  U  U24  1  0.01437850  0.75876150  0.25796550  1
  U  U25  1  0.50000000  0.50000000  0.50509650  1
  U  U26  1  0.73755650  0.23755650  0.49532000  1
  U  U27  1  0.50000000  0.50000000  0.00509650  1
  U  U28  1  0.75876150  0.98562150  0.25796550  1
  U  U29  1  0.76244350  0.26244350  0.99532000  1
  U  U30  1  0.48562150  0.74123850  0.75796550  1
  U  U31  1  0.74123850  0.48562150  0.25796550  1
  N  N32  1  0.14816000  0.12181500  0.63041900  1
  N  N33  1  0.38723050  0.11276950  0.11809600  1
  N  N34  1  0.11288600  0.13478300  0.38153200  1
  N  N35  1  0.61276950  0.88723050  0.11809600  1
  N  N36  1  0.36491650  0.13508350  0.39262200  1
  N  N37  1  0.12181500  0.14816000  0.13041900  1
  N  N38  1  0.11470650  0.38529350  0.34754400  1
  N  N39  1  0.88723050  0.38723050  0.11809600  1
  N  N40  1  0.88529350  0.61470650  0.34754400  1
  N  N41  1  0.85184000  0.12181500  0.13041900  1
  N  N42  1  0.63508350  0.13508350  0.89262200  1
  N  N43  1  0.61470650  0.11470650  0.34754400  1
  N  N44  1  0.36521700  0.38711400  0.38153200  1
  N  N45  1  0.11276950  0.61276950  0.11809600  1
  N  N46  1  0.87818500  0.85184000  0.13041900  1
  N  N47  1  0.35184000  0.37818500  0.13041900  1
  N  N48  1  0.38711400  0.63478300  0.38153200  1
  N  N49  1  0.13508350  0.36491650  0.89262200  1
  N  N50  1  0.62181500  0.35184000  0.13041900  1
  N  N51  1  0.63478300  0.61288600  0.38153200  1
  N  N52  1  0.87818500  0.14816000  0.63041900  1
  N  N53  1  0.38711400  0.36521700  0.88153200  1
  N  N54  1  0.38529350  0.88529350  0.34754400  1
  N  N55  1  0.14816000  0.87818500  0.13041900  1
  N  N56  1  0.61288600  0.36521700  0.38153200  1
  N  N57  1  0.36521700  0.61288600  0.88153200  1
  N  N58  1  0.13478300  0.88711400  0.38153200  1
  N  N59  1  0.86491650  0.36491650  0.39262200  1
  N  N60  1  0.64816000  0.62181500  0.13041900  1
  N  N61  1  0.88723050  0.61276950  0.61809600  1
  N  N62  1  0.61288600  0.63478300  0.88153200  1
  N  N63  1  0.11276950  0.38723050  0.61809600  1
  N  N64  1  0.86491650  0.63508350  0.89262200  1
  N  N65  1  0.62181500  0.64816000  0.63041900  1
  N  N66  1  0.61470650  0.88529350  0.84754400  1
  N  N67  1  0.38723050  0.88723050  0.61809600  1
  N  N68  1  0.38529350  0.11470650  0.84754400  1
  N  N69  1  0.35184000  0.62181500  0.63041900  1
  N  N70  1  0.13508350  0.63508350  0.39262200  1
  N  N71  1  0.11470650  0.61470650  0.84754400  1
  N  N72  1  0.86521700  0.88711400  0.88153200  1
  N  N73  1  0.61276950  0.11276950  0.61809600  1
  N  N74  1  0.37818500  0.35184000  0.63041900  1
  N  N75  1  0.85184000  0.87818500  0.63041900  1
  N  N76  1  0.88711400  0.13478300  0.88153200  1
  N  N77  1  0.63508350  0.86491650  0.39262200  1
  N  N78  1  0.12181500  0.85184000  0.63041900  1
  N  N79  1  0.13478300  0.11288600  0.88153200  1
  N  N80  1  0.37818500  0.64816000  0.13041900  1
  N  N81  1  0.88711400  0.86521700  0.38153200  1
  N  N82  1  0.88529350  0.38529350  0.84754400  1
  N  N83  1  0.64816000  0.37818500  0.63041900  1
  N  N84  1  0.11288600  0.86521700  0.88153200  1
  N  N85  1  0.86521700  0.11288600  0.38153200  1
  N  N86  1  0.63478300  0.38711400  0.88153200  1
  N  N87  1  0.36491650  0.86491650  0.89262200  1
