# generated using pymatgen
data_Li3Mn2(PO4)3
_symmetry_space_group_name_H-M   'P 1'
_cell_length_a   8.01751400
_cell_length_b   5.46919200
_cell_length_c   19.12137350
_cell_angle_alpha   90.00000000
_cell_angle_beta   90.34442925
_cell_angle_gamma   90.00000000
_symmetry_Int_Tables_number   1
_chemical_formula_structural   Li3Mn2(PO4)3
_chemical_formula_sum   'Li12 Mn8 P12 O48'
_cell_volume   838.44414106
_cell_formula_units_Z   4
loop_
 _symmetry_equiv_pos_site_id
 _symmetry_equiv_pos_as_xyz
  1  'x, y, z'
loop_
 _atom_site_type_symbol
 _atom_site_label
 _atom_site_symmetry_multiplicity
 _atom_site_fract_x
 _atom_site_fract_y
 _atom_site_fract_z
 _atom_site_occupancy
  Li  Li0  1  0.67611100  0.00000000  0.08700300  1
  Li  Li1  1  0.00019000  0.00000000  0.83403300  1
  Li  Li2  1  0.99981000  0.00000000  0.16596700  1
  Li  Li3  1  0.32457200  0.00000000  0.24546300  1
  Li  Li4  1  0.67542800  0.00000000  0.75453700  1
  Li  Li5  1  0.32388900  0.00000000  0.91299700  1
  Li  Li6  1  0.17611100  0.50000000  0.08700300  1
  Li  Li7  1  0.50019000  0.50000000  0.83403300  1
  Li  Li8  1  0.49981000  0.50000000  0.16596700  1
  Li  Li9  1  0.82457200  0.50000000  0.24546300  1
  Li  Li10  1  0.17542800  0.50000000  0.75453700  1
  Li  Li11  1  0.82388900  0.50000000  0.91299700  1
  Mn  Mn12  1  0.00000000  0.00000000  0.50000000  1
  Mn  Mn13  1  0.00053400  0.00000000  0.66828800  1
  Mn  Mn14  1  0.99946600  0.00000000  0.33171200  1
  Mn  Mn15  1  0.00000000  0.00000000  0.00000000  1
  Mn  Mn16  1  0.50000000  0.50000000  0.50000000  1
  Mn  Mn17  1  0.50053400  0.50000000  0.66828800  1
  Mn  Mn18  1  0.49946600  0.50000000  0.33171200  1
  Mn  Mn19  1  0.50000000  0.50000000  0.00000000  1
  P  P20  1  0.34635700  0.00000000  0.41617500  1
  P  P21  1  0.65196800  0.00000000  0.25022200  1
  P  P22  1  0.35029900  0.00000000  0.08242300  1
  P  P23  1  0.64970100  0.00000000  0.91757700  1
  P  P24  1  0.34803200  0.00000000  0.74977800  1
  P  P25  1  0.65364300  0.00000000  0.58382500  1
  P  P26  1  0.84635700  0.50000000  0.41617500  1
  P  P27  1  0.15196800  0.50000000  0.25022200  1
  P  P28  1  0.85029900  0.50000000  0.08242300  1
  P  P29  1  0.14970100  0.50000000  0.91757700  1
  P  P30  1  0.84803200  0.50000000  0.74977800  1
  P  P31  1  0.15364300  0.50000000  0.58382500  1
  O  O32  1  0.23259700  0.00000000  0.48078200  1
  O  O33  1  0.24981900  0.00000000  0.81712000  1
  O  O34  1  0.75018100  0.00000000  0.18288000  1
  O  O35  1  0.46768550  0.22842450  0.07830100  1
  O  O36  1  0.46683400  0.77194500  0.74489800  1
  O  O37  1  0.23191900  0.00000000  0.68436600  1
  O  O38  1  0.54090600  0.23418600  0.58285100  1
  O  O39  1  0.53316600  0.77194500  0.25510200  1
  O  O40  1  0.46683400  0.22805500  0.74489800  1
  O  O41  1  0.24746800  0.00000000  0.14848400  1
  O  O42  1  0.75253200  0.00000000  0.85151600  1
  O  O43  1  0.76322100  0.00000000  0.98512300  1
  O  O44  1  0.53231450  0.77157550  0.92169900  1
  O  O45  1  0.45909400  0.23418600  0.41714900  1
  O  O46  1  0.46768550  0.77157550  0.07830100  1
  O  O47  1  0.45909400  0.76581400  0.41714900  1
  O  O48  1  0.76740300  0.00000000  0.51921800  1
  O  O49  1  0.75967500  0.00000000  0.65257000  1
  O  O50  1  0.23677900  0.00000000  0.01487700  1
  O  O51  1  0.53231450  0.22842450  0.92169900  1
  O  O52  1  0.54090600  0.76581400  0.58285100  1
  O  O53  1  0.53316600  0.22805500  0.25510200  1
  O  O54  1  0.76808100  0.00000000  0.31563400  1
  O  O55  1  0.24032500  0.00000000  0.34743000  1
  O  O56  1  0.73259700  0.50000000  0.48078200  1
  O  O57  1  0.74981900  0.50000000  0.81712000  1
  O  O58  1  0.25018100  0.50000000  0.18288000  1
  O  O59  1  0.96768550  0.72842450  0.07830100  1
  O  O60  1  0.96683400  0.27194500  0.74489800  1
  O  O61  1  0.73191900  0.50000000  0.68436600  1
  O  O62  1  0.04090600  0.73418600  0.58285100  1
  O  O63  1  0.03316600  0.27194500  0.25510200  1
  O  O64  1  0.96683400  0.72805500  0.74489800  1
  O  O65  1  0.74746800  0.50000000  0.14848400  1
  O  O66  1  0.25253200  0.50000000  0.85151600  1
  O  O67  1  0.26322100  0.50000000  0.98512300  1
  O  O68  1  0.03231450  0.27157550  0.92169900  1
  O  O69  1  0.95909400  0.73418600  0.41714900  1
  O  O70  1  0.96768550  0.27157550  0.07830100  1
  O  O71  1  0.95909400  0.26581400  0.41714900  1
  O  O72  1  0.26740300  0.50000000  0.51921800  1
  O  O73  1  0.25967500  0.50000000  0.65257000  1
  O  O74  1  0.73677900  0.50000000  0.01487700  1
  O  O75  1  0.03231450  0.72842450  0.92169900  1
  O  O76  1  0.04090600  0.26581400  0.58285100  1
  O  O77  1  0.03316600  0.72805500  0.25510200  1
  O  O78  1  0.26808100  0.50000000  0.31563400  1
  O  O79  1  0.74032500  0.50000000  0.34743000  1
