# generated using pymatgen
data_Tb3(CuGe)4
_symmetry_space_group_name_H-M   'P 1'
_cell_length_a   4.21458000
_cell_length_b   6.67356600
_cell_length_c   13.98230200
_cell_angle_alpha   90.00000000
_cell_angle_beta   90.00000000
_cell_angle_gamma   90.00000000
_symmetry_Int_Tables_number   1
_chemical_formula_structural   Tb3(CuGe)4
_chemical_formula_sum   'Tb6 Cu8 Ge8'
_cell_volume   393.27011023
_cell_formula_units_Z   2
loop_
 _symmetry_equiv_pos_site_id
 _symmetry_equiv_pos_as_xyz
  1  'x, y, z'
loop_
 _atom_site_type_symbol
 _atom_site_label
 _atom_site_symmetry_multiplicity
 _atom_site_fract_x
 _atom_site_fract_y
 _atom_site_fract_z
 _atom_site_occupancy
  Tb  Tb0  1  0.00000000  0.00000000  0.86952500  1
  Tb  Tb1  1  0.50000000  0.50000000  0.63047500  1
  Tb  Tb2  1  0.00000000  0.50000000  0.00000000  1
  Tb  Tb3  1  0.50000000  0.50000000  0.36952500  1
  Tb  Tb4  1  0.00000000  0.00000000  0.13047500  1
  Tb  Tb5  1  0.50000000  0.00000000  0.50000000  1
  Cu  Cu6  1  0.00000000  0.18900300  0.66845200  1
  Cu  Cu7  1  0.50000000  0.31099700  0.83154800  1
  Cu  Cu8  1  0.00000000  0.81099700  0.66845200  1
  Cu  Cu9  1  0.50000000  0.68900300  0.83154800  1
  Cu  Cu10  1  0.50000000  0.68900300  0.16845200  1
  Cu  Cu11  1  0.00000000  0.81099700  0.33154800  1
  Cu  Cu12  1  0.50000000  0.31099700  0.16845200  1
  Cu  Cu13  1  0.00000000  0.18900300  0.33154800  1
  Ge  Ge14  1  0.00000000  0.50000000  0.78316700  1
  Ge  Ge15  1  0.50000000  0.80888100  0.00000000  1
  Ge  Ge16  1  0.50000000  0.19111900  0.00000000  1
  Ge  Ge17  1  0.50000000  0.00000000  0.71683300  1
  Ge  Ge18  1  0.50000000  0.00000000  0.28316700  1
  Ge  Ge19  1  0.00000000  0.30888100  0.50000000  1
  Ge  Ge20  1  0.00000000  0.69111900  0.50000000  1
  Ge  Ge21  1  0.00000000  0.50000000  0.21683300  1
