# generated using pymatgen
data_Ta3As
_symmetry_space_group_name_H-M   'P 1'
_cell_length_a   14.81004400
_cell_length_b   5.13859400
_cell_length_c   14.65893373
_cell_angle_alpha   90.00000000
_cell_angle_beta   90.64043210
_cell_angle_gamma   90.00000000
_symmetry_Int_Tables_number   1
_chemical_formula_structural   Ta3As
_chemical_formula_sum   'Ta48 As16'
_cell_volume   1115.51625972
_cell_formula_units_Z   16
loop_
 _symmetry_equiv_pos_site_id
 _symmetry_equiv_pos_as_xyz
  1  'x, y, z'
loop_
 _atom_site_type_symbol
 _atom_site_label
 _atom_site_symmetry_multiplicity
 _atom_site_fract_x
 _atom_site_fract_y
 _atom_site_fract_z
 _atom_site_occupancy
  Ta  Ta0  1  0.56680650  0.99925950  0.82927400  1
  Ta  Ta1  1  0.93319350  0.49925950  0.67072600  1
  Ta  Ta2  1  0.93319350  0.50074050  0.17072600  1
  Ta  Ta3  1  0.56680650  0.00074050  0.32927400  1
  Ta  Ta4  1  0.57428000  0.51116100  0.67715000  1
  Ta  Ta5  1  0.92572000  0.01116100  0.82285000  1
  Ta  Ta6  1  0.92572000  0.98883900  0.32285000  1
  Ta  Ta7  1  0.57428000  0.48883900  0.17715000  1
  Ta  Ta8  1  0.74231850  0.24197550  0.79791800  1
  Ta  Ta9  1  0.75768150  0.74197550  0.70208200  1
  Ta  Ta10  1  0.75768150  0.25802450  0.20208200  1
  Ta  Ta11  1  0.74231850  0.75802450  0.29791800  1
  Ta  Ta12  1  0.54848750  0.74954050  0.00581100  1
  Ta  Ta13  1  0.95151250  0.24954050  0.49418900  1
  Ta  Ta14  1  0.95151250  0.75045950  0.99418900  1
  Ta  Ta15  1  0.54848750  0.25045950  0.50581100  1
  Ta  Ta16  1  0.65865800  0.75353800  0.50430300  1
  Ta  Ta17  1  0.84134200  0.25353800  0.99569700  1
  Ta  Ta18  1  0.84134200  0.74646200  0.49569700  1
  Ta  Ta19  1  0.65865800  0.24646200  0.00430300  1
  Ta  Ta20  1  0.75283200  0.72898500  0.09086600  1
  Ta  Ta21  1  0.74716800  0.22898500  0.40913400  1
  Ta  Ta22  1  0.74716800  0.77101500  0.90913400  1
  Ta  Ta23  1  0.75283200  0.27101500  0.59086600  1
  Ta  Ta24  1  0.06680650  0.49925950  0.82927400  1
  Ta  Ta25  1  0.43319350  0.99925950  0.67072600  1
  Ta  Ta26  1  0.43319350  0.00074050  0.17072600  1
  Ta  Ta27  1  0.06680650  0.50074050  0.32927400  1
  Ta  Ta28  1  0.07428000  0.01116100  0.67715000  1
  Ta  Ta29  1  0.42572000  0.51116100  0.82285000  1
  Ta  Ta30  1  0.42572000  0.48883900  0.32285000  1
  Ta  Ta31  1  0.07428000  0.98883900  0.17715000  1
  Ta  Ta32  1  0.24231850  0.74197550  0.79791800  1
  Ta  Ta33  1  0.25768150  0.24197550  0.70208200  1
  Ta  Ta34  1  0.25768150  0.75802450  0.20208200  1
  Ta  Ta35  1  0.24231850  0.25802450  0.29791800  1
  Ta  Ta36  1  0.04848750  0.24954050  0.00581100  1
  Ta  Ta37  1  0.45151250  0.74954050  0.49418900  1
  Ta  Ta38  1  0.45151250  0.25045950  0.99418900  1
  Ta  Ta39  1  0.04848750  0.75045950  0.50581100  1
  Ta  Ta40  1  0.15865800  0.25353800  0.50430300  1
  Ta  Ta41  1  0.34134200  0.75353800  0.99569700  1
  Ta  Ta42  1  0.34134200  0.24646200  0.49569700  1
  Ta  Ta43  1  0.15865800  0.74646200  0.00430300  1
  Ta  Ta44  1  0.25283200  0.22898500  0.09086600  1
  Ta  Ta45  1  0.24716800  0.72898500  0.40913400  1
  Ta  Ta46  1  0.24716800  0.27101500  0.90913400  1
  Ta  Ta47  1  0.25283200  0.77101500  0.59086600  1
  As  As48  1  0.60052500  0.49867800  0.35896500  1
  As  As49  1  0.89947500  0.99867800  0.14103500  1
  As  As50  1  0.89947500  0.00132200  0.64103500  1
  As  As51  1  0.60052500  0.50132200  0.85896500  1
  As  As52  1  0.88637450  0.48579550  0.34413500  1
  As  As53  1  0.61362550  0.98579550  0.15586500  1
  As  As54  1  0.61362550  0.01420450  0.65586500  1
  As  As55  1  0.88637450  0.51420450  0.84413500  1
  As  As56  1  0.10052500  0.99867800  0.35896500  1
  As  As57  1  0.39947500  0.49867800  0.14103500  1
  As  As58  1  0.39947500  0.50132200  0.64103500  1
  As  As59  1  0.10052500  0.00132200  0.85896500  1
  As  As60  1  0.38637450  0.98579550  0.34413500  1
  As  As61  1  0.11362550  0.48579550  0.15586500  1
  As  As62  1  0.11362550  0.51420450  0.65586500  1
  As  As63  1  0.38637450  0.01420450  0.84413500  1
