# generated using pymatgen
data_Li3Ni(PO4)2
_symmetry_space_group_name_H-M   'P 1'
_cell_length_a   8.17335000
_cell_length_b   10.39008800
_cell_length_c   8.27702817
_cell_angle_alpha   90.00000000
_cell_angle_beta   105.39863964
_cell_angle_gamma   90.00000000
_symmetry_Int_Tables_number   1
_chemical_formula_structural   Li3Ni(PO4)2
_chemical_formula_sum   'Li12 Ni4 P8 O32'
_cell_volume   677.66742258
_cell_formula_units_Z   4
loop_
 _symmetry_equiv_pos_site_id
 _symmetry_equiv_pos_as_xyz
  1  'x, y, z'
loop_
 _atom_site_type_symbol
 _atom_site_label
 _atom_site_symmetry_multiplicity
 _atom_site_fract_x
 _atom_site_fract_y
 _atom_site_fract_z
 _atom_site_occupancy
  Li  Li0  1  0.39051600  0.66359800  0.65130500  1
  Li  Li1  1  0.35537700  0.15242500  0.58185000  1
  Li  Li2  1  0.83717100  0.35418000  0.59331100  1
  Li  Li3  1  0.16282900  0.85418000  0.40668900  1
  Li  Li4  1  0.64462300  0.65242500  0.41815000  1
  Li  Li5  1  0.60948400  0.16359800  0.34869500  1
  Li  Li6  1  0.39488100  0.83343400  0.16075500  1
  Li  Li7  1  0.34809000  0.34184200  0.08835300  1
  Li  Li8  1  0.54573700  0.07689500  0.03438900  1
  Li  Li9  1  0.45426300  0.57689500  0.96561100  1
  Li  Li10  1  0.65191000  0.84184200  0.91164700  1
  Li  Li11  1  0.60511900  0.33343400  0.83924500  1
  Ni  Ni12  1  0.90392500  0.83882100  0.67081600  1
  Ni  Ni13  1  0.09607500  0.33882100  0.32918400  1
  Ni  Ni14  1  0.90735200  0.65899800  0.16788100  1
  Ni  Ni15  1  0.09264800  0.15899800  0.83211900  1
  P  P16  1  0.76800900  0.59555200  0.79837300  1
  P  P17  1  0.27901500  0.91237000  0.78387600  1
  P  P18  1  0.72098500  0.41237000  0.21612400  1
  P  P19  1  0.76614300  0.89852700  0.29467900  1
  P  P20  1  0.23385700  0.39852700  0.70532100  1
  P  P21  1  0.70892200  0.09104000  0.71937700  1
  P  P22  1  0.29107800  0.59104000  0.28062300  1
  P  P23  1  0.23199100  0.09555200  0.20162700  1
  O  O24  1  0.76276800  0.94527000  0.75945000  1
  O  O25  1  0.61132400  0.65894700  0.83724000  1
  O  O26  1  0.27405700  0.53732300  0.75811300  1
  O  O27  1  0.65040000  0.14316700  0.86666200  1
  O  O28  1  0.24186500  0.06093200  0.74131700  1
  O  O29  1  0.38112900  0.32391400  0.67082100  1
  O  O30  1  0.74528400  0.45498500  0.74762400  1
  O  O31  1  0.31449100  0.84553900  0.63327000  1
  O  O32  1  0.07320800  0.38546000  0.54730600  1
  O  O33  1  0.86867800  0.16883700  0.69583000  1
  O  O34  1  0.81167900  0.67142100  0.64763000  1
  O  O35  1  0.57422000  0.10260100  0.55322300  1
  O  O36  1  0.42578000  0.60260100  0.44677700  1
  O  O37  1  0.18832100  0.17142100  0.35237000  1
  O  O38  1  0.13132200  0.66883700  0.30417000  1
  O  O39  1  0.92679200  0.88546000  0.45269400  1
  O  O40  1  0.68550900  0.34553900  0.36673000  1
  O  O41  1  0.25471600  0.95498500  0.25237600  1
  O  O42  1  0.23723200  0.44527000  0.24055000  1
  O  O43  1  0.61887100  0.82391400  0.32917900  1
  O  O44  1  0.38867600  0.15894700  0.16276000  1
  O  O45  1  0.75813500  0.56093200  0.25868300  1
  O  O46  1  0.72594300  0.03732300  0.24188700  1
  O  O47  1  0.34960000  0.64316700  0.13333800  1
  O  O48  1  0.07661700  0.11567600  0.04510900  1
  O  O49  1  0.88391200  0.35665900  0.17543600  1
  O  O50  1  0.82272800  0.82993900  0.14489000  1
  O  O51  1  0.57088600  0.40381500  0.05693700  1
  O  O52  1  0.42911400  0.90381500  0.94306300  1
  O  O53  1  0.17727200  0.32993900  0.85511000  1
  O  O54  1  0.11608800  0.85665900  0.82456400  1
  O  O55  1  0.92338300  0.61567600  0.95489100  1
