# generated using pymatgen
data_Ba(GeRu)2
_symmetry_space_group_name_H-M   'P 1'
_cell_length_a   6.47104000
_cell_length_b   10.65427000
_cell_length_c   12.83569800
_cell_angle_alpha   90.00000000
_cell_angle_beta   90.00000000
_cell_angle_gamma   90.00000000
_symmetry_Int_Tables_number   1
_chemical_formula_structural   Ba(GeRu)2
_chemical_formula_sum   'Ba8 Ge16 Ru16'
_cell_volume   884.94702428
_cell_formula_units_Z   8
loop_
 _symmetry_equiv_pos_site_id
 _symmetry_equiv_pos_as_xyz
  1  'x, y, z'
loop_
 _atom_site_type_symbol
 _atom_site_label
 _atom_site_symmetry_multiplicity
 _atom_site_fract_x
 _atom_site_fract_y
 _atom_site_fract_z
 _atom_site_occupancy
  Ba  Ba0  1  0.50000000  0.00000000  0.00000000  1
  Ba  Ba1  1  0.75000000  0.25000000  0.25000000  1
  Ba  Ba2  1  0.50000000  0.50000000  0.50000000  1
  Ba  Ba3  1  0.75000000  0.75000000  0.75000000  1
  Ba  Ba4  1  0.00000000  0.00000000  0.50000000  1
  Ba  Ba5  1  0.25000000  0.25000000  0.75000000  1
  Ba  Ba6  1  0.00000000  0.50000000  0.00000000  1
  Ba  Ba7  1  0.25000000  0.75000000  0.25000000  1
  Ge  Ge8  1  0.50000000  0.67684200  0.00000000  1
  Ge  Ge9  1  0.50000000  0.32315800  0.00000000  1
  Ge  Ge10  1  0.75000000  0.57315800  0.25000000  1
  Ge  Ge11  1  0.75000000  0.92684200  0.25000000  1
  Ge  Ge12  1  0.50000000  0.17684200  0.50000000  1
  Ge  Ge13  1  0.50000000  0.82315800  0.50000000  1
  Ge  Ge14  1  0.75000000  0.07315800  0.75000000  1
  Ge  Ge15  1  0.75000000  0.42684200  0.75000000  1
  Ge  Ge16  1  0.00000000  0.67684200  0.50000000  1
  Ge  Ge17  1  0.00000000  0.32315800  0.50000000  1
  Ge  Ge18  1  0.25000000  0.57315800  0.75000000  1
  Ge  Ge19  1  0.25000000  0.92684200  0.75000000  1
  Ge  Ge20  1  0.00000000  0.17684200  0.00000000  1
  Ge  Ge21  1  0.00000000  0.82315800  0.00000000  1
  Ge  Ge22  1  0.25000000  0.07315800  0.25000000  1
  Ge  Ge23  1  0.25000000  0.42684200  0.25000000  1
  Ru  Ru24  1  0.50000000  0.00000000  0.37704700  1
  Ru  Ru25  1  0.00000000  0.00000000  0.12295300  1
  Ru  Ru26  1  0.75000000  0.75000000  0.12704700  1
  Ru  Ru27  1  0.75000000  0.75000000  0.37295300  1
  Ru  Ru28  1  0.50000000  0.50000000  0.87704700  1
  Ru  Ru29  1  0.00000000  0.50000000  0.62295300  1
  Ru  Ru30  1  0.75000000  0.25000000  0.62704700  1
  Ru  Ru31  1  0.75000000  0.25000000  0.87295300  1
  Ru  Ru32  1  0.00000000  0.00000000  0.87704700  1
  Ru  Ru33  1  0.50000000  0.00000000  0.62295300  1
  Ru  Ru34  1  0.25000000  0.75000000  0.62704700  1
  Ru  Ru35  1  0.25000000  0.75000000  0.87295300  1
  Ru  Ru36  1  0.00000000  0.50000000  0.37704700  1
  Ru  Ru37  1  0.50000000  0.50000000  0.12295300  1
  Ru  Ru38  1  0.25000000  0.25000000  0.12704700  1
  Ru  Ru39  1  0.25000000  0.25000000  0.37295300  1
