# generated using pymatgen
data_La3(VN3)2
_symmetry_space_group_name_H-M   'P 1'
_cell_length_a   3.91085400
_cell_length_b   3.91085400
_cell_length_c   20.03608200
_cell_angle_alpha   90.00000000
_cell_angle_beta   90.00000000
_cell_angle_gamma   90.00000000
_symmetry_Int_Tables_number   1
_chemical_formula_structural   La3(VN3)2
_chemical_formula_sum   'La6 V4 N12'
_cell_volume   306.44744640
_cell_formula_units_Z   2
loop_
 _symmetry_equiv_pos_site_id
 _symmetry_equiv_pos_as_xyz
  1  'x, y, z'
loop_
 _atom_site_type_symbol
 _atom_site_label
 _atom_site_symmetry_multiplicity
 _atom_site_fract_x
 _atom_site_fract_y
 _atom_site_fract_z
 _atom_site_occupancy
  La  La0  1  0.00000000  0.00000000  0.00000000  1
  La  La1  1  0.50000000  0.50000000  0.32231200  1
  La  La2  1  0.00000000  0.00000000  0.17768800  1
  La  La3  1  0.50000000  0.50000000  0.50000000  1
  La  La4  1  0.00000000  0.00000000  0.82231200  1
  La  La5  1  0.50000000  0.50000000  0.67768800  1
  V  V6  1  0.00000000  0.00000000  0.39668400  1
  V  V7  1  0.50000000  0.50000000  0.10331600  1
  V  V8  1  0.50000000  0.50000000  0.89668400  1
  V  V9  1  0.00000000  0.00000000  0.60331600  1
  N  N10  1  0.50000000  0.00000000  0.08694000  1
  N  N11  1  0.00000000  0.50000000  0.08694000  1
  N  N12  1  0.00000000  0.50000000  0.41306000  1
  N  N13  1  0.50000000  0.00000000  0.41306000  1
  N  N14  1  0.50000000  0.50000000  0.19370300  1
  N  N15  1  0.00000000  0.00000000  0.30629700  1
  N  N16  1  0.00000000  0.50000000  0.58694000  1
  N  N17  1  0.50000000  0.00000000  0.58694000  1
  N  N18  1  0.50000000  0.00000000  0.91306000  1
  N  N19  1  0.00000000  0.50000000  0.91306000  1
  N  N20  1  0.00000000  0.00000000  0.69370300  1
  N  N21  1  0.50000000  0.50000000  0.80629700  1
