# generated using pymatgen
data_Sr6Mg23
_symmetry_space_group_name_H-M   'P 1'
_cell_length_a   14.92082200
_cell_length_b   14.92082200
_cell_length_c   14.92082200
_cell_angle_alpha   90.00000000
_cell_angle_beta   90.00000000
_cell_angle_gamma   90.00000000
_symmetry_Int_Tables_number   1
_chemical_formula_structural   Sr6Mg23
_chemical_formula_sum   'Sr24 Mg92'
_cell_volume   3321.83646563
_cell_formula_units_Z   4
loop_
 _symmetry_equiv_pos_site_id
 _symmetry_equiv_pos_as_xyz
  1  'x, y, z'
loop_
 _atom_site_type_symbol
 _atom_site_label
 _atom_site_symmetry_multiplicity
 _atom_site_fract_x
 _atom_site_fract_y
 _atom_site_fract_z
 _atom_site_occupancy
  Sr  Sr0  1  0.50000000  0.00000000  0.70717600  1
  Sr  Sr1  1  0.79282400  0.00000000  0.00000000  1
  Sr  Sr2  1  0.20717600  0.00000000  0.00000000  1
  Sr  Sr3  1  0.50000000  0.70717600  0.00000000  1
  Sr  Sr4  1  0.50000000  0.29282400  0.00000000  1
  Sr  Sr5  1  0.00000000  0.00000000  0.79282400  1
  Sr  Sr6  1  0.50000000  0.50000000  0.20717600  1
  Sr  Sr7  1  0.79282400  0.50000000  0.50000000  1
  Sr  Sr8  1  0.20717600  0.50000000  0.50000000  1
  Sr  Sr9  1  0.50000000  0.20717600  0.50000000  1
  Sr  Sr10  1  0.50000000  0.79282400  0.50000000  1
  Sr  Sr11  1  0.00000000  0.50000000  0.29282400  1
  Sr  Sr12  1  0.00000000  0.00000000  0.20717600  1
  Sr  Sr13  1  0.29282400  0.00000000  0.50000000  1
  Sr  Sr14  1  0.70717600  0.00000000  0.50000000  1
  Sr  Sr15  1  0.00000000  0.70717600  0.50000000  1
  Sr  Sr16  1  0.00000000  0.29282400  0.50000000  1
  Sr  Sr17  1  0.50000000  0.00000000  0.29282400  1
  Sr  Sr18  1  0.00000000  0.50000000  0.70717600  1
  Sr  Sr19  1  0.29282400  0.50000000  0.00000000  1
  Sr  Sr20  1  0.70717600  0.50000000  0.00000000  1
  Sr  Sr21  1  0.00000000  0.20717600  0.00000000  1
  Sr  Sr22  1  0.00000000  0.79282400  0.00000000  1
  Sr  Sr23  1  0.50000000  0.50000000  0.79282400  1
  Mg  Mg24  1  0.50000000  0.00000000  0.00000000  1
  Mg  Mg25  1  0.25000000  0.75000000  0.00000000  1
  Mg  Mg26  1  0.00000000  0.25000000  0.75000000  1
  Mg  Mg27  1  0.00000000  0.75000000  0.75000000  1
  Mg  Mg28  1  0.25000000  0.25000000  0.00000000  1
  Mg  Mg29  1  0.75000000  0.00000000  0.75000000  1
  Mg  Mg30  1  0.25000000  0.00000000  0.75000000  1
  Mg  Mg31  1  0.37790133  0.12209867  0.87790133  1
  Mg  Mg32  1  0.62209867  0.12209867  0.87790133  1
  Mg  Mg33  1  0.87790133  0.12209867  0.62209867  1
  Mg  Mg34  1  0.37790133  0.87790133  0.87790133  1
  Mg  Mg35  1  0.62209867  0.87790133  0.87790133  1
  Mg  Mg36  1  0.12209867  0.12209867  0.62209867  1
  Mg  Mg37  1  0.87790133  0.87790133  0.62209867  1
  Mg  Mg38  1  0.12209867  0.87790133  0.62209867  1
  Mg  Mg39  1  0.17457633  0.32542367  0.67457633  1
  Mg  Mg40  1  0.32542367  0.82542367  0.67457633  1
  Mg  Mg41  1  0.17457633  0.82542367  0.82542367  1
  Mg  Mg42  1  0.17457633  0.67457633  0.67457633  1
  Mg  Mg43  1  0.32542367  0.17457633  0.67457633  1
  Mg  Mg44  1  0.32542367  0.32542367  0.82542367  1
  Mg  Mg45  1  0.17457633  0.17457633  0.82542367  1
  Mg  Mg46  1  0.32542367  0.67457633  0.82542367  1
  Mg  Mg47  1  0.50000000  0.50000000  0.50000000  1
  Mg  Mg48  1  0.25000000  0.25000000  0.50000000  1
  Mg  Mg49  1  0.00000000  0.75000000  0.25000000  1
  Mg  Mg50  1  0.00000000  0.25000000  0.25000000  1
  Mg  Mg51  1  0.25000000  0.75000000  0.50000000  1
  Mg  Mg52  1  0.75000000  0.50000000  0.25000000  1
  Mg  Mg53  1  0.25000000  0.50000000  0.25000000  1
  Mg  Mg54  1  0.37790133  0.62209867  0.37790133  1
  Mg  Mg55  1  0.62209867  0.62209867  0.37790133  1
  Mg  Mg56  1  0.87790133  0.62209867  0.12209867  1
  Mg  Mg57  1  0.37790133  0.37790133  0.37790133  1
  Mg  Mg58  1  0.62209867  0.37790133  0.37790133  1
  Mg  Mg59  1  0.12209867  0.62209867  0.12209867  1
  Mg  Mg60  1  0.87790133  0.37790133  0.12209867  1
  Mg  Mg61  1  0.12209867  0.37790133  0.12209867  1
  Mg  Mg62  1  0.17457633  0.82542367  0.17457633  1
  Mg  Mg63  1  0.32542367  0.32542367  0.17457633  1
  Mg  Mg64  1  0.17457633  0.32542367  0.32542367  1
  Mg  Mg65  1  0.17457633  0.17457633  0.17457633  1
  Mg  Mg66  1  0.32542367  0.67457633  0.17457633  1
  Mg  Mg67  1  0.32542367  0.82542367  0.32542367  1
  Mg  Mg68  1  0.17457633  0.67457633  0.32542367  1
  Mg  Mg69  1  0.32542367  0.17457633  0.32542367  1
  Mg  Mg70  1  0.00000000  0.00000000  0.50000000  1
  Mg  Mg71  1  0.75000000  0.75000000  0.50000000  1
  Mg  Mg72  1  0.50000000  0.25000000  0.25000000  1
  Mg  Mg73  1  0.50000000  0.75000000  0.25000000  1
  Mg  Mg74  1  0.75000000  0.25000000  0.50000000  1
  Mg  Mg75  1  0.25000000  0.00000000  0.25000000  1
  Mg  Mg76  1  0.75000000  0.00000000  0.25000000  1
  Mg  Mg77  1  0.87790133  0.12209867  0.37790133  1
  Mg  Mg78  1  0.12209867  0.12209867  0.37790133  1
  Mg  Mg79  1  0.37790133  0.12209867  0.12209867  1
  Mg  Mg80  1  0.87790133  0.87790133  0.37790133  1
  Mg  Mg81  1  0.12209867  0.87790133  0.37790133  1
  Mg  Mg82  1  0.62209867  0.12209867  0.12209867  1
  Mg  Mg83  1  0.37790133  0.87790133  0.12209867  1
  Mg  Mg84  1  0.62209867  0.87790133  0.12209867  1
  Mg  Mg85  1  0.67457633  0.32542367  0.17457633  1
  Mg  Mg86  1  0.82542367  0.82542367  0.17457633  1
  Mg  Mg87  1  0.67457633  0.82542367  0.32542367  1
  Mg  Mg88  1  0.67457633  0.67457633  0.17457633  1
  Mg  Mg89  1  0.82542367  0.17457633  0.17457633  1
  Mg  Mg90  1  0.82542367  0.32542367  0.32542367  1
  Mg  Mg91  1  0.67457633  0.17457633  0.32542367  1
  Mg  Mg92  1  0.82542367  0.67457633  0.32542367  1
  Mg  Mg93  1  0.00000000  0.50000000  0.00000000  1
  Mg  Mg94  1  0.75000000  0.25000000  0.00000000  1
  Mg  Mg95  1  0.50000000  0.75000000  0.75000000  1
  Mg  Mg96  1  0.50000000  0.25000000  0.75000000  1
  Mg  Mg97  1  0.75000000  0.75000000  0.00000000  1
  Mg  Mg98  1  0.25000000  0.50000000  0.75000000  1
  Mg  Mg99  1  0.75000000  0.50000000  0.75000000  1
  Mg  Mg100  1  0.87790133  0.62209867  0.87790133  1
  Mg  Mg101  1  0.12209867  0.62209867  0.87790133  1
  Mg  Mg102  1  0.37790133  0.62209867  0.62209867  1
  Mg  Mg103  1  0.87790133  0.37790133  0.87790133  1
  Mg  Mg104  1  0.12209867  0.37790133  0.87790133  1
  Mg  Mg105  1  0.62209867  0.62209867  0.62209867  1
  Mg  Mg106  1  0.37790133  0.37790133  0.62209867  1
  Mg  Mg107  1  0.62209867  0.37790133  0.62209867  1
  Mg  Mg108  1  0.67457633  0.82542367  0.67457633  1
  Mg  Mg109  1  0.82542367  0.32542367  0.67457633  1
  Mg  Mg110  1  0.67457633  0.32542367  0.82542367  1
  Mg  Mg111  1  0.67457633  0.17457633  0.67457633  1
  Mg  Mg112  1  0.82542367  0.67457633  0.67457633  1
  Mg  Mg113  1  0.82542367  0.82542367  0.82542367  1
  Mg  Mg114  1  0.67457633  0.67457633  0.82542367  1
  Mg  Mg115  1  0.82542367  0.17457633  0.82542367  1
