# generated using pymatgen
data_Sm2Zn17
_symmetry_space_group_name_H-M   'P 1'
_cell_length_a   9.02147937
_cell_length_b   9.02147937
_cell_length_c   13.27366160
_cell_angle_alpha   90.00000000
_cell_angle_beta   90.00000000
_cell_angle_gamma   120.00000000
_symmetry_Int_Tables_number   1
_chemical_formula_structural   Sm2Zn17
_chemical_formula_sum   'Sm6 Zn51'
_cell_volume   935.57130649
_cell_formula_units_Z   3
loop_
 _symmetry_equiv_pos_site_id
 _symmetry_equiv_pos_as_xyz
  1  'x, y, z'
loop_
 _atom_site_type_symbol
 _atom_site_label
 _atom_site_symmetry_multiplicity
 _atom_site_fract_x
 _atom_site_fract_y
 _atom_site_fract_z
 _atom_site_occupancy
  Sm  Sm0  1  0.33333333  0.66666667  0.33134767  1
  Sm  Sm1  1  0.33333333  0.66666667  0.00198567  1
  Sm  Sm2  1  0.00000000  0.00000000  0.66468100  1
  Sm  Sm3  1  0.00000000  0.00000000  0.33531900  1
  Sm  Sm4  1  0.66666667  0.33333333  0.99801433  1
  Sm  Sm5  1  0.66666667  0.33333333  0.66865233  1
  Zn  Zn6  1  0.17075833  0.82924167  0.18005867  1
  Zn  Zn7  1  0.17075833  0.34151667  0.18005867  1
  Zn  Zn8  1  0.33333333  0.66666667  0.76588267  1
  Zn  Zn9  1  0.33333333  0.66666667  0.56745067  1
  Zn  Zn10  1  0.16666667  0.83333333  0.83333333  1
  Zn  Zn11  1  0.33333333  0.16666667  0.16666667  1
  Zn  Zn12  1  0.83333333  0.66666667  0.16666667  1
  Zn  Zn13  1  0.37184967  0.03851633  0.33333333  1
  Zn  Zn14  1  0.00000000  0.29481700  0.00000000  1
  Zn  Zn15  1  0.29481700  1.00000000  0.00000000  1
  Zn  Zn16  1  0.96148367  0.62815033  0.33333333  1
  Zn  Zn17  1  0.00000000  0.70518300  0.00000000  1
  Zn  Zn18  1  0.70518300  1.00000000  0.00000000  1
  Zn  Zn19  1  0.49590833  0.99181667  0.15327467  1
  Zn  Zn20  1  0.49590833  0.50409167  0.15327467  1
  Zn  Zn21  1  0.00818333  0.50409167  0.15327467  1
  Zn  Zn22  1  0.65848333  0.82924167  0.18005867  1
  Zn  Zn23  1  0.83742500  0.16257500  0.51339200  1
  Zn  Zn24  1  0.83742500  0.67485000  0.51339200  1
  Zn  Zn25  1  0.00000000  0.00000000  0.09921600  1
  Zn  Zn26  1  0.00000000  0.00000000  0.90078400  1
  Zn  Zn27  1  0.83333333  0.16666667  0.16666667  1
  Zn  Zn28  1  0.00000000  0.50000000  0.50000000  1
  Zn  Zn29  1  0.50000000  0.00000000  0.50000000  1
  Zn  Zn30  1  0.03851633  0.37184967  0.66666667  1
  Zn  Zn31  1  0.66666667  0.62815033  0.33333333  1
  Zn  Zn32  1  0.96148367  0.33333333  0.33333333  1
  Zn  Zn33  1  0.62815033  0.96148367  0.66666667  1
  Zn  Zn34  1  0.66666667  0.03851633  0.33333333  1
  Zn  Zn35  1  0.37184967  0.33333333  0.33333333  1
  Zn  Zn36  1  0.16257500  0.32515000  0.48660800  1
  Zn  Zn37  1  0.16257500  0.83742500  0.48660800  1
  Zn  Zn38  1  0.67485000  0.83742500  0.48660800  1
  Zn  Zn39  1  0.32515000  0.16257500  0.51339200  1
  Zn  Zn40  1  0.50409167  0.49590833  0.84672533  1
  Zn  Zn41  1  0.50409167  0.00818333  0.84672533  1
  Zn  Zn42  1  0.66666667  0.33333333  0.43254933  1
  Zn  Zn43  1  0.66666667  0.33333333  0.23411733  1
  Zn  Zn44  1  0.50000000  0.50000000  0.50000000  1
  Zn  Zn45  1  0.66666667  0.83333333  0.83333333  1
  Zn  Zn46  1  0.16666667  0.33333333  0.83333333  1
  Zn  Zn47  1  0.70518300  0.70518300  0.00000000  1
  Zn  Zn48  1  0.33333333  0.96148367  0.66666667  1
  Zn  Zn49  1  0.62815033  0.66666667  0.66666667  1
  Zn  Zn50  1  0.29481700  0.29481700  0.00000000  1
  Zn  Zn51  1  0.33333333  0.37184967  0.66666667  1
  Zn  Zn52  1  0.03851633  0.66666667  0.66666667  1
  Zn  Zn53  1  0.82924167  0.65848333  0.81994133  1
  Zn  Zn54  1  0.82924167  0.17075833  0.81994133  1
  Zn  Zn55  1  0.34151667  0.17075833  0.81994133  1
  Zn  Zn56  1  0.99181667  0.49590833  0.84672533  1
