# generated using pymatgen
data_V(NiP4)4
_symmetry_space_group_name_H-M   'P 1'
_cell_length_a   19.55927400
_cell_length_b   5.66550200
_cell_length_c   11.09703145
_cell_angle_alpha   90.00000000
_cell_angle_beta   100.88887382
_cell_angle_gamma   90.00000000
_symmetry_Int_Tables_number   1
_chemical_formula_structural   V(NiP4)4
_chemical_formula_sum   'V4 Ni16 P64'
_cell_volume   1207.55634597
_cell_formula_units_Z   4
loop_
 _symmetry_equiv_pos_site_id
 _symmetry_equiv_pos_as_xyz
  1  'x, y, z'
loop_
 _atom_site_type_symbol
 _atom_site_label
 _atom_site_symmetry_multiplicity
 _atom_site_fract_x
 _atom_site_fract_y
 _atom_site_fract_z
 _atom_site_occupancy
  V  V0  1  0.00000000  0.39291300  0.75000000  1
  V  V1  1  0.00000000  0.60708700  0.25000000  1
  V  V2  1  0.50000000  0.89291300  0.75000000  1
  V  V3  1  0.50000000  0.10708700  0.25000000  1
  Ni  Ni4  1  0.74945500  0.94378600  0.62901400  1
  Ni  Ni5  1  0.75054500  0.44378600  0.87098600  1
  Ni  Ni6  1  0.89384350  0.90599050  0.92620200  1
  Ni  Ni7  1  0.60615650  0.40599050  0.57379800  1
  Ni  Ni8  1  0.60615650  0.59400950  0.07379800  1
  Ni  Ni9  1  0.89384350  0.09400950  0.42620200  1
  Ni  Ni10  1  0.74945500  0.05621400  0.12901400  1
  Ni  Ni11  1  0.75054500  0.55621400  0.37098600  1
  Ni  Ni12  1  0.24945500  0.44378600  0.62901400  1
  Ni  Ni13  1  0.25054500  0.94378600  0.87098600  1
  Ni  Ni14  1  0.39384350  0.40599050  0.92620200  1
  Ni  Ni15  1  0.10615650  0.90599050  0.57379800  1
  Ni  Ni16  1  0.10615650  0.09400950  0.07379800  1
  Ni  Ni17  1  0.39384350  0.59400950  0.42620200  1
  Ni  Ni18  1  0.24945500  0.55621400  0.12901400  1
  Ni  Ni19  1  0.25054500  0.05621400  0.37098600  1
  P  P20  1  0.99579600  0.26766800  0.39129500  1
  P  P21  1  0.50420400  0.76766800  0.10870500  1
  P  P22  1  0.50420400  0.23233200  0.60870500  1
  P  P23  1  0.99579600  0.73233200  0.89129500  1
  P  P24  1  0.61856300  0.99976500  0.33653200  1
  P  P25  1  0.88143700  0.49976500  0.16346800  1
  P  P26  1  0.88143700  0.50023500  0.66346800  1
  P  P27  1  0.61856300  0.00023500  0.83653200  1
  P  P28  1  0.64039900  0.62888700  0.28033200  1
  P  P29  1  0.85960100  0.12888700  0.21966800  1
  P  P30  1  0.94006100  0.05442800  0.63396400  1
  P  P31  1  0.55993900  0.55442800  0.86603600  1
  P  P32  1  0.55993900  0.44557200  0.36603600  1
  P  P33  1  0.94006100  0.94557200  0.13396400  1
  P  P34  1  0.93943500  0.28192500  0.91776700  1
  P  P35  1  0.56056500  0.78192500  0.58223300  1
  P  P36  1  0.56056500  0.21807500  0.08223300  1
  P  P37  1  0.93943500  0.71807500  0.41776700  1
  P  P38  1  0.85909700  0.53720200  0.95844100  1
  P  P39  1  0.64090300  0.03720200  0.54155900  1
  P  P40  1  0.64090300  0.96279800  0.04155900  1
  P  P41  1  0.85909700  0.46279800  0.45844100  1
  P  P42  1  0.78746050  0.06548050  0.94617400  1
  P  P43  1  0.71253950  0.56548050  0.55382600  1
  P  P44  1  0.71253950  0.43451950  0.05382600  1
  P  P45  1  0.78746050  0.93451950  0.44617400  1
  P  P46  1  0.77917900  0.33524800  0.68778600  1
  P  P47  1  0.72082100  0.83524800  0.81221400  1
  P  P48  1  0.72082100  0.16475200  0.31221400  1
  P  P49  1  0.77917900  0.66475200  0.18778600  1
  P  P50  1  0.64039900  0.37111300  0.78033200  1
  P  P51  1  0.85960100  0.87111300  0.71966800  1
  P  P52  1  0.49579600  0.76766800  0.39129500  1
  P  P53  1  0.00420400  0.26766800  0.10870500  1
  P  P54  1  0.00420400  0.73233200  0.60870500  1
  P  P55  1  0.49579600  0.23233200  0.89129500  1
  P  P56  1  0.11856300  0.49976500  0.33653200  1
  P  P57  1  0.38143700  0.99976500  0.16346800  1
  P  P58  1  0.38143700  0.00023500  0.66346800  1
  P  P59  1  0.11856300  0.50023500  0.83653200  1
  P  P60  1  0.14039900  0.12888700  0.28033200  1
  P  P61  1  0.35960100  0.62888700  0.21966800  1
  P  P62  1  0.44006100  0.55442800  0.63396400  1
  P  P63  1  0.05993900  0.05442800  0.86603600  1
  P  P64  1  0.05993900  0.94557200  0.36603600  1
  P  P65  1  0.44006100  0.44557200  0.13396400  1
  P  P66  1  0.43943500  0.78192500  0.91776700  1
  P  P67  1  0.06056500  0.28192500  0.58223300  1
  P  P68  1  0.06056500  0.71807500  0.08223300  1
  P  P69  1  0.43943500  0.21807500  0.41776700  1
  P  P70  1  0.35909700  0.03720200  0.95844100  1
  P  P71  1  0.14090300  0.53720200  0.54155900  1
  P  P72  1  0.14090300  0.46279800  0.04155900  1
  P  P73  1  0.35909700  0.96279800  0.45844100  1
  P  P74  1  0.28746050  0.56548050  0.94617400  1
  P  P75  1  0.21253950  0.06548050  0.55382600  1
  P  P76  1  0.21253950  0.93451950  0.05382600  1
  P  P77  1  0.28746050  0.43451950  0.44617400  1
  P  P78  1  0.27917900  0.83524800  0.68778600  1
  P  P79  1  0.22082100  0.33524800  0.81221400  1
  P  P80  1  0.22082100  0.66475200  0.31221400  1
  P  P81  1  0.27917900  0.16475200  0.18778600  1
  P  P82  1  0.14039900  0.87111300  0.78033200  1
  P  P83  1  0.35960100  0.37111300  0.71966800  1
