# generated using pymatgen
data_Zn3Ga4Pd7
_symmetry_space_group_name_H-M   'P 1'
_cell_length_a   11.64578472
_cell_length_b   11.64578472
_cell_length_c   5.35718352
_cell_angle_alpha   90.00000000
_cell_angle_beta   90.00000000
_cell_angle_gamma   120.00000000
_symmetry_Int_Tables_number   1
_chemical_formula_structural   Zn3Ga4Pd7
_chemical_formula_sum   'Zn9 Ga12 Pd21'
_cell_volume   629.22311948
_cell_formula_units_Z   3
loop_
 _symmetry_equiv_pos_site_id
 _symmetry_equiv_pos_as_xyz
  1  'x, y, z'
loop_
 _atom_site_type_symbol
 _atom_site_label
 _atom_site_symmetry_multiplicity
 _atom_site_fract_x
 _atom_site_fract_y
 _atom_site_fract_z
 _atom_site_occupancy
  Zn  Zn0  1  0.90066300  0.35948000  0.99349700  1
  Zn  Zn1  1  0.12548367  0.43267033  0.32683033  1
  Zn  Zn2  1  0.97385333  0.20784967  0.66016367  1
  Zn  Zn3  1  0.56732967  0.69281333  0.32683033  1
  Zn  Zn4  1  0.79215033  0.76600367  0.66016367  1
  Zn  Zn5  1  0.64052000  0.54118300  0.99349700  1
  Zn  Zn6  1  0.23399633  0.02614667  0.66016367  1
  Zn  Zn7  1  0.45881700  0.09933700  0.99349700  1
  Zn  Zn8  1  0.30718667  0.87451633  0.32683033  1
  Ga  Ga9  1  0.53238300  0.89425500  0.00336900  1
  Ga  Ga10  1  0.69520533  0.13428367  0.67003567  1
  Ga  Ga11  1  0.77241167  0.97146133  0.33670233  1
  Ga  Ga12  1  0.00000000  0.00000000  0.97761000  1
  Ga  Ga13  1  0.19904967  0.22758833  0.33670233  1
  Ga  Ga14  1  0.36187200  0.46761700  0.00336900  1
  Ga  Ga15  1  0.43907833  0.30479467  0.67003567  1
  Ga  Ga16  1  0.66666667  0.33333333  0.31094333  1
  Ga  Ga17  1  0.86571633  0.56092167  0.67003567  1
  Ga  Ga18  1  0.02853867  0.80095033  0.33670233  1
  Ga  Ga19  1  0.10574500  0.63812800  0.00336900  1
  Ga  Ga20  1  0.33333333  0.66666667  0.64427667  1
  Pd  Pd21  1  0.97291433  0.19088367  0.15856267  1
  Pd  Pd22  1  0.77250767  0.97252133  0.83278433  1
  Pd  Pd23  1  0.69414533  0.13331967  0.16611767  1
  Pd  Pd24  1  0.53334700  0.89415900  0.49945100  1
  Pd  Pd25  1  0.88463600  0.36041900  0.49189600  1
  Pd  Pd26  1  0.00000000  0.00000000  0.49675000  1
  Pd  Pd27  1  0.14244967  0.44869733  0.82522933  1
  Pd  Pd28  1  0.63958100  0.52421700  0.49189600  1
  Pd  Pd29  1  0.43917433  0.30585467  0.16611767  1
  Pd  Pd30  1  0.36081200  0.46665300  0.49945100  1
  Pd  Pd31  1  0.20001367  0.22749233  0.83278433  1
  Pd  Pd32  1  0.55130267  0.69375233  0.82522933  1
  Pd  Pd33  1  0.66666667  0.33333333  0.83008333  1
  Pd  Pd34  1  0.80911633  0.78203067  0.15856267  1
  Pd  Pd35  1  0.30624767  0.85755033  0.82522933  1
  Pd  Pd36  1  0.10584100  0.63918800  0.49945100  1
  Pd  Pd37  1  0.02747867  0.79998633  0.83278433  1
  Pd  Pd38  1  0.86668033  0.56082567  0.16611767  1
  Pd  Pd39  1  0.21796933  0.02708567  0.15856267  1
  Pd  Pd40  1  0.33333333  0.66666667  0.16341667  1
  Pd  Pd41  1  0.47578300  0.11536400  0.49189600  1
