# generated using pymatgen
data_Ti(FeO2)2
_symmetry_space_group_name_H-M   'P 1'
_cell_length_a   6.03122104
_cell_length_b   6.04486953
_cell_length_c   8.90890779
_cell_angle_alpha   90.00000000
_cell_angle_beta   90.00000000
_cell_angle_gamma   90.00000000
_symmetry_Int_Tables_number   1
_chemical_formula_structural   Ti(FeO2)2
_chemical_formula_sum   'Ti4 Fe8 O16'
_cell_volume   324.80046360
_cell_formula_units_Z   4
loop_
 _symmetry_equiv_pos_site_id
 _symmetry_equiv_pos_as_xyz
  1  'x, y, z'
loop_
 _atom_site_type_symbol
 _atom_site_label
 _atom_site_symmetry_multiplicity
 _atom_site_fract_x
 _atom_site_fract_y
 _atom_site_fract_z
 _atom_site_occupancy
  Ti  Ti0  1  0.50000000  0.50000000  0.00000000  1
  Ti  Ti1  1  0.50000000  0.00000000  0.00000000  1
  Ti  Ti2  1  0.00000000  0.00000000  0.50000000  1
  Ti  Ti3  1  0.00000000  0.50000000  0.50000000  1
  Fe  Fe4  1  0.00000000  0.75000000  0.13626950  1
  Fe  Fe5  1  0.25000000  0.25000000  0.25000000  1
  Fe  Fe6  1  0.00000000  0.25000000  0.86373050  1
  Fe  Fe7  1  0.75000000  0.25000000  0.25000000  1
  Fe  Fe8  1  0.50000000  0.25000000  0.63626950  1
  Fe  Fe9  1  0.75000000  0.75000000  0.75000000  1
  Fe  Fe10  1  0.50000000  0.75000000  0.36373050  1
  Fe  Fe11  1  0.25000000  0.75000000  0.75000000  1
  O  O12  1  0.72093950  0.25000000  0.99728050  1
  O  O13  1  0.27906050  0.25000000  0.99728050  1
  O  O14  1  0.72093950  0.75000000  0.00271950  1
  O  O15  1  0.27906050  0.75000000  0.00271950  1
  O  O16  1  0.50000000  0.48813150  0.21992950  1
  O  O17  1  0.50000000  0.01186850  0.21992950  1
  O  O18  1  0.50000000  0.98813150  0.78007050  1
  O  O19  1  0.50000000  0.51186850  0.78007050  1
  O  O20  1  0.22093950  0.75000000  0.49728050  1
  O  O21  1  0.77906050  0.75000000  0.49728050  1
  O  O22  1  0.22093950  0.25000000  0.50271950  1
  O  O23  1  0.77906050  0.25000000  0.50271950  1
  O  O24  1  0.00000000  0.98813150  0.71992950  1
  O  O25  1  0.00000000  0.51186850  0.71992950  1
  O  O26  1  0.00000000  0.48813150  0.28007050  1
  O  O27  1  0.00000000  0.01186850  0.28007050  1
