# generated using pymatgen
data_Na(La2Se3)4
_symmetry_space_group_name_H-M   'P 1'
_cell_length_a   9.09689200
_cell_length_b   9.09689200
_cell_length_c   27.34043000
_cell_angle_alpha   90.00000000
_cell_angle_beta   90.00000000
_cell_angle_gamma   90.00000000
_symmetry_Int_Tables_number   1
_chemical_formula_structural   Na(La2Se3)4
_chemical_formula_sum   'Na4 La32 Se48'
_cell_volume   2262.51474457
_cell_formula_units_Z   4
loop_
 _symmetry_equiv_pos_site_id
 _symmetry_equiv_pos_as_xyz
  1  'x, y, z'
loop_
 _atom_site_type_symbol
 _atom_site_label
 _atom_site_symmetry_multiplicity
 _atom_site_fract_x
 _atom_site_fract_y
 _atom_site_fract_z
 _atom_site_occupancy
  Na  Na0  1  0.00000000  0.00000000  0.00000000  1
  Na  Na1  1  0.00000000  0.50000000  0.25000000  1
  Na  Na2  1  0.50000000  0.50000000  0.50000000  1
  Na  Na3  1  0.50000000  0.00000000  0.75000000  1
  La  La4  1  0.24643100  0.13113800  0.20977400  1
  La  La5  1  0.75356900  0.86886200  0.20977400  1
  La  La6  1  0.50000000  0.50000000  0.16682600  1
  La  La7  1  0.87989400  0.25000000  0.12500000  1
  La  La8  1  0.75356900  0.63113800  0.04022600  1
  La  La9  1  0.50000000  0.00000000  0.08317400  1
  La  La10  1  0.24643100  0.36886200  0.04022600  1
  La  La11  1  0.12010600  0.75000000  0.12500000  1
  La  La12  1  0.86886200  0.25356900  0.45977400  1
  La  La13  1  0.75000000  0.62010600  0.37500000  1
  La  La14  1  0.50000000  0.00000000  0.41682600  1
  La  La15  1  0.25000000  0.37989400  0.37500000  1
  La  La16  1  0.13113800  0.74643100  0.45977400  1
  La  La17  1  0.00000000  0.00000000  0.33317400  1
  La  La18  1  0.36886200  0.74643100  0.29022600  1
  La  La19  1  0.63113800  0.25356900  0.29022600  1
  La  La20  1  0.74643100  0.63113800  0.70977400  1
  La  La21  1  0.25356900  0.36886200  0.70977400  1
  La  La22  1  0.00000000  0.00000000  0.66682600  1
  La  La23  1  0.37989400  0.75000000  0.62500000  1
  La  La24  1  0.25356900  0.13113800  0.54022600  1
  La  La25  1  0.00000000  0.50000000  0.58317400  1
  La  La26  1  0.74643100  0.86886200  0.54022600  1
  La  La27  1  0.62010600  0.25000000  0.62500000  1
  La  La28  1  0.36886200  0.75356900  0.95977400  1
  La  La29  1  0.25000000  0.12010600  0.87500000  1
  La  La30  1  0.00000000  0.50000000  0.91682600  1
  La  La31  1  0.75000000  0.87989400  0.87500000  1
  La  La32  1  0.63113800  0.24643100  0.95977400  1
  La  La33  1  0.50000000  0.50000000  0.83317400  1
  La  La34  1  0.86886200  0.24643100  0.79022600  1
  La  La35  1  0.13113800  0.75356900  0.79022600  1
  Se  Se36  1  0.42582050  0.82551250  0.18316050  1
  Se  Se37  1  0.17922350  0.42632750  0.14709750  1
  Se  Se38  1  0.57417950  0.17448750  0.18316050  1
  Se  Se39  1  0.57417950  0.32551250  0.06683950  1
  Se  Se40  1  0.42582050  0.67448750  0.06683950  1
  Se  Se41  1  0.82077650  0.57367250  0.14709750  1
  Se  Se42  1  0.92283050  0.32628350  0.01608150  1
  Se  Se43  1  0.82077650  0.92632750  0.10290250  1
  Se  Se44  1  0.17371650  0.42283050  0.48391850  1
  Se  Se45  1  0.07716950  0.67371650  0.01608150  1
  Se  Se46  1  0.17922350  0.07367250  0.10290250  1
  Se  Se47  1  0.57367250  0.32077650  0.39709750  1
  Se  Se48  1  0.42632750  0.67922350  0.39709750  1
  Se  Se49  1  0.82628350  0.57716950  0.48391850  1
  Se  Se50  1  0.92632750  0.32077650  0.35290250  1
  Se  Se51  1  0.82551250  0.92582050  0.43316050  1
  Se  Se52  1  0.67448750  0.92582050  0.31683950  1
  Se  Se53  1  0.07367250  0.67922350  0.35290250  1
  Se  Se54  1  0.17448750  0.07417950  0.43316050  1
  Se  Se55  1  0.07716950  0.82628350  0.23391850  1
  Se  Se56  1  0.92283050  0.17371650  0.23391850  1
  Se  Se57  1  0.32551250  0.07417950  0.31683950  1
  Se  Se58  1  0.32628350  0.42283050  0.26608150  1
  Se  Se59  1  0.67371650  0.57716950  0.26608150  1
  Se  Se60  1  0.92582050  0.32551250  0.68316050  1
  Se  Se61  1  0.67922350  0.92632750  0.64709750  1
  Se  Se62  1  0.07417950  0.67448750  0.68316050  1
  Se  Se63  1  0.07417950  0.82551250  0.56683950  1
  Se  Se64  1  0.92582050  0.17448750  0.56683950  1
  Se  Se65  1  0.32077650  0.07367250  0.64709750  1
  Se  Se66  1  0.42283050  0.82628350  0.51608150  1
  Se  Se67  1  0.32077650  0.42632750  0.60290250  1
  Se  Se68  1  0.67371650  0.92283050  0.98391850  1
  Se  Se69  1  0.57716950  0.17371650  0.51608150  1
  Se  Se70  1  0.67922350  0.57367250  0.60290250  1
  Se  Se71  1  0.07367250  0.82077650  0.89709750  1
  Se  Se72  1  0.92632750  0.17922350  0.89709750  1
  Se  Se73  1  0.32628350  0.07716950  0.98391850  1
  Se  Se74  1  0.42632750  0.82077650  0.85290250  1
  Se  Se75  1  0.32551250  0.42582050  0.93316050  1
  Se  Se76  1  0.17448750  0.42582050  0.81683950  1
  Se  Se77  1  0.57367250  0.17922350  0.85290250  1
  Se  Se78  1  0.67448750  0.57417950  0.93316050  1
  Se  Se79  1  0.57716950  0.32628350  0.73391850  1
  Se  Se80  1  0.42283050  0.67371650  0.73391850  1
  Se  Se81  1  0.82551250  0.57417950  0.81683950  1
  Se  Se82  1  0.82628350  0.92283050  0.76608150  1
  Se  Se83  1  0.17371650  0.07716950  0.76608150  1
