# generated using pymatgen
data_LiCrPO4
_symmetry_space_group_name_H-M   'P 1'
_cell_length_a   5.76389654
_cell_length_b   8.30764651
_cell_length_c   6.30092400
_cell_angle_alpha   90.00000000
_cell_angle_beta   90.00000000
_cell_angle_gamma   90.00000000
_symmetry_Int_Tables_number   1
_chemical_formula_structural   LiCrPO4
_chemical_formula_sum   'Li4 Cr4 P4 O16'
_cell_volume   301.71605972
_cell_formula_units_Z   4
loop_
 _symmetry_equiv_pos_site_id
 _symmetry_equiv_pos_as_xyz
  1  'x, y, z'
loop_
 _atom_site_type_symbol
 _atom_site_label
 _atom_site_symmetry_multiplicity
 _atom_site_fract_x
 _atom_site_fract_y
 _atom_site_fract_z
 _atom_site_occupancy
  Li  Li0  1  0.50000000  0.16625350  0.75000000  1
  Li  Li1  1  0.50000000  0.83374650  0.25000000  1
  Li  Li2  1  0.00000000  0.66625350  0.75000000  1
  Li  Li3  1  0.00000000  0.33374650  0.25000000  1
  Cr  Cr4  1  0.00000000  0.00000000  0.50000000  1
  Cr  Cr5  1  0.00000000  0.00000000  0.00000000  1
  Cr  Cr6  1  0.50000000  0.50000000  0.50000000  1
  Cr  Cr7  1  0.50000000  0.50000000  0.00000000  1
  P  P8  1  0.50000000  0.85041775  0.75000000  1
  P  P9  1  0.50000000  0.14958225  0.25000000  1
  P  P10  1  0.00000000  0.35041775  0.75000000  1
  P  P11  1  0.00000000  0.64958225  0.25000000  1
  O  O12  1  0.28414825  0.96502575  0.75000000  1
  O  O13  1  0.28414825  0.03497425  0.25000000  1
  O  O14  1  0.71585175  0.96502575  0.75000000  1
  O  O15  1  0.71585175  0.03497425  0.25000000  1
  O  O16  1  0.50000000  0.74467625  0.95203900  1
  O  O17  1  0.50000000  0.25532375  0.04796100  1
  O  O18  1  0.50000000  0.25532375  0.45203900  1
  O  O19  1  0.50000000  0.74467625  0.54796100  1
  O  O20  1  0.78414825  0.46502575  0.75000000  1
  O  O21  1  0.78414825  0.53497425  0.25000000  1
  O  O22  1  0.21585175  0.46502575  0.75000000  1
  O  O23  1  0.21585175  0.53497425  0.25000000  1
  O  O24  1  0.00000000  0.24467625  0.95203900  1
  O  O25  1  0.00000000  0.75532375  0.04796100  1
  O  O26  1  0.00000000  0.75532375  0.45203900  1
  O  O27  1  0.00000000  0.24467625  0.54796100  1
