# generated using pymatgen
data_Tb2FeSi2
_symmetry_space_group_name_H-M   'P 1'
_cell_length_a   10.59737200
_cell_length_b   4.14860600
_cell_length_c   10.02398781
_cell_angle_alpha   90.00000000
_cell_angle_beta   119.57354239
_cell_angle_gamma   90.00000000
_symmetry_Int_Tables_number   1
_chemical_formula_structural   Tb2FeSi2
_chemical_formula_sum   'Tb8 Fe4 Si8'
_cell_volume   383.28499575
_cell_formula_units_Z   4
loop_
 _symmetry_equiv_pos_site_id
 _symmetry_equiv_pos_as_xyz
  1  'x, y, z'
loop_
 _atom_site_type_symbol
 _atom_site_label
 _atom_site_symmetry_multiplicity
 _atom_site_fract_x
 _atom_site_fract_y
 _atom_site_fract_z
 _atom_site_occupancy
  Tb  Tb0  1  0.81117600  0.00000000  0.89158100  1
  Tb  Tb1  1  0.18882400  0.00000000  0.10841900  1
  Tb  Tb2  1  0.50144200  0.50000000  0.67239500  1
  Tb  Tb3  1  0.49855800  0.50000000  0.32760500  1
  Tb  Tb4  1  0.31117600  0.50000000  0.89158100  1
  Tb  Tb5  1  0.68882400  0.50000000  0.10841900  1
  Tb  Tb6  1  0.00144200  0.00000000  0.67239500  1
  Tb  Tb7  1  0.99855800  0.00000000  0.32760500  1
  Fe  Fe8  1  0.77236500  0.50000000  0.62316300  1
  Fe  Fe9  1  0.22763500  0.50000000  0.37683700  1
  Fe  Fe10  1  0.27236500  0.00000000  0.62316300  1
  Fe  Fe11  1  0.72763500  0.00000000  0.37683700  1
  Si  Si12  1  0.49806700  0.00000000  0.87268000  1
  Si  Si13  1  0.50193300  0.00000000  0.12732000  1
  Si  Si14  1  0.65737100  0.00000000  0.56425300  1
  Si  Si15  1  0.34262900  0.00000000  0.43574700  1
  Si  Si16  1  0.99806700  0.50000000  0.87268000  1
  Si  Si17  1  0.00193300  0.50000000  0.12732000  1
  Si  Si18  1  0.15737100  0.50000000  0.56425300  1
  Si  Si19  1  0.84262900  0.50000000  0.43574700  1
