# generated using pymatgen
data_NiP2O7
_symmetry_space_group_name_H-M   'P 1'
_cell_length_a   9.90435628
_cell_length_b   8.40180774
_cell_length_c   13.55119788
_cell_angle_alpha   90.00000000
_cell_angle_beta   110.69752131
_cell_angle_gamma   90.00000000
_symmetry_Int_Tables_number   1
_chemical_formula_structural   NiP2O7
_chemical_formula_sum   'Ni8 P16 O56'
_cell_volume   1054.87642798
_cell_formula_units_Z   8
loop_
 _symmetry_equiv_pos_site_id
 _symmetry_equiv_pos_as_xyz
  1  'x, y, z'
loop_
 _atom_site_type_symbol
 _atom_site_label
 _atom_site_symmetry_multiplicity
 _atom_site_fract_x
 _atom_site_fract_y
 _atom_site_fract_z
 _atom_site_occupancy
  Ni  Ni0  1  0.64075669  0.76792345  0.64483623  1
  Ni  Ni1  1  0.14075669  0.73207655  0.14483623  1
  Ni  Ni2  1  0.35924331  0.76792345  0.85516377  1
  Ni  Ni3  1  0.85924331  0.73207655  0.35516377  1
  Ni  Ni4  1  0.14075669  0.26792345  0.64483623  1
  Ni  Ni5  1  0.64075669  0.23207655  0.14483623  1
  Ni  Ni6  1  0.85924331  0.26792345  0.85516377  1
  Ni  Ni7  1  0.35924331  0.23207655  0.35516377  1
  P  P8  1  0.82719118  0.08280284  0.63185319  1
  P  P9  1  0.67280882  0.41719716  0.36814681  1
  P  P10  1  0.82719118  0.91719716  0.13185319  1
  P  P11  1  0.62637340  0.03947072  0.92878438  1
  P  P12  1  0.12637340  0.46052928  0.42878438  1
  P  P13  1  0.87362660  0.46052928  0.07121562  1
  P  P14  1  0.67280882  0.58280284  0.86814681  1
  P  P15  1  0.37362660  0.03947072  0.57121562  1
  P  P16  1  0.32719118  0.58280284  0.63185319  1
  P  P17  1  0.17280882  0.91719716  0.36814681  1
  P  P18  1  0.32719118  0.41719716  0.13185319  1
  P  P19  1  0.12637340  0.53947072  0.92878438  1
  P  P20  1  0.62637340  0.96052928  0.42878438  1
  P  P21  1  0.37362660  0.96052928  0.07121562  1
  P  P22  1  0.17280882  0.08280284  0.86814681  1
  P  P23  1  0.87362660  0.53947072  0.57121562  1
  O  O24  1  0.79493939  0.40613054  0.48427519  1
  O  O25  1  0.27088569  0.09381639  0.62440428  1
  O  O26  1  0.49040201  0.95996475  0.85430884  1
  O  O27  1  0.70878180  0.71627890  0.80366918  1
  O  O28  1  0.22911431  0.40618361  0.37559572  1
  O  O29  1  0.00959799  0.54003525  0.14569116  1
  O  O30  1  0.79121820  0.78372110  0.19633082  1
  O  O31  1  0.47189243  0.61452649  0.62160211  1
  O  O32  1  0.79493939  0.59386946  0.98427519  1
  O  O33  1  0.99040201  0.54003525  0.35430884  1
  O  O34  1  0.52810757  0.61452649  0.87839789  1
  O  O35  1  0.41222360  0.81731433  0.01513624  1
  O  O36  1  0.29121820  0.71627890  0.69633082  1
  O  O37  1  0.68770214  0.42172085  0.82080747  1
  O  O38  1  0.08777640  0.31731433  0.48486376  1
  O  O39  1  0.70506061  0.09386946  0.51572481  1
  O  O40  1  0.77088569  0.40618361  0.12440428  1
  O  O41  1  0.70506061  0.90613054  0.01572481  1
  O  O42  1  0.81229786  0.92172085  0.67919253  1
  O  O43  1  0.72911431  0.09381639  0.87559572  1
  O  O44  1  0.02810757  0.88547351  0.37839789  1
  O  O45  1  0.41222360  0.18268567  0.51513624  1
  O  O46  1  0.81229786  0.07827915  0.17919253  1
  O  O47  1  0.20878180  0.78372110  0.30366918  1
  O  O48  1  0.08777640  0.68268567  0.98486376  1
  O  O49  1  0.97189243  0.88547351  0.12160211  1
  O  O50  1  0.50959799  0.95996475  0.64569116  1
  O  O51  1  0.68770214  0.57827915  0.32080747  1
  O  O52  1  0.29493939  0.90613054  0.48427519  1
  O  O53  1  0.77088569  0.59381639  0.62440428  1
  O  O54  1  0.99040201  0.45996475  0.85430884  1
  O  O55  1  0.20878180  0.21627890  0.80366918  1
  O  O56  1  0.72911431  0.90618361  0.37559572  1
  O  O57  1  0.50959799  0.04003525  0.14569116  1
  O  O58  1  0.29121820  0.28372110  0.19633082  1
  O  O59  1  0.97189243  0.11452649  0.62160211  1
  O  O60  1  0.29493939  0.09386946  0.98427519  1
  O  O61  1  0.49040201  0.04003525  0.35430884  1
  O  O62  1  0.02810757  0.11452649  0.87839789  1
  O  O63  1  0.91222360  0.31731433  0.01513624  1
  O  O64  1  0.79121820  0.21627890  0.69633082  1
  O  O65  1  0.18770214  0.92172085  0.82080747  1
  O  O66  1  0.58777640  0.81731433  0.48486376  1
  O  O67  1  0.20506061  0.59386946  0.51572481  1
  O  O68  1  0.27088569  0.90618361  0.12440428  1
  O  O69  1  0.20506061  0.40613054  0.01572481  1
  O  O70  1  0.31229786  0.42172085  0.67919253  1
  O  O71  1  0.22911431  0.59381639  0.87559572  1
  O  O72  1  0.52810757  0.38547351  0.37839789  1
  O  O73  1  0.91222360  0.68268567  0.51513624  1
  O  O74  1  0.31229786  0.57827915  0.17919253  1
  O  O75  1  0.70878180  0.28372110  0.30366918  1
  O  O76  1  0.58777640  0.18268567  0.98486376  1
  O  O77  1  0.47189243  0.38547351  0.12160211  1
  O  O78  1  0.00959799  0.45996475  0.64569116  1
  O  O79  1  0.18770214  0.07827915  0.32080747  1
