# generated using pymatgen
data_K3PbAu5
_symmetry_space_group_name_H-M   'P 1'
_cell_length_a   5.77137200
_cell_length_b   8.62975600
_cell_length_c   20.03722200
_cell_angle_alpha   90.00000000
_cell_angle_beta   90.00000000
_cell_angle_gamma   90.00000000
_symmetry_Int_Tables_number   1
_chemical_formula_structural   K3PbAu5
_chemical_formula_sum   'K12 Pb4 Au20'
_cell_volume   997.96450442
_cell_formula_units_Z   4
loop_
 _symmetry_equiv_pos_site_id
 _symmetry_equiv_pos_as_xyz
  1  'x, y, z'
loop_
 _atom_site_type_symbol
 _atom_site_label
 _atom_site_symmetry_multiplicity
 _atom_site_fract_x
 _atom_site_fract_y
 _atom_site_fract_z
 _atom_site_occupancy
  K  K0  1  0.50000000  0.62551800  0.25000000  1
  K  K1  1  0.00000000  0.87448200  0.25000000  1
  K  K2  1  0.00000000  0.12346250  0.41430950  1
  K  K3  1  0.50000000  0.37653750  0.41430950  1
  K  K4  1  0.50000000  0.37653750  0.08569050  1
  K  K5  1  0.00000000  0.12346250  0.08569050  1
  K  K6  1  0.00000000  0.12551800  0.75000000  1
  K  K7  1  0.50000000  0.37448200  0.75000000  1
  K  K8  1  0.50000000  0.62346250  0.91430950  1
  K  K9  1  0.00000000  0.87653750  0.91430950  1
  K  K10  1  0.00000000  0.87653750  0.58569050  1
  K  K11  1  0.50000000  0.62346250  0.58569050  1
  Pb  Pb12  1  0.50000000  0.16757500  0.25000000  1
  Pb  Pb13  1  0.00000000  0.33242500  0.25000000  1
  Pb  Pb14  1  0.00000000  0.66757500  0.75000000  1
  Pb  Pb15  1  0.50000000  0.83242500  0.75000000  1
  Au  Au16  1  0.50000000  0.96248450  0.35606250  1
  Au  Au17  1  0.00000000  0.53751550  0.14393750  1
  Au  Au18  1  0.00000000  0.50000000  0.00000000  1
  Au  Au19  1  0.00000000  0.53751550  0.35606250  1
  Au  Au20  1  0.25000000  0.75000000  0.06520500  1
  Au  Au21  1  0.50000000  0.96248450  0.14393750  1
  Au  Au22  1  0.25000000  0.75000000  0.43479500  1
  Au  Au23  1  0.75000000  0.75000000  0.06520500  1
  Au  Au24  1  0.50000000  0.00000000  0.00000000  1
  Au  Au25  1  0.75000000  0.75000000  0.43479500  1
  Au  Au26  1  0.00000000  0.46248450  0.85606250  1
  Au  Au27  1  0.50000000  0.03751550  0.64393750  1
  Au  Au28  1  0.50000000  0.00000000  0.50000000  1
  Au  Au29  1  0.50000000  0.03751550  0.85606250  1
  Au  Au30  1  0.75000000  0.25000000  0.56520500  1
  Au  Au31  1  0.00000000  0.46248450  0.64393750  1
  Au  Au32  1  0.75000000  0.25000000  0.93479500  1
  Au  Au33  1  0.25000000  0.25000000  0.56520500  1
  Au  Au34  1  0.00000000  0.50000000  0.50000000  1
  Au  Au35  1  0.25000000  0.25000000  0.93479500  1
