# generated using pymatgen
data_Sr(Mo3S4)2
_symmetry_space_group_name_H-M   'P 1'
_cell_length_a   9.28849310
_cell_length_b   9.28849310
_cell_length_c   11.64100832
_cell_angle_alpha   90.00000000
_cell_angle_beta   90.00000000
_cell_angle_gamma   120.00000000
_symmetry_Int_Tables_number   1
_chemical_formula_structural   Sr(Mo3S4)2
_chemical_formula_sum   'Sr3 Mo18 S24'
_cell_volume   869.78468690
_cell_formula_units_Z   3
loop_
 _symmetry_equiv_pos_site_id
 _symmetry_equiv_pos_as_xyz
  1  'x, y, z'
loop_
 _atom_site_type_symbol
 _atom_site_label
 _atom_site_symmetry_multiplicity
 _atom_site_fract_x
 _atom_site_fract_y
 _atom_site_fract_z
 _atom_site_occupancy
  Sr  Sr0  1  0.00000000  0.00000000  0.00000000  1
  Sr  Sr1  1  0.66666667  0.33333333  0.33333333  1
  Sr  Sr2  1  0.33333333  0.66666667  0.66666667  1
  Mo  Mo3  1  0.34794167  0.84073633  0.06934233  1
  Mo  Mo4  1  0.15926367  0.50720533  0.06934233  1
  Mo  Mo5  1  0.49279467  0.65205833  0.06934233  1
  Mo  Mo6  1  0.17387200  0.68127500  0.26399100  1
  Mo  Mo7  1  0.50740300  0.82612800  0.26399100  1
  Mo  Mo8  1  0.31872500  0.49259700  0.26399100  1
  Mo  Mo9  1  0.01460833  0.17406967  0.40267567  1
  Mo  Mo10  1  0.82593033  0.84053867  0.40267567  1
  Mo  Mo11  1  0.15946133  0.98539167  0.40267567  1
  Mo  Mo12  1  0.84053867  0.01460833  0.59732433  1
  Mo  Mo13  1  0.17406967  0.15946133  0.59732433  1
  Mo  Mo14  1  0.98539167  0.82593033  0.59732433  1
  Mo  Mo15  1  0.68127500  0.50740300  0.73600900  1
  Mo  Mo16  1  0.49259700  0.17387200  0.73600900  1
  Mo  Mo17  1  0.82612800  0.31872500  0.73600900  1
  Mo  Mo18  1  0.50720533  0.34794167  0.93065767  1
  Mo  Mo19  1  0.84073633  0.49279467  0.93065767  1
  Mo  Mo20  1  0.65205833  0.15926367  0.93065767  1
  S  S21  1  0.33333333  0.66666667  0.91198167  1
  S  S22  1  0.65623333  0.95711067  0.08342067  1
  S  S23  1  0.30087733  0.34376667  0.08342067  1
  S  S24  1  0.04288933  0.69912267  0.08342067  1
  S  S25  1  0.01043333  0.37622267  0.24991267  1
  S  S26  1  0.36578933  0.98956667  0.24991267  1
  S  S27  1  0.33333333  0.66666667  0.42135167  1
  S  S28  1  0.62377733  0.63421067  0.24991267  1
  S  S29  1  0.00000000  0.00000000  0.24531500  1
  S  S30  1  0.32290000  0.29044400  0.41675400  1
  S  S31  1  0.96754400  0.67710000  0.41675400  1
  S  S32  1  0.70955600  0.03245600  0.41675400  1
  S  S33  1  0.67710000  0.70955600  0.58324600  1
  S  S34  1  0.03245600  0.32290000  0.58324600  1
  S  S35  1  0.00000000  0.00000000  0.75468500  1
  S  S36  1  0.29044400  0.96754400  0.58324600  1
  S  S37  1  0.66666667  0.33333333  0.57864833  1
  S  S38  1  0.98956667  0.62377733  0.75008733  1
  S  S39  1  0.63421067  0.01043333  0.75008733  1
  S  S40  1  0.37622267  0.36578933  0.75008733  1
  S  S41  1  0.34376667  0.04288933  0.91657933  1
  S  S42  1  0.69912267  0.65623333  0.91657933  1
  S  S43  1  0.66666667  0.33333333  0.08801833  1
  S  S44  1  0.95711067  0.30087733  0.91657933  1
