# generated using pymatgen
data_Cs2Mn3Se4
_symmetry_space_group_name_H-M   'P 1'
_cell_length_a   6.33240200
_cell_length_b   12.23670400
_cell_length_c   14.74342200
_cell_angle_alpha   90.00000000
_cell_angle_beta   90.00000000
_cell_angle_gamma   90.00000000
_symmetry_Int_Tables_number   1
_chemical_formula_structural   Cs2Mn3Se4
_chemical_formula_sum   'Cs8 Mn12 Se16'
_cell_volume   1142.43428674
_cell_formula_units_Z   4
loop_
 _symmetry_equiv_pos_site_id
 _symmetry_equiv_pos_as_xyz
  1  'x, y, z'
loop_
 _atom_site_type_symbol
 _atom_site_label
 _atom_site_symmetry_multiplicity
 _atom_site_fract_x
 _atom_site_fract_y
 _atom_site_fract_z
 _atom_site_occupancy
  Cs  Cs0  1  0.23464600  0.12101200  0.00000000  1
  Cs  Cs1  1  0.73464600  0.37898800  0.00000000  1
  Cs  Cs2  1  0.26535400  0.62101200  0.00000000  1
  Cs  Cs3  1  0.76535400  0.87898800  0.00000000  1
  Cs  Cs4  1  0.73464600  0.62101200  0.50000000  1
  Cs  Cs5  1  0.23464600  0.87898800  0.50000000  1
  Cs  Cs6  1  0.76535400  0.12101200  0.50000000  1
  Cs  Cs7  1  0.26535400  0.37898800  0.50000000  1
  Mn  Mn8  1  0.50000000  0.27032000  0.25000000  1
  Mn  Mn9  1  0.50000000  0.72968000  0.25000000  1
  Mn  Mn10  1  0.50000000  0.72968000  0.75000000  1
  Mn  Mn11  1  0.00000000  0.50000000  0.25000000  1
  Mn  Mn12  1  0.00000000  0.50000000  0.75000000  1
  Mn  Mn13  1  0.50000000  0.27032000  0.75000000  1
  Mn  Mn14  1  0.00000000  0.77032000  0.75000000  1
  Mn  Mn15  1  0.00000000  0.22968000  0.75000000  1
  Mn  Mn16  1  0.00000000  0.22968000  0.25000000  1
  Mn  Mn17  1  0.50000000  0.00000000  0.75000000  1
  Mn  Mn18  1  0.50000000  0.00000000  0.25000000  1
  Mn  Mn19  1  0.00000000  0.77032000  0.25000000  1
  Se  Se20  1  0.22039450  0.36652350  0.84737550  1
  Se  Se21  1  0.22039450  0.63347650  0.65262450  1
  Se  Se22  1  0.77960550  0.36652350  0.65262450  1
  Se  Se23  1  0.77960550  0.63347650  0.84737550  1
  Se  Se24  1  0.77960550  0.63347650  0.15262450  1
  Se  Se25  1  0.77960550  0.36652350  0.34737550  1
  Se  Se26  1  0.22039450  0.63347650  0.34737550  1
  Se  Se27  1  0.22039450  0.36652350  0.15262450  1
  Se  Se28  1  0.72039450  0.86652350  0.34737550  1
  Se  Se29  1  0.72039450  0.13347650  0.15262450  1
  Se  Se30  1  0.27960550  0.86652350  0.15262450  1
  Se  Se31  1  0.27960550  0.13347650  0.34737550  1
  Se  Se32  1  0.27960550  0.13347650  0.65262450  1
  Se  Se33  1  0.27960550  0.86652350  0.84737550  1
  Se  Se34  1  0.72039450  0.13347650  0.84737550  1
  Se  Se35  1  0.72039450  0.86652350  0.65262450  1
