# generated using pymatgen
data_LiNiP2O7
_symmetry_space_group_name_H-M   'P 1'
_cell_length_a   6.81908300
_cell_length_b   7.88422000
_cell_length_c   9.41123537
_cell_angle_alpha   90.00000000
_cell_angle_beta   111.72380175
_cell_angle_gamma   90.00000000
_symmetry_Int_Tables_number   1
_chemical_formula_structural   LiNiP2O7
_chemical_formula_sum   'Li4 Ni4 P8 O28'
_cell_volume   470.04256957
_cell_formula_units_Z   4
loop_
 _symmetry_equiv_pos_site_id
 _symmetry_equiv_pos_as_xyz
  1  'x, y, z'
loop_
 _atom_site_type_symbol
 _atom_site_label
 _atom_site_symmetry_multiplicity
 _atom_site_fract_x
 _atom_site_fract_y
 _atom_site_fract_z
 _atom_site_occupancy
  Li  Li0  1  0.19593000  0.12612600  0.53006200  1
  Li  Li1  1  0.19593000  0.37387400  0.03006200  1
  Li  Li2  1  0.80407000  0.62612600  0.96993800  1
  Li  Li3  1  0.80407000  0.87387400  0.46993800  1
  Ni  Ni4  1  0.27310500  0.76772700  0.99815000  1
  Ni  Ni5  1  0.27310500  0.73227300  0.49815000  1
  Ni  Ni6  1  0.72689500  0.26772700  0.50185000  1
  Ni  Ni7  1  0.72689500  0.23227300  0.00185000  1
  P  P8  1  0.95336000  0.45927000  0.29798100  1
  P  P9  1  0.95336000  0.04073000  0.79798100  1
  P  P10  1  0.54185700  0.58471200  0.30083000  1
  P  P11  1  0.45814300  0.08471200  0.19917000  1
  P  P12  1  0.04664000  0.54073000  0.70201900  1
  P  P13  1  0.04664000  0.95927000  0.20201900  1
  P  P14  1  0.45814300  0.41528800  0.69917000  1
  P  P15  1  0.54185700  0.91528800  0.80083000  1
  O  O16  1  0.91562700  0.40799200  0.12967300  1
  O  O17  1  0.84047600  0.06008400  0.14777100  1
  O  O18  1  0.95052200  0.31160900  0.40198000  1
  O  O19  1  0.77418700  0.59768200  0.28933300  1
  O  O20  1  0.08437300  0.59200800  0.87032700  1
  O  O21  1  0.15952400  0.93991600  0.85222900  1
  O  O22  1  0.04947800  0.68839100  0.59802000  1
  O  O23  1  0.22581300  0.40231800  0.71066700  1
  O  O24  1  0.08437300  0.90799200  0.37032700  1
  O  O25  1  0.15952400  0.56008400  0.35222900  1
  O  O26  1  0.04947800  0.81160900  0.09802000  1
  O  O27  1  0.38277400  0.91785300  0.63246800  1
  O  O28  1  0.53115500  0.76500400  0.89843600  1
  O  O29  1  0.22581300  0.09768200  0.21066700  1
  O  O30  1  0.52508800  0.09157200  0.86374300  1
  O  O31  1  0.47491200  0.59157200  0.63625700  1
  O  O32  1  0.46884500  0.26500400  0.60156400  1
  O  O33  1  0.61722600  0.41785300  0.86753200  1
  O  O34  1  0.38277400  0.58214700  0.13246800  1
  O  O35  1  0.53115500  0.73499600  0.39843600  1
  O  O36  1  0.52508800  0.40842800  0.36374300  1
  O  O37  1  0.47491200  0.90842800  0.13625700  1
  O  O38  1  0.77418700  0.90231800  0.78933300  1
  O  O39  1  0.46884500  0.23499600  0.10156400  1
  O  O40  1  0.61722600  0.08214700  0.36753200  1
  O  O41  1  0.95052200  0.18839100  0.90198000  1
  O  O42  1  0.84047600  0.43991600  0.64777100  1
  O  O43  1  0.91562700  0.09200800  0.62967300  1
