# generated using pymatgen
data_La2Mg17
_symmetry_space_group_name_H-M   'P 1'
_cell_length_a   10.35945006
_cell_length_b   10.35945006
_cell_length_c   10.17587000
_cell_angle_alpha   90.00000000
_cell_angle_beta   90.00000000
_cell_angle_gamma   120.00000000
_symmetry_Int_Tables_number   1
_chemical_formula_structural   La2Mg17
_chemical_formula_sum   'La4 Mg34'
_cell_volume   945.74833150
_cell_formula_units_Z   2
loop_
 _symmetry_equiv_pos_site_id
 _symmetry_equiv_pos_as_xyz
  1  'x, y, z'
loop_
 _atom_site_type_symbol
 _atom_site_label
 _atom_site_symmetry_multiplicity
 _atom_site_fract_x
 _atom_site_fract_y
 _atom_site_fract_z
 _atom_site_occupancy
  La  La0  1  0.33333333  0.66666667  0.75000000  1
  La  La1  1  0.66666667  0.33333333  0.25000000  1
  La  La2  1  0.00000000  0.00000000  0.25000000  1
  La  La3  1  0.00000000  0.00000000  0.75000000  1
  Mg  Mg4  1  0.83765100  0.67530200  0.02134300  1
  Mg  Mg5  1  0.32469800  0.16234900  0.02134300  1
  Mg  Mg6  1  0.83765100  0.16234900  0.02134300  1
  Mg  Mg7  1  0.16234900  0.83765100  0.52134300  1
  Mg  Mg8  1  0.66666667  0.33333333  0.60094700  1
  Mg  Mg9  1  0.33333333  0.66666667  0.10094700  1
  Mg  Mg10  1  0.33333333  0.66666667  0.39905300  1
  Mg  Mg11  1  0.66666667  0.33333333  0.89905300  1
  Mg  Mg12  1  0.00000000  0.50000000  0.50000000  1
  Mg  Mg13  1  0.50000000  0.00000000  0.00000000  1
  Mg  Mg14  1  0.50000000  0.50000000  0.00000000  1
  Mg  Mg15  1  0.50000000  0.50000000  0.50000000  1
  Mg  Mg16  1  0.50000000  0.00000000  0.50000000  1
  Mg  Mg17  1  0.00000000  0.50000000  0.00000000  1
  Mg  Mg18  1  0.96435000  0.63594600  0.75000000  1
  Mg  Mg19  1  0.32840400  0.96435000  0.25000000  1
  Mg  Mg20  1  0.63594600  0.67159600  0.25000000  1
  Mg  Mg21  1  0.36405400  0.32840400  0.75000000  1
  Mg  Mg22  1  0.67159600  0.03565000  0.75000000  1
  Mg  Mg23  1  0.03565000  0.67159600  0.25000000  1
  Mg  Mg24  1  0.63594600  0.96435000  0.25000000  1
  Mg  Mg25  1  0.03565000  0.36405400  0.25000000  1
  Mg  Mg26  1  0.32840400  0.36405400  0.25000000  1
  Mg  Mg27  1  0.67159600  0.63594600  0.75000000  1
  Mg  Mg28  1  0.96435000  0.32840400  0.75000000  1
  Mg  Mg29  1  0.36405400  0.03565000  0.75000000  1
  Mg  Mg30  1  0.32469800  0.16234900  0.47865700  1
  Mg  Mg31  1  0.16234900  0.32469800  0.97865700  1
  Mg  Mg32  1  0.16234900  0.83765100  0.97865700  1
  Mg  Mg33  1  0.83765100  0.16234900  0.47865700  1
  Mg  Mg34  1  0.83765100  0.67530200  0.47865700  1
  Mg  Mg35  1  0.67530200  0.83765100  0.52134300  1
  Mg  Mg36  1  0.16234900  0.32469800  0.52134300  1
  Mg  Mg37  1  0.67530200  0.83765100  0.97865700  1
