# generated using pymatgen
data_Tb4H9
_symmetry_space_group_name_H-M   'P 1'
_cell_length_a   5.21520000
_cell_length_b   5.21520000
_cell_length_c   10.49026800
_cell_angle_alpha   90.00000000
_cell_angle_beta   90.00000000
_cell_angle_gamma   90.00000000
_symmetry_Int_Tables_number   1
_chemical_formula_structural   Tb4H9
_chemical_formula_sum   'Tb8 H18'
_cell_volume   285.31757196
_cell_formula_units_Z   2
loop_
 _symmetry_equiv_pos_site_id
 _symmetry_equiv_pos_as_xyz
  1  'x, y, z'
loop_
 _atom_site_type_symbol
 _atom_site_label
 _atom_site_symmetry_multiplicity
 _atom_site_fract_x
 _atom_site_fract_y
 _atom_site_fract_z
 _atom_site_occupancy
  Tb  Tb0  1  0.00000000  0.50000000  0.00000000  1
  Tb  Tb1  1  0.50000000  0.00000000  0.00000000  1
  Tb  Tb2  1  0.50000000  0.50000000  0.24771000  1
  Tb  Tb3  1  0.00000000  0.00000000  0.25229000  1
  Tb  Tb4  1  0.50000000  0.00000000  0.50000000  1
  Tb  Tb5  1  0.00000000  0.50000000  0.50000000  1
  Tb  Tb6  1  0.00000000  0.00000000  0.74771000  1
  Tb  Tb7  1  0.50000000  0.50000000  0.75229000  1
  H  H8  1  0.24308950  0.75691050  0.12762050  1
  H  H9  1  0.75691050  0.24308950  0.12762050  1
  H  H10  1  0.74308950  0.25691050  0.37237950  1
  H  H11  1  0.74308950  0.74308950  0.37237950  1
  H  H12  1  0.24308950  0.24308950  0.12762050  1
  H  H13  1  0.50000000  0.50000000  0.00000000  1
  H  H14  1  0.25691050  0.74308950  0.37237950  1
  H  H15  1  0.25691050  0.25691050  0.37237950  1
  H  H16  1  0.75691050  0.75691050  0.12762050  1
  H  H17  1  0.74308950  0.25691050  0.62762050  1
  H  H18  1  0.25691050  0.74308950  0.62762050  1
  H  H19  1  0.24308950  0.75691050  0.87237950  1
  H  H20  1  0.24308950  0.24308950  0.87237950  1
  H  H21  1  0.74308950  0.74308950  0.62762050  1
  H  H22  1  0.00000000  0.00000000  0.50000000  1
  H  H23  1  0.75691050  0.24308950  0.87237950  1
  H  H24  1  0.75691050  0.75691050  0.87237950  1
  H  H25  1  0.25691050  0.25691050  0.62762050  1
