# generated using pymatgen
data_LiNi(PO3)3
_symmetry_space_group_name_H-M   'P 1'
_cell_length_a   9.36032771
_cell_length_b   9.38026386
_cell_length_c   9.63279600
_cell_angle_alpha   104.66366454
_cell_angle_beta   109.76292845
_cell_angle_gamma   108.75259712
_symmetry_Int_Tables_number   1
_chemical_formula_structural   LiNi(PO3)3
_chemical_formula_sum   'Li4 Ni4 P12 O36'
_cell_volume   688.78072397
_cell_formula_units_Z   4
loop_
 _symmetry_equiv_pos_site_id
 _symmetry_equiv_pos_as_xyz
  1  'x, y, z'
loop_
 _atom_site_type_symbol
 _atom_site_label
 _atom_site_symmetry_multiplicity
 _atom_site_fract_x
 _atom_site_fract_y
 _atom_site_fract_z
 _atom_site_occupancy
  Li  Li0  1  0.93277100  0.34735000  0.50392800  1
  Li  Li1  1  0.15415800  0.36078800  0.32610000  1
  Li  Li2  1  0.84584200  0.63921200  0.67390000  1
  Li  Li3  1  0.06722900  0.65265000  0.49607200  1
  Ni  Ni4  1  0.22886300  0.75067600  0.27607200  1
  Ni  Ni5  1  0.29654200  0.09687300  0.21168400  1
  Ni  Ni6  1  0.70345800  0.90312700  0.78831600  1
  Ni  Ni7  1  0.77113700  0.24932400  0.72392800  1
  P  P8  1  0.08960800  0.18772100  0.92481100  1
  P  P9  1  0.15138500  0.51390200  0.89966400  1
  P  P10  1  0.21357000  0.94377000  0.83990200  1
  P  P11  1  0.39342100  0.99736900  0.64684000  1
  P  P12  1  0.91039200  0.81227900  0.07518900  1
  P  P13  1  0.84861500  0.48609800  0.10033600  1
  P  P14  1  0.78643000  0.05623000  0.16009800  1
  P  P15  1  0.65836800  0.42701700  0.29136500  1
  P  P16  1  0.56247100  0.69208600  0.40805900  1
  P  P17  1  0.60657900  0.00263100  0.35316000  1
  P  P18  1  0.43752900  0.30791400  0.59194100  1
  P  P19  1  0.34163200  0.57298300  0.70863500  1
  O  O20  1  0.18953300  0.36799200  0.93770300  1
  O  O21  1  0.72720500  0.04854400  0.99318200  1
  O  O22  1  0.16756600  0.09484800  0.83185400  1
  O  O23  1  0.37698100  0.00020500  0.80628900  1
  O  O24  1  0.81046700  0.63200800  0.06229700  1
  O  O25  1  0.27279500  0.95145600  0.00681800  1
  O  O26  1  0.83243400  0.90515200  0.16814600  1
  O  O27  1  0.62301900  0.99979500  0.19371100  1
  O  O28  1  0.69390100  0.40365500  0.13641300  1
  O  O29  1  0.17499200  0.63662800  0.04709900  1
  O  O30  1  0.09812800  0.88356500  0.19012700  1
  O  O31  1  0.42650900  0.97071000  0.32241900  1
  O  O32  1  0.63560500  0.84750600  0.36751200  1
  O  O33  1  0.59219800  0.56604200  0.28696200  1
  O  O34  1  0.92576900  0.21406800  0.29764700  1
  O  O35  1  0.13962800  0.19148900  0.09269500  1
  O  O36  1  0.51749700  0.26904400  0.25157600  1
  O  O37  1  0.82241300  0.49691800  0.44353700  1
  O  O38  1  0.37536900  0.63338900  0.35556600  1
  O  O39  1  0.01583900  0.56143500  0.25234500  1
  O  O40  1  0.68015100  0.73198500  0.58034300  1
  O  O41  1  0.25102600  0.84453700  0.50340900  1
  O  O42  1  0.74897400  0.15546300  0.49659100  1
  O  O43  1  0.31984900  0.26801500  0.41965700  1
  O  O44  1  0.98416100  0.43856500  0.74765500  1
  O  O45  1  0.62463100  0.36661100  0.64443400  1
  O  O46  1  0.17758700  0.50308200  0.55646300  1
  O  O47  1  0.48250300  0.73095600  0.74842400  1
  O  O48  1  0.86037200  0.80851100  0.90730500  1
  O  O49  1  0.07423100  0.78593200  0.70235300  1
  O  O50  1  0.40780200  0.43395800  0.71303800  1
  O  O51  1  0.36439500  0.15249400  0.63248800  1
  O  O52  1  0.57349100  0.02929000  0.67758100  1
  O  O53  1  0.90187200  0.11643500  0.80987300  1
  O  O54  1  0.82500800  0.36337200  0.95290100  1
  O  O55  1  0.30609900  0.59634500  0.86358700  1
