# generated using pymatgen
data_LiCoP2O7
_symmetry_space_group_name_H-M   'P 1'
_cell_length_a   6.51877200
_cell_length_b   8.19813200
_cell_length_c   4.52687919
_cell_angle_alpha   90.00000000
_cell_angle_beta   103.51241854
_cell_angle_gamma   90.00000000
_symmetry_Int_Tables_number   1
_chemical_formula_structural   LiCoP2O7
_chemical_formula_sum   'Li2 Co2 P4 O14'
_cell_volume   235.22772511
_cell_formula_units_Z   2
loop_
 _symmetry_equiv_pos_site_id
 _symmetry_equiv_pos_as_xyz
  1  'x, y, z'
loop_
 _atom_site_type_symbol
 _atom_site_label
 _atom_site_symmetry_multiplicity
 _atom_site_fract_x
 _atom_site_fract_y
 _atom_site_fract_z
 _atom_site_occupancy
  Li  Li0  1  0.50000000  0.80643400  0.50000000  1
  Li  Li1  1  0.00000000  0.30643400  0.50000000  1
  Co  Co2  1  0.50000000  0.43461200  0.50000000  1
  Co  Co3  1  0.00000000  0.93461200  0.50000000  1
  P  P4  1  0.28955500  0.09852900  0.09064800  1
  P  P5  1  0.71044500  0.09852900  0.90935200  1
  P  P6  1  0.78955500  0.59852900  0.09064800  1
  P  P7  1  0.21044500  0.59852900  0.90935200  1
  O  O8  1  0.87563050  0.11407350  0.21245400  1
  O  O9  1  0.67373050  0.26274450  0.74953100  1
  O  O10  1  0.75129250  0.95905750  0.69837700  1
  O  O11  1  0.32626950  0.26274450  0.25046900  1
  O  O12  1  0.50000000  0.03464800  0.00000000  1
  O  O13  1  0.12436950  0.11407350  0.78754600  1
  O  O14  1  0.24870750  0.95905750  0.30162300  1
  O  O15  1  0.37563050  0.61407350  0.21245400  1
  O  O16  1  0.17373050  0.76274450  0.74953100  1
  O  O17  1  0.25129250  0.45905750  0.69837700  1
  O  O18  1  0.82626950  0.76274450  0.25046900  1
  O  O19  1  0.00000000  0.53464800  0.00000000  1
  O  O20  1  0.62436950  0.61407350  0.78754600  1
  O  O21  1  0.74870750  0.45905750  0.30162300  1
