# generated using pymatgen
data_La5(AlBr)4
_symmetry_space_group_name_H-M   'P 1'
_cell_length_a   8.32952400
_cell_length_b   8.32952400
_cell_length_c   20.33059400
_cell_angle_alpha   90.00000000
_cell_angle_beta   90.00000000
_cell_angle_gamma   90.00000000
_symmetry_Int_Tables_number   1
_chemical_formula_structural   La5(AlBr)4
_chemical_formula_sum   'La20 Al16 Br16'
_cell_volume   1410.55633375
_cell_formula_units_Z   4
loop_
 _symmetry_equiv_pos_site_id
 _symmetry_equiv_pos_as_xyz
  1  'x, y, z'
loop_
 _atom_site_type_symbol
 _atom_site_label
 _atom_site_symmetry_multiplicity
 _atom_site_fract_x
 _atom_site_fract_y
 _atom_site_fract_z
 _atom_site_occupancy
  La  La0  1  0.00000000  0.00000000  0.25000000  1
  La  La1  1  0.50000000  0.50000000  0.25000000  1
  La  La2  1  0.16178150  0.33821850  0.38553850  1
  La  La3  1  0.33821850  0.16178150  0.11446150  1
  La  La4  1  0.66178150  0.83821850  0.11446150  1
  La  La5  1  0.16178150  0.66178150  0.11446150  1
  La  La6  1  0.83821850  0.33821850  0.11446150  1
  La  La7  1  0.66178150  0.16178150  0.38553850  1
  La  La8  1  0.33821850  0.83821850  0.38553850  1
  La  La9  1  0.83821850  0.66178150  0.38553850  1
  La  La10  1  0.50000000  0.50000000  0.75000000  1
  La  La11  1  0.00000000  0.00000000  0.75000000  1
  La  La12  1  0.66178150  0.83821850  0.88553850  1
  La  La13  1  0.83821850  0.66178150  0.61446150  1
  La  La14  1  0.16178150  0.33821850  0.61446150  1
  La  La15  1  0.66178150  0.16178150  0.61446150  1
  La  La16  1  0.33821850  0.83821850  0.61446150  1
  La  La17  1  0.16178150  0.66178150  0.88553850  1
  La  La18  1  0.83821850  0.33821850  0.88553850  1
  La  La19  1  0.33821850  0.16178150  0.88553850  1
  Al  Al20  1  0.14255750  0.35744250  0.22016150  1
  Al  Al21  1  0.35744250  0.14255750  0.27983850  1
  Al  Al22  1  0.64255750  0.85744250  0.27983850  1
  Al  Al23  1  0.14255750  0.64255750  0.27983850  1
  Al  Al24  1  0.85744250  0.35744250  0.27983850  1
  Al  Al25  1  0.64255750  0.14255750  0.22016150  1
  Al  Al26  1  0.35744250  0.85744250  0.22016150  1
  Al  Al27  1  0.85744250  0.64255750  0.22016150  1
  Al  Al28  1  0.64255750  0.85744250  0.72016150  1
  Al  Al29  1  0.85744250  0.64255750  0.77983850  1
  Al  Al30  1  0.14255750  0.35744250  0.77983850  1
  Al  Al31  1  0.64255750  0.14255750  0.77983850  1
  Al  Al32  1  0.35744250  0.85744250  0.77983850  1
  Al  Al33  1  0.14255750  0.64255750  0.72016150  1
  Al  Al34  1  0.85744250  0.35744250  0.72016150  1
  Al  Al35  1  0.35744250  0.14255750  0.72016150  1
  Br  Br36  1  0.85596100  0.64403900  0.00000000  1
  Br  Br37  1  0.35596100  0.85596100  0.00000000  1
  Br  Br38  1  0.50000000  0.50000000  0.40531300  1
  Br  Br39  1  0.50000000  0.50000000  0.09468700  1
  Br  Br40  1  0.00000000  0.00000000  0.09468700  1
  Br  Br41  1  0.00000000  0.00000000  0.40531300  1
  Br  Br42  1  0.14403900  0.35596100  0.00000000  1
  Br  Br43  1  0.14403900  0.64403900  0.50000000  1
  Br  Br44  1  0.35596100  0.14403900  0.50000000  1
  Br  Br45  1  0.85596100  0.35596100  0.50000000  1
  Br  Br46  1  0.00000000  0.00000000  0.90531300  1
  Br  Br47  1  0.00000000  0.00000000  0.59468700  1
  Br  Br48  1  0.50000000  0.50000000  0.59468700  1
  Br  Br49  1  0.50000000  0.50000000  0.90531300  1
  Br  Br50  1  0.64403900  0.85596100  0.50000000  1
  Br  Br51  1  0.64403900  0.14403900  0.00000000  1
