# generated using pymatgen
data_LiCoPO4
_symmetry_space_group_name_H-M   'P 1'
_cell_length_a   5.49723759
_cell_length_b   8.23988913
_cell_length_c   6.25566500
_cell_angle_alpha   90.00000000
_cell_angle_beta   90.00000000
_cell_angle_gamma   90.00000000
_symmetry_Int_Tables_number   1
_chemical_formula_structural   LiCoPO4
_chemical_formula_sum   'Li4 Co4 P4 O16'
_cell_volume   283.36053203
_cell_formula_units_Z   4
loop_
 _symmetry_equiv_pos_site_id
 _symmetry_equiv_pos_as_xyz
  1  'x, y, z'
loop_
 _atom_site_type_symbol
 _atom_site_label
 _atom_site_symmetry_multiplicity
 _atom_site_fract_x
 _atom_site_fract_y
 _atom_site_fract_z
 _atom_site_occupancy
  Li  Li0  1  0.50000000  0.17030400  0.75000000  1
  Li  Li1  1  0.50000000  0.82969600  0.25000000  1
  Li  Li2  1  0.00000000  0.67030400  0.75000000  1
  Li  Li3  1  0.00000000  0.32969600  0.25000000  1
  Co  Co4  1  0.00000000  0.00000000  0.50000000  1
  Co  Co5  1  0.00000000  0.00000000  0.00000000  1
  Co  Co6  1  0.50000000  0.50000000  0.50000000  1
  Co  Co7  1  0.50000000  0.50000000  0.00000000  1
  P  P8  1  0.50000000  0.15005450  0.25000000  1
  P  P9  1  0.50000000  0.84994550  0.75000000  1
  P  P10  1  0.00000000  0.65005450  0.25000000  1
  P  P11  1  0.00000000  0.34994550  0.75000000  1
  O  O12  1  0.50000000  0.74488600  0.54666650  1
  O  O13  1  0.50000000  0.25511400  0.04666650  1
  O  O14  1  0.50000000  0.25511400  0.45333350  1
  O  O15  1  0.50000000  0.74488600  0.95333350  1
  O  O16  1  0.27169800  0.03380400  0.25000000  1
  O  O17  1  0.72830200  0.96619600  0.75000000  1
  O  O18  1  0.27169800  0.96619600  0.75000000  1
  O  O19  1  0.72830200  0.03380400  0.25000000  1
  O  O20  1  0.00000000  0.24488600  0.54666650  1
  O  O21  1  0.00000000  0.75511400  0.04666650  1
  O  O22  1  0.00000000  0.75511400  0.45333350  1
  O  O23  1  0.00000000  0.24488600  0.95333350  1
  O  O24  1  0.77169800  0.53380400  0.25000000  1
  O  O25  1  0.22830200  0.46619600  0.75000000  1
  O  O26  1  0.77169800  0.46619600  0.75000000  1
  O  O27  1  0.22830200  0.53380400  0.25000000  1
