# generated using pymatgen
data_Zn11Ir2
_symmetry_space_group_name_H-M   'P 1'
_cell_length_a   9.15962000
_cell_length_b   9.15962000
_cell_length_c   9.15962000
_cell_angle_alpha   90.00000000
_cell_angle_beta   90.00000000
_cell_angle_gamma   90.00000000
_symmetry_Int_Tables_number   1
_chemical_formula_structural   Zn11Ir2
_chemical_formula_sum   'Zn44 Ir8'
_cell_volume   768.47964758
_cell_formula_units_Z   4
loop_
 _symmetry_equiv_pos_site_id
 _symmetry_equiv_pos_as_xyz
  1  'x, y, z'
loop_
 _atom_site_type_symbol
 _atom_site_label
 _atom_site_symmetry_multiplicity
 _atom_site_fract_x
 _atom_site_fract_y
 _atom_site_fract_z
 _atom_site_occupancy
  Zn  Zn0  1  0.19285650  0.54315250  0.19285650  1
  Zn  Zn1  1  0.04315250  0.30714350  0.30714350  1
  Zn  Zn2  1  0.30714350  0.30714350  0.04315250  1
  Zn  Zn3  1  0.80714350  0.19285650  0.45684750  1
  Zn  Zn4  1  0.10493600  0.10493600  0.10493600  1
  Zn  Zn5  1  0.39506400  0.39506400  0.60493600  1
  Zn  Zn6  1  0.60493600  0.39506400  0.39506400  1
  Zn  Zn7  1  0.39506400  0.60493600  0.39506400  1
  Zn  Zn8  1  0.00000000  0.00000000  0.35696100  1
  Zn  Zn9  1  0.64303900  0.00000000  0.00000000  1
  Zn  Zn10  1  0.35696100  0.00000000  0.00000000  1
  Zn  Zn11  1  0.00000000  0.35696100  0.00000000  1
  Zn  Zn12  1  0.00000000  0.64303900  0.00000000  1
  Zn  Zn13  1  0.00000000  0.00000000  0.64303900  1
  Zn  Zn14  1  0.30714350  0.04315250  0.30714350  1
  Zn  Zn15  1  0.19285650  0.45684750  0.80714350  1
  Zn  Zn16  1  0.80714350  0.45684750  0.19285650  1
  Zn  Zn17  1  0.19285650  0.80714350  0.45684750  1
  Zn  Zn18  1  0.19285650  0.19285650  0.54315250  1
  Zn  Zn19  1  0.54315250  0.19285650  0.19285650  1
  Zn  Zn20  1  0.45684750  0.80714350  0.19285650  1
  Zn  Zn21  1  0.45684750  0.19285650  0.80714350  1
  Zn  Zn22  1  0.69285650  0.04315250  0.69285650  1
  Zn  Zn23  1  0.54315250  0.80714350  0.80714350  1
  Zn  Zn24  1  0.80714350  0.80714350  0.54315250  1
  Zn  Zn25  1  0.30714350  0.69285650  0.95684750  1
  Zn  Zn26  1  0.60493600  0.60493600  0.60493600  1
  Zn  Zn27  1  0.89506400  0.89506400  0.10493600  1
  Zn  Zn28  1  0.10493600  0.89506400  0.89506400  1
  Zn  Zn29  1  0.89506400  0.10493600  0.89506400  1
  Zn  Zn30  1  0.50000000  0.50000000  0.85696100  1
  Zn  Zn31  1  0.14303900  0.50000000  0.50000000  1
  Zn  Zn32  1  0.85696100  0.50000000  0.50000000  1
  Zn  Zn33  1  0.50000000  0.85696100  0.50000000  1
  Zn  Zn34  1  0.50000000  0.14303900  0.50000000  1
  Zn  Zn35  1  0.50000000  0.50000000  0.14303900  1
  Zn  Zn36  1  0.80714350  0.54315250  0.80714350  1
  Zn  Zn37  1  0.69285650  0.95684750  0.30714350  1
  Zn  Zn38  1  0.30714350  0.95684750  0.69285650  1
  Zn  Zn39  1  0.69285650  0.30714350  0.95684750  1
  Zn  Zn40  1  0.69285650  0.69285650  0.04315250  1
  Zn  Zn41  1  0.04315250  0.69285650  0.69285650  1
  Zn  Zn42  1  0.95684750  0.30714350  0.69285650  1
  Zn  Zn43  1  0.95684750  0.69285650  0.30714350  1
  Ir  Ir44  1  0.17322850  0.82677150  0.17322850  1
  Ir  Ir45  1  0.82677150  0.17322850  0.17322850  1
  Ir  Ir46  1  0.17322850  0.17322850  0.82677150  1
  Ir  Ir47  1  0.32677150  0.32677150  0.32677150  1
  Ir  Ir48  1  0.67322850  0.32677150  0.67322850  1
  Ir  Ir49  1  0.32677150  0.67322850  0.67322850  1
  Ir  Ir50  1  0.67322850  0.67322850  0.32677150  1
  Ir  Ir51  1  0.82677150  0.82677150  0.82677150  1
