# generated using pymatgen
data_LiCrP2O7
_symmetry_space_group_name_H-M   'P 1'
_cell_length_a   9.59581790
_cell_length_b   8.14583200
_cell_length_c   13.28819833
_cell_angle_alpha   90.00000000
_cell_angle_beta   110.14437034
_cell_angle_gamma   90.00000000
_symmetry_Int_Tables_number   1
_chemical_formula_structural   LiCrP2O7
_chemical_formula_sum   'Li8 Cr8 P16 O56'
_cell_volume   975.14569215
_cell_formula_units_Z   8
loop_
 _symmetry_equiv_pos_site_id
 _symmetry_equiv_pos_as_xyz
  1  'x, y, z'
loop_
 _atom_site_type_symbol
 _atom_site_label
 _atom_site_symmetry_multiplicity
 _atom_site_fract_x
 _atom_site_fract_y
 _atom_site_fract_z
 _atom_site_occupancy
  Li  Li0  1  0.62741150  0.61153550  0.65122000  1
  Li  Li1  1  0.87258850  0.88846450  0.34878000  1
  Li  Li2  1  0.37258850  0.61153550  0.84878000  1
  Li  Li3  1  0.12741150  0.88846450  0.15122000  1
  Li  Li4  1  0.12741150  0.11153550  0.65122000  1
  Li  Li5  1  0.37258850  0.38846450  0.34878000  1
  Li  Li6  1  0.87258850  0.11153550  0.84878000  1
  Li  Li7  1  0.62741150  0.38846450  0.15122000  1
  Cr  Cr8  1  0.13800450  0.73611450  0.63912200  1
  Cr  Cr9  1  0.86199550  0.73611450  0.86087800  1
  Cr  Cr10  1  0.63800450  0.76388550  0.13912200  1
  Cr  Cr11  1  0.36199550  0.76388550  0.36087800  1
  Cr  Cr12  1  0.63800450  0.23611450  0.63912200  1
  Cr  Cr13  1  0.36199550  0.23611450  0.86087800  1
  Cr  Cr14  1  0.13800450  0.26388550  0.13912200  1
  Cr  Cr15  1  0.86199550  0.26388550  0.36087800  1
  P  P16  1  0.83029450  0.92160550  0.63691000  1
  P  P17  1  0.66970550  0.57839450  0.36309000  1
  P  P18  1  0.62499050  0.04117750  0.42831200  1
  P  P19  1  0.37500950  0.04117750  0.07168800  1
  P  P20  1  0.83029450  0.07839450  0.13691000  1
  P  P21  1  0.12499050  0.45882250  0.92831200  1
  P  P22  1  0.66970550  0.42160550  0.86309000  1
  P  P23  1  0.87500950  0.45882250  0.57168800  1
  P  P24  1  0.33029450  0.42160550  0.63691000  1
  P  P25  1  0.16970550  0.07839450  0.36309000  1
  P  P26  1  0.12499050  0.54117750  0.42831200  1
  P  P27  1  0.87500950  0.54117750  0.07168800  1
  P  P28  1  0.33029450  0.57839450  0.13691000  1
  P  P29  1  0.62499050  0.95882250  0.92831200  1
  P  P30  1  0.16970550  0.92160550  0.86309000  1
  P  P31  1  0.37500950  0.95882250  0.57168800  1
  O  O32  1  0.81752000  0.09217400  0.68322500  1
  O  O33  1  0.26183450  0.07283050  0.12792400  1
  O  O34  1  0.98119800  0.90983000  0.62031100  1
  O  O35  1  0.01880200  0.90983000  0.87968900  1
  O  O36  1  0.48119800  0.59017000  0.12031100  1
  O  O37  1  0.51880200  0.59017000  0.37968900  1
  O  O38  1  0.23816550  0.42716950  0.87207600  1
  O  O39  1  0.81752000  0.90782600  0.18322500  1
  O  O40  1  0.01194600  0.54730800  0.64424500  1
  O  O41  1  0.29661250  0.72162050  0.19967900  1
  O  O42  1  0.70394200  0.09256400  0.02165700  1
  O  O43  1  0.41007200  0.80453300  0.51804100  1
  O  O44  1  0.08992800  0.30453300  0.98195900  1
  O  O45  1  0.98805400  0.54730800  0.85575500  1
  O  O46  1  0.79605800  0.59256400  0.47834300  1
  O  O47  1  0.48805400  0.95269200  0.35575500  1
  O  O48  1  0.73816550  0.07283050  0.37207600  1
  O  O49  1  0.68248000  0.40782600  0.31677500  1
  O  O50  1  0.70338750  0.72162050  0.30032100  1
  O  O51  1  0.76183450  0.42716950  0.62792400  1
  O  O52  1  0.79661250  0.77837950  0.69967900  1
  O  O53  1  0.70394200  0.90743600  0.52165700  1
  O  O54  1  0.51194600  0.95269200  0.14424500  1
  O  O55  1  0.41007200  0.19546700  0.01804100  1
  O  O56  1  0.08992800  0.69546700  0.48195900  1
  O  O57  1  0.79605800  0.40743600  0.97834300  1
  O  O58  1  0.20338750  0.77837950  0.80032100  1
  O  O59  1  0.68248000  0.59217400  0.81677500  1
  O  O60  1  0.31752000  0.59217400  0.68322500  1
  O  O61  1  0.76183450  0.57283050  0.12792400  1
  O  O62  1  0.48119800  0.40983000  0.62031100  1
  O  O63  1  0.51880200  0.40983000  0.87968900  1
  O  O64  1  0.98119800  0.09017000  0.12031100  1
  O  O65  1  0.01880200  0.09017000  0.37968900  1
  O  O66  1  0.73816550  0.92716950  0.87207600  1
  O  O67  1  0.31752000  0.40782600  0.18322500  1
  O  O68  1  0.51194600  0.04730800  0.64424500  1
  O  O69  1  0.79661250  0.22162050  0.19967900  1
  O  O70  1  0.20394200  0.59256400  0.02165700  1
  O  O71  1  0.91007200  0.30453300  0.51804100  1
  O  O72  1  0.58992800  0.80453300  0.98195900  1
  O  O73  1  0.48805400  0.04730800  0.85575500  1
  O  O74  1  0.29605800  0.09256400  0.47834300  1
  O  O75  1  0.98805400  0.45269200  0.35575500  1
  O  O76  1  0.23816550  0.57283050  0.37207600  1
  O  O77  1  0.18248000  0.90782600  0.31677500  1
  O  O78  1  0.20338750  0.22162050  0.30032100  1
  O  O79  1  0.26183450  0.92716950  0.62792400  1
  O  O80  1  0.29661250  0.27837950  0.69967900  1
  O  O81  1  0.20394200  0.40743600  0.52165700  1
  O  O82  1  0.01194600  0.45269200  0.14424500  1
  O  O83  1  0.91007200  0.69546700  0.01804100  1
  O  O84  1  0.58992800  0.19546700  0.48195900  1
  O  O85  1  0.29605800  0.90743600  0.97834300  1
  O  O86  1  0.70338750  0.27837950  0.80032100  1
  O  O87  1  0.18248000  0.09217400  0.81677500  1
