# generated using pymatgen
data_Ag7NO11
_symmetry_space_group_name_H-M   'P 1'
_cell_length_a   7.23845408
_cell_length_b   7.23845408
_cell_length_c   16.97056183
_cell_angle_alpha   90.00000000
_cell_angle_beta   90.00000000
_cell_angle_gamma   120.00000000
_symmetry_Int_Tables_number   1
_chemical_formula_structural   Ag7NO11
_chemical_formula_sum   'Ag21 N3 O33'
_cell_volume   770.04924520
_cell_formula_units_Z   3
loop_
 _symmetry_equiv_pos_site_id
 _symmetry_equiv_pos_as_xyz
  1  'x, y, z'
loop_
 _atom_site_type_symbol
 _atom_site_label
 _atom_site_symmetry_multiplicity
 _atom_site_fract_x
 _atom_site_fract_y
 _atom_site_fract_z
 _atom_site_occupancy
  Ag  Ag0  1  0.33333333  0.66666667  0.66597767  1
  Ag  Ag1  1  0.66464533  0.83232267  0.83340567  1
  Ag  Ag2  1  0.49995667  0.99991333  0.00019733  1
  Ag  Ag3  1  0.49995667  0.50004333  0.00019733  1
  Ag  Ag4  1  0.16767733  0.33535467  0.83340567  1
  Ag  Ag5  1  0.00008667  0.50004333  0.00019733  1
  Ag  Ag6  1  0.16767733  0.83232267  0.83340567  1
  Ag  Ag7  1  0.00000000  0.00000000  0.99931100  1
  Ag  Ag8  1  0.33131200  0.16565600  0.16673900  1
  Ag  Ag9  1  0.16662333  0.33324667  0.33353067  1
  Ag  Ag10  1  0.16662333  0.83337667  0.33353067  1
  Ag  Ag11  1  0.83434400  0.66868800  0.16673900  1
  Ag  Ag12  1  0.66675333  0.83337667  0.33353067  1
  Ag  Ag13  1  0.83434400  0.16565600  0.16673900  1
  Ag  Ag14  1  0.66666667  0.33333333  0.33264433  1
  Ag  Ag15  1  0.99797867  0.49898933  0.50007233  1
  Ag  Ag16  1  0.83329000  0.66658000  0.66686400  1
  Ag  Ag17  1  0.83329000  0.16671000  0.66686400  1
  Ag  Ag18  1  0.50101067  0.00202133  0.50007233  1
  Ag  Ag19  1  0.33342000  0.16671000  0.66686400  1
  Ag  Ag20  1  0.50101067  0.49898933  0.50007233  1
  N  N21  1  0.33333333  0.66666667  0.16671367  1
  N  N22  1  0.00000000  0.00000000  0.50004700  1
  N  N23  1  0.66666667  0.33333333  0.83338033  1
  O  O24  1  0.62391400  0.81195700  0.95673800  1
  O  O25  1  0.18804300  0.81195700  0.95673800  1
  O  O26  1  0.33333333  0.66666667  0.80393767  1
  O  O27  1  0.18804300  0.37608600  0.95673800  1
  O  O28  1  0.43414467  0.86828933  0.16673333  1
  O  O29  1  0.43414467  0.56585533  0.16673333  1
  O  O30  1  0.13171067  0.56585533  0.16673333  1
  O  O31  1  0.47953300  0.95906600  0.37661800  1
  O  O32  1  0.47953300  0.52046700  0.37661800  1
  O  O33  1  0.33333333  0.66666667  0.52895967  1
  O  O34  1  0.04093400  0.52046700  0.37661800  1
  O  O35  1  0.29058067  0.14529033  0.29007133  1
  O  O36  1  0.85470967  0.14529033  0.29007133  1
  O  O37  1  0.00000000  0.00000000  0.13727100  1
  O  O38  1  0.85470967  0.70941933  0.29007133  1
  O  O39  1  0.10081133  0.20162267  0.50006667  1
  O  O40  1  0.10081133  0.89918867  0.50006667  1
  O  O41  1  0.79837733  0.89918867  0.50006667  1
  O  O42  1  0.14619967  0.29239933  0.70995133  1
  O  O43  1  0.14619967  0.85380033  0.70995133  1
  O  O44  1  0.00000000  0.00000000  0.86229300  1
  O  O45  1  0.70760067  0.85380033  0.70995133  1
  O  O46  1  0.95724733  0.47862367  0.62340467  1
  O  O47  1  0.52137633  0.47862367  0.62340467  1
  O  O48  1  0.66666667  0.33333333  0.47060433  1
  O  O49  1  0.52137633  0.04275267  0.62340467  1
  O  O50  1  0.76747800  0.53495600  0.83340000  1
  O  O51  1  0.76747800  0.23252200  0.83340000  1
  O  O52  1  0.46504400  0.23252200  0.83340000  1
  O  O53  1  0.81286633  0.62573267  0.04328467  1
  O  O54  1  0.81286633  0.18713367  0.04328467  1
  O  O55  1  0.66666667  0.33333333  0.19562633  1
  O  O56  1  0.37426733  0.18713367  0.04328467  1
