# generated using pymatgen
data_Li2CrP2O7
_symmetry_space_group_name_H-M   'P 1'
_cell_length_a   7.92910538
_cell_length_b   12.85672965
_cell_length_c   5.61560982
_cell_angle_alpha   90.00000000
_cell_angle_beta   90.76003929
_cell_angle_gamma   90.00000000
_symmetry_Int_Tables_number   1
_chemical_formula_structural   Li2CrP2O7
_chemical_formula_sum   'Li8 Cr4 P8 O28'
_cell_volume   572.41817478
_cell_formula_units_Z   4
loop_
 _symmetry_equiv_pos_site_id
 _symmetry_equiv_pos_as_xyz
  1  'x, y, z'
loop_
 _atom_site_type_symbol
 _atom_site_label
 _atom_site_symmetry_multiplicity
 _atom_site_fract_x
 _atom_site_fract_y
 _atom_site_fract_z
 _atom_site_occupancy
  Li  Li0  1  0.50000000  0.21285300  0.50000000  1
  Li  Li1  1  0.50000000  0.78714700  0.50000000  1
  Li  Li2  1  0.50000000  0.21357025  0.00000000  1
  Li  Li3  1  0.50000000  0.78642975  0.00000000  1
  Li  Li4  1  0.00000000  0.71285300  0.50000000  1
  Li  Li5  1  0.00000000  0.28714700  0.50000000  1
  Li  Li6  1  0.00000000  0.71357025  0.00000000  1
  Li  Li7  1  0.00000000  0.28642975  0.00000000  1
  Cr  Cr8  1  0.29878250  0.00000000  0.75953950  1
  Cr  Cr9  1  0.70121750  0.00000000  0.24046050  1
  Cr  Cr10  1  0.79878250  0.50000000  0.75953950  1
  Cr  Cr11  1  0.20121750  0.50000000  0.24046050  1
  P  P12  1  0.80286475  0.11113925  0.74362700  1
  P  P13  1  0.19713525  0.11113925  0.25637300  1
  P  P14  1  0.80286475  0.88886075  0.74362700  1
  P  P15  1  0.19713525  0.88886075  0.25637300  1
  P  P16  1  0.30286475  0.61113925  0.74362700  1
  P  P17  1  0.69713525  0.61113925  0.25637300  1
  P  P18  1  0.30286475  0.38886075  0.74362700  1
  P  P19  1  0.69713525  0.38886075  0.25637300  1
  O  O20  1  0.90491125  0.00000000  0.74772950  1
  O  O21  1  0.09508875  0.00000000  0.25227050  1
  O  O22  1  0.31051950  0.11028700  0.03384150  1
  O  O23  1  0.68948050  0.88971300  0.96615850  1
  O  O24  1  0.68948050  0.11028700  0.96615850  1
  O  O25  1  0.31051950  0.88971300  0.03384150  1
  O  O26  1  0.30654425  0.11045275  0.48667650  1
  O  O27  1  0.69345575  0.11045275  0.51332350  1
  O  O28  1  0.69345575  0.88954725  0.51332350  1
  O  O29  1  0.30654425  0.88954725  0.48667650  1
  O  O30  1  0.56389625  0.69449475  0.25131200  1
  O  O31  1  0.43610375  0.69449475  0.74868800  1
  O  O32  1  0.43610375  0.30550525  0.74868800  1
  O  O33  1  0.56389625  0.30550525  0.25131200  1
  O  O34  1  0.40491125  0.50000000  0.74772950  1
  O  O35  1  0.59508875  0.50000000  0.25227050  1
  O  O36  1  0.81051950  0.61028700  0.03384150  1
  O  O37  1  0.18948050  0.38971300  0.96615850  1
  O  O38  1  0.18948050  0.61028700  0.96615850  1
  O  O39  1  0.81051950  0.38971300  0.03384150  1
  O  O40  1  0.80654425  0.61045275  0.48667650  1
  O  O41  1  0.19345575  0.61045275  0.51332350  1
  O  O42  1  0.19345575  0.38954725  0.51332350  1
  O  O43  1  0.80654425  0.38954725  0.48667650  1
  O  O44  1  0.06389625  0.19449475  0.25131200  1
  O  O45  1  0.93610375  0.19449475  0.74868800  1
  O  O46  1  0.93610375  0.80550525  0.74868800  1
  O  O47  1  0.06389625  0.80550525  0.25131200  1
