# generated using pymatgen
data_Ba3Pt2O7
_symmetry_space_group_name_H-M   'P 1'
_cell_length_a   10.26369600
_cell_length_b   17.72398800
_cell_length_c   8.85755253
_cell_angle_alpha   90.00000000
_cell_angle_beta   90.46486307
_cell_angle_gamma   90.00000000
_symmetry_Int_Tables_number   1
_chemical_formula_structural   Ba3Pt2O7
_chemical_formula_sum   'Ba24 Pt16 O56'
_cell_volume   1611.25645378
_cell_formula_units_Z   8
loop_
 _symmetry_equiv_pos_site_id
 _symmetry_equiv_pos_as_xyz
  1  'x, y, z'
loop_
 _atom_site_type_symbol
 _atom_site_label
 _atom_site_symmetry_multiplicity
 _atom_site_fract_x
 _atom_site_fract_y
 _atom_site_fract_z
 _atom_site_occupancy
  Ba  Ba0  1  0.17325550  0.16740750  0.00599900  1
  Ba  Ba1  1  0.65957750  0.66598850  0.50382200  1
  Ba  Ba2  1  0.33566600  0.66636300  0.25334200  1
  Ba  Ba3  1  0.82309000  0.84664800  0.23679300  1
  Ba  Ba4  1  0.66940200  0.99678200  0.00617800  1
  Ba  Ba5  1  0.66940200  0.00321800  0.50617800  1
  Ba  Ba6  1  0.30656950  0.98988450  0.23658600  1
  Ba  Ba7  1  0.82309000  0.15335200  0.73679300  1
  Ba  Ba8  1  0.30656950  0.01011550  0.73658600  1
  Ba  Ba9  1  0.17325550  0.83259250  0.50599900  1
  Ba  Ba10  1  0.65957750  0.33401150  0.00382200  1
  Ba  Ba11  1  0.33566600  0.33363700  0.75334200  1
  Ba  Ba12  1  0.67325550  0.66740750  0.00599900  1
  Ba  Ba13  1  0.15957750  0.16598850  0.50382200  1
  Ba  Ba14  1  0.83566600  0.16636300  0.25334200  1
  Ba  Ba15  1  0.32309000  0.34664800  0.23679300  1
  Ba  Ba16  1  0.16940200  0.49678200  0.00617800  1
  Ba  Ba17  1  0.16940200  0.50321800  0.50617800  1
  Ba  Ba18  1  0.80656950  0.48988450  0.23658600  1
  Ba  Ba19  1  0.32309000  0.65335200  0.73679300  1
  Ba  Ba20  1  0.80656950  0.51011550  0.73658600  1
  Ba  Ba21  1  0.67325550  0.33259250  0.50599900  1
  Ba  Ba22  1  0.15957750  0.83401150  0.00382200  1
  Ba  Ba23  1  0.83566600  0.83363700  0.75334200  1
  Pt  Pt24  1  0.50937050  0.83663050  0.41004600  1
  Pt  Pt25  1  0.50361300  0.50804000  0.36301700  1
  Pt  Pt26  1  0.50361300  0.49196000  0.86301700  1
  Pt  Pt27  1  0.44079550  0.83310250  0.74949800  1
  Pt  Pt28  1  0.50297600  0.83308600  0.08770300  1
  Pt  Pt29  1  0.50937050  0.16336950  0.91004600  1
  Pt  Pt30  1  0.50297600  0.16691400  0.58770300  1
  Pt  Pt31  1  0.44079550  0.16689750  0.24949800  1
  Pt  Pt32  1  0.00937050  0.33663050  0.41004600  1
  Pt  Pt33  1  0.00361300  0.00804000  0.36301700  1
  Pt  Pt34  1  0.00361300  0.99196000  0.86301700  1
  Pt  Pt35  1  0.94079550  0.33310250  0.74949800  1
  Pt  Pt36  1  0.00297600  0.33308600  0.08770300  1
  Pt  Pt37  1  0.00937050  0.66336950  0.91004600  1
  Pt  Pt38  1  0.00297600  0.66691400  0.58770300  1
  Pt  Pt39  1  0.94079550  0.66689750  0.24949800  1
  O  O40  1  0.57702550  0.59512050  0.25067300  1
  O  O41  1  0.57878000  0.76309800  0.25031000  1
  O  O42  1  0.68258250  0.84411050  0.51654000  1
  O  O43  1  0.67127700  0.83278300  0.97555500  1
  O  O44  1  0.42803500  0.41040100  0.98649500  1
  O  O45  1  0.43756500  0.75905200  0.92814200  1
  O  O46  1  0.44650100  0.76289300  0.57002700  1
  O  O47  1  0.82617700  0.00156100  0.26385600  1
  O  O48  1  0.34716200  0.82981400  0.25263300  1
  O  O49  1  0.56452900  0.91149900  0.24568200  1
  O  O50  1  0.82617700  0.99843900  0.76385600  1
  O  O51  1  0.43346700  0.90641500  0.57066400  1
  O  O52  1  0.43013500  0.90411000  0.92760300  1
  O  O53  1  0.42803500  0.58959900  0.48649500  1
  O  O54  1  0.55881400  0.40968800  0.28798300  1
  O  O55  1  0.56452900  0.08850100  0.74568200  1
  O  O56  1  0.43346700  0.09358500  0.07066400  1
  O  O57  1  0.43013500  0.09589000  0.42760300  1
  O  O58  1  0.17163450  0.00791150  0.48155300  1
  O  O59  1  0.17163450  0.99208850  0.98155300  1
  O  O60  1  0.67127700  0.16721700  0.47555500  1
  O  O61  1  0.68258250  0.15588950  0.01654000  1
  O  O62  1  0.55881400  0.59031200  0.78798300  1
  O  O63  1  0.57878000  0.23690200  0.75031000  1
  O  O64  1  0.34716200  0.17018600  0.75263300  1
  O  O65  1  0.44650100  0.23710700  0.07002700  1
  O  O66  1  0.43756500  0.24094800  0.42814200  1
  O  O67  1  0.57702550  0.40487950  0.75067300  1
  O  O68  1  0.07702550  0.09512050  0.25067300  1
  O  O69  1  0.07878000  0.26309800  0.25031000  1
  O  O70  1  0.18258250  0.34411050  0.51654000  1
  O  O71  1  0.17127700  0.33278300  0.97555500  1
  O  O72  1  0.92803500  0.91040100  0.98649500  1
  O  O73  1  0.93756500  0.25905200  0.92814200  1
  O  O74  1  0.94650100  0.26289300  0.57002700  1
  O  O75  1  0.32617700  0.50156100  0.26385600  1
  O  O76  1  0.84716200  0.32981400  0.25263300  1
  O  O77  1  0.06452900  0.41149900  0.24568200  1
  O  O78  1  0.32617700  0.49843900  0.76385600  1
  O  O79  1  0.93346700  0.40641500  0.57066400  1
  O  O80  1  0.93013500  0.40411000  0.92760300  1
  O  O81  1  0.92803500  0.08959900  0.48649500  1
  O  O82  1  0.05881400  0.90968800  0.28798300  1
  O  O83  1  0.06452900  0.58850100  0.74568200  1
  O  O84  1  0.93346700  0.59358500  0.07066400  1
  O  O85  1  0.93013500  0.59589000  0.42760300  1
  O  O86  1  0.67163450  0.50791150  0.48155300  1
  O  O87  1  0.67163450  0.49208850  0.98155300  1
  O  O88  1  0.17127700  0.66721700  0.47555500  1
  O  O89  1  0.18258250  0.65588950  0.01654000  1
  O  O90  1  0.05881400  0.09031200  0.78798300  1
  O  O91  1  0.07878000  0.73690200  0.75031000  1
  O  O92  1  0.84716200  0.67018600  0.75263300  1
  O  O93  1  0.94650100  0.73710700  0.07002700  1
  O  O94  1  0.93756500  0.74094800  0.42814200  1
  O  O95  1  0.07702550  0.90487950  0.75067300  1
