# generated using pymatgen
data_Li3Mn3(PO4)4
_symmetry_space_group_name_H-M   'P 1'
_cell_length_a   7.72399000
_cell_length_b   8.16513100
_cell_length_c   10.01496730
_cell_angle_alpha   90.00000000
_cell_angle_beta   92.73744292
_cell_angle_gamma   90.00000000
_symmetry_Int_Tables_number   1
_chemical_formula_structural   Li3Mn3(PO4)4
_chemical_formula_sum   'Li6 Mn6 P8 O32'
_cell_volume   630.89709742
_cell_formula_units_Z   2
loop_
 _symmetry_equiv_pos_site_id
 _symmetry_equiv_pos_as_xyz
  1  'x, y, z'
loop_
 _atom_site_type_symbol
 _atom_site_label
 _atom_site_symmetry_multiplicity
 _atom_site_fract_x
 _atom_site_fract_y
 _atom_site_fract_z
 _atom_site_occupancy
  Li  Li0  1  0.66610200  0.63052900  0.82511600  1
  Li  Li1  1  0.33389800  0.13052900  0.17488400  1
  Li  Li2  1  0.15288700  0.85814200  0.57682000  1
  Li  Li3  1  0.16222400  0.86334600  0.07734300  1
  Li  Li4  1  0.84711300  0.35814200  0.42318000  1
  Li  Li5  1  0.83777600  0.36334600  0.92265700  1
  Mn  Mn6  1  0.65933000  0.63896000  0.31159400  1
  Mn  Mn7  1  0.34067000  0.13896000  0.68840600  1
  Mn  Mn8  1  0.24542100  0.50746800  0.62221800  1
  Mn  Mn9  1  0.22148500  0.48890700  0.12264400  1
  Mn  Mn10  1  0.75457900  0.00746800  0.37778200  1
  Mn  Mn11  1  0.77851500  0.98890700  0.87735600  1
  P  P12  1  0.94311500  0.19352500  0.64078600  1
  P  P13  1  0.94047500  0.17853300  0.13997100  1
  P  P14  1  0.05952500  0.67853300  0.86002900  1
  P  P15  1  0.05688500  0.69352500  0.35921400  1
  P  P16  1  0.43959800  0.31789200  0.89791300  1
  P  P17  1  0.43391800  0.31787800  0.38445700  1
  P  P18  1  0.56608200  0.81787800  0.61554300  1
  P  P19  1  0.56040200  0.81789200  0.10208700  1
  O  O20  1  0.79691000  0.11994200  0.03266800  1
  O  O21  1  0.80020000  0.13682200  0.53492200  1
  O  O22  1  0.86741600  0.18093500  0.78182300  1
  O  O23  1  0.90493800  0.56655500  0.85121700  1
  O  O24  1  0.84707400  0.18285600  0.27738800  1
  O  O25  1  0.89556500  0.57824000  0.36282400  1
  O  O26  1  0.70333900  0.85095300  0.22334100  1
  O  O27  1  0.71328600  0.87236900  0.71592800  1
  O  O28  1  0.63898300  0.82401000  0.47076200  1
  O  O29  1  0.59150800  0.43913300  0.38590900  1
  O  O30  1  0.65592200  0.80976300  0.97081000  1
  O  O31  1  0.58994300  0.43248800  0.90095000  1
  O  O32  1  0.49117800  0.14507600  0.35116600  1
  O  O33  1  0.50987500  0.64012200  0.15254400  1
  O  O34  1  0.49012500  0.14012200  0.84745600  1
  O  O35  1  0.50882200  0.64507600  0.64883400  1
  O  O36  1  0.40849200  0.93913300  0.61409100  1
  O  O37  1  0.36101700  0.32401000  0.52923800  1
  O  O38  1  0.41005700  0.93248800  0.09905000  1
  O  O39  1  0.28671400  0.37236900  0.28407200  1
  O  O40  1  0.34407800  0.30976300  0.02919000  1
  O  O41  1  0.29666100  0.35095300  0.77665900  1
  O  O42  1  0.19980000  0.63682200  0.46507800  1
  O  O43  1  0.20309000  0.61994200  0.96733200  1
  O  O44  1  0.13258400  0.68093500  0.21817700  1
  O  O45  1  0.09506200  0.06655500  0.14878300  1
  O  O46  1  0.15292600  0.68285600  0.72261200  1
  O  O47  1  0.10443500  0.07824000  0.63717600  1
  O  O48  1  0.99379600  0.36782400  0.60280100  1
  O  O49  1  0.00620400  0.86782400  0.39719900  1
  O  O50  1  0.01838600  0.85773200  0.89732700  1
  O  O51  1  0.98161400  0.35773200  0.10267300  1
