# generated using pymatgen
data_LiMnPO4
_symmetry_space_group_name_H-M   'P 1'
_cell_length_a   5.76424800
_cell_length_b   9.47098000
_cell_length_c   11.31510800
_cell_angle_alpha   90.00000000
_cell_angle_beta   90.00000000
_cell_angle_gamma   90.00000000
_symmetry_Int_Tables_number   1
_chemical_formula_structural   LiMnPO4
_chemical_formula_sum   'Li8 Mn8 P8 O32'
_cell_volume   617.72656823
_cell_formula_units_Z   8
loop_
 _symmetry_equiv_pos_site_id
 _symmetry_equiv_pos_as_xyz
  1  'x, y, z'
loop_
 _atom_site_type_symbol
 _atom_site_label
 _atom_site_symmetry_multiplicity
 _atom_site_fract_x
 _atom_site_fract_y
 _atom_site_fract_z
 _atom_site_occupancy
  Li  Li0  1  0.50000000  0.81539100  0.00000000  1
  Li  Li1  1  0.75000000  0.56539100  0.75000000  1
  Li  Li2  1  0.50000000  0.31539100  0.50000000  1
  Li  Li3  1  0.75000000  0.06539100  0.25000000  1
  Li  Li4  1  0.00000000  0.31539100  0.00000000  1
  Li  Li5  1  0.25000000  0.06539100  0.75000000  1
  Li  Li6  1  0.00000000  0.81539100  0.50000000  1
  Li  Li7  1  0.25000000  0.56539100  0.25000000  1
  Mn  Mn8  1  0.50000000  0.43804400  0.00000000  1
  Mn  Mn9  1  0.75000000  0.18804400  0.75000000  1
  Mn  Mn10  1  0.50000000  0.93804400  0.50000000  1
  Mn  Mn11  1  0.75000000  0.68804400  0.25000000  1
  Mn  Mn12  1  0.00000000  0.93804400  0.00000000  1
  Mn  Mn13  1  0.25000000  0.68804400  0.75000000  1
  Mn  Mn14  1  0.00000000  0.43804400  0.50000000  1
  Mn  Mn15  1  0.25000000  0.18804400  0.25000000  1
  P  P16  1  0.75000000  0.87061300  0.75000000  1
  P  P17  1  0.50000000  0.12061300  0.00000000  1
  P  P18  1  0.75000000  0.37061300  0.25000000  1
  P  P19  1  0.50000000  0.62061300  0.50000000  1
  P  P20  1  0.25000000  0.37061300  0.75000000  1
  P  P21  1  0.00000000  0.62061300  0.00000000  1
  P  P22  1  0.25000000  0.87061300  0.25000000  1
  P  P23  1  0.00000000  0.12061300  0.50000000  1
  O  O24  1  0.89608250  0.97577350  0.82728600  1
  O  O25  1  0.58742750  0.77473500  0.82369250  1
  O  O26  1  0.33742750  0.02473500  0.92630750  1
  O  O27  1  0.64608250  0.22577350  0.92271400  1
  O  O28  1  0.10391750  0.97577350  0.17271400  1
  O  O29  1  0.41257250  0.77473500  0.17630750  1
  O  O30  1  0.35391750  0.22577350  0.07728600  1
  O  O31  1  0.66257250  0.02473500  0.07369250  1
  O  O32  1  0.89608250  0.47577350  0.32728600  1
  O  O33  1  0.58742750  0.27473500  0.32369250  1
  O  O34  1  0.33742750  0.52473500  0.42630750  1
  O  O35  1  0.64608250  0.72577350  0.42271400  1
  O  O36  1  0.10391750  0.47577350  0.67271400  1
  O  O37  1  0.41257250  0.27473500  0.67630750  1
  O  O38  1  0.35391750  0.72577350  0.57728600  1
  O  O39  1  0.66257250  0.52473500  0.57369250  1
  O  O40  1  0.39608250  0.47577350  0.82728600  1
  O  O41  1  0.08742750  0.27473500  0.82369250  1
  O  O42  1  0.83742750  0.52473500  0.92630750  1
  O  O43  1  0.14608250  0.72577350  0.92271400  1
  O  O44  1  0.60391750  0.47577350  0.17271400  1
  O  O45  1  0.91257250  0.27473500  0.17630750  1
  O  O46  1  0.85391750  0.72577350  0.07728600  1
  O  O47  1  0.16257250  0.52473500  0.07369250  1
  O  O48  1  0.39608250  0.97577350  0.32728600  1
  O  O49  1  0.08742750  0.77473500  0.32369250  1
  O  O50  1  0.83742750  0.02473500  0.42630750  1
  O  O51  1  0.14608250  0.22577350  0.42271400  1
  O  O52  1  0.60391750  0.97577350  0.67271400  1
  O  O53  1  0.91257250  0.77473500  0.67630750  1
  O  O54  1  0.85391750  0.22577350  0.57728600  1
  O  O55  1  0.16257250  0.02473500  0.57369250  1
