# generated using pymatgen
data_LiMn2(PO4)3
_symmetry_space_group_name_H-M   'P 1'
_cell_length_a   8.22592200
_cell_length_b   8.49202800
_cell_length_c   14.31269013
_cell_angle_alpha   90.00000000
_cell_angle_beta   125.11780733
_cell_angle_gamma   90.00000000
_symmetry_Int_Tables_number   1
_chemical_formula_structural   LiMn2(PO4)3
_chemical_formula_sum   'Li4 Mn8 P12 O48'
_cell_volume   817.81517172
_cell_formula_units_Z   4
loop_
 _symmetry_equiv_pos_site_id
 _symmetry_equiv_pos_as_xyz
  1  'x, y, z'
loop_
 _atom_site_type_symbol
 _atom_site_label
 _atom_site_symmetry_multiplicity
 _atom_site_fract_x
 _atom_site_fract_y
 _atom_site_fract_z
 _atom_site_occupancy
  Li  Li0  1  0.63787900  0.03946100  0.32003900  1
  Li  Li1  1  0.23002100  0.35159900  0.80341600  1
  Li  Li2  1  0.63787900  0.96053900  0.82003900  1
  Li  Li3  1  0.23002100  0.64840100  0.30341600  1
  Mn  Mn4  1  0.14070700  0.77906000  0.88713200  1
  Mn  Mn5  1  0.85334000  0.27727100  0.60839100  1
  Mn  Mn6  1  0.63954300  0.71654000  0.38578400  1
  Mn  Mn7  1  0.36327500  0.22327400  0.11489400  1
  Mn  Mn8  1  0.63954300  0.28346000  0.88578400  1
  Mn  Mn9  1  0.36327500  0.77672600  0.61489400  1
  Mn  Mn10  1  0.14070700  0.22094000  0.38713200  1
  Mn  Mn11  1  0.85334000  0.72272900  0.10839100  1
  P  P12  1  0.47510400  0.49726000  0.51059700  1
  P  P13  1  0.03805500  0.36296600  0.14796500  1
  P  P14  1  0.74672900  0.63315500  0.85652100  1
  P  P15  1  0.96590900  0.86613800  0.35457700  1
  P  P16  1  0.25580700  0.13829100  0.64220800  1
  P  P17  1  0.52525400  0.00057300  0.99321800  1
  P  P18  1  0.47510400  0.50274000  0.01059700  1
  P  P19  1  0.74672900  0.36684500  0.35652100  1
  P  P20  1  0.52525400  0.99942700  0.49321800  1
  P  P21  1  0.96590900  0.13386200  0.85457700  1
  P  P22  1  0.03805500  0.63703400  0.64796500  1
  P  P23  1  0.25580700  0.86170900  0.14220800  1
  O  O24  1  0.72556300  0.30574400  0.45199000  1
  O  O25  1  0.32879800  0.07691900  0.39456300  1
  O  O26  1  0.49680400  0.87317100  0.55892600  1
  O  O27  1  0.75205000  0.16907100  0.82095000  1
  O  O28  1  0.31640500  0.38754000  0.41456000  1
  O  O29  1  0.65603800  0.46728700  0.81883600  1
  O  O30  1  0.87943700  0.32192700  0.02235500  1
  O  O31  1  0.62023700  0.75103800  0.75668900  1
  O  O32  1  0.96211700  0.63540600  0.89238300  1
  O  O33  1  0.67233400  0.42128700  0.60618200  1
  O  O34  1  0.49878800  0.62318100  0.43963100  1
  O  O35  1  0.24738300  0.32300900  0.17989400  1
  O  O36  1  0.68055300  0.11551400  0.58479400  1
  O  O37  1  0.95988400  0.95190600  0.84239900  1
  O  O38  1  0.11904200  0.18233500  0.97873700  1
  O  O39  1  0.37633300  0.74987200  0.24729200  1
  O  O40  1  0.35443800  0.02689100  0.18298900  1
  O  O41  1  0.61926600  0.92421700  0.43529200  1
  O  O42  1  0.00419000  0.22892100  0.77641100  1
  O  O43  1  0.27440400  0.80595600  0.04623700  1
  O  O44  1  0.00071900  0.73061900  0.72627700  1
  O  O45  1  0.03932400  0.86281700  0.10660400  1
  O  O46  1  0.38104100  0.42304300  0.06535100  1
  O  O47  1  0.65603800  0.53271300  0.31883600  1
  O  O48  1  0.87943700  0.67807300  0.52235500  1
  O  O49  1  0.03759400  0.45395800  0.66196500  1
  O  O50  1  0.62023700  0.24896200  0.25668900  1
  O  O51  1  0.31640500  0.61246000  0.91456000  1
  O  O52  1  0.32879800  0.92308100  0.89456300  1
  O  O53  1  0.03932400  0.13718300  0.60660400  1
  O  O54  1  0.75205000  0.83092900  0.32095000  1
  O  O55  1  0.49680400  0.12682900  0.05892600  1
  O  O56  1  0.49878800  0.37681900  0.93963100  1
  O  O57  1  0.24738300  0.67699100  0.67989400  1
  O  O58  1  0.96211700  0.36459400  0.39238300  1
  O  O59  1  0.67233400  0.57871300  0.10618200  1
  O  O60  1  0.68055300  0.88448600  0.08479400  1
  O  O61  1  0.37633300  0.25012800  0.74729200  1
  O  O62  1  0.95988400  0.04809400  0.34239900  1
  O  O63  1  0.11904200  0.81766500  0.47873700  1
  O  O64  1  0.35443800  0.97310900  0.68298900  1
  O  O65  1  0.61926600  0.07578300  0.93529200  1
  O  O66  1  0.27440400  0.19404400  0.54623700  1
  O  O67  1  0.00419000  0.77107900  0.27641100  1
  O  O68  1  0.72556300  0.69425600  0.95199000  1
  O  O69  1  0.00071900  0.26938100  0.22627700  1
  O  O70  1  0.38104100  0.57695700  0.56535100  1
  O  O71  1  0.03759400  0.54604200  0.16196500  1
