# generated using pymatgen
data_FeP2O7
_symmetry_space_group_name_H-M   'P 1'
_cell_length_a   6.69489000
_cell_length_b   8.05264600
_cell_length_c   4.60804508
_cell_angle_alpha   90.00000000
_cell_angle_beta   102.89579574
_cell_angle_gamma   90.00000000
_symmetry_Int_Tables_number   1
_chemical_formula_structural   FeP2O7
_chemical_formula_sum   'Fe2 P4 O14'
_cell_volume   242.16105568
_cell_formula_units_Z   2
loop_
 _symmetry_equiv_pos_site_id
 _symmetry_equiv_pos_as_xyz
  1  'x, y, z'
loop_
 _atom_site_type_symbol
 _atom_site_label
 _atom_site_symmetry_multiplicity
 _atom_site_fract_x
 _atom_site_fract_y
 _atom_site_fract_z
 _atom_site_occupancy
  Fe  Fe0  1  0.50000000  0.61049000  0.00000000  1
  Fe  Fe1  1  0.00000000  0.11049000  0.00000000  1
  P  P2  1  0.30232300  0.96503400  0.58849700  1
  P  P3  1  0.69767700  0.96503400  0.41150300  1
  P  P4  1  0.80232300  0.46503400  0.58849700  1
  P  P5  1  0.19767700  0.46503400  0.41150300  1
  O  O6  1  0.50000000  0.04689500  0.50000000  1
  O  O7  1  0.76007300  0.08972400  0.19694600  1
  O  O8  1  0.63771250  0.79646850  0.26568700  1
  O  O9  1  0.23992700  0.08972400  0.80305400  1
  O  O10  1  0.36228750  0.79646850  0.73431300  1
  O  O11  1  0.14109750  0.94344850  0.29756200  1
  O  O12  1  0.85890250  0.94344850  0.70243800  1
  O  O13  1  0.00000000  0.54689500  0.50000000  1
  O  O14  1  0.26007300  0.58972400  0.19694600  1
  O  O15  1  0.13771250  0.29646850  0.26568700  1
  O  O16  1  0.73992700  0.58972400  0.80305400  1
  O  O17  1  0.86228750  0.29646850  0.73431300  1
  O  O18  1  0.64109750  0.44344850  0.29756200  1
  O  O19  1  0.35890250  0.44344850  0.70243800  1
