# generated using pymatgen
data_VH2O3
_symmetry_space_group_name_H-M   'P 1'
_cell_length_a   10.79142677
_cell_length_b   3.81532702
_cell_length_c   6.18618613
_cell_angle_alpha   90.00000000
_cell_angle_beta   124.46902434
_cell_angle_gamma   90.00000000
_symmetry_Int_Tables_number   1
_chemical_formula_structural   VH2O3
_chemical_formula_sum   'V4 H8 O12'
_cell_volume   209.98516259
_cell_formula_units_Z   4
loop_
 _symmetry_equiv_pos_site_id
 _symmetry_equiv_pos_as_xyz
  1  'x, y, z'
loop_
 _atom_site_type_symbol
 _atom_site_label
 _atom_site_symmetry_multiplicity
 _atom_site_fract_x
 _atom_site_fract_y
 _atom_site_fract_z
 _atom_site_occupancy
  V  V0  1  0.00000000  0.56435843  0.75000000  1
  V  V1  1  0.00000000  0.43564157  0.25000000  1
  V  V2  1  0.50000000  0.06435843  0.75000000  1
  V  V3  1  0.50000000  0.93564157  0.25000000  1
  H  H4  1  0.72397698  0.80616695  0.73412564  1
  H  H5  1  0.77602302  0.30616695  0.76587436  1
  H  H6  1  0.27602302  0.19383305  0.26587436  1
  H  H7  1  0.22397698  0.69383305  0.23412564  1
  H  H8  1  0.22397698  0.30616695  0.73412564  1
  H  H9  1  0.27602302  0.80616695  0.76587436  1
  H  H10  1  0.77602302  0.69383305  0.26587436  1
  H  H11  1  0.72397698  0.19383305  0.23412564  1
  O  O12  1  0.00000000  0.00761934  0.75000000  1
  O  O13  1  0.35209375  0.99760087  0.35325724  1
  O  O14  1  0.00000000  0.99238066  0.25000000  1
  O  O15  1  0.64790625  0.00239913  0.64674276  1
  O  O16  1  0.14790625  0.49760087  0.14674276  1
  O  O17  1  0.85209374  0.50239913  0.85325724  1
  O  O18  1  0.50000000  0.50761934  0.75000000  1
  O  O19  1  0.85209374  0.49760087  0.35325724  1
  O  O20  1  0.50000000  0.49238066  0.25000000  1
  O  O21  1  0.14790625  0.50239913  0.64674276  1
  O  O22  1  0.64790626  0.99760087  0.14674276  1
  O  O23  1  0.35209374  0.00239913  0.85325724  1
