# generated using pymatgen
data_La2Sn5Rh3
_symmetry_space_group_name_H-M   'P 1'
_cell_length_a   6.47363600
_cell_length_b   10.96718800
_cell_length_c   13.06639600
_cell_angle_alpha   90.00000000
_cell_angle_beta   90.00000000
_cell_angle_gamma   90.00000000
_symmetry_Int_Tables_number   1
_chemical_formula_structural   La2Sn5Rh3
_chemical_formula_sum   'La8 Sn20 Rh12'
_cell_volume   927.68253525
_cell_formula_units_Z   4
loop_
 _symmetry_equiv_pos_site_id
 _symmetry_equiv_pos_as_xyz
  1  'x, y, z'
loop_
 _atom_site_type_symbol
 _atom_site_label
 _atom_site_symmetry_multiplicity
 _atom_site_fract_x
 _atom_site_fract_y
 _atom_site_fract_z
 _atom_site_occupancy
  La  La0  1  0.00000000  0.22876200  0.85613500  1
  La  La1  1  0.00000000  0.77123800  0.14386500  1
  La  La2  1  0.50000000  0.22876200  0.14386500  1
  La  La3  1  0.50000000  0.77123800  0.85613500  1
  La  La4  1  0.50000000  0.72876200  0.35613500  1
  La  La5  1  0.50000000  0.27123800  0.64386500  1
  La  La6  1  0.00000000  0.72876200  0.64386500  1
  La  La7  1  0.00000000  0.27123800  0.35613500  1
  Sn  Sn8  1  0.00000000  0.33257400  0.08717800  1
  Sn  Sn9  1  0.50000000  0.66742600  0.08717800  1
  Sn  Sn10  1  0.00000000  0.66742600  0.91282200  1
  Sn  Sn11  1  0.50000000  0.33257400  0.91282200  1
  Sn  Sn12  1  0.25000000  0.00000000  0.00000000  1
  Sn  Sn13  1  0.75000000  0.00000000  0.00000000  1
  Sn  Sn14  1  0.75000000  0.50000000  0.77855400  1
  Sn  Sn15  1  0.75000000  0.50000000  0.22144600  1
  Sn  Sn16  1  0.25000000  0.50000000  0.22144600  1
  Sn  Sn17  1  0.25000000  0.50000000  0.77855400  1
  Sn  Sn18  1  0.50000000  0.83257400  0.58717800  1
  Sn  Sn19  1  0.00000000  0.16742600  0.58717800  1
  Sn  Sn20  1  0.50000000  0.16742600  0.41282200  1
  Sn  Sn21  1  0.00000000  0.83257400  0.41282200  1
  Sn  Sn22  1  0.75000000  0.50000000  0.50000000  1
  Sn  Sn23  1  0.25000000  0.50000000  0.50000000  1
  Sn  Sn24  1  0.25000000  0.00000000  0.27855400  1
  Sn  Sn25  1  0.25000000  0.00000000  0.72144600  1
  Sn  Sn26  1  0.75000000  0.00000000  0.72144600  1
  Sn  Sn27  1  0.75000000  0.00000000  0.27855400  1
  Rh  Rh28  1  0.50000000  0.39522900  0.35876300  1
  Rh  Rh29  1  0.00000000  0.39522900  0.64123700  1
  Rh  Rh30  1  0.00000000  0.60477100  0.35876300  1
  Rh  Rh31  1  0.50000000  0.60477100  0.64123700  1
  Rh  Rh32  1  0.25000000  0.50000000  0.00000000  1
  Rh  Rh33  1  0.75000000  0.50000000  0.00000000  1
  Rh  Rh34  1  0.00000000  0.89522900  0.85876300  1
  Rh  Rh35  1  0.50000000  0.89522900  0.14123700  1
  Rh  Rh36  1  0.50000000  0.10477100  0.85876300  1
  Rh  Rh37  1  0.00000000  0.10477100  0.14123700  1
  Rh  Rh38  1  0.75000000  0.00000000  0.50000000  1
  Rh  Rh39  1  0.25000000  0.00000000  0.50000000  1
