# generated using pymatgen
data_Mn6Al31Ni2
_symmetry_space_group_name_H-M   'P 1'
_cell_length_a   7.76296800
_cell_length_b   23.83726600
_cell_length_c   12.38853900
_cell_angle_alpha   90.00000000
_cell_angle_beta   90.00000000
_cell_angle_gamma   90.00000000
_symmetry_Int_Tables_number   1
_chemical_formula_structural   Mn6Al31Ni2
_chemical_formula_sum   'Mn24 Al124 Ni8'
_cell_volume   2292.47353689
_cell_formula_units_Z   4
loop_
 _symmetry_equiv_pos_site_id
 _symmetry_equiv_pos_as_xyz
  1  'x, y, z'
loop_
 _atom_site_type_symbol
 _atom_site_label
 _atom_site_symmetry_multiplicity
 _atom_site_fract_x
 _atom_site_fract_y
 _atom_site_fract_z
 _atom_site_occupancy
  Mn  Mn0  1  0.50000000  0.95911800  0.25000000  1
  Mn  Mn1  1  0.00000000  0.54088200  0.75000000  1
  Mn  Mn2  1  0.50000000  0.58188100  0.25000000  1
  Mn  Mn3  1  0.00000000  0.91811900  0.75000000  1
  Mn  Mn4  1  0.00000000  0.64161600  0.44765900  1
  Mn  Mn5  1  0.50000000  0.85838400  0.55234100  1
  Mn  Mn6  1  0.50000000  0.85838400  0.94765900  1
  Mn  Mn7  1  0.00000000  0.64161600  0.05234100  1
  Mn  Mn8  1  0.00000000  0.91237600  0.42185700  1
  Mn  Mn9  1  0.50000000  0.58762400  0.57814300  1
  Mn  Mn10  1  0.50000000  0.58762400  0.92185700  1
  Mn  Mn11  1  0.00000000  0.91237600  0.07814300  1
  Mn  Mn12  1  0.00000000  0.45911800  0.25000000  1
  Mn  Mn13  1  0.50000000  0.04088200  0.75000000  1
  Mn  Mn14  1  0.00000000  0.08188100  0.25000000  1
  Mn  Mn15  1  0.50000000  0.41811900  0.75000000  1
  Mn  Mn16  1  0.50000000  0.14161600  0.44765900  1
  Mn  Mn17  1  0.00000000  0.35838400  0.55234100  1
  Mn  Mn18  1  0.00000000  0.35838400  0.94765900  1
  Mn  Mn19  1  0.50000000  0.14161600  0.05234100  1
  Mn  Mn20  1  0.50000000  0.41237600  0.42185700  1
  Mn  Mn21  1  0.00000000  0.08762400  0.57814300  1
  Mn  Mn22  1  0.00000000  0.08762400  0.92185700  1
  Mn  Mn23  1  0.50000000  0.41237600  0.07814300  1
  Al  Al24  1  0.50000000  0.68834400  0.25000000  1
  Al  Al25  1  0.00000000  0.81165600  0.75000000  1
  Al  Al26  1  0.00000000  0.80313100  0.25000000  1
  Al  Al27  1  0.50000000  0.69686900  0.75000000  1
  Al  Al28  1  0.00000000  0.63559700  0.25000000  1
  Al  Al29  1  0.50000000  0.86440300  0.75000000  1
  Al  Al30  1  0.00000000  0.63766000  0.64995800  1
  Al  Al31  1  0.50000000  0.86234000  0.35004200  1
  Al  Al32  1  0.50000000  0.86234000  0.14995800  1
  Al  Al33  1  0.00000000  0.63766000  0.85004200  1
  Al  Al34  1  0.00000000  0.74058400  0.56162700  1
  Al  Al35  1  0.50000000  0.75941600  0.43837300  1
  Al  Al36  1  0.50000000  0.75941600  0.06162700  1
  Al  Al37  1  0.00000000  0.74058400  0.93837300  1
  Al  Al38  1  0.00000000  0.53988700  0.38658100  1
  Al  Al39  1  0.50000000  0.96011300  0.61341900  1
  Al  Al40  1  0.50000000  0.96011300  0.88658100  1
  Al  Al41  1  0.00000000  0.53988700  0.11341900  1
  Al  Al42  1  0.00000000  0.98190000  0.59224900  1
  Al  Al43  1  0.50000000  0.51810000  0.40775100  1
  Al  Al44  1  0.50000000  0.51810000  0.09224900  1
  Al  Al45  1  0.00000000  0.98190000  0.90775100  1
  Al  Al46  1  0.26581550  0.51502950  0.25000000  1
  Al  Al47  1  0.76581550  0.98497050  0.75000000  1
  Al  Al48  1  0.23418450  0.98497050  0.75000000  1
  Al  Al49  1  0.73418450  0.51502950  0.25000000  1
  Al  Al50  1  0.81135450  0.90026850  0.25000000  1
  Al  Al51  1  0.31135450  0.59973150  0.75000000  1
  Al  Al52  1  0.68864550  0.59973150  0.75000000  1
  Al  Al53  1  0.18864550  0.90026850  0.25000000  1
  Al  Al54  1  0.80963250  0.55371250  0.56830000  1
  Al  Al55  1  0.30963250  0.94628750  0.43170000  1
  Al  Al56  1  0.69036750  0.94628750  0.06830000  1
  Al  Al57  1  0.19036750  0.55371250  0.93170000  1
  Al  Al58  1  0.69036750  0.94628750  0.43170000  1
  Al  Al59  1  0.19036750  0.55371250  0.56830000  1
  Al  Al60  1  0.80963250  0.55371250  0.93170000  1
  Al  Al61  1  0.30963250  0.94628750  0.06830000  1
  Al  Al62  1  0.80660800  0.82840700  0.43281700  1
  Al  Al63  1  0.30660800  0.67159300  0.56718300  1
  Al  Al64  1  0.69339200  0.67159300  0.93281700  1
  Al  Al65  1  0.19339200  0.82840700  0.06718300  1
  Al  Al66  1  0.69339200  0.67159300  0.56718300  1
  Al  Al67  1  0.19339200  0.82840700  0.43281700  1
  Al  Al68  1  0.80660800  0.82840700  0.06718300  1
  Al  Al69  1  0.30660800  0.67159300  0.93281700  1
  Al  Al70  1  0.81627400  0.71823400  0.37440000  1
  Al  Al71  1  0.31627400  0.78176600  0.62560000  1
  Al  Al72  1  0.68372600  0.78176600  0.87440000  1
  Al  Al73  1  0.18372600  0.71823400  0.12560000  1
  Al  Al74  1  0.68372600  0.78176600  0.62560000  1
  Al  Al75  1  0.18372600  0.71823400  0.37440000  1
  Al  Al76  1  0.81627400  0.71823400  0.12560000  1
  Al  Al77  1  0.31627400  0.78176600  0.87440000  1
  Al  Al78  1  0.80928600  0.88901700  0.60656700  1
  Al  Al79  1  0.30928600  0.61098300  0.39343300  1
  Al  Al80  1  0.69071400  0.61098300  0.10656700  1
  Al  Al81  1  0.19071400  0.88901700  0.89343300  1
  Al  Al82  1  0.69071400  0.61098300  0.39343300  1
  Al  Al83  1  0.19071400  0.88901700  0.60656700  1
  Al  Al84  1  0.80928600  0.88901700  0.89343300  1
  Al  Al85  1  0.30928600  0.61098300  0.10656700  1
  Al  Al86  1  0.00000000  0.18834400  0.25000000  1
  Al  Al87  1  0.50000000  0.31165600  0.75000000  1
  Al  Al88  1  0.50000000  0.30313100  0.25000000  1
  Al  Al89  1  0.00000000  0.19686900  0.75000000  1
  Al  Al90  1  0.50000000  0.13559700  0.25000000  1
  Al  Al91  1  0.00000000  0.36440300  0.75000000  1
  Al  Al92  1  0.50000000  0.13766000  0.64995800  1
  Al  Al93  1  0.00000000  0.36234000  0.35004200  1
  Al  Al94  1  0.00000000  0.36234000  0.14995800  1
  Al  Al95  1  0.50000000  0.13766000  0.85004200  1
  Al  Al96  1  0.50000000  0.24058400  0.56162700  1
  Al  Al97  1  0.00000000  0.25941600  0.43837300  1
  Al  Al98  1  0.00000000  0.25941600  0.06162700  1
  Al  Al99  1  0.50000000  0.24058400  0.93837300  1
  Al  Al100  1  0.50000000  0.03988700  0.38658100  1
  Al  Al101  1  0.00000000  0.46011300  0.61341900  1
  Al  Al102  1  0.00000000  0.46011300  0.88658100  1
  Al  Al103  1  0.50000000  0.03988700  0.11341900  1
  Al  Al104  1  0.50000000  0.48190000  0.59224900  1
  Al  Al105  1  0.00000000  0.01810000  0.40775100  1
  Al  Al106  1  0.00000000  0.01810000  0.09224900  1
  Al  Al107  1  0.50000000  0.48190000  0.90775100  1
  Al  Al108  1  0.76581550  0.01502950  0.25000000  1
  Al  Al109  1  0.26581550  0.48497050  0.75000000  1
  Al  Al110  1  0.73418450  0.48497050  0.75000000  1
  Al  Al111  1  0.23418450  0.01502950  0.25000000  1
  Al  Al112  1  0.31135450  0.40026850  0.25000000  1
  Al  Al113  1  0.81135450  0.09973150  0.75000000  1
  Al  Al114  1  0.18864550  0.09973150  0.75000000  1
  Al  Al115  1  0.68864550  0.40026850  0.25000000  1
  Al  Al116  1  0.30963250  0.05371250  0.56830000  1
  Al  Al117  1  0.80963250  0.44628750  0.43170000  1
  Al  Al118  1  0.19036750  0.44628750  0.06830000  1
  Al  Al119  1  0.69036750  0.05371250  0.93170000  1
  Al  Al120  1  0.19036750  0.44628750  0.43170000  1
  Al  Al121  1  0.69036750  0.05371250  0.56830000  1
  Al  Al122  1  0.30963250  0.05371250  0.93170000  1
  Al  Al123  1  0.80963250  0.44628750  0.06830000  1
  Al  Al124  1  0.30660800  0.32840700  0.43281700  1
  Al  Al125  1  0.80660800  0.17159300  0.56718300  1
  Al  Al126  1  0.19339200  0.17159300  0.93281700  1
  Al  Al127  1  0.69339200  0.32840700  0.06718300  1
  Al  Al128  1  0.19339200  0.17159300  0.56718300  1
  Al  Al129  1  0.69339200  0.32840700  0.43281700  1
  Al  Al130  1  0.30660800  0.32840700  0.06718300  1
  Al  Al131  1  0.80660800  0.17159300  0.93281700  1
  Al  Al132  1  0.31627400  0.21823400  0.37440000  1
  Al  Al133  1  0.81627400  0.28176600  0.62560000  1
  Al  Al134  1  0.18372600  0.28176600  0.87440000  1
  Al  Al135  1  0.68372600  0.21823400  0.12560000  1
  Al  Al136  1  0.18372600  0.28176600  0.62560000  1
  Al  Al137  1  0.68372600  0.21823400  0.37440000  1
  Al  Al138  1  0.31627400  0.21823400  0.12560000  1
  Al  Al139  1  0.81627400  0.28176600  0.87440000  1
  Al  Al140  1  0.30928600  0.38901700  0.60656700  1
  Al  Al141  1  0.80928600  0.11098300  0.39343300  1
  Al  Al142  1  0.19071400  0.11098300  0.10656700  1
  Al  Al143  1  0.69071400  0.38901700  0.89343300  1
  Al  Al144  1  0.19071400  0.11098300  0.39343300  1
  Al  Al145  1  0.69071400  0.38901700  0.60656700  1
  Al  Al146  1  0.30928600  0.38901700  0.89343300  1
  Al  Al147  1  0.80928600  0.11098300  0.10656700  1
  Ni  Ni148  1  0.31629750  0.78535750  0.25000000  1
  Ni  Ni149  1  0.81629750  0.71464250  0.75000000  1
  Ni  Ni150  1  0.18370250  0.71464250  0.75000000  1
  Ni  Ni151  1  0.68370250  0.78535750  0.25000000  1
  Ni  Ni152  1  0.81629750  0.28535750  0.25000000  1
  Ni  Ni153  1  0.31629750  0.21464250  0.75000000  1
  Ni  Ni154  1  0.68370250  0.21464250  0.75000000  1
  Ni  Ni155  1  0.18370250  0.28535750  0.25000000  1
