# generated using pymatgen
data_NaCe5S8
_symmetry_space_group_name_H-M   'P 1'
_cell_length_a   8.54280800
_cell_length_b   8.54280800
_cell_length_c   8.56812800
_cell_angle_alpha   90.00000000
_cell_angle_beta   90.00000000
_cell_angle_gamma   90.00000000
_symmetry_Int_Tables_number   1
_chemical_formula_structural   NaCe5S8
_chemical_formula_sum   'Na2 Ce10 S16'
_cell_volume   625.29828451
_cell_formula_units_Z   2
loop_
 _symmetry_equiv_pos_site_id
 _symmetry_equiv_pos_as_xyz
  1  'x, y, z'
loop_
 _atom_site_type_symbol
 _atom_site_label
 _atom_site_symmetry_multiplicity
 _atom_site_fract_x
 _atom_site_fract_y
 _atom_site_fract_z
 _atom_site_occupancy
  Na  Na0  1  0.00000000  0.50000000  0.25000000  1
  Na  Na1  1  0.50000000  0.00000000  0.75000000  1
  Ce  Ce2  1  0.12921900  0.24874000  0.88008500  1
  Ce  Ce3  1  0.00000000  0.00000000  0.50000000  1
  Ce  Ce4  1  0.74874000  0.37078100  0.61991500  1
  Ce  Ce5  1  0.37078100  0.25126000  0.38008500  1
  Ce  Ce6  1  0.75126000  0.12921900  0.11991500  1
  Ce  Ce7  1  0.62921900  0.74874000  0.38008500  1
  Ce  Ce8  1  0.50000000  0.50000000  0.00000000  1
  Ce  Ce9  1  0.24874000  0.87078100  0.11991500  1
  Ce  Ce10  1  0.87078100  0.75126000  0.88008500  1
  Ce  Ce11  1  0.25126000  0.62921900  0.61991500  1
  S  S12  1  0.32786250  0.57406250  0.29800850  1
  S  S13  1  0.31979600  0.92290100  0.43960200  1
  S  S14  1  0.07709900  0.31979600  0.56039800  1
  S  S15  1  0.42593750  0.32786250  0.70199150  1
  S  S16  1  0.18020400  0.57709900  0.93960200  1
  S  S17  1  0.42290100  0.18020400  0.06039800  1
  S  S18  1  0.07406250  0.17213750  0.20199150  1
  S  S19  1  0.17213750  0.92593750  0.79800850  1
  S  S20  1  0.82786250  0.07406250  0.79800850  1
  S  S21  1  0.81979600  0.42290100  0.93960200  1
  S  S22  1  0.57709900  0.81979600  0.06039800  1
  S  S23  1  0.92593750  0.82786250  0.20199150  1
  S  S24  1  0.68020400  0.07709900  0.43960200  1
  S  S25  1  0.92290100  0.68020400  0.56039800  1
  S  S26  1  0.57406250  0.67213750  0.70199150  1
  S  S27  1  0.67213750  0.42593750  0.29800850  1
