# generated using pymatgen
data_Zr2Cr4Si5
_symmetry_space_group_name_H-M   'P 1'
_cell_length_a   4.95953200
_cell_length_b   7.60707200
_cell_length_c   16.12246400
_cell_angle_alpha   90.00000000
_cell_angle_beta   90.00000000
_cell_angle_gamma   90.00000000
_symmetry_Int_Tables_number   1
_chemical_formula_structural   Zr2Cr4Si5
_chemical_formula_sum   'Zr8 Cr16 Si20'
_cell_volume   608.26053481
_cell_formula_units_Z   4
loop_
 _symmetry_equiv_pos_site_id
 _symmetry_equiv_pos_as_xyz
  1  'x, y, z'
loop_
 _atom_site_type_symbol
 _atom_site_label
 _atom_site_symmetry_multiplicity
 _atom_site_fract_x
 _atom_site_fract_y
 _atom_site_fract_z
 _atom_site_occupancy
  Zr  Zr0  1  0.50000000  0.37815400  0.35875800  1
  Zr  Zr1  1  0.00000000  0.12184600  0.14124200  1
  Zr  Zr2  1  0.50000000  0.87815400  0.14124200  1
  Zr  Zr3  1  0.00000000  0.62184600  0.35875800  1
  Zr  Zr4  1  0.00000000  0.87815400  0.85875800  1
  Zr  Zr5  1  0.50000000  0.62184600  0.64124200  1
  Zr  Zr6  1  0.00000000  0.37815400  0.64124200  1
  Zr  Zr7  1  0.50000000  0.12184600  0.85875800  1
  Cr  Cr8  1  0.75000000  0.50000000  0.19106600  1
  Cr  Cr9  1  0.25000000  0.00000000  0.30893400  1
  Cr  Cr10  1  0.50000000  0.25286950  0.06141350  1
  Cr  Cr11  1  0.00000000  0.24713050  0.43858650  1
  Cr  Cr12  1  0.50000000  0.75286950  0.43858650  1
  Cr  Cr13  1  0.00000000  0.74713050  0.06141350  1
  Cr  Cr14  1  0.75000000  0.00000000  0.30893400  1
  Cr  Cr15  1  0.25000000  0.50000000  0.19106600  1
  Cr  Cr16  1  0.25000000  0.00000000  0.69106600  1
  Cr  Cr17  1  0.75000000  0.50000000  0.80893400  1
  Cr  Cr18  1  0.00000000  0.75286950  0.56141350  1
  Cr  Cr19  1  0.50000000  0.74713050  0.93858650  1
  Cr  Cr20  1  0.00000000  0.25286950  0.93858650  1
  Cr  Cr21  1  0.50000000  0.24713050  0.56141350  1
  Cr  Cr22  1  0.25000000  0.50000000  0.80893400  1
  Cr  Cr23  1  0.75000000  0.00000000  0.69106600  1
  Si  Si24  1  0.25000000  0.00000000  0.00000000  1
  Si  Si25  1  0.75000000  0.00000000  0.00000000  1
  Si  Si26  1  0.50000000  0.20920900  0.21088200  1
  Si  Si27  1  0.00000000  0.29079100  0.28911800  1
  Si  Si28  1  0.50000000  0.07267150  0.43602550  1
  Si  Si29  1  0.00000000  0.42732850  0.06397450  1
  Si  Si30  1  0.50000000  0.57267150  0.06397450  1
  Si  Si31  1  0.00000000  0.92732850  0.43602550  1
  Si  Si32  1  0.00000000  0.79079100  0.21088200  1
  Si  Si33  1  0.50000000  0.70920900  0.28911800  1
  Si  Si34  1  0.75000000  0.50000000  0.50000000  1
  Si  Si35  1  0.25000000  0.50000000  0.50000000  1
  Si  Si36  1  0.00000000  0.70920900  0.71088200  1
  Si  Si37  1  0.50000000  0.79079100  0.78911800  1
  Si  Si38  1  0.00000000  0.57267150  0.93602550  1
  Si  Si39  1  0.50000000  0.92732850  0.56397450  1
  Si  Si40  1  0.00000000  0.07267150  0.56397450  1
  Si  Si41  1  0.50000000  0.42732850  0.93602550  1
  Si  Si42  1  0.50000000  0.29079100  0.71088200  1
  Si  Si43  1  0.00000000  0.20920900  0.78911800  1
