# generated using pymatgen
data_Ta2TlO6
_symmetry_space_group_name_H-M   'P 1'
_cell_length_a   7.53478800
_cell_length_b   7.54783000
_cell_length_c   10.67253200
_cell_angle_alpha   90.00000000
_cell_angle_beta   90.00000000
_cell_angle_gamma   90.00000000
_symmetry_Int_Tables_number   1
_chemical_formula_structural   Ta2TlO6
_chemical_formula_sum   'Ta8 Tl4 O24'
_cell_volume   606.96075750
_cell_formula_units_Z   4
loop_
 _symmetry_equiv_pos_site_id
 _symmetry_equiv_pos_as_xyz
  1  'x, y, z'
loop_
 _atom_site_type_symbol
 _atom_site_label
 _atom_site_symmetry_multiplicity
 _atom_site_fract_x
 _atom_site_fract_y
 _atom_site_fract_z
 _atom_site_occupancy
  Ta  Ta0  1  0.75000000  0.75000000  0.25000000  1
  Ta  Ta1  1  0.50000000  0.00000000  0.50000000  1
  Ta  Ta2  1  0.00000000  0.00000000  0.00000000  1
  Ta  Ta3  1  0.25000000  0.75000000  0.25000000  1
  Ta  Ta4  1  0.25000000  0.25000000  0.75000000  1
  Ta  Ta5  1  0.00000000  0.50000000  0.00000000  1
  Ta  Ta6  1  0.50000000  0.50000000  0.50000000  1
  Ta  Ta7  1  0.75000000  0.25000000  0.75000000  1
  Tl  Tl8  1  0.25000000  0.25000000  0.25000000  1
  Tl  Tl9  1  0.75000000  0.25000000  0.25000000  1
  Tl  Tl10  1  0.75000000  0.75000000  0.75000000  1
  Tl  Tl11  1  0.25000000  0.75000000  0.75000000  1
  O  O12  1  0.00000000  0.75000000  0.30726700  1
  O  O13  1  0.31520600  0.06075900  0.62667100  1
  O  O14  1  0.81520600  0.93924100  0.12667100  1
  O  O15  1  0.68479400  0.06075900  0.62667100  1
  O  O16  1  0.50000000  0.75000000  0.56380300  1
  O  O17  1  0.81520600  0.06075900  0.87332900  1
  O  O18  1  0.18479400  0.93924100  0.12667100  1
  O  O19  1  0.50000000  0.25000000  0.43619700  1
  O  O20  1  0.31520600  0.93924100  0.37332900  1
  O  O21  1  0.18479400  0.06075900  0.87332900  1
  O  O22  1  0.00000000  0.25000000  0.69273300  1
  O  O23  1  0.68479400  0.93924100  0.37332900  1
  O  O24  1  0.50000000  0.25000000  0.80726700  1
  O  O25  1  0.81520600  0.56075900  0.12667100  1
  O  O26  1  0.31520600  0.43924100  0.62667100  1
  O  O27  1  0.18479400  0.56075900  0.12667100  1
  O  O28  1  0.00000000  0.25000000  0.06380300  1
  O  O29  1  0.31520600  0.56075900  0.37332900  1
  O  O30  1  0.68479400  0.43924100  0.62667100  1
  O  O31  1  0.00000000  0.75000000  0.93619700  1
  O  O32  1  0.81520600  0.43924100  0.87332900  1
  O  O33  1  0.68479400  0.56075900  0.37332900  1
  O  O34  1  0.50000000  0.75000000  0.19273300  1
  O  O35  1  0.18479400  0.43924100  0.87332900  1
