# generated using pymatgen
data_Li3Cr2(PO4)3
_symmetry_space_group_name_H-M   'P 1'
_cell_length_a   8.12269200
_cell_length_b   5.31619800
_cell_length_c   18.74240443
_cell_angle_alpha   90.00000000
_cell_angle_beta   90.43470229
_cell_angle_gamma   90.00000000
_symmetry_Int_Tables_number   1
_chemical_formula_structural   Li3Cr2(PO4)3
_chemical_formula_sum   'Li12 Cr8 P12 O48'
_cell_volume   809.30819633
_cell_formula_units_Z   4
loop_
 _symmetry_equiv_pos_site_id
 _symmetry_equiv_pos_as_xyz
  1  'x, y, z'
loop_
 _atom_site_type_symbol
 _atom_site_label
 _atom_site_symmetry_multiplicity
 _atom_site_fract_x
 _atom_site_fract_y
 _atom_site_fract_z
 _atom_site_occupancy
  Li  Li0  1  0.00008500  0.00000000  0.66697900  1
  Li  Li1  1  0.99991500  0.00000000  0.33302100  1
  Li  Li2  1  0.67526700  0.00000000  0.41070300  1
  Li  Li3  1  0.67313900  0.00000000  0.74539200  1
  Li  Li4  1  0.32686100  0.00000000  0.25460800  1
  Li  Li5  1  0.32473300  0.00000000  0.58929700  1
  Li  Li6  1  0.50008500  0.50000000  0.66697900  1
  Li  Li7  1  0.49991500  0.50000000  0.33302100  1
  Li  Li8  1  0.17526700  0.50000000  0.41070300  1
  Li  Li9  1  0.17313900  0.50000000  0.74539200  1
  Li  Li10  1  0.82686100  0.50000000  0.25460800  1
  Li  Li11  1  0.82473300  0.50000000  0.58929700  1
  Cr  Cr12  1  0.99754600  0.00000000  0.83550200  1
  Cr  Cr13  1  0.00000000  0.00000000  0.50000000  1
  Cr  Cr14  1  0.00000000  0.00000000  0.00000000  1
  Cr  Cr15  1  0.00245400  0.00000000  0.16449800  1
  Cr  Cr16  1  0.49754600  0.50000000  0.83550200  1
  Cr  Cr17  1  0.50000000  0.50000000  0.50000000  1
  Cr  Cr18  1  0.50000000  0.50000000  0.00000000  1
  Cr  Cr19  1  0.50245400  0.50000000  0.16449800  1
  P  P20  1  0.34496300  0.00000000  0.75637600  1
  P  P21  1  0.35033900  0.00000000  0.42075700  1
  P  P22  1  0.64966100  0.00000000  0.57924300  1
  P  P23  1  0.65225100  0.00000000  0.91741600  1
  P  P24  1  0.34774900  0.00000000  0.08258400  1
  P  P25  1  0.65503700  0.00000000  0.24362400  1
  P  P26  1  0.84496300  0.50000000  0.75637600  1
  P  P27  1  0.85033900  0.50000000  0.42075700  1
  P  P28  1  0.14966100  0.50000000  0.57924300  1
  P  P29  1  0.15225100  0.50000000  0.91741600  1
  P  P30  1  0.84774900  0.50000000  0.08258400  1
  P  P31  1  0.15503700  0.50000000  0.24362400  1
  O  O32  1  0.25162300  0.00000000  0.68629000  1
  O  O33  1  0.53081300  0.76504200  0.57642700  1
  O  O34  1  0.46425400  0.75788600  0.08135600  1
  O  O35  1  0.53574600  0.75788600  0.91864400  1
  O  O36  1  0.46425400  0.24211400  0.08135600  1
  O  O37  1  0.53574600  0.24211400  0.91864400  1
  O  O38  1  0.53081300  0.23495800  0.57642700  1
  O  O39  1  0.46918700  0.23495800  0.42357300  1
  O  O40  1  0.46509400  0.23503300  0.76042800  1
  O  O41  1  0.53490600  0.23503300  0.23957200  1
  O  O42  1  0.23129200  0.00000000  0.82115900  1
  O  O43  1  0.53490600  0.76496700  0.23957200  1
  O  O44  1  0.24080900  0.00000000  0.48810300  1
  O  O45  1  0.24924700  0.00000000  0.15230400  1
  O  O46  1  0.23722200  0.00000000  0.01699700  1
  O  O47  1  0.24996200  0.00000000  0.35268200  1
  O  O48  1  0.75003800  0.00000000  0.64731800  1
  O  O49  1  0.74837700  0.00000000  0.31371000  1
  O  O50  1  0.75075300  0.00000000  0.84769600  1
  O  O51  1  0.76277800  0.00000000  0.98300300  1
  O  O52  1  0.75919100  0.00000000  0.51189700  1
  O  O53  1  0.76870800  0.00000000  0.17884100  1
  O  O54  1  0.46509400  0.76496700  0.76042800  1
  O  O55  1  0.46918700  0.76504200  0.42357300  1
  O  O56  1  0.75162300  0.50000000  0.68629000  1
  O  O57  1  0.03081300  0.26504200  0.57642700  1
  O  O58  1  0.96425400  0.25788600  0.08135600  1
  O  O59  1  0.03574600  0.25788600  0.91864400  1
  O  O60  1  0.96425400  0.74211400  0.08135600  1
  O  O61  1  0.03574600  0.74211400  0.91864400  1
  O  O62  1  0.03081300  0.73495800  0.57642700  1
  O  O63  1  0.96918700  0.73495800  0.42357300  1
  O  O64  1  0.96509400  0.73503300  0.76042800  1
  O  O65  1  0.03490600  0.73503300  0.23957200  1
  O  O66  1  0.73129200  0.50000000  0.82115900  1
  O  O67  1  0.03490600  0.26496700  0.23957200  1
  O  O68  1  0.74080900  0.50000000  0.48810300  1
  O  O69  1  0.74924700  0.50000000  0.15230400  1
  O  O70  1  0.73722200  0.50000000  0.01699700  1
  O  O71  1  0.74996200  0.50000000  0.35268200  1
  O  O72  1  0.25003800  0.50000000  0.64731800  1
  O  O73  1  0.24837700  0.50000000  0.31371000  1
  O  O74  1  0.25075300  0.50000000  0.84769600  1
  O  O75  1  0.26277800  0.50000000  0.98300300  1
  O  O76  1  0.25919100  0.50000000  0.51189700  1
  O  O77  1  0.26870800  0.50000000  0.17884100  1
  O  O78  1  0.96509400  0.26496700  0.76042800  1
  O  O79  1  0.96918700  0.26504200  0.42357300  1
