# generated using pymatgen
data_Tm2Zn17
_symmetry_space_group_name_H-M   'P 1'
_cell_length_a   8.93565170
_cell_length_b   8.93565170
_cell_length_c   13.19256507
_cell_angle_alpha   90.00000000
_cell_angle_beta   90.00000000
_cell_angle_gamma   120.00000000
_symmetry_Int_Tables_number   1
_chemical_formula_structural   Tm2Zn17
_chemical_formula_sum   'Tm6 Zn51'
_cell_volume   912.24678400
_cell_formula_units_Z   3
loop_
 _symmetry_equiv_pos_site_id
 _symmetry_equiv_pos_as_xyz
  1  'x, y, z'
loop_
 _atom_site_type_symbol
 _atom_site_label
 _atom_site_symmetry_multiplicity
 _atom_site_fract_x
 _atom_site_fract_y
 _atom_site_fract_z
 _atom_site_occupancy
  Tm  Tm0  1  0.33333333  0.66666667  0.33190767  1
  Tm  Tm1  1  0.33333333  0.66666667  0.00142567  1
  Tm  Tm2  1  0.00000000  0.00000000  0.66524100  1
  Tm  Tm3  1  0.00000000  0.00000000  0.33475900  1
  Tm  Tm4  1  0.66666667  0.33333333  0.99857433  1
  Tm  Tm5  1  0.66666667  0.33333333  0.66809233  1
  Zn  Zn6  1  0.17159500  0.82840500  0.18097700  1
  Zn  Zn7  1  0.17159500  0.34319000  0.18097700  1
  Zn  Zn8  1  0.33333333  0.66666667  0.76713867  1
  Zn  Zn9  1  0.33333333  0.66666667  0.56619467  1
  Zn  Zn10  1  0.16666667  0.83333333  0.83333333  1
  Zn  Zn11  1  0.33333333  0.16666667  0.16666667  1
  Zn  Zn12  1  0.83333333  0.66666667  0.16666667  1
  Zn  Zn13  1  0.36763767  0.03430433  0.33333333  1
  Zn  Zn14  1  0.00000000  0.29902900  0.00000000  1
  Zn  Zn15  1  0.29902900  0.00000000  0.00000000  1
  Zn  Zn16  1  0.96569567  0.63236233  0.33333333  1
  Zn  Zn17  1  0.00000000  0.70097100  0.00000000  1
  Zn  Zn18  1  0.70097100  0.00000000  0.00000000  1
  Zn  Zn19  1  0.49507167  0.99014333  0.15235633  1
  Zn  Zn20  1  0.49507167  0.50492833  0.15235633  1
  Zn  Zn21  1  0.00985667  0.50492833  0.15235633  1
  Zn  Zn22  1  0.65681000  0.82840500  0.18097700  1
  Zn  Zn23  1  0.83826167  0.16173833  0.51431033  1
  Zn  Zn24  1  0.83826167  0.67652333  0.51431033  1
  Zn  Zn25  1  0.00000000  0.00000000  0.10047200  1
  Zn  Zn26  1  0.00000000  0.00000000  0.89952800  1
  Zn  Zn27  1  0.83333333  0.16666667  0.16666667  1
  Zn  Zn28  1  0.00000000  0.50000000  0.50000000  1
  Zn  Zn29  1  0.50000000  0.00000000  0.50000000  1
  Zn  Zn30  1  0.03430433  0.36763767  0.66666667  1
  Zn  Zn31  1  0.66666667  0.63236233  0.33333333  1
  Zn  Zn32  1  0.96569567  0.33333333  0.33333333  1
  Zn  Zn33  1  0.63236233  0.96569567  0.66666667  1
  Zn  Zn34  1  0.66666667  0.03430433  0.33333333  1
  Zn  Zn35  1  0.36763767  0.33333333  0.33333333  1
  Zn  Zn36  1  0.16173833  0.32347667  0.48568967  1
  Zn  Zn37  1  0.16173833  0.83826167  0.48568967  1
  Zn  Zn38  1  0.67652333  0.83826167  0.48568967  1
  Zn  Zn39  1  0.32347667  0.16173833  0.51431033  1
  Zn  Zn40  1  0.50492833  0.49507167  0.84764367  1
  Zn  Zn41  1  0.50492833  0.00985667  0.84764367  1
  Zn  Zn42  1  0.66666667  0.33333333  0.43380533  1
  Zn  Zn43  1  0.66666667  0.33333333  0.23286133  1
  Zn  Zn44  1  0.50000000  0.50000000  0.50000000  1
  Zn  Zn45  1  0.66666667  0.83333333  0.83333333  1
  Zn  Zn46  1  0.16666667  0.33333333  0.83333333  1
  Zn  Zn47  1  0.70097100  0.70097100  0.00000000  1
  Zn  Zn48  1  0.33333333  0.96569567  0.66666667  1
  Zn  Zn49  1  0.63236233  0.66666667  0.66666667  1
  Zn  Zn50  1  0.29902900  0.29902900  0.00000000  1
  Zn  Zn51  1  0.33333333  0.36763767  0.66666667  1
  Zn  Zn52  1  0.03430433  0.66666667  0.66666667  1
  Zn  Zn53  1  0.82840500  0.65681000  0.81902300  1
  Zn  Zn54  1  0.82840500  0.17159500  0.81902300  1
  Zn  Zn55  1  0.34319000  0.17159500  0.81902300  1
  Zn  Zn56  1  0.99014333  0.49507167  0.84764367  1
