# generated using pymatgen
data_Sm2F
_symmetry_space_group_name_H-M   'P 1'
_cell_length_a   27.50370600
_cell_length_b   3.88768200
_cell_length_c   7.63436737
_cell_angle_alpha   90.00000000
_cell_angle_beta   98.00227681
_cell_angle_gamma   90.00000000
_symmetry_Int_Tables_number   1
_chemical_formula_structural   Sm2F
_chemical_formula_sum   'Sm20 F10'
_cell_volume   808.36100430
_cell_formula_units_Z   10
loop_
 _symmetry_equiv_pos_site_id
 _symmetry_equiv_pos_as_xyz
  1  'x, y, z'
loop_
 _atom_site_type_symbol
 _atom_site_label
 _atom_site_symmetry_multiplicity
 _atom_site_fract_x
 _atom_site_fract_y
 _atom_site_fract_z
 _atom_site_occupancy
  Sm  Sm0  1  0.00033300  0.00000000  0.99879900  1
  Sm  Sm1  1  0.39945300  0.00000000  0.19196000  1
  Sm  Sm2  1  0.29762700  0.50000000  0.39938600  1
  Sm  Sm3  1  0.19970500  0.00000000  0.09961200  1
  Sm  Sm4  1  0.20025700  0.00000000  0.59995400  1
  Sm  Sm5  1  0.09817200  0.50000000  0.30133800  1
  Sm  Sm6  1  0.10188300  0.50000000  0.79912800  1
  Sm  Sm7  1  0.49989100  0.50000000  0.50013300  1
  Sm  Sm8  1  0.40105700  0.00000000  0.70563600  1
  Sm  Sm9  1  0.30142000  0.50000000  0.90085900  1
  Sm  Sm10  1  0.50033300  0.50000000  0.99879900  1
  Sm  Sm11  1  0.89945300  0.50000000  0.19196000  1
  Sm  Sm12  1  0.79762700  0.00000000  0.39938600  1
  Sm  Sm13  1  0.69970500  0.50000000  0.09961200  1
  Sm  Sm14  1  0.70025700  0.50000000  0.59995400  1
  Sm  Sm15  1  0.59817200  0.00000000  0.30133800  1
  Sm  Sm16  1  0.60188300  0.00000000  0.79912800  1
  Sm  Sm17  1  0.99989100  0.00000000  0.50013300  1
  Sm  Sm18  1  0.90105700  0.50000000  0.70563600  1
  Sm  Sm19  1  0.80142000  0.00000000  0.90085900  1
  F  F20  1  0.14896900  0.00000000  0.32400200  1
  F  F21  1  0.05121300  0.00000000  0.77584300  1
  F  F22  1  0.44862400  0.50000000  0.22533800  1
  F  F23  1  0.34980300  0.00000000  0.42643900  1
  F  F24  1  0.25159200  0.00000000  0.87657300  1
  F  F25  1  0.64896900  0.50000000  0.32400200  1
  F  F26  1  0.55121300  0.50000000  0.77584300  1
  F  F27  1  0.94862400  0.00000000  0.22533800  1
  F  F28  1  0.84980300  0.50000000  0.42643900  1
  F  F29  1  0.75159200  0.50000000  0.87657300  1
