# generated using pymatgen
data_Li3Cr2(PO4)3
_symmetry_space_group_name_H-M   'P 1'
_cell_length_a   8.38164606
_cell_length_b   8.38164606
_cell_length_c   22.43135449
_cell_angle_alpha   90.00000000
_cell_angle_beta   90.00000000
_cell_angle_gamma   120.00000000
_symmetry_Int_Tables_number   1
_chemical_formula_structural   Li3Cr2(PO4)3
_chemical_formula_sum   'Li18 Cr12 P18 O72'
_cell_volume   1364.72380006
_cell_formula_units_Z   6
loop_
 _symmetry_equiv_pos_site_id
 _symmetry_equiv_pos_as_xyz
  1  'x, y, z'
loop_
 _atom_site_type_symbol
 _atom_site_label
 _atom_site_symmetry_multiplicity
 _atom_site_fract_x
 _atom_site_fract_y
 _atom_site_fract_z
 _atom_site_occupancy
  Li  Li0  1  0.38349733  0.01979067  0.28412467  1
  Li  Li1  1  0.28316933  0.31354267  0.04920867  1
  Li  Li2  1  0.68645733  0.96962667  0.04920867  1
  Li  Li3  1  0.03037333  0.71683067  0.04920867  1
  Li  Li4  1  0.63629333  0.61650267  0.28412467  1
  Li  Li5  1  0.98020933  0.36370667  0.28412467  1
  Li  Li6  1  0.05016400  0.35312400  0.61745800  1
  Li  Li7  1  0.94983600  0.64687600  0.38254200  1
  Li  Li8  1  0.35312400  0.30296000  0.38254200  1
  Li  Li9  1  0.69704000  0.05016400  0.38254200  1
  Li  Li10  1  0.30296000  0.94983600  0.61745800  1
  Li  Li11  1  0.64687600  0.69704000  0.61745800  1
  Li  Li12  1  0.71683067  0.68645733  0.95079133  1
  Li  Li13  1  0.61650267  0.98020933  0.71587533  1
  Li  Li14  1  0.01979067  0.63629333  0.71587533  1
  Li  Li15  1  0.36370667  0.38349733  0.71587533  1
  Li  Li16  1  0.96962667  0.28316933  0.95079133  1
  Li  Li17  1  0.31354267  0.03037333  0.95079133  1
  Cr  Cr18  1  0.00000000  0.00000000  0.14455500  1
  Cr  Cr19  1  0.33333333  0.66666667  0.01549167  1
  Cr  Cr20  1  0.33333333  0.66666667  0.31784167  1
  Cr  Cr21  1  0.66666667  0.33333333  0.18877833  1
  Cr  Cr22  1  0.66666667  0.33333333  0.47788833  1
  Cr  Cr23  1  0.00000000  0.00000000  0.34882500  1
  Cr  Cr24  1  0.00000000  0.00000000  0.65117500  1
  Cr  Cr25  1  0.33333333  0.66666667  0.52211167  1
  Cr  Cr26  1  0.33333333  0.66666667  0.81122167  1
  Cr  Cr27  1  0.66666667  0.33333333  0.68215833  1
  Cr  Cr28  1  0.66666667  0.33333333  0.98450833  1
  Cr  Cr29  1  0.00000000  0.00000000  0.85544500  1
  P  P30  1  0.71120933  0.99926167  0.24950067  1
  P  P31  1  0.28805233  0.28879067  0.24950067  1
  P  P32  1  0.37861433  0.04454267  0.08383267  1
  P  P33  1  0.95545733  0.33407167  0.08383267  1
  P  P34  1  0.00073833  0.71194767  0.24950067  1
  P  P35  1  0.66592833  0.62138567  0.08383267  1
  P  P36  1  0.37787600  0.33259500  0.58283400  1
  P  P37  1  0.95471900  0.62212400  0.58283400  1
  P  P38  1  0.04528100  0.37787600  0.41716600  1
  P  P39  1  0.62212400  0.66740500  0.41716600  1
  P  P40  1  0.66740500  0.04528100  0.58283400  1
  P  P41  1  0.33259500  0.95471900  0.41716600  1
  P  P42  1  0.04454267  0.66592833  0.91616733  1
  P  P43  1  0.62138567  0.95545733  0.91616733  1
  P  P44  1  0.71194767  0.71120933  0.75049933  1
  P  P45  1  0.28879067  0.00073833  0.75049933  1
  P  P46  1  0.33407167  0.37861433  0.91616733  1
  P  P47  1  0.99926167  0.28805233  0.75049933  1
  O  O48  1  0.16632233  0.95740467  0.08831667  1
  O  O49  1  0.85583200  0.09059800  0.30237000  1
  O  O50  1  0.23476600  0.14416800  0.30237000  1
  O  O51  1  0.90940200  0.76523400  0.30237000  1
  O  O52  1  0.75726467  0.56809933  0.03096333  1
  O  O53  1  0.43190067  0.18916533  0.03096333  1
  O  O54  1  0.81083467  0.24273533  0.03096333  1
  O  O55  1  0.19872500  0.76088700  0.26778800  1
  O  O56  1  0.87558433  0.49965567  0.24501667  1
  O  O57  1  0.00350800  0.80767800  0.19211600  1
  O  O58  1  0.62407133  0.12441567  0.24501667  1
  O  O59  1  0.79108233  0.83367767  0.08831667  1
  O  O60  1  0.23911300  0.43783800  0.26778800  1
  O  O61  1  0.47434467  0.13750333  0.14121733  1
  O  O62  1  0.56216200  0.80127500  0.26778800  1
  O  O63  1  0.86249667  0.33684133  0.14121733  1
  O  O64  1  0.80417000  0.99649200  0.19211600  1
  O  O65  1  0.50034433  0.37592867  0.24501667  1
  O  O66  1  0.19232200  0.19583000  0.19211600  1
  O  O67  1  0.42755367  0.89549533  0.06554533  1
  O  O68  1  0.10450467  0.53205833  0.06554533  1
  O  O69  1  0.04259533  0.20891767  0.08831667  1
  O  O70  1  0.66315867  0.52565533  0.14121733  1
  O  O71  1  0.46794167  0.57244633  0.06554533  1
  O  O72  1  0.83298900  0.29073800  0.42165000  1
  O  O73  1  0.52249867  0.42393133  0.63570333  1
  O  O74  1  0.90143267  0.47750133  0.63570333  1
  O  O75  1  0.57606867  0.09856733  0.63570333  1
  O  O76  1  0.42393133  0.90143267  0.36429667  1
  O  O77  1  0.09856733  0.52249867  0.36429667  1
  O  O78  1  0.47750133  0.57606867  0.36429667  1
  O  O79  1  0.86539167  0.09422033  0.60112133  1
  O  O80  1  0.54225100  0.83298900  0.57835000  1
  O  O81  1  0.67017467  0.14101133  0.52544933  1
  O  O82  1  0.29073800  0.45774900  0.57835000  1
  O  O83  1  0.45774900  0.16701100  0.42165000  1
  O  O84  1  0.90577967  0.77117133  0.60112133  1
  O  O85  1  0.14101133  0.47083667  0.47455067  1
  O  O86  1  0.22882867  0.13460833  0.60112133  1
  O  O87  1  0.52916333  0.67017467  0.47455067  1
  O  O88  1  0.47083667  0.32982533  0.52544933  1
  O  O89  1  0.16701100  0.70926200  0.57835000  1
  O  O90  1  0.85898867  0.52916333  0.52544933  1
  O  O91  1  0.09422033  0.22882867  0.39887867  1
  O  O92  1  0.77117133  0.86539167  0.39887867  1
  O  O93  1  0.70926200  0.54225100  0.42165000  1
  O  O94  1  0.32982533  0.85898867  0.47455067  1
  O  O95  1  0.13460833  0.90577967  0.39887867  1
  O  O96  1  0.49965567  0.62407133  0.75498333  1
  O  O97  1  0.18916533  0.75726467  0.96903667  1
  O  O98  1  0.56809933  0.81083467  0.96903667  1
  O  O99  1  0.24273533  0.43190067  0.96903667  1
  O  O100  1  0.09059800  0.23476600  0.69763000  1
  O  O101  1  0.76523400  0.85583200  0.69763000  1
  O  O102  1  0.14416800  0.90940200  0.69763000  1
  O  O103  1  0.53205833  0.42755367  0.93445467  1
  O  O104  1  0.20891767  0.16632233  0.91168333  1
  O  O105  1  0.33684133  0.47434467  0.85878267  1
  O  O106  1  0.95740467  0.79108233  0.91168333  1
  O  O107  1  0.12441567  0.50034433  0.75498333  1
  O  O108  1  0.57244633  0.10450467  0.93445467  1
  O  O109  1  0.80767800  0.80417000  0.80788400  1
  O  O110  1  0.89549533  0.46794167  0.93445467  1
  O  O111  1  0.19583000  0.00350800  0.80788400  1
  O  O112  1  0.13750333  0.66315867  0.85878267  1
  O  O113  1  0.83367767  0.04259533  0.91168333  1
  O  O114  1  0.52565533  0.86249667  0.85878267  1
  O  O115  1  0.76088700  0.56216200  0.73221200  1
  O  O116  1  0.43783800  0.19872500  0.73221200  1
  O  O117  1  0.37592867  0.87558433  0.75498333  1
  O  O118  1  0.99649200  0.19232200  0.80788400  1
  O  O119  1  0.80127500  0.23911300  0.73221200  1
