# generated using pymatgen
data_VRe2O9
_symmetry_space_group_name_H-M   'P 1'
_cell_length_a   5.73152600
_cell_length_b   15.24205000
_cell_length_c   9.17985200
_cell_angle_alpha   90.00000000
_cell_angle_beta   90.00000000
_cell_angle_gamma   90.00000000
_symmetry_Int_Tables_number   1
_chemical_formula_structural   VRe2O9
_chemical_formula_sum   'V4 Re8 O36'
_cell_volume   801.95376056
_cell_formula_units_Z   4
loop_
 _symmetry_equiv_pos_site_id
 _symmetry_equiv_pos_as_xyz
  1  'x, y, z'
loop_
 _atom_site_type_symbol
 _atom_site_label
 _atom_site_symmetry_multiplicity
 _atom_site_fract_x
 _atom_site_fract_y
 _atom_site_fract_z
 _atom_site_occupancy
  V  V0  1  0.00000000  0.11986200  0.21786100  1
  V  V1  1  0.50000000  0.38013800  0.71786100  1
  V  V2  1  0.50000000  0.61986200  0.21786100  1
  V  V3  1  0.00000000  0.88013800  0.71786100  1
  Re  Re4  1  0.00000000  0.48385800  0.30989100  1
  Re  Re5  1  0.50000000  0.01614200  0.80989100  1
  Re  Re6  1  0.50000000  0.27045800  0.13039600  1
  Re  Re7  1  0.00000000  0.22954200  0.63039600  1
  Re  Re8  1  0.50000000  0.98385800  0.30989100  1
  Re  Re9  1  0.00000000  0.51614200  0.80989100  1
  Re  Re10  1  0.00000000  0.77045800  0.13039600  1
  Re  Re11  1  0.50000000  0.72954200  0.63039600  1
  O  O12  1  0.00000000  0.06921200  0.06620200  1
  O  O13  1  0.50000000  0.43078800  0.56620200  1
  O  O14  1  0.00000000  0.42642500  0.14774300  1
  O  O15  1  0.50000000  0.07357500  0.64774300  1
  O  O16  1  0.00000000  0.40918900  0.45218000  1
  O  O17  1  0.50000000  0.09081100  0.95218000  1
  O  O18  1  0.74407700  0.28951600  0.67433300  1
  O  O19  1  0.75592300  0.21048400  0.17433300  1
  O  O20  1  0.25592300  0.28951600  0.67433300  1
  O  O21  1  0.24407700  0.21048400  0.17433300  1
  O  O22  1  0.00000000  0.19864500  0.44709600  1
  O  O23  1  0.50000000  0.30135500  0.94709600  1
  O  O24  1  0.00000000  0.13635900  0.73680300  1
  O  O25  1  0.50000000  0.36364100  0.23680300  1
  O  O26  1  0.74657750  0.44841850  0.82009600  1
  O  O27  1  0.75342250  0.05158150  0.32009600  1
  O  O28  1  0.25342250  0.44841850  0.82009600  1
  O  O29  1  0.24657750  0.05158150  0.32009600  1
  O  O30  1  0.50000000  0.56921200  0.06620200  1
  O  O31  1  0.00000000  0.93078800  0.56620200  1
  O  O32  1  0.50000000  0.92642500  0.14774300  1
  O  O33  1  0.00000000  0.57357500  0.64774300  1
  O  O34  1  0.50000000  0.90918900  0.45218000  1
  O  O35  1  0.00000000  0.59081100  0.95218000  1
  O  O36  1  0.24407700  0.78951600  0.67433300  1
  O  O37  1  0.25592300  0.71048400  0.17433300  1
  O  O38  1  0.75592300  0.78951600  0.67433300  1
  O  O39  1  0.74407700  0.71048400  0.17433300  1
  O  O40  1  0.50000000  0.69864500  0.44709600  1
  O  O41  1  0.00000000  0.80135500  0.94709600  1
  O  O42  1  0.50000000  0.63635900  0.73680300  1
  O  O43  1  0.00000000  0.86364100  0.23680300  1
  O  O44  1  0.24657750  0.94841850  0.82009600  1
  O  O45  1  0.25342250  0.55158150  0.32009600  1
  O  O46  1  0.75342250  0.94841850  0.82009600  1
  O  O47  1  0.74657750  0.55158150  0.32009600  1
