# generated using pymatgen
data_Na(Sm2Se3)4
_symmetry_space_group_name_H-M   'P 1'
_cell_length_a   8.85496000
_cell_length_b   8.85496000
_cell_length_c   26.64885000
_cell_angle_alpha   90.00000000
_cell_angle_beta   90.00000000
_cell_angle_gamma   90.00000000
_symmetry_Int_Tables_number   1
_chemical_formula_structural   Na(Sm2Se3)4
_chemical_formula_sum   'Na4 Sm32 Se48'
_cell_volume   2089.54476557
_cell_formula_units_Z   4
loop_
 _symmetry_equiv_pos_site_id
 _symmetry_equiv_pos_as_xyz
  1  'x, y, z'
loop_
 _atom_site_type_symbol
 _atom_site_label
 _atom_site_symmetry_multiplicity
 _atom_site_fract_x
 _atom_site_fract_y
 _atom_site_fract_z
 _atom_site_occupancy
  Na  Na0  1  0.50000000  0.50000000  0.00000000  1
  Na  Na1  1  0.50000000  0.00000000  0.25000000  1
  Na  Na2  1  0.00000000  0.00000000  0.50000000  1
  Na  Na3  1  0.00000000  0.50000000  0.75000000  1
  Sm  Sm4  1  0.25381300  0.12775900  0.04055800  1
  Sm  Sm5  1  0.74618700  0.87224100  0.04055800  1
  Sm  Sm6  1  0.37224100  0.75381300  0.45944200  1
  Sm  Sm7  1  0.00000000  0.50000000  0.41778900  1
  Sm  Sm8  1  0.25000000  0.11973700  0.37500000  1
  Sm  Sm9  1  0.62775900  0.24618700  0.45944200  1
  Sm  Sm10  1  0.75000000  0.88026300  0.37500000  1
  Sm  Sm11  1  0.50000000  0.50000000  0.33221100  1
  Sm  Sm12  1  0.87224100  0.24618700  0.29055800  1
  Sm  Sm13  1  0.74618700  0.62775900  0.20944200  1
  Sm  Sm14  1  0.12775900  0.75381300  0.29055800  1
  Sm  Sm15  1  0.25381300  0.37224100  0.20944200  1
  Sm  Sm16  1  0.00000000  0.00000000  0.16778900  1
  Sm  Sm17  1  0.38026300  0.75000000  0.12500000  1
  Sm  Sm18  1  0.00000000  0.50000000  0.08221100  1
  Sm  Sm19  1  0.61973700  0.25000000  0.12500000  1
  Sm  Sm20  1  0.75381300  0.62775900  0.54055800  1
  Sm  Sm21  1  0.24618700  0.37224100  0.54055800  1
  Sm  Sm22  1  0.87224100  0.25381300  0.95944200  1
  Sm  Sm23  1  0.50000000  0.00000000  0.91778900  1
  Sm  Sm24  1  0.75000000  0.61973700  0.87500000  1
  Sm  Sm25  1  0.12775900  0.74618700  0.95944200  1
  Sm  Sm26  1  0.25000000  0.38026300  0.87500000  1
  Sm  Sm27  1  0.00000000  0.00000000  0.83221100  1
  Sm  Sm28  1  0.37224100  0.74618700  0.79055800  1
  Sm  Sm29  1  0.24618700  0.12775900  0.70944200  1
  Sm  Sm30  1  0.62775900  0.25381300  0.79055800  1
  Sm  Sm31  1  0.75381300  0.87224100  0.70944200  1
  Sm  Sm32  1  0.50000000  0.50000000  0.66778900  1
  Sm  Sm33  1  0.88026300  0.25000000  0.62500000  1
  Sm  Sm34  1  0.50000000  0.00000000  0.58221100  1
  Sm  Sm35  1  0.11973700  0.75000000  0.62500000  1
  Se  Se36  1  0.67480600  0.92250800  0.48344400  1
  Se  Se37  1  0.57749200  0.17480600  0.01655600  1
  Se  Se38  1  0.42250800  0.82519400  0.01655600  1
  Se  Se39  1  0.07239850  0.81925050  0.39678750  1
  Se  Se40  1  0.92760150  0.18074950  0.39678750  1
  Se  Se41  1  0.67594400  0.57209000  0.43360700  1
  Se  Se42  1  0.32519400  0.07749200  0.48344400  1
  Se  Se43  1  0.32405600  0.42791000  0.43360700  1
  Se  Se44  1  0.17594400  0.42791000  0.31639300  1
  Se  Se45  1  0.57239850  0.18074950  0.35321250  1
  Se  Se46  1  0.42760150  0.81925050  0.35321250  1
  Se  Se47  1  0.57749200  0.32519400  0.23344400  1
  Se  Se48  1  0.42250800  0.67480600  0.23344400  1
  Se  Se49  1  0.17480600  0.07749200  0.26655600  1
  Se  Se50  1  0.82405600  0.57209000  0.31639300  1
  Se  Se51  1  0.82519400  0.92250800  0.26655600  1
  Se  Se52  1  0.68074950  0.92760150  0.14678750  1
  Se  Se53  1  0.07209000  0.67594400  0.18360700  1
  Se  Se54  1  0.92791000  0.32405600  0.18360700  1
  Se  Se55  1  0.07209000  0.82405600  0.06639300  1
  Se  Se56  1  0.92791000  0.17594400  0.06639300  1
  Se  Se57  1  0.68074950  0.57239850  0.10321250  1
  Se  Se58  1  0.31925050  0.07239850  0.14678750  1
  Se  Se59  1  0.31925050  0.42760150  0.10321250  1
  Se  Se60  1  0.17480600  0.42250800  0.98344400  1
  Se  Se61  1  0.07749200  0.67480600  0.51655600  1
  Se  Se62  1  0.92250800  0.32519400  0.51655600  1
  Se  Se63  1  0.57239850  0.31925050  0.89678750  1
  Se  Se64  1  0.42760150  0.68074950  0.89678750  1
  Se  Se65  1  0.17594400  0.07209000  0.93360700  1
  Se  Se66  1  0.82519400  0.57749200  0.98344400  1
  Se  Se67  1  0.82405600  0.92791000  0.93360700  1
  Se  Se68  1  0.67594400  0.92791000  0.81639300  1
  Se  Se69  1  0.07239850  0.68074950  0.85321250  1
  Se  Se70  1  0.92760150  0.31925050  0.85321250  1
  Se  Se71  1  0.07749200  0.82519400  0.73344400  1
  Se  Se72  1  0.92250800  0.17480600  0.73344400  1
  Se  Se73  1  0.67480600  0.57749200  0.76655600  1
  Se  Se74  1  0.32405600  0.07209000  0.81639300  1
  Se  Se75  1  0.32519400  0.42250800  0.76655600  1
  Se  Se76  1  0.18074950  0.42760150  0.64678750  1
  Se  Se77  1  0.57209000  0.17594400  0.68360700  1
  Se  Se78  1  0.42791000  0.82405600  0.68360700  1
  Se  Se79  1  0.57209000  0.32405600  0.56639300  1
  Se  Se80  1  0.42791000  0.67594400  0.56639300  1
  Se  Se81  1  0.18074950  0.07239850  0.60321250  1
  Se  Se82  1  0.81925050  0.57239850  0.64678750  1
  Se  Se83  1  0.81925050  0.92760150  0.60321250  1
