# generated using pymatgen
data_Ca5Au3
_symmetry_space_group_name_H-M   'P 1'
_cell_length_a   7.88269200
_cell_length_b   7.88269200
_cell_length_c   14.64067600
_cell_angle_alpha   90.00000000
_cell_angle_beta   90.00000000
_cell_angle_gamma   90.00000000
_symmetry_Int_Tables_number   1
_chemical_formula_structural   Ca5Au3
_chemical_formula_sum   'Ca20 Au12'
_cell_volume   909.72524206
_cell_formula_units_Z   4
loop_
 _symmetry_equiv_pos_site_id
 _symmetry_equiv_pos_as_xyz
  1  'x, y, z'
loop_
 _atom_site_type_symbol
 _atom_site_label
 _atom_site_symmetry_multiplicity
 _atom_site_fract_x
 _atom_site_fract_y
 _atom_site_fract_z
 _atom_site_occupancy
  Ca  Ca0  1  0.83073400  0.33073400  0.14404050  1
  Ca  Ca1  1  0.33073400  0.83073400  0.35595950  1
  Ca  Ca2  1  0.66926600  0.16926600  0.35595950  1
  Ca  Ca3  1  0.83073400  0.66926600  0.35595950  1
  Ca  Ca4  1  0.16926600  0.33073400  0.35595950  1
  Ca  Ca5  1  0.66926600  0.83073400  0.14404050  1
  Ca  Ca6  1  0.00000000  0.00000000  0.00000000  1
  Ca  Ca7  1  0.50000000  0.50000000  0.00000000  1
  Ca  Ca8  1  0.16926600  0.66926600  0.14404050  1
  Ca  Ca9  1  0.33073400  0.16926600  0.14404050  1
  Ca  Ca10  1  0.33073400  0.83073400  0.64404050  1
  Ca  Ca11  1  0.83073400  0.33073400  0.85595950  1
  Ca  Ca12  1  0.16926600  0.66926600  0.85595950  1
  Ca  Ca13  1  0.33073400  0.16926600  0.85595950  1
  Ca  Ca14  1  0.66926600  0.83073400  0.85595950  1
  Ca  Ca15  1  0.16926600  0.33073400  0.64404050  1
  Ca  Ca16  1  0.50000000  0.50000000  0.50000000  1
  Ca  Ca17  1  0.00000000  0.00000000  0.50000000  1
  Ca  Ca18  1  0.66926600  0.16926600  0.64404050  1
  Ca  Ca19  1  0.83073400  0.66926600  0.64404050  1
  Au  Au20  1  0.63017600  0.13017600  0.00000000  1
  Au  Au21  1  0.86982400  0.63017600  0.00000000  1
  Au  Au22  1  0.13017600  0.36982400  0.00000000  1
  Au  Au23  1  0.86982400  0.36982400  0.50000000  1
  Au  Au24  1  0.50000000  0.50000000  0.25000000  1
  Au  Au25  1  0.00000000  0.00000000  0.25000000  1
  Au  Au26  1  0.13017600  0.63017600  0.50000000  1
  Au  Au27  1  0.36982400  0.13017600  0.50000000  1
  Au  Au28  1  0.63017600  0.86982400  0.50000000  1
  Au  Au29  1  0.36982400  0.86982400  0.00000000  1
  Au  Au30  1  0.00000000  0.00000000  0.75000000  1
  Au  Au31  1  0.50000000  0.50000000  0.75000000  1
