# generated using pymatgen
data_Na2Tl
_symmetry_space_group_name_H-M   'P 1'
_cell_length_a   9.00600400
_cell_length_b   14.13256400
_cell_length_c   11.80683300
_cell_angle_alpha   90.00000000
_cell_angle_beta   90.00000000
_cell_angle_gamma   90.00000000
_symmetry_Int_Tables_number   1
_chemical_formula_structural   Na2Tl
_chemical_formula_sum   'Na32 Tl16'
_cell_volume   1502.74923947
_cell_formula_units_Z   16
loop_
 _symmetry_equiv_pos_site_id
 _symmetry_equiv_pos_as_xyz
  1  'x, y, z'
loop_
 _atom_site_type_symbol
 _atom_site_label
 _atom_site_symmetry_multiplicity
 _atom_site_fract_x
 _atom_site_fract_y
 _atom_site_fract_z
 _atom_site_occupancy
  Na  Na0  1  0.50000000  0.42935700  0.25000000  1
  Na  Na1  1  0.50000000  0.57064300  0.75000000  1
  Na  Na2  1  0.59325000  0.00000000  0.50000000  1
  Na  Na3  1  0.40675000  0.00000000  0.00000000  1
  Na  Na4  1  0.69424500  0.20421200  0.67231700  1
  Na  Na5  1  0.30575500  0.79578800  0.17231700  1
  Na  Na6  1  0.69424500  0.79578800  0.32768300  1
  Na  Na7  1  0.30575500  0.20421200  0.82768300  1
  Na  Na8  1  0.27965100  0.87682400  0.45963400  1
  Na  Na9  1  0.72034900  0.12317600  0.95963400  1
  Na  Na10  1  0.27965100  0.12317600  0.54036600  1
  Na  Na11  1  0.72034900  0.87682400  0.04036600  1
  Na  Na12  1  0.41122800  0.63252600  0.41784600  1
  Na  Na13  1  0.58877200  0.36747400  0.91784600  1
  Na  Na14  1  0.41122800  0.36747400  0.58215400  1
  Na  Na15  1  0.58877200  0.63252600  0.08215400  1
  Na  Na16  1  0.00000000  0.92935700  0.25000000  1
  Na  Na17  1  0.00000000  0.07064300  0.75000000  1
  Na  Na18  1  0.09325000  0.50000000  0.50000000  1
  Na  Na19  1  0.90675000  0.50000000  0.00000000  1
  Na  Na20  1  0.19424500  0.70421200  0.67231700  1
  Na  Na21  1  0.80575500  0.29578800  0.17231700  1
  Na  Na22  1  0.19424500  0.29578800  0.32768300  1
  Na  Na23  1  0.80575500  0.70421200  0.82768300  1
  Na  Na24  1  0.77965100  0.37682400  0.45963400  1
  Na  Na25  1  0.22034900  0.62317600  0.95963400  1
  Na  Na26  1  0.77965100  0.62317600  0.54036600  1
  Na  Na27  1  0.22034900  0.37682400  0.04036600  1
  Na  Na28  1  0.91122800  0.13252600  0.41784600  1
  Na  Na29  1  0.08877200  0.86747400  0.91784600  1
  Na  Na30  1  0.91122800  0.86747400  0.58215400  1
  Na  Na31  1  0.08877200  0.13252600  0.08215400  1
  Tl  Tl32  1  0.54834100  0.21698400  0.38446900  1
  Tl  Tl33  1  0.45165900  0.78301600  0.88446900  1
  Tl  Tl34  1  0.54834100  0.78301600  0.61553100  1
  Tl  Tl35  1  0.45165900  0.21698400  0.11553100  1
  Tl  Tl36  1  0.67853700  0.95303500  0.77720900  1
  Tl  Tl37  1  0.32146300  0.04696500  0.27720900  1
  Tl  Tl38  1  0.67853700  0.04696500  0.22279100  1
  Tl  Tl39  1  0.32146300  0.95303500  0.72279100  1
  Tl  Tl40  1  0.04834100  0.71698400  0.38446900  1
  Tl  Tl41  1  0.95165900  0.28301600  0.88446900  1
  Tl  Tl42  1  0.04834100  0.28301600  0.61553100  1
  Tl  Tl43  1  0.95165900  0.71698400  0.11553100  1
  Tl  Tl44  1  0.17853700  0.45303500  0.77720900  1
  Tl  Tl45  1  0.82146300  0.54696500  0.27720900  1
  Tl  Tl46  1  0.17853700  0.54696500  0.22279100  1
  Tl  Tl47  1  0.82146300  0.45303500  0.72279100  1
