# generated using pymatgen
data_Tb3SiBr3
_symmetry_space_group_name_H-M   'P 1'
_cell_length_a   11.66594600
_cell_length_b   11.66594600
_cell_length_c   11.66594600
_cell_angle_alpha   90.00000000
_cell_angle_beta   90.00000000
_cell_angle_gamma   90.00000000
_symmetry_Int_Tables_number   1
_chemical_formula_structural   Tb3SiBr3
_chemical_formula_sum   'Tb24 Si8 Br24'
_cell_volume   1587.66870892
_cell_formula_units_Z   8
loop_
 _symmetry_equiv_pos_site_id
 _symmetry_equiv_pos_as_xyz
  1  'x, y, z'
loop_
 _atom_site_type_symbol
 _atom_site_label
 _atom_site_symmetry_multiplicity
 _atom_site_fract_x
 _atom_site_fract_y
 _atom_site_fract_z
 _atom_site_occupancy
  Tb  Tb0  1  0.88758150  0.13758150  0.12500000  1
  Tb  Tb1  1  0.12500000  0.88758150  0.13758150  1
  Tb  Tb2  1  0.13758150  0.87500000  0.61241850  1
  Tb  Tb3  1  0.87500000  0.38758150  0.36241850  1
  Tb  Tb4  1  0.13758150  0.12500000  0.88758150  1
  Tb  Tb5  1  0.61241850  0.13758150  0.87500000  1
  Tb  Tb6  1  0.38758150  0.36241850  0.87500000  1
  Tb  Tb7  1  0.36241850  0.87500000  0.38758150  1
  Tb  Tb8  1  0.36241850  0.12500000  0.11241850  1
  Tb  Tb9  1  0.12500000  0.11241850  0.36241850  1
  Tb  Tb10  1  0.87500000  0.61241850  0.13758150  1
  Tb  Tb11  1  0.11241850  0.36241850  0.12500000  1
  Tb  Tb12  1  0.38758150  0.63758150  0.62500000  1
  Tb  Tb13  1  0.62500000  0.38758150  0.63758150  1
  Tb  Tb14  1  0.63758150  0.37500000  0.11241850  1
  Tb  Tb15  1  0.37500000  0.88758150  0.86241850  1
  Tb  Tb16  1  0.63758150  0.62500000  0.38758150  1
  Tb  Tb17  1  0.11241850  0.63758150  0.37500000  1
  Tb  Tb18  1  0.88758150  0.86241850  0.37500000  1
  Tb  Tb19  1  0.86241850  0.37500000  0.88758150  1
  Tb  Tb20  1  0.86241850  0.62500000  0.61241850  1
  Tb  Tb21  1  0.62500000  0.61241850  0.86241850  1
  Tb  Tb22  1  0.37500000  0.11241850  0.63758150  1
  Tb  Tb23  1  0.61241850  0.86241850  0.62500000  1
  Si  Si24  1  0.37500000  0.12500000  0.87500000  1
  Si  Si25  1  0.12500000  0.87500000  0.37500000  1
  Si  Si26  1  0.87500000  0.37500000  0.12500000  1
  Si  Si27  1  0.12500000  0.12500000  0.12500000  1
  Si  Si28  1  0.87500000  0.62500000  0.37500000  1
  Si  Si29  1  0.62500000  0.37500000  0.87500000  1
  Si  Si30  1  0.37500000  0.87500000  0.62500000  1
  Si  Si31  1  0.62500000  0.62500000  0.62500000  1
  Br  Br32  1  0.12037400  0.12962600  0.62500000  1
  Br  Br33  1  0.37037400  0.62500000  0.87962600  1
  Br  Br34  1  0.62500000  0.87962600  0.37037400  1
  Br  Br35  1  0.37500000  0.37962600  0.12962600  1
  Br  Br36  1  0.37037400  0.37500000  0.62037400  1
  Br  Br37  1  0.62037400  0.37037400  0.37500000  1
  Br  Br38  1  0.37962600  0.12962600  0.37500000  1
  Br  Br39  1  0.12962600  0.37500000  0.37962600  1
  Br  Br40  1  0.87962600  0.37037400  0.62500000  1
  Br  Br41  1  0.37500000  0.62037400  0.37037400  1
  Br  Br42  1  0.62500000  0.12037400  0.12962600  1
  Br  Br43  1  0.12962600  0.62500000  0.12037400  1
  Br  Br44  1  0.62037400  0.62962600  0.12500000  1
  Br  Br45  1  0.87037400  0.12500000  0.37962600  1
  Br  Br46  1  0.12500000  0.37962600  0.87037400  1
  Br  Br47  1  0.87500000  0.87962600  0.62962600  1
  Br  Br48  1  0.87037400  0.87500000  0.12037400  1
  Br  Br49  1  0.12037400  0.87037400  0.87500000  1
  Br  Br50  1  0.87962600  0.62962600  0.87500000  1
  Br  Br51  1  0.62962600  0.87500000  0.87962600  1
  Br  Br52  1  0.37962600  0.87037400  0.12500000  1
  Br  Br53  1  0.87500000  0.12037400  0.87037400  1
  Br  Br54  1  0.12500000  0.62037400  0.62962600  1
  Br  Br55  1  0.62962600  0.12500000  0.62037400  1
