# generated using pymatgen
data_Ag3(PO4)2
_symmetry_space_group_name_H-M   'P 1'
_cell_length_a   8.05645061
_cell_length_b   8.05645061
_cell_length_c   10.78047818
_cell_angle_alpha   90.00000000
_cell_angle_beta   90.00000000
_cell_angle_gamma   120.00000000
_symmetry_Int_Tables_number   1
_chemical_formula_structural   Ag3(PO4)2
_chemical_formula_sum   'Ag9 P6 O24'
_cell_volume   605.97701985
_cell_formula_units_Z   3
loop_
 _symmetry_equiv_pos_site_id
 _symmetry_equiv_pos_as_xyz
  1  'x, y, z'
loop_
 _atom_site_type_symbol
 _atom_site_label
 _atom_site_symmetry_multiplicity
 _atom_site_fract_x
 _atom_site_fract_y
 _atom_site_fract_z
 _atom_site_occupancy
  Ag  Ag0  1  0.26132167  0.26439233  0.25500433  1
  Ag  Ag1  1  0.00307067  0.73867833  0.25500433  1
  Ag  Ag2  1  0.73560767  0.99692933  0.25500433  1
  Ag  Ag3  1  0.92798833  0.59772567  0.58833767  1
  Ag  Ag4  1  0.66973733  0.07201167  0.58833767  1
  Ag  Ag5  1  0.40227433  0.33026267  0.58833767  1
  Ag  Ag6  1  0.59465500  0.93105900  0.92167100  1
  Ag  Ag7  1  0.33640400  0.40534500  0.92167100  1
  Ag  Ag8  1  0.06894100  0.66359600  0.92167100  1
  P  P9  1  0.33333333  0.66666667  0.68045567  1
  P  P10  1  0.33333333  0.66666667  0.15287167  1
  P  P11  1  0.00000000  0.00000000  0.01378900  1
  P  P12  1  0.00000000  0.00000000  0.48620500  1
  P  P13  1  0.66666667  0.33333333  0.34712233  1
  P  P14  1  0.66666667  0.33333333  0.81953833  1
  O  O15  1  0.33333333  0.66666667  0.54106067  1
  O  O16  1  0.14449167  0.20549533  0.06661333  1
  O  O17  1  0.43890867  0.56039433  0.19256233  1
  O  O18  1  0.12148567  0.56109133  0.19256233  1
  O  O19  1  0.43960567  0.87851433  0.19256233  1
  O  O20  1  0.33333333  0.66666667  0.99973867  1
  O  O21  1  0.79450467  0.93899633  0.06661333  1
  O  O22  1  0.06100367  0.85550833  0.06661333  1
  O  O23  1  0.00000000  0.00000000  0.87439400  1
  O  O24  1  0.81115833  0.53882867  0.39994667  1
  O  O25  1  0.10557533  0.89372767  0.52589567  1
  O  O26  1  0.78815233  0.89442467  0.52589567  1
  O  O27  1  0.10627233  0.21184767  0.52589567  1
  O  O28  1  0.00000000  0.00000000  0.33307200  1
  O  O29  1  0.46117133  0.27232967  0.39994667  1
  O  O30  1  0.72767033  0.18884167  0.39994667  1
  O  O31  1  0.66666667  0.33333333  0.20772733  1
  O  O32  1  0.47782500  0.87216200  0.73328000  1
  O  O33  1  0.77224200  0.22706100  0.85922900  1
  O  O34  1  0.45481900  0.22775800  0.85922900  1
  O  O35  1  0.77293900  0.54518100  0.85922900  1
  O  O36  1  0.66666667  0.33333333  0.66640533  1
  O  O37  1  0.12783800  0.60566300  0.73328000  1
  O  O38  1  0.39433700  0.52217500  0.73328000  1
