# generated using pymatgen
data_Mn2NiO4
_symmetry_space_group_name_H-M   'P 1'
_cell_length_a   5.99010334
_cell_length_b   6.01754143
_cell_length_c   8.56286512
_cell_angle_alpha   90.00000000
_cell_angle_beta   90.00000000
_cell_angle_gamma   90.00000000
_symmetry_Int_Tables_number   1
_chemical_formula_structural   Mn2NiO4
_chemical_formula_sum   'Mn8 Ni4 O16'
_cell_volume   308.65442411
_cell_formula_units_Z   4
loop_
 _symmetry_equiv_pos_site_id
 _symmetry_equiv_pos_as_xyz
  1  'x, y, z'
loop_
 _atom_site_type_symbol
 _atom_site_label
 _atom_site_symmetry_multiplicity
 _atom_site_fract_x
 _atom_site_fract_y
 _atom_site_fract_z
 _atom_site_occupancy
  Mn  Mn0  1  0.00000000  0.75000000  0.88496300  1
  Mn  Mn1  1  0.00000000  0.25000000  0.11503700  1
  Mn  Mn2  1  0.75000000  0.75000000  0.25000000  1
  Mn  Mn3  1  0.25000000  0.75000000  0.25000000  1
  Mn  Mn4  1  0.50000000  0.25000000  0.38496300  1
  Mn  Mn5  1  0.50000000  0.75000000  0.61503700  1
  Mn  Mn6  1  0.25000000  0.25000000  0.75000000  1
  Mn  Mn7  1  0.75000000  0.25000000  0.75000000  1
  Ni  Ni8  1  0.50000000  0.50000000  0.00000000  1
  Ni  Ni9  1  0.50000000  0.00000000  0.00000000  1
  Ni  Ni10  1  0.00000000  0.00000000  0.50000000  1
  Ni  Ni11  1  0.00000000  0.50000000  0.50000000  1
  O  O12  1  0.26903450  0.25000000  0.97556050  1
  O  O13  1  0.73096550  0.25000000  0.97556050  1
  O  O14  1  0.26903450  0.75000000  0.02443950  1
  O  O15  1  0.73096550  0.75000000  0.02443950  1
  O  O16  1  0.00000000  0.96731950  0.25253550  1
  O  O17  1  0.00000000  0.53268050  0.25253550  1
  O  O18  1  0.50000000  0.96731950  0.24746450  1
  O  O19  1  0.50000000  0.53268050  0.24746450  1
  O  O20  1  0.76903450  0.75000000  0.47556050  1
  O  O21  1  0.23096550  0.75000000  0.47556050  1
  O  O22  1  0.76903450  0.25000000  0.52443950  1
  O  O23  1  0.23096550  0.25000000  0.52443950  1
  O  O24  1  0.50000000  0.46731950  0.75253550  1
  O  O25  1  0.50000000  0.03268050  0.75253550  1
  O  O26  1  0.00000000  0.46731950  0.74746450  1
  O  O27  1  0.00000000  0.03268050  0.74746450  1
