# generated using pymatgen
data_Ga3Pt5
_symmetry_space_group_name_H-M   'P 1'
_cell_length_a   7.54323200
_cell_length_b   8.14469000
_cell_length_c   3.99486000
_cell_angle_alpha   90.00000000
_cell_angle_beta   90.00000000
_cell_angle_gamma   90.00000000
_symmetry_Int_Tables_number   1
_chemical_formula_structural   Ga3Pt5
_chemical_formula_sum   'Ga6 Pt10'
_cell_volume   245.43335730
_cell_formula_units_Z   2
loop_
 _symmetry_equiv_pos_site_id
 _symmetry_equiv_pos_as_xyz
  1  'x, y, z'
loop_
 _atom_site_type_symbol
 _atom_site_label
 _atom_site_symmetry_multiplicity
 _atom_site_fract_x
 _atom_site_fract_y
 _atom_site_fract_z
 _atom_site_occupancy
  Ga  Ga0  1  0.00000000  0.00000000  0.00000000  1
  Ga  Ga1  1  0.50000000  0.78545100  0.50000000  1
  Ga  Ga2  1  0.50000000  0.21454900  0.50000000  1
  Ga  Ga3  1  0.50000000  0.50000000  0.00000000  1
  Ga  Ga4  1  0.00000000  0.28545100  0.50000000  1
  Ga  Ga5  1  0.00000000  0.71454900  0.50000000  1
  Pt  Pt6  1  0.50000000  0.00000000  0.00000000  1
  Pt  Pt7  1  0.25000000  0.25000000  0.00000000  1
  Pt  Pt8  1  0.25000000  0.75000000  0.00000000  1
  Pt  Pt9  1  0.20870000  0.00000000  0.50000000  1
  Pt  Pt10  1  0.79130000  0.00000000  0.50000000  1
  Pt  Pt11  1  0.00000000  0.50000000  0.00000000  1
  Pt  Pt12  1  0.75000000  0.75000000  0.00000000  1
  Pt  Pt13  1  0.75000000  0.25000000  0.00000000  1
  Pt  Pt14  1  0.70870000  0.50000000  0.50000000  1
  Pt  Pt15  1  0.29130000  0.50000000  0.50000000  1
