# generated using pymatgen
data_Li7Ti7O16
_symmetry_space_group_name_H-M   'P 1'
_cell_length_a   5.93556446
_cell_length_b   5.93556446
_cell_length_c   29.38091453
_cell_angle_alpha   90.00000000
_cell_angle_beta   90.00000000
_cell_angle_gamma   120.00000000
_symmetry_Int_Tables_number   1
_chemical_formula_structural   Li7Ti7O16
_chemical_formula_sum   'Li21 Ti21 O48'
_cell_volume   896.43745308
_cell_formula_units_Z   3
loop_
 _symmetry_equiv_pos_site_id
 _symmetry_equiv_pos_as_xyz
  1  'x, y, z'
loop_
 _atom_site_type_symbol
 _atom_site_label
 _atom_site_symmetry_multiplicity
 _atom_site_fract_x
 _atom_site_fract_y
 _atom_site_fract_z
 _atom_site_occupancy
  Li  Li0  1  0.82258233  0.64516467  0.16101267  1
  Li  Li1  1  0.35483533  0.17741767  0.16101267  1
  Li  Li2  1  0.33333333  0.66666667  0.16506367  1
  Li  Li3  1  0.00000000  0.00000000  0.31604100  1
  Li  Li4  1  0.82258233  0.17741767  0.16101267  1
  Li  Li5  1  0.66666667  0.33333333  0.02220533  1
  Li  Li6  1  0.00000000  0.00000000  0.23330900  1
  Li  Li7  1  0.48924900  0.97849800  0.49434600  1
  Li  Li8  1  0.02150200  0.51075100  0.49434600  1
  Li  Li9  1  0.00000000  0.00000000  0.49839700  1
  Li  Li10  1  0.66666667  0.33333333  0.64937433  1
  Li  Li11  1  0.48924900  0.51075100  0.49434600  1
  Li  Li12  1  0.33333333  0.66666667  0.35553867  1
  Li  Li13  1  0.66666667  0.33333333  0.56664233  1
  Li  Li14  1  0.15591567  0.31183133  0.82767933  1
  Li  Li15  1  0.68816867  0.84408433  0.82767933  1
  Li  Li16  1  0.66666667  0.33333333  0.83173033  1
  Li  Li17  1  0.33333333  0.66666667  0.98270767  1
  Li  Li18  1  0.15591567  0.84408433  0.82767933  1
  Li  Li19  1  0.00000000  0.00000000  0.68887200  1
  Li  Li20  1  0.33333333  0.66666667  0.89997567  1
  Ti  Ti21  1  0.17068767  0.82931233  0.08335433  1
  Ti  Ti22  1  0.17068767  0.34137533  0.08335433  1
  Ti  Ti23  1  0.49646000  0.50354000  0.24779200  1
  Ti  Ti24  1  0.66666667  0.33333333  0.33280633  1
  Ti  Ti25  1  0.65862467  0.82931233  0.08335433  1
  Ti  Ti26  1  0.49646000  0.99292000  0.24779200  1
  Ti  Ti27  1  0.00708000  0.50354000  0.24779200  1
  Ti  Ti28  1  0.83735433  0.16264567  0.41668767  1
  Ti  Ti29  1  0.83735433  0.67470867  0.41668767  1
  Ti  Ti30  1  0.16312667  0.83687333  0.58112533  1
  Ti  Ti31  1  0.33333333  0.66666667  0.66613967  1
  Ti  Ti32  1  0.32529133  0.16264567  0.41668767  1
  Ti  Ti33  1  0.16312667  0.32625333  0.58112533  1
  Ti  Ti34  1  0.67374667  0.83687333  0.58112533  1
  Ti  Ti35  1  0.50402100  0.49597900  0.75002100  1
  Ti  Ti36  1  0.50402100  0.00804200  0.75002100  1
  Ti  Ti37  1  0.82979333  0.17020667  0.91445867  1
  Ti  Ti38  1  0.00000000  0.00000000  0.99947300  1
  Ti  Ti39  1  0.99195800  0.49597900  0.75002100  1
  Ti  Ti40  1  0.82979333  0.65958667  0.91445867  1
  Ti  Ti41  1  0.34041333  0.17020667  0.91445867  1
  O  O42  1  0.48937500  0.97875000  0.12022000  1
  O  O43  1  0.33333333  0.66666667  0.04690667  1
  O  O44  1  0.48937500  0.51062500  0.12022000  1
  O  O45  1  0.02125000  0.51062500  0.12022000  1
  O  O46  1  0.29649400  0.14824700  0.04204300  1
  O  O47  1  0.81902933  0.63805867  0.28749267  1
  O  O48  1  0.00000000  0.00000000  0.12063100  1
  O  O49  1  0.85175300  0.14824700  0.04204300  1
  O  O50  1  0.66666667  0.33333333  0.20949533  1
  O  O51  1  0.81902933  0.18097067  0.28749267  1
  O  O52  1  0.36194133  0.18097067  0.28749267  1
  O  O53  1  0.85175300  0.70350600  0.04204300  1
  O  O54  1  0.64976267  0.82488133  0.21032233  1
  O  O55  1  0.33333333  0.66666667  0.28432967  1
  O  O56  1  0.17511867  0.82488133  0.21032233  1
  O  O57  1  0.17511867  0.35023733  0.21032233  1
  O  O58  1  0.15604167  0.31208333  0.45355333  1
  O  O59  1  0.00000000  0.00000000  0.38024000  1
  O  O60  1  0.15604167  0.84395833  0.45355333  1
  O  O61  1  0.68791667  0.84395833  0.45355333  1
  O  O62  1  0.96316067  0.48158033  0.37537633  1
  O  O63  1  0.48569600  0.97139200  0.62082600  1
  O  O64  1  0.66666667  0.33333333  0.45396433  1
  O  O65  1  0.51841967  0.48158033  0.37537633  1
  O  O66  1  0.33333333  0.66666667  0.54282867  1
  O  O67  1  0.48569600  0.51430400  0.62082600  1
  O  O68  1  0.02860800  0.51430400  0.62082600  1
  O  O69  1  0.51841967  0.03683933  0.37537633  1
  O  O70  1  0.31642933  0.15821467  0.54365567  1
  O  O71  1  0.00000000  0.00000000  0.61766300  1
  O  O72  1  0.84178533  0.15821467  0.54365567  1
  O  O73  1  0.84178533  0.68357067  0.54365567  1
  O  O74  1  0.82270833  0.64541667  0.78688667  1
  O  O75  1  0.66666667  0.33333333  0.71357333  1
  O  O76  1  0.82270833  0.17729167  0.78688667  1
  O  O77  1  0.35458333  0.17729167  0.78688667  1
  O  O78  1  0.62982733  0.81491367  0.70870967  1
  O  O79  1  0.15236267  0.30472533  0.95415933  1
  O  O80  1  0.33333333  0.66666667  0.78729767  1
  O  O81  1  0.18508633  0.81491367  0.70870967  1
  O  O82  1  0.00000000  0.00000000  0.87616200  1
  O  O83  1  0.15236267  0.84763733  0.95415933  1
  O  O84  1  0.69527467  0.84763733  0.95415933  1
  O  O85  1  0.18508633  0.37017267  0.70870967  1
  O  O86  1  0.98309600  0.49154800  0.87698900  1
  O  O87  1  0.66666667  0.33333333  0.95099633  1
  O  O88  1  0.50845200  0.49154800  0.87698900  1
  O  O89  1  0.50845200  0.01690400  0.87698900  1
