# generated using pymatgen
data_MnPO4
_symmetry_space_group_name_H-M   'P 1'
_cell_length_a   7.52441049
_cell_length_b   7.52441049
_cell_length_c   9.32910202
_cell_angle_alpha   90.00000000
_cell_angle_beta   90.00000000
_cell_angle_gamma   120.00000000
_symmetry_Int_Tables_number   1
_chemical_formula_structural   MnPO4
_chemical_formula_sum   'Mn6 P6 O24'
_cell_volume   457.42029997
_cell_formula_units_Z   6
loop_
 _symmetry_equiv_pos_site_id
 _symmetry_equiv_pos_as_xyz
  1  'x, y, z'
loop_
 _atom_site_type_symbol
 _atom_site_label
 _atom_site_symmetry_multiplicity
 _atom_site_fract_x
 _atom_site_fract_y
 _atom_site_fract_z
 _atom_site_occupancy
  Mn  Mn0  1  0.39444900  0.94796900  0.53131600  1
  Mn  Mn1  1  0.55352000  0.60555100  0.53131600  1
  Mn  Mn2  1  0.60555100  0.55352000  0.03131600  1
  Mn  Mn3  1  0.44648000  0.05203100  0.03131600  1
  Mn  Mn4  1  0.94796900  0.39444900  0.03131600  1
  Mn  Mn5  1  0.05203100  0.44648000  0.53131600  1
  P  P6  1  0.33333333  0.66666667  0.82940400  1
  P  P7  1  0.00000000  0.00000000  0.97668800  1
  P  P8  1  0.33333333  0.66666667  0.22061100  1
  P  P9  1  0.00000000  0.00000000  0.47668800  1
  P  P10  1  0.66666667  0.33333333  0.72061100  1
  P  P11  1  0.66666667  0.33333333  0.32940400  1
  O  O12  1  0.33333333  0.66666667  0.39067600  1
  O  O13  1  0.77544600  0.89175500  0.53496800  1
  O  O14  1  0.67807800  0.53469300  0.37697300  1
  O  O15  1  0.50761800  0.39170800  0.66840600  1
  O  O16  1  0.53469300  0.67807800  0.87697300  1
  O  O17  1  0.22455400  0.11630900  0.03496800  1
  O  O18  1  0.11591000  0.60829200  0.16840600  1
  O  O19  1  0.66666667  0.33333333  0.15657500  1
  O  O20  1  0.00000000  0.00000000  0.31421500  1
  O  O21  1  0.39170800  0.50761800  0.16840600  1
  O  O22  1  0.11630900  0.22455400  0.53496800  1
  O  O23  1  0.66666667  0.33333333  0.89067600  1
  O  O24  1  0.89175500  0.77544600  0.03496800  1
  O  O25  1  0.14338500  0.46530700  0.87697300  1
  O  O26  1  0.00000000  0.00000000  0.81421500  1
  O  O27  1  0.49238200  0.88409000  0.16840600  1
  O  O28  1  0.46530700  0.14338500  0.37697300  1
  O  O29  1  0.88369100  0.10824500  0.03496800  1
  O  O30  1  0.10824500  0.88369100  0.53496800  1
  O  O31  1  0.60829200  0.11591000  0.66840600  1
  O  O32  1  0.33333333  0.66666667  0.65657500  1
  O  O33  1  0.88409000  0.49238200  0.66840600  1
  O  O34  1  0.32192200  0.85661500  0.87697300  1
  O  O35  1  0.85661500  0.32192200  0.37697300  1
