# generated using pymatgen
data_LiMo2P3O11
_symmetry_space_group_name_H-M   'P 1'
_cell_length_a   11.87139200
_cell_length_b   8.96282000
_cell_length_c   8.98573607
_cell_angle_alpha   90.00000000
_cell_angle_beta   116.16421703
_cell_angle_gamma   90.00000000
_symmetry_Int_Tables_number   1
_chemical_formula_structural   LiMo2P3O11
_chemical_formula_sum   'Li4 Mo8 P12 O44'
_cell_volume   858.12559109
_cell_formula_units_Z   4
loop_
 _symmetry_equiv_pos_site_id
 _symmetry_equiv_pos_as_xyz
  1  'x, y, z'
loop_
 _atom_site_type_symbol
 _atom_site_label
 _atom_site_symmetry_multiplicity
 _atom_site_fract_x
 _atom_site_fract_y
 _atom_site_fract_z
 _atom_site_occupancy
  Li  Li0  1  0.25224000  0.26125600  0.73639600  1
  Li  Li1  1  0.74776000  0.26125600  0.26360400  1
  Li  Li2  1  0.75224000  0.76125600  0.73639600  1
  Li  Li3  1  0.24776000  0.76125600  0.26360400  1
  Mo  Mo4  1  0.12161400  0.76030300  0.79772500  1
  Mo  Mo5  1  0.12191650  0.24065550  0.29703900  1
  Mo  Mo6  1  0.87838600  0.76030300  0.20227500  1
  Mo  Mo7  1  0.87808350  0.24065550  0.70296100  1
  Mo  Mo8  1  0.62161400  0.26030300  0.79772500  1
  Mo  Mo9  1  0.62191650  0.74065550  0.29703900  1
  Mo  Mo10  1  0.37838600  0.26030300  0.20227500  1
  Mo  Mo11  1  0.37808350  0.74065550  0.70296100  1
  P  P12  1  0.88609550  0.56495050  0.53219700  1
  P  P13  1  0.00000000  0.04457600  0.50000000  1
  P  P14  1  0.88688150  0.43580350  0.03368500  1
  P  P15  1  0.11390450  0.56495050  0.46780300  1
  P  P16  1  0.11311850  0.43580350  0.96631500  1
  P  P17  1  0.00000000  0.95641000  0.00000000  1
  P  P18  1  0.38609550  0.06495050  0.53219700  1
  P  P19  1  0.50000000  0.54457600  0.50000000  1
  P  P20  1  0.38688150  0.93580350  0.03368500  1
  P  P21  1  0.61390450  0.06495050  0.46780300  1
  P  P22  1  0.61311850  0.93580350  0.96631500  1
  P  P23  1  0.50000000  0.45641000  0.00000000  1
  O  O24  1  0.56168350  0.45185250  0.65793700  1
  O  O25  1  0.56281200  0.54877100  0.15823600  1
  O  O26  1  0.81164500  0.42917100  0.53734000  1
  O  O27  1  0.81104150  0.66142450  0.37540500  1
  O  O28  1  0.43718800  0.54877100  0.84176400  1
  O  O29  1  0.43831650  0.45185250  0.34206300  1
  O  O30  1  0.18727600  0.56972600  0.95689100  1
  O  O31  1  0.18913500  0.33966800  0.12349000  1
  O  O32  1  0.06092700  0.33843400  0.80993400  1
  O  O33  1  0.10589800  0.85035300  0.00005100  1
  O  O34  1  0.18835500  0.42917100  0.46266000  1
  O  O35  1  0.00000000  0.50022900  0.00000000  1
  O  O36  1  0.18895850  0.66142450  0.62459500  1
  O  O37  1  0.06374200  0.66205100  0.31116000  1
  O  O38  1  0.10599650  0.15073950  0.49969700  1
  O  O39  1  0.89410200  0.85035300  0.99994900  1
  O  O40  1  0.93907300  0.33843400  0.19006600  1
  O  O41  1  0.81086500  0.33966800  0.87651000  1
  O  O42  1  0.00000000  0.50143500  0.50000000  1
  O  O43  1  0.81272400  0.56972600  0.04310900  1
  O  O44  1  0.89400350  0.15073950  0.50030300  1
  O  O45  1  0.93625800  0.66205100  0.68884000  1
  O  O46  1  0.06168350  0.95185250  0.65793700  1
  O  O47  1  0.06281200  0.04877100  0.15823600  1
  O  O48  1  0.31164500  0.92917100  0.53734000  1
  O  O49  1  0.31104150  0.16142450  0.37540500  1
  O  O50  1  0.93718800  0.04877100  0.84176400  1
  O  O51  1  0.93831650  0.95185250  0.34206300  1
  O  O52  1  0.68727600  0.06972600  0.95689100  1
  O  O53  1  0.68913500  0.83966800  0.12349000  1
  O  O54  1  0.56092700  0.83843400  0.80993400  1
  O  O55  1  0.60589800  0.35035300  0.00005100  1
  O  O56  1  0.68835500  0.92917100  0.46266000  1
  O  O57  1  0.50000000  0.00022900  0.00000000  1
  O  O58  1  0.68895850  0.16142450  0.62459500  1
  O  O59  1  0.56374200  0.16205100  0.31116000  1
  O  O60  1  0.60599650  0.65073950  0.49969700  1
  O  O61  1  0.39410200  0.35035300  0.99994900  1
  O  O62  1  0.43907300  0.83843400  0.19006600  1
  O  O63  1  0.31086500  0.83966800  0.87651000  1
  O  O64  1  0.50000000  0.00143500  0.50000000  1
  O  O65  1  0.31272400  0.06972600  0.04310900  1
  O  O66  1  0.39400350  0.65073950  0.50030300  1
  O  O67  1  0.43625800  0.16205100  0.68884000  1
