# generated using pymatgen
data_BaMn2O8
_symmetry_space_group_name_H-M   'P 1'
_cell_length_a   7.48581400
_cell_length_b   12.17331400
_cell_length_c   15.13925800
_cell_angle_alpha   90.00000000
_cell_angle_beta   90.00000000
_cell_angle_gamma   90.00000000
_symmetry_Int_Tables_number   1
_chemical_formula_structural   BaMn2O8
_chemical_formula_sum   'Ba8 Mn16 O64'
_cell_volume   1379.59765217
_cell_formula_units_Z   8
loop_
 _symmetry_equiv_pos_site_id
 _symmetry_equiv_pos_as_xyz
  1  'x, y, z'
loop_
 _atom_site_type_symbol
 _atom_site_label
 _atom_site_symmetry_multiplicity
 _atom_site_fract_x
 _atom_site_fract_y
 _atom_site_fract_z
 _atom_site_occupancy
  Ba  Ba0  1  0.75000000  0.75000000  0.25000000  1
  Ba  Ba1  1  0.00000000  0.00000000  0.00000000  1
  Ba  Ba2  1  0.75000000  0.25000000  0.75000000  1
  Ba  Ba3  1  0.00000000  0.50000000  0.50000000  1
  Ba  Ba4  1  0.25000000  0.75000000  0.75000000  1
  Ba  Ba5  1  0.50000000  0.00000000  0.50000000  1
  Ba  Ba6  1  0.25000000  0.25000000  0.25000000  1
  Ba  Ba7  1  0.50000000  0.50000000  0.00000000  1
  Mn  Mn8  1  0.75000000  0.05195600  0.25000000  1
  Mn  Mn9  1  0.75000000  0.44804400  0.25000000  1
  Mn  Mn10  1  0.50000000  0.19804400  0.00000000  1
  Mn  Mn11  1  0.50000000  0.80195600  0.00000000  1
  Mn  Mn12  1  0.75000000  0.55195600  0.75000000  1
  Mn  Mn13  1  0.75000000  0.94804400  0.75000000  1
  Mn  Mn14  1  0.50000000  0.69804400  0.50000000  1
  Mn  Mn15  1  0.50000000  0.30195600  0.50000000  1
  Mn  Mn16  1  0.25000000  0.05195600  0.75000000  1
  Mn  Mn17  1  0.25000000  0.44804400  0.75000000  1
  Mn  Mn18  1  0.00000000  0.19804400  0.50000000  1
  Mn  Mn19  1  0.00000000  0.80195600  0.50000000  1
  Mn  Mn20  1  0.25000000  0.55195600  0.25000000  1
  Mn  Mn21  1  0.25000000  0.94804400  0.25000000  1
  Mn  Mn22  1  0.00000000  0.69804400  0.00000000  1
  Mn  Mn23  1  0.00000000  0.30195600  0.00000000  1
  O  O24  1  0.44969550  0.27682550  0.08346100  1
  O  O25  1  0.94969550  0.72317450  0.41653900  1
  O  O26  1  0.05030450  0.27682550  0.41653900  1
  O  O27  1  0.55030450  0.72317450  0.08346100  1
  O  O28  1  0.80030450  0.97317450  0.16653900  1
  O  O29  1  0.30030450  0.02682550  0.33346100  1
  O  O30  1  0.66849200  0.12201650  0.02473950  1
  O  O31  1  0.16849200  0.87798350  0.47526050  1
  O  O32  1  0.83150800  0.12201650  0.47526050  1
  O  O33  1  0.33150800  0.87798350  0.02473950  1
  O  O34  1  0.58150800  0.12798350  0.22526050  1
  O  O35  1  0.08150800  0.87201650  0.27473950  1
  O  O36  1  0.91849200  0.12798350  0.27473950  1
  O  O37  1  0.41849200  0.87201650  0.22526050  1
  O  O38  1  0.19969550  0.02682550  0.16653900  1
  O  O39  1  0.69969550  0.97317450  0.33346100  1
  O  O40  1  0.44969550  0.77682550  0.58346100  1
  O  O41  1  0.94969550  0.22317450  0.91653900  1
  O  O42  1  0.05030450  0.77682550  0.91653900  1
  O  O43  1  0.55030450  0.22317450  0.58346100  1
  O  O44  1  0.80030450  0.47317450  0.66653900  1
  O  O45  1  0.30030450  0.52682550  0.83346100  1
  O  O46  1  0.66849200  0.62201650  0.52473950  1
  O  O47  1  0.16849200  0.37798350  0.97526050  1
  O  O48  1  0.83150800  0.62201650  0.97526050  1
  O  O49  1  0.33150800  0.37798350  0.52473950  1
  O  O50  1  0.58150800  0.62798350  0.72526050  1
  O  O51  1  0.08150800  0.37201650  0.77473950  1
  O  O52  1  0.91849200  0.62798350  0.77473950  1
  O  O53  1  0.41849200  0.37201650  0.72526050  1
  O  O54  1  0.19969550  0.52682550  0.66653900  1
  O  O55  1  0.69969550  0.47317450  0.83346100  1
  O  O56  1  0.94969550  0.27682550  0.58346100  1
  O  O57  1  0.44969550  0.72317450  0.91653900  1
  O  O58  1  0.55030450  0.27682550  0.91653900  1
  O  O59  1  0.05030450  0.72317450  0.58346100  1
  O  O60  1  0.30030450  0.97317450  0.66653900  1
  O  O61  1  0.80030450  0.02682550  0.83346100  1
  O  O62  1  0.16849200  0.12201650  0.52473950  1
  O  O63  1  0.66849200  0.87798350  0.97526050  1
  O  O64  1  0.33150800  0.12201650  0.97526050  1
  O  O65  1  0.83150800  0.87798350  0.52473950  1
  O  O66  1  0.08150800  0.12798350  0.72526050  1
  O  O67  1  0.58150800  0.87201650  0.77473950  1
  O  O68  1  0.41849200  0.12798350  0.77473950  1
  O  O69  1  0.91849200  0.87201650  0.72526050  1
  O  O70  1  0.69969550  0.02682550  0.66653900  1
  O  O71  1  0.19969550  0.97317450  0.83346100  1
  O  O72  1  0.94969550  0.77682550  0.08346100  1
  O  O73  1  0.44969550  0.22317450  0.41653900  1
  O  O74  1  0.55030450  0.77682550  0.41653900  1
  O  O75  1  0.05030450  0.22317450  0.08346100  1
  O  O76  1  0.30030450  0.47317450  0.16653900  1
  O  O77  1  0.80030450  0.52682550  0.33346100  1
  O  O78  1  0.16849200  0.62201650  0.02473950  1
  O  O79  1  0.66849200  0.37798350  0.47526050  1
  O  O80  1  0.33150800  0.62201650  0.47526050  1
  O  O81  1  0.83150800  0.37798350  0.02473950  1
  O  O82  1  0.08150800  0.62798350  0.22526050  1
  O  O83  1  0.58150800  0.37201650  0.27473950  1
  O  O84  1  0.41849200  0.62798350  0.27473950  1
  O  O85  1  0.91849200  0.37201650  0.22526050  1
  O  O86  1  0.69969550  0.52682550  0.16653900  1
  O  O87  1  0.19969550  0.47317450  0.33346100  1
