# generated using pymatgen
data_V2P3O11
_symmetry_space_group_name_H-M   'P 1'
_cell_length_a   11.74370000
_cell_length_b   8.50587800
_cell_length_c   8.90006643
_cell_angle_alpha   90.00000000
_cell_angle_beta   114.07046635
_cell_angle_gamma   90.00000000
_symmetry_Int_Tables_number   1
_chemical_formula_structural   V2P3O11
_chemical_formula_sum   'V8 P12 O44'
_cell_volume   811.72571897
_cell_formula_units_Z   4
loop_
 _symmetry_equiv_pos_site_id
 _symmetry_equiv_pos_as_xyz
  1  'x, y, z'
loop_
 _atom_site_type_symbol
 _atom_site_label
 _atom_site_symmetry_multiplicity
 _atom_site_fract_x
 _atom_site_fract_y
 _atom_site_fract_z
 _atom_site_occupancy
  V  V0  1  0.12571500  0.76348600  0.04001300  1
  V  V1  1  0.87428500  0.76348600  0.45998700  1
  V  V2  1  0.12571500  0.23651400  0.54001300  1
  V  V3  1  0.87428500  0.23651400  0.95998700  1
  V  V4  1  0.62571500  0.26348600  0.04001300  1
  V  V5  1  0.37428500  0.26348600  0.45998700  1
  V  V6  1  0.62571500  0.73651400  0.54001300  1
  V  V7  1  0.37428500  0.73651400  0.95998700  1
  P  P8  1  0.00000000  0.96017900  0.25000000  1
  P  P9  1  0.10789050  0.43579350  0.20982000  1
  P  P10  1  0.10789050  0.56420650  0.70982000  1
  P  P11  1  0.89210950  0.43579350  0.29018000  1
  P  P12  1  0.89210950  0.56420650  0.79018000  1
  P  P13  1  0.00000000  0.03982100  0.75000000  1
  P  P14  1  0.50000000  0.46017900  0.25000000  1
  P  P15  1  0.60789050  0.93579350  0.20982000  1
  P  P16  1  0.60789050  0.06420650  0.70982000  1
  P  P17  1  0.39210950  0.93579350  0.29018000  1
  P  P18  1  0.39210950  0.06420650  0.79018000  1
  P  P19  1  0.50000000  0.53982100  0.75000000  1
  O  O20  1  0.42227450  0.56384750  0.10104100  1
  O  O21  1  0.09171050  0.85857950  0.20901400  1
  O  O22  1  0.42227450  0.43615250  0.60104100  1
  O  O23  1  0.17829650  0.56807950  0.17039900  1
  O  O24  1  0.90828950  0.85857950  0.29098600  1
  O  O25  1  0.19089900  0.65508900  0.86987700  1
  O  O26  1  0.19089900  0.34491100  0.36987700  1
  O  O27  1  0.04427100  0.67750200  0.56725100  1
  O  O28  1  0.04427100  0.32249800  0.06725100  1
  O  O29  1  0.00000000  0.51859600  0.25000000  1
  O  O30  1  0.17829650  0.43192050  0.67039900  1
  O  O31  1  0.82170350  0.56807950  0.32960100  1
  O  O32  1  0.00000000  0.48140400  0.75000000  1
  O  O33  1  0.95572900  0.67750200  0.93274900  1
  O  O34  1  0.95572900  0.32249800  0.43274900  1
  O  O35  1  0.80910100  0.65508900  0.63012300  1
  O  O36  1  0.80910100  0.34491100  0.13012300  1
  O  O37  1  0.09171050  0.14142050  0.70901400  1
  O  O38  1  0.82170350  0.43192050  0.82960100  1
  O  O39  1  0.57772550  0.56384750  0.39895900  1
  O  O40  1  0.90828950  0.14142050  0.79098600  1
  O  O41  1  0.57772550  0.43615250  0.89895900  1
  O  O42  1  0.92227450  0.06384750  0.10104100  1
  O  O43  1  0.59171050  0.35857950  0.20901400  1
  O  O44  1  0.92227450  0.93615250  0.60104100  1
  O  O45  1  0.67829650  0.06807950  0.17039900  1
  O  O46  1  0.40828950  0.35857950  0.29098600  1
  O  O47  1  0.69089900  0.15508900  0.86987700  1
  O  O48  1  0.69089900  0.84491100  0.36987700  1
  O  O49  1  0.54427100  0.17750200  0.56725100  1
  O  O50  1  0.54427100  0.82249800  0.06725100  1
  O  O51  1  0.50000000  0.01859600  0.25000000  1
  O  O52  1  0.67829650  0.93192050  0.67039900  1
  O  O53  1  0.32170350  0.06807950  0.32960100  1
  O  O54  1  0.50000000  0.98140400  0.75000000  1
  O  O55  1  0.45572900  0.17750200  0.93274900  1
  O  O56  1  0.45572900  0.82249800  0.43274900  1
  O  O57  1  0.30910100  0.15508900  0.63012300  1
  O  O58  1  0.30910100  0.84491100  0.13012300  1
  O  O59  1  0.59171050  0.64142050  0.70901400  1
  O  O60  1  0.32170350  0.93192050  0.82960100  1
  O  O61  1  0.07772550  0.06384750  0.39895900  1
  O  O62  1  0.40828950  0.64142050  0.79098600  1
  O  O63  1  0.07772550  0.93615250  0.89895900  1
