# generated using pymatgen
data_Al(MoS2)4
_symmetry_space_group_name_H-M   'P 1'
_cell_length_a   9.81253400
_cell_length_b   9.81253400
_cell_length_c   9.81253400
_cell_angle_alpha   90.00000000
_cell_angle_beta   90.00000000
_cell_angle_gamma   90.00000000
_symmetry_Int_Tables_number   1
_chemical_formula_structural   Al(MoS2)4
_chemical_formula_sum   'Al4 Mo16 S32'
_cell_volume   944.80791682
_cell_formula_units_Z   4
loop_
 _symmetry_equiv_pos_site_id
 _symmetry_equiv_pos_as_xyz
  1  'x, y, z'
loop_
 _atom_site_type_symbol
 _atom_site_label
 _atom_site_symmetry_multiplicity
 _atom_site_fract_x
 _atom_site_fract_y
 _atom_site_fract_z
 _atom_site_occupancy
  Al  Al0  1  0.00000000  0.00000000  0.00000000  1
  Al  Al1  1  0.00000000  0.50000000  0.50000000  1
  Al  Al2  1  0.50000000  0.00000000  0.50000000  1
  Al  Al3  1  0.50000000  0.50000000  0.00000000  1
  Mo  Mo4  1  0.10237800  0.39762200  0.10237800  1
  Mo  Mo5  1  0.60237800  0.10237800  0.89762200  1
  Mo  Mo6  1  0.89762200  0.39762200  0.89762200  1
  Mo  Mo7  1  0.39762200  0.10237800  0.10237800  1
  Mo  Mo8  1  0.10237800  0.89762200  0.60237800  1
  Mo  Mo9  1  0.60237800  0.60237800  0.39762200  1
  Mo  Mo10  1  0.89762200  0.89762200  0.39762200  1
  Mo  Mo11  1  0.39762200  0.60237800  0.60237800  1
  Mo  Mo12  1  0.60237800  0.39762200  0.60237800  1
  Mo  Mo13  1  0.10237800  0.10237800  0.39762200  1
  Mo  Mo14  1  0.39762200  0.39762200  0.39762200  1
  Mo  Mo15  1  0.89762200  0.10237800  0.60237800  1
  Mo  Mo16  1  0.60237800  0.89762200  0.10237800  1
  Mo  Mo17  1  0.10237800  0.60237800  0.89762200  1
  Mo  Mo18  1  0.39762200  0.89762200  0.89762200  1
  Mo  Mo19  1  0.89762200  0.60237800  0.10237800  1
  S  S20  1  0.36546700  0.13453300  0.36546700  1
  S  S21  1  0.36546700  0.36546700  0.13453300  1
  S  S22  1  0.13453300  0.13453300  0.13453300  1
  S  S23  1  0.13345933  0.36654067  0.86654067  1
  S  S24  1  0.63345933  0.13345933  0.13345933  1
  S  S25  1  0.86654067  0.36654067  0.13345933  1
  S  S26  1  0.36654067  0.13345933  0.86654067  1
  S  S27  1  0.13453300  0.36546700  0.36546700  1
  S  S28  1  0.36546700  0.63453300  0.86546700  1
  S  S29  1  0.36546700  0.86546700  0.63453300  1
  S  S30  1  0.13453300  0.63453300  0.63453300  1
  S  S31  1  0.13345933  0.86654067  0.36654067  1
  S  S32  1  0.63345933  0.63345933  0.63345933  1
  S  S33  1  0.86654067  0.86654067  0.63345933  1
  S  S34  1  0.36654067  0.63345933  0.36654067  1
  S  S35  1  0.13453300  0.86546700  0.86546700  1
  S  S36  1  0.86546700  0.13453300  0.86546700  1
  S  S37  1  0.86546700  0.36546700  0.63453300  1
  S  S38  1  0.63453300  0.13453300  0.63453300  1
  S  S39  1  0.63345933  0.36654067  0.36654067  1
  S  S40  1  0.13345933  0.13345933  0.63345933  1
  S  S41  1  0.36654067  0.36654067  0.63345933  1
  S  S42  1  0.86654067  0.13345933  0.36654067  1
  S  S43  1  0.63453300  0.36546700  0.86546700  1
  S  S44  1  0.86546700  0.63453300  0.36546700  1
  S  S45  1  0.86546700  0.86546700  0.13453300  1
  S  S46  1  0.63453300  0.63453300  0.13453300  1
  S  S47  1  0.63345933  0.86654067  0.86654067  1
  S  S48  1  0.13345933  0.63345933  0.13345933  1
  S  S49  1  0.36654067  0.86654067  0.13345933  1
  S  S50  1  0.86654067  0.63345933  0.86654067  1
  S  S51  1  0.63453300  0.86546700  0.36546700  1
