# generated using pymatgen
data_Mn3Cu3O8
_symmetry_space_group_name_H-M   'P 1'
_cell_length_a   6.01017793
_cell_length_b   6.01017793
_cell_length_c   14.55197627
_cell_angle_alpha   90.00000000
_cell_angle_beta   90.00000000
_cell_angle_gamma   120.00000000
_symmetry_Int_Tables_number   1
_chemical_formula_structural   Mn3Cu3O8
_chemical_formula_sum   'Mn9 Cu9 O24'
_cell_volume   455.22621912
_cell_formula_units_Z   3
loop_
 _symmetry_equiv_pos_site_id
 _symmetry_equiv_pos_as_xyz
  1  'x, y, z'
loop_
 _atom_site_type_symbol
 _atom_site_label
 _atom_site_symmetry_multiplicity
 _atom_site_fract_x
 _atom_site_fract_y
 _atom_site_fract_z
 _atom_site_occupancy
  Mn  Mn0  1  0.00000000  0.50000000  0.00000000  1
  Mn  Mn1  1  0.50000000  0.50000000  0.00000000  1
  Mn  Mn2  1  0.50000000  0.00000000  0.00000000  1
  Mn  Mn3  1  0.66666667  0.83333333  0.33333333  1
  Mn  Mn4  1  0.16666667  0.83333333  0.33333333  1
  Mn  Mn5  1  0.16666667  0.33333333  0.33333333  1
  Mn  Mn6  1  0.33333333  0.16666667  0.66666667  1
  Mn  Mn7  1  0.83333333  0.16666667  0.66666667  1
  Mn  Mn8  1  0.83333333  0.66666667  0.66666667  1
  Cu  Cu9  1  0.33333333  0.66666667  0.54308967  1
  Cu  Cu10  1  0.33333333  0.66666667  0.79024367  1
  Cu  Cu11  1  0.33333333  0.66666667  0.16666667  1
  Cu  Cu12  1  0.00000000  0.00000000  0.87642300  1
  Cu  Cu13  1  0.00000000  0.00000000  0.12357700  1
  Cu  Cu14  1  1.00000000  1.00000000  0.50000000  1
  Cu  Cu15  1  0.66666667  0.33333333  0.20975633  1
  Cu  Cu16  1  0.66666667  0.33333333  0.45691033  1
  Cu  Cu17  1  0.66666667  0.33333333  0.83333333  1
  O  O18  1  0.33333333  0.66666667  0.92516267  1
  O  O19  1  0.18149500  0.36299000  0.07532200  1
  O  O20  1  0.18149500  0.81850500  0.07532200  1
  O  O21  1  0.63701000  0.81850500  0.07532200  1
  O  O22  1  0.02965667  0.51482833  0.25801133  1
  O  O23  1  0.48517167  0.51482833  0.25801133  1
  O  O24  1  0.48517167  0.97034333  0.25801133  1
  O  O25  1  0.33333333  0.66666667  0.40817067  1
  O  O26  1  0.00000000  0.00000000  0.25849600  1
  O  O27  1  0.84816167  0.69632333  0.40865533  1
  O  O28  1  0.84816167  0.15183833  0.40865533  1
  O  O29  1  0.30367667  0.15183833  0.40865533  1
  O  O30  1  0.69632333  0.84816167  0.59134467  1
  O  O31  1  0.15183833  0.84816167  0.59134467  1
  O  O32  1  0.15183833  0.30367667  0.59134467  1
  O  O33  1  0.00000000  0.00000000  0.74150400  1
  O  O34  1  0.66666667  0.33333333  0.59182933  1
  O  O35  1  0.51482833  0.02965667  0.74198867  1
  O  O36  1  0.51482833  0.48517167  0.74198867  1
  O  O37  1  0.97034333  0.48517167  0.74198867  1
  O  O38  1  0.36299000  0.18149500  0.92467800  1
  O  O39  1  0.81850500  0.18149500  0.92467800  1
  O  O40  1  0.81850500  0.63701000  0.92467800  1
  O  O41  1  0.66666667  0.33333333  0.07483733  1
