# generated using pymatgen
data_Y3Se4
_symmetry_space_group_name_H-M   'P 1'
_cell_length_a   14.06174000
_cell_length_b   8.19682800
_cell_length_c   13.98974453
_cell_angle_alpha   90.00000000
_cell_angle_beta   109.08298146
_cell_angle_gamma   90.00000000
_symmetry_Int_Tables_number   1
_chemical_formula_structural   Y3Se4
_chemical_formula_sum   'Y24 Se32'
_cell_volume   1523.86904457
_cell_formula_units_Z   8
loop_
 _symmetry_equiv_pos_site_id
 _symmetry_equiv_pos_as_xyz
  1  'x, y, z'
loop_
 _atom_site_type_symbol
 _atom_site_label
 _atom_site_symmetry_multiplicity
 _atom_site_fract_x
 _atom_site_fract_y
 _atom_site_fract_z
 _atom_site_occupancy
  Y  Y0  1  0.49835550  0.75896250  0.74581800  1
  Y  Y1  1  0.49835550  0.24103750  0.74581800  1
  Y  Y2  1  0.00000000  0.00000000  0.50000000  1
  Y  Y3  1  0.74505000  0.00000000  0.74558600  1
  Y  Y4  1  0.75000000  0.25000000  0.50000000  1
  Y  Y5  1  0.50164450  0.75896250  0.25418200  1
  Y  Y6  1  0.75000000  0.75000000  0.50000000  1
  Y  Y7  1  0.50164450  0.24103750  0.25418200  1
  Y  Y8  1  0.00000000  0.00000000  0.00000000  1
  Y  Y9  1  0.25495000  0.00000000  0.25441400  1
  Y  Y10  1  0.75000000  0.75000000  0.00000000  1
  Y  Y11  1  0.75000000  0.25000000  0.00000000  1
  Y  Y12  1  0.99835550  0.25896250  0.74581800  1
  Y  Y13  1  0.99835550  0.74103750  0.74581800  1
  Y  Y14  1  0.50000000  0.50000000  0.50000000  1
  Y  Y15  1  0.24505000  0.50000000  0.74558600  1
  Y  Y16  1  0.25000000  0.75000000  0.50000000  1
  Y  Y17  1  0.00164450  0.25896250  0.25418200  1
  Y  Y18  1  0.25000000  0.25000000  0.50000000  1
  Y  Y19  1  0.00164450  0.74103750  0.25418200  1
  Y  Y20  1  0.50000000  0.50000000  0.00000000  1
  Y  Y21  1  0.75495000  0.50000000  0.25441400  1
  Y  Y22  1  0.25000000  0.25000000  0.00000000  1
  Y  Y23  1  0.25000000  0.75000000  0.00000000  1
  Se  Se24  1  0.62483350  0.25243050  0.62553300  1
  Se  Se25  1  0.62483350  0.74756950  0.62553300  1
  Se  Se26  1  0.62752600  0.00000000  0.37552300  1
  Se  Se27  1  0.12455400  0.00000000  0.37434500  1
  Se  Se28  1  0.62618150  0.74371250  0.12548700  1
  Se  Se29  1  0.87544600  0.00000000  0.62565500  1
  Se  Se30  1  0.37516650  0.25243050  0.37446700  1
  Se  Se31  1  0.12515400  0.00000000  0.87223600  1
  Se  Se32  1  0.62618150  0.25628750  0.12548700  1
  Se  Se33  1  0.37247400  0.00000000  0.62447700  1
  Se  Se34  1  0.62285900  0.00000000  0.87765100  1
  Se  Se35  1  0.37516650  0.74756950  0.37446700  1
  Se  Se36  1  0.37714100  0.00000000  0.12234900  1
  Se  Se37  1  0.37381850  0.74371250  0.87451300  1
  Se  Se38  1  0.87484600  0.00000000  0.12776400  1
  Se  Se39  1  0.37381850  0.25628750  0.87451300  1
  Se  Se40  1  0.12483350  0.75243050  0.62553300  1
  Se  Se41  1  0.12483350  0.24756950  0.62553300  1
  Se  Se42  1  0.12752600  0.50000000  0.37552300  1
  Se  Se43  1  0.62455400  0.50000000  0.37434500  1
  Se  Se44  1  0.12618150  0.24371250  0.12548700  1
  Se  Se45  1  0.37544600  0.50000000  0.62565500  1
  Se  Se46  1  0.87516650  0.75243050  0.37446700  1
  Se  Se47  1  0.62515400  0.50000000  0.87223600  1
  Se  Se48  1  0.12618150  0.75628750  0.12548700  1
  Se  Se49  1  0.87247400  0.50000000  0.62447700  1
  Se  Se50  1  0.12285900  0.50000000  0.87765100  1
  Se  Se51  1  0.87516650  0.24756950  0.37446700  1
  Se  Se52  1  0.87714100  0.50000000  0.12234900  1
  Se  Se53  1  0.87381850  0.24371250  0.87451300  1
  Se  Se54  1  0.37484600  0.50000000  0.12776400  1
  Se  Se55  1  0.87381850  0.75628750  0.87451300  1
