# generated using pymatgen
data_MnPO4
_symmetry_space_group_name_H-M   'P 1'
_cell_length_a   5.31225516
_cell_length_b   7.82419173
_cell_length_c   6.57144900
_cell_angle_alpha   90.00000000
_cell_angle_beta   90.00000000
_cell_angle_gamma   90.00000000
_symmetry_Int_Tables_number   1
_chemical_formula_structural   MnPO4
_chemical_formula_sum   'Mn4 P4 O16'
_cell_volume   273.13638241
_cell_formula_units_Z   4
loop_
 _symmetry_equiv_pos_site_id
 _symmetry_equiv_pos_as_xyz
  1  'x, y, z'
loop_
 _atom_site_type_symbol
 _atom_site_label
 _atom_site_symmetry_multiplicity
 _atom_site_fract_x
 _atom_site_fract_y
 _atom_site_fract_z
 _atom_site_occupancy
  Mn  Mn0  1  0.50000000  0.50000000  0.50000000  1
  Mn  Mn1  1  0.50000000  0.50000000  0.00000000  1
  Mn  Mn2  1  0.00000000  0.00000000  0.50000000  1
  Mn  Mn3  1  0.00000000  0.00000000  0.00000000  1
  P  P4  1  0.00000000  0.65455600  0.25000000  1
  P  P5  1  0.00000000  0.34544400  0.75000000  1
  P  P6  1  0.50000000  0.15455600  0.25000000  1
  P  P7  1  0.50000000  0.84544400  0.75000000  1
  O  O8  1  0.24073400  0.53877700  0.25000000  1
  O  O9  1  0.00000000  0.23744600  0.94546900  1
  O  O10  1  0.00000000  0.76255400  0.44546900  1
  O  O11  1  0.75926600  0.53877700  0.25000000  1
  O  O12  1  0.75926600  0.46122300  0.75000000  1
  O  O13  1  0.00000000  0.76255400  0.05453100  1
  O  O14  1  0.00000000  0.23744600  0.55453100  1
  O  O15  1  0.24073400  0.46122300  0.75000000  1
  O  O16  1  0.74073400  0.03877700  0.25000000  1
  O  O17  1  0.50000000  0.73744600  0.94546900  1
  O  O18  1  0.50000000  0.26255400  0.44546900  1
  O  O19  1  0.25926600  0.03877700  0.25000000  1
  O  O20  1  0.25926600  0.96122300  0.75000000  1
  O  O21  1  0.50000000  0.26255400  0.05453100  1
  O  O22  1  0.50000000  0.73744600  0.55453100  1
  O  O23  1  0.74073400  0.96122300  0.75000000  1
