# generated using pymatgen
data_Na(Pr2Se3)4
_symmetry_space_group_name_H-M   'P 1'
_cell_length_a   9.00985000
_cell_length_b   9.00985000
_cell_length_c   27.10925200
_cell_angle_alpha   90.00000000
_cell_angle_beta   90.00000000
_cell_angle_gamma   90.00000000
_symmetry_Int_Tables_number   1
_chemical_formula_structural   Na(Pr2Se3)4
_chemical_formula_sum   'Na4 Pr32 Se48'
_cell_volume   2200.65851259
_cell_formula_units_Z   4
loop_
 _symmetry_equiv_pos_site_id
 _symmetry_equiv_pos_as_xyz
  1  'x, y, z'
loop_
 _atom_site_type_symbol
 _atom_site_label
 _atom_site_symmetry_multiplicity
 _atom_site_fract_x
 _atom_site_fract_y
 _atom_site_fract_z
 _atom_site_occupancy
  Na  Na0  1  0.50000000  0.50000000  0.00000000  1
  Na  Na1  1  0.50000000  0.00000000  0.25000000  1
  Na  Na2  1  0.00000000  0.00000000  0.50000000  1
  Na  Na3  1  0.00000000  0.50000000  0.75000000  1
  Pr  Pr4  1  0.74642800  0.87130100  0.04058100  1
  Pr  Pr5  1  0.37130100  0.75357200  0.45941900  1
  Pr  Pr6  1  0.00000000  0.50000000  0.41741700  1
  Pr  Pr7  1  0.25000000  0.11988200  0.37500000  1
  Pr  Pr8  1  0.75000000  0.88011800  0.37500000  1
  Pr  Pr9  1  0.62869900  0.24642800  0.45941900  1
  Pr  Pr10  1  0.50000000  0.50000000  0.33258300  1
  Pr  Pr11  1  0.87130100  0.24642800  0.29058100  1
  Pr  Pr12  1  0.74642800  0.62869900  0.20941900  1
  Pr  Pr13  1  0.25357200  0.37130100  0.20941900  1
  Pr  Pr14  1  0.12869900  0.75357200  0.29058100  1
  Pr  Pr15  1  0.00000000  0.00000000  0.16741700  1
  Pr  Pr16  1  0.38011800  0.75000000  0.12500000  1
  Pr  Pr17  1  0.25357200  0.12869900  0.04058100  1
  Pr  Pr18  1  0.00000000  0.50000000  0.08258300  1
  Pr  Pr19  1  0.61988200  0.25000000  0.12500000  1
  Pr  Pr20  1  0.24642800  0.37130100  0.54058100  1
  Pr  Pr21  1  0.87130100  0.25357200  0.95941900  1
  Pr  Pr22  1  0.50000000  0.00000000  0.91741700  1
  Pr  Pr23  1  0.75000000  0.61988200  0.87500000  1
  Pr  Pr24  1  0.25000000  0.38011800  0.87500000  1
  Pr  Pr25  1  0.12869900  0.74642800  0.95941900  1
  Pr  Pr26  1  0.00000000  0.00000000  0.83258300  1
  Pr  Pr27  1  0.37130100  0.74642800  0.79058100  1
  Pr  Pr28  1  0.24642800  0.12869900  0.70941900  1
  Pr  Pr29  1  0.75357200  0.87130100  0.70941900  1
  Pr  Pr30  1  0.62869900  0.25357200  0.79058100  1
  Pr  Pr31  1  0.50000000  0.50000000  0.66741700  1
  Pr  Pr32  1  0.88011800  0.25000000  0.62500000  1
  Pr  Pr33  1  0.75357200  0.62869900  0.54058100  1
  Pr  Pr34  1  0.50000000  0.00000000  0.58258300  1
  Pr  Pr35  1  0.11988200  0.75000000  0.62500000  1
  Se  Se36  1  0.67439450  0.92228050  0.48398150  1
  Se  Se37  1  0.57771950  0.17439450  0.01601850  1
  Se  Se38  1  0.42228050  0.82560550  0.01601850  1
  Se  Se39  1  0.07370000  0.82073900  0.39727000  1
  Se  Se40  1  0.92630000  0.17926100  0.39727000  1
  Se  Se41  1  0.32560550  0.07771950  0.48398150  1
  Se  Se42  1  0.32549800  0.42599000  0.43314700  1
  Se  Se43  1  0.17450200  0.42599000  0.31685300  1
  Se  Se44  1  0.57370000  0.17926100  0.35273000  1
  Se  Se45  1  0.67450200  0.57401000  0.43314700  1
  Se  Se46  1  0.42630000  0.82073900  0.35273000  1
  Se  Se47  1  0.57771950  0.32560550  0.23398150  1
  Se  Se48  1  0.42228050  0.67439450  0.23398150  1
  Se  Se49  1  0.82549800  0.57401000  0.31685300  1
  Se  Se50  1  0.82560550  0.92228050  0.26601850  1
  Se  Se51  1  0.67926100  0.92630000  0.14727000  1
  Se  Se52  1  0.07401000  0.67450200  0.18314700  1
  Se  Se53  1  0.17439450  0.07771950  0.26601850  1
  Se  Se54  1  0.92599000  0.32549800  0.18314700  1
  Se  Se55  1  0.07401000  0.82549800  0.06685300  1
  Se  Se56  1  0.92599000  0.17450200  0.06685300  1
  Se  Se57  1  0.32073900  0.07370000  0.14727000  1
  Se  Se58  1  0.32073900  0.42630000  0.10273000  1
  Se  Se59  1  0.67926100  0.57370000  0.10273000  1
  Se  Se60  1  0.17439450  0.42228050  0.98398150  1
  Se  Se61  1  0.07771950  0.67439450  0.51601850  1
  Se  Se62  1  0.92228050  0.32560550  0.51601850  1
  Se  Se63  1  0.57370000  0.32073900  0.89727000  1
  Se  Se64  1  0.42630000  0.67926100  0.89727000  1
  Se  Se65  1  0.82560550  0.57771950  0.98398150  1
  Se  Se66  1  0.82549800  0.92599000  0.93314700  1
  Se  Se67  1  0.67450200  0.92599000  0.81685300  1
  Se  Se68  1  0.07370000  0.67926100  0.85273000  1
  Se  Se69  1  0.17450200  0.07401000  0.93314700  1
  Se  Se70  1  0.92630000  0.32073900  0.85273000  1
  Se  Se71  1  0.07771950  0.82560550  0.73398150  1
  Se  Se72  1  0.92228050  0.17439450  0.73398150  1
  Se  Se73  1  0.32549800  0.07401000  0.81685300  1
  Se  Se74  1  0.32560550  0.42228050  0.76601850  1
  Se  Se75  1  0.17926100  0.42630000  0.64727000  1
  Se  Se76  1  0.57401000  0.17450200  0.68314700  1
  Se  Se77  1  0.67439450  0.57771950  0.76601850  1
  Se  Se78  1  0.42599000  0.82549800  0.68314700  1
  Se  Se79  1  0.57401000  0.32549800  0.56685300  1
  Se  Se80  1  0.42599000  0.67450200  0.56685300  1
  Se  Se81  1  0.82073900  0.57370000  0.64727000  1
  Se  Se82  1  0.82073900  0.92630000  0.60273000  1
  Se  Se83  1  0.17926100  0.07370000  0.60273000  1
