# generated using pymatgen
data_Mn2CuO4
_symmetry_space_group_name_H-M   'P 1'
_cell_length_a   6.07791600
_cell_length_b   6.12820200
_cell_length_c   8.41490200
_cell_angle_alpha   90.00000000
_cell_angle_beta   90.00000000
_cell_angle_gamma   90.00000000
_symmetry_Int_Tables_number   1
_chemical_formula_structural   Mn2CuO4
_chemical_formula_sum   'Mn8 Cu4 O16'
_cell_volume   313.42730497
_cell_formula_units_Z   4
loop_
 _symmetry_equiv_pos_site_id
 _symmetry_equiv_pos_as_xyz
  1  'x, y, z'
loop_
 _atom_site_type_symbol
 _atom_site_label
 _atom_site_symmetry_multiplicity
 _atom_site_fract_x
 _atom_site_fract_y
 _atom_site_fract_z
 _atom_site_occupancy
  Mn  Mn0  1  0.00000000  0.75000000  0.13024500  1
  Mn  Mn1  1  0.50000000  0.75000000  0.36975500  1
  Mn  Mn2  1  0.50000000  0.00000000  0.00000000  1
  Mn  Mn3  1  0.00000000  0.00000000  0.50000000  1
  Mn  Mn4  1  0.50000000  0.25000000  0.63024500  1
  Mn  Mn5  1  0.00000000  0.25000000  0.86975500  1
  Mn  Mn6  1  0.00000000  0.50000000  0.50000000  1
  Mn  Mn7  1  0.50000000  0.50000000  0.00000000  1
  Cu  Cu8  1  0.75000000  0.25000000  0.25000000  1
  Cu  Cu9  1  0.25000000  0.25000000  0.25000000  1
  Cu  Cu10  1  0.25000000  0.75000000  0.75000000  1
  Cu  Cu11  1  0.75000000  0.75000000  0.75000000  1
  O  O12  1  0.72473900  0.25000000  0.00551400  1
  O  O13  1  0.50000000  0.01990050  0.23191750  1
  O  O14  1  0.27526100  0.25000000  0.00551400  1
  O  O15  1  0.00000000  0.01990050  0.26808250  1
  O  O16  1  0.50000000  0.48009950  0.23191750  1
  O  O17  1  0.00000000  0.48009950  0.26808250  1
  O  O18  1  0.22473900  0.25000000  0.49448600  1
  O  O19  1  0.77526100  0.25000000  0.49448600  1
  O  O20  1  0.22473900  0.75000000  0.50551400  1
  O  O21  1  0.00000000  0.51990050  0.73191750  1
  O  O22  1  0.77526100  0.75000000  0.50551400  1
  O  O23  1  0.50000000  0.51990050  0.76808250  1
  O  O24  1  0.00000000  0.98009950  0.73191750  1
  O  O25  1  0.50000000  0.98009950  0.76808250  1
  O  O26  1  0.72473900  0.75000000  0.99448600  1
  O  O27  1  0.27526100  0.75000000  0.99448600  1
