# generated using pymatgen
data_Li2V2(PO4)3
_symmetry_space_group_name_H-M   'P 1'
_cell_length_a   8.60100300
_cell_length_b   8.70882300
_cell_length_c   14.82515110
_cell_angle_alpha   90.00000000
_cell_angle_beta   125.47515194
_cell_angle_gamma   90.00000000
_symmetry_Int_Tables_number   1
_chemical_formula_structural   Li2V2(PO4)3
_chemical_formula_sum   'Li8 V8 P12 O48'
_cell_volume   904.33222847
_cell_formula_units_Z   4
loop_
 _symmetry_equiv_pos_site_id
 _symmetry_equiv_pos_as_xyz
  1  'x, y, z'
loop_
 _atom_site_type_symbol
 _atom_site_label
 _atom_site_symmetry_multiplicity
 _atom_site_fract_x
 _atom_site_fract_y
 _atom_site_fract_z
 _atom_site_occupancy
  Li  Li0  1  0.60316800  0.77720200  0.81585900  1
  Li  Li1  1  0.96361800  0.72207200  0.18395200  1
  Li  Li2  1  0.03638200  0.22207200  0.31604800  1
  Li  Li3  1  0.39683200  0.27720200  0.68414100  1
  Li  Li4  1  0.60316800  0.72279800  0.31585900  1
  Li  Li5  1  0.96361800  0.77792800  0.68395200  1
  Li  Li6  1  0.03638200  0.27792800  0.81604800  1
  Li  Li7  1  0.39683200  0.22279800  0.18414100  1
  V  V8  1  0.14090400  0.53503200  0.38709900  1
  V  V9  1  0.36669100  0.96396300  0.61290700  1
  V  V10  1  0.85909600  0.03503200  0.11290100  1
  V  V11  1  0.63330900  0.46396300  0.88709300  1
  V  V12  1  0.36669100  0.53603700  0.11290700  1
  V  V13  1  0.14090400  0.96496800  0.88709900  1
  V  V14  1  0.63330900  0.03603700  0.38709300  1
  V  V15  1  0.85909600  0.46496800  0.61290100  1
  P  P16  1  0.46348700  0.24981000  0.50079400  1
  P  P17  1  0.04022700  0.39483900  0.14555400  1
  P  P18  1  0.74883500  0.10519900  0.85422100  1
  P  P19  1  0.25116500  0.60519900  0.64577900  1
  P  P20  1  0.95977300  0.89483900  0.35444600  1
  P  P21  1  0.53651300  0.74981000  0.99920600  1
  P  P22  1  0.46348700  0.25019000  0.00079400  1
  P  P23  1  0.04022700  0.10516100  0.64555400  1
  P  P24  1  0.74883500  0.39480100  0.35422100  1
  P  P25  1  0.25116500  0.89480100  0.14577900  1
  P  P26  1  0.95977300  0.60516100  0.85444600  1
  P  P27  1  0.53651300  0.75019000  0.49920600  1
  O  O28  1  0.36645200  0.64107700  0.42865000  1
  O  O29  1  0.50378400  0.86397400  0.56589200  1
  O  O30  1  0.07723100  0.89347200  0.15171200  1
  O  O31  1  0.76871700  0.59919800  0.84260300  1
  O  O32  1  0.27688300  0.33738800  0.41644200  1
  O  O33  1  0.87266600  0.44146900  0.02825100  1
  O  O34  1  0.01477500  0.22983800  0.17402200  1
  O  O35  1  0.43151100  0.16579500  0.58064500  1
  O  O36  1  0.59993400  0.98628100  0.76936400  1
  O  O37  1  0.80744800  0.05406300  0.96928600  1
  O  O38  1  0.65925600  0.26760100  0.82487800  1
  O  O39  1  0.04830500  0.51170800  0.22770800  1
  O  O40  1  0.95169500  0.01170800  0.27229200  1
  O  O41  1  0.34074400  0.76760100  0.67512200  1
  O  O42  1  0.19255200  0.55406300  0.53071400  1
  O  O43  1  0.40006600  0.48628100  0.73063600  1
  O  O44  1  0.56848900  0.66579500  0.91935500  1
  O  O45  1  0.98522500  0.72983800  0.32597800  1
  O  O46  1  0.12733400  0.94146900  0.47174900  1
  O  O47  1  0.72311700  0.83738800  0.08355800  1
  O  O48  1  0.23128300  0.09919800  0.65739700  1
  O  O49  1  0.92276900  0.39347200  0.34828800  1
  O  O50  1  0.49621600  0.36397400  0.93410800  1
  O  O51  1  0.63354800  0.14107700  0.07135000  1
  O  O52  1  0.36645200  0.85892300  0.92865000  1
  O  O53  1  0.50378400  0.63602600  0.06589200  1
  O  O54  1  0.07723100  0.60652800  0.65171200  1
  O  O55  1  0.76871700  0.90080200  0.34260300  1
  O  O56  1  0.27688300  0.16261200  0.91644200  1
  O  O57  1  0.87266600  0.05853100  0.52825100  1
  O  O58  1  0.01477500  0.27016200  0.67402200  1
  O  O59  1  0.43151100  0.33420500  0.08064500  1
  O  O60  1  0.59993400  0.51371900  0.26936400  1
  O  O61  1  0.80744800  0.44593700  0.46928600  1
  O  O62  1  0.65925600  0.23239900  0.32487800  1
  O  O63  1  0.04830500  0.98829200  0.72770800  1
  O  O64  1  0.95169500  0.48829200  0.77229200  1
  O  O65  1  0.34074400  0.73239900  0.17512200  1
  O  O66  1  0.19255200  0.94593700  0.03071400  1
  O  O67  1  0.40006600  0.01371900  0.23063600  1
  O  O68  1  0.56848900  0.83420500  0.41935500  1
  O  O69  1  0.98522500  0.77016200  0.82597800  1
  O  O70  1  0.12733400  0.55853100  0.97174900  1
  O  O71  1  0.72311700  0.66261200  0.58355800  1
  O  O72  1  0.23128300  0.40080200  0.15739700  1
  O  O73  1  0.92276900  0.10652800  0.84828800  1
  O  O74  1  0.49621600  0.13602600  0.43410800  1
  O  O75  1  0.63354800  0.35892300  0.57135000  1
