# generated using pymatgen
data_LiCoP2O7
_symmetry_space_group_name_H-M   'P 1'
_cell_length_a   8.53088400
_cell_length_b   5.09525400
_cell_length_c   13.66711766
_cell_angle_alpha   90.00000000
_cell_angle_beta   116.10011951
_cell_angle_gamma   90.00000000
_symmetry_Int_Tables_number   1
_chemical_formula_structural   LiCoP2O7
_chemical_formula_sum   'Li4 Co4 P8 O28'
_cell_volume   533.48969820
_cell_formula_units_Z   4
loop_
 _symmetry_equiv_pos_site_id
 _symmetry_equiv_pos_as_xyz
  1  'x, y, z'
loop_
 _atom_site_type_symbol
 _atom_site_label
 _atom_site_symmetry_multiplicity
 _atom_site_fract_x
 _atom_site_fract_y
 _atom_site_fract_z
 _atom_site_occupancy
  Li  Li0  1  0.93565100  0.51281800  0.31198400  1
  Li  Li1  1  0.50271500  0.02893100  0.91561700  1
  Li  Li2  1  0.93565100  0.48718200  0.81198400  1
  Li  Li3  1  0.50271500  0.97106900  0.41561700  1
  Co  Co4  1  0.22923200  0.98662900  0.98013500  1
  Co  Co5  1  0.22923200  0.01337100  0.48013500  1
  Co  Co6  1  0.76686900  0.48811500  0.53193100  1
  Co  Co7  1  0.76686900  0.51188500  0.03193100  1
  P  P8  1  0.32821200  0.48706200  0.36119900  1
  P  P9  1  0.67486000  0.99953300  0.64434800  1
  P  P10  1  0.19085300  0.51462600  0.61615800  1
  P  P11  1  0.32821200  0.51293800  0.86119900  1
  P  P12  1  0.19085300  0.48537400  0.11615800  1
  P  P13  1  0.67486000  0.00046700  0.14434800  1
  P  P14  1  0.80995200  0.00099000  0.88278800  1
  P  P15  1  0.80995200  0.99901000  0.38278800  1
  O  O16  1  0.79557700  0.79137100  0.63280400  1
  O  O17  1  0.51640400  0.42245600  0.93441500  1
  O  O18  1  0.82482900  0.29610300  0.90481100  1
  O  O19  1  0.72458200  0.85540900  0.94543100  1
  O  O20  1  0.26932300  0.66129000  0.05935500  1
  O  O21  1  0.19399200  0.19598100  0.08525500  1
  O  O22  1  0.48991400  0.03474200  0.05602400  1
  O  O23  1  0.79557700  0.20862900  0.13280400  1
  O  O24  1  0.74667900  0.71911400  0.15267300  1
  O  O25  1  0.01206800  0.57059000  0.10453000  1
  O  O26  1  0.32381200  0.52249500  0.24211000  1
  O  O27  1  0.66383600  0.04979700  0.25765900  1
  O  O28  1  0.51640400  0.57754400  0.43441500  1
  O  O29  1  0.82482900  0.70389700  0.40481100  1
  O  O30  1  0.97733100  0.12645500  0.38840500  1
  O  O31  1  0.19154000  0.33422600  0.87112400  1
  O  O32  1  0.19154000  0.66577400  0.37112400  1
  O  O33  1  0.29479100  0.19325000  0.36822900  1
  O  O34  1  0.72458200  0.14459100  0.44543100  1
  O  O35  1  0.74667900  0.28088600  0.65267300  1
  O  O36  1  0.26932300  0.33871000  0.55935500  1
  O  O37  1  0.01206800  0.42941000  0.60453000  1
  O  O38  1  0.19399200  0.80401900  0.58525500  1
  O  O39  1  0.48991400  0.96525800  0.55602400  1
  O  O40  1  0.32381200  0.47750500  0.74211000  1
  O  O41  1  0.66383600  0.95020300  0.75765900  1
  O  O42  1  0.97733100  0.87354500  0.88840500  1
  O  O43  1  0.29479100  0.80675000  0.86822900  1
