# generated using pymatgen
data_Zr3Ti2Ga3
_symmetry_space_group_name_H-M   'P 1'
_cell_length_a   7.96150792
_cell_length_b   7.96150792
_cell_length_c   5.49760200
_cell_angle_alpha   90.00000000
_cell_angle_beta   90.00000000
_cell_angle_gamma   120.00000000
_symmetry_Int_Tables_number   1
_chemical_formula_structural   Zr3Ti2Ga3
_chemical_formula_sum   'Zr6 Ti4 Ga6'
_cell_volume   301.78287432
_cell_formula_units_Z   2
loop_
 _symmetry_equiv_pos_site_id
 _symmetry_equiv_pos_as_xyz
  1  'x, y, z'
loop_
 _atom_site_type_symbol
 _atom_site_label
 _atom_site_symmetry_multiplicity
 _atom_site_fract_x
 _atom_site_fract_y
 _atom_site_fract_z
 _atom_site_occupancy
  Zr  Zr0  1  0.00000000  0.75717850  0.75000000  1
  Zr  Zr1  1  0.24282150  0.00000000  0.25000000  1
  Zr  Zr2  1  0.75717850  0.75717850  0.25000000  1
  Zr  Zr3  1  0.24282150  0.24282150  0.75000000  1
  Zr  Zr4  1  0.75717850  0.00000000  0.75000000  1
  Zr  Zr5  1  0.00000000  0.24282150  0.25000000  1
  Ti  Ti6  1  0.33333333  0.66666667  0.50000000  1
  Ti  Ti7  1  0.66666667  0.33333333  0.00000000  1
  Ti  Ti8  1  0.33333333  0.66666667  0.00000000  1
  Ti  Ti9  1  0.66666667  0.33333333  0.50000000  1
  Ga  Ga10  1  0.00000000  0.40150050  0.75000000  1
  Ga  Ga11  1  0.00000000  0.59849950  0.25000000  1
  Ga  Ga12  1  0.59849950  0.59849950  0.75000000  1
  Ga  Ga13  1  0.40150050  0.40150050  0.25000000  1
  Ga  Ga14  1  0.59849950  0.00000000  0.25000000  1
  Ga  Ga15  1  0.40150050  0.00000000  0.75000000  1
