# generated using pymatgen
data_ZrUN2
_symmetry_space_group_name_H-M   'P 1'
_cell_length_a   4.73703000
_cell_length_b   4.73703000
_cell_length_c   9.46303600
_cell_angle_alpha   90.00000000
_cell_angle_beta   90.00000000
_cell_angle_gamma   90.00000000
_symmetry_Int_Tables_number   1
_chemical_formula_structural   ZrUN2
_chemical_formula_sum   'Zr4 U4 N8'
_cell_volume   212.34535365
_cell_formula_units_Z   4
loop_
 _symmetry_equiv_pos_site_id
 _symmetry_equiv_pos_as_xyz
  1  'x, y, z'
loop_
 _atom_site_type_symbol
 _atom_site_label
 _atom_site_symmetry_multiplicity
 _atom_site_fract_x
 _atom_site_fract_y
 _atom_site_fract_z
 _atom_site_occupancy
  Zr  Zr0  1  0.00000000  0.00000000  0.00000000  1
  Zr  Zr1  1  0.00000000  0.50000000  0.25000000  1
  Zr  Zr2  1  0.50000000  0.50000000  0.50000000  1
  Zr  Zr3  1  0.50000000  0.00000000  0.75000000  1
  U  U4  1  0.50000000  0.50000000  0.00000000  1
  U  U5  1  0.50000000  0.00000000  0.25000000  1
  U  U6  1  0.00000000  0.00000000  0.50000000  1
  U  U7  1  0.00000000  0.50000000  0.75000000  1
  N  N8  1  0.50000000  0.50000000  0.25303500  1
  N  N9  1  0.00000000  0.00000000  0.24696500  1
  N  N10  1  0.00000000  0.50000000  0.49696500  1
  N  N11  1  0.00000000  0.50000000  0.00303500  1
  N  N12  1  0.00000000  0.00000000  0.75303500  1
  N  N13  1  0.50000000  0.50000000  0.74696500  1
  N  N14  1  0.50000000  0.00000000  0.99696500  1
  N  N15  1  0.50000000  0.00000000  0.50303500  1
