# generated using pymatgen
data_LiV3(P3O10)2
_symmetry_space_group_name_H-M   'P 1'
_cell_length_a   10.26929000
_cell_length_b   13.34951200
_cell_length_c   12.28681200
_cell_angle_alpha   90.00000000
_cell_angle_beta   90.00000000
_cell_angle_gamma   90.00000000
_symmetry_Int_Tables_number   1
_chemical_formula_structural   LiV3(P3O10)2
_chemical_formula_sum   'Li4 V12 P24 O80'
_cell_volume   1684.39918101
_cell_formula_units_Z   4
loop_
 _symmetry_equiv_pos_site_id
 _symmetry_equiv_pos_as_xyz
  1  'x, y, z'
loop_
 _atom_site_type_symbol
 _atom_site_label
 _atom_site_symmetry_multiplicity
 _atom_site_fract_x
 _atom_site_fract_y
 _atom_site_fract_z
 _atom_site_occupancy
  Li  Li0  1  0.41594900  0.00000000  0.50000000  1
  Li  Li1  1  0.58405100  0.00000000  0.00000000  1
  Li  Li2  1  0.91594900  0.50000000  0.50000000  1
  Li  Li3  1  0.08405100  0.50000000  0.00000000  1
  V  V4  1  0.12726000  0.00000000  0.50000000  1
  V  V5  1  0.50000000  0.26353600  0.75000000  1
  V  V6  1  0.50000000  0.19842800  0.25000000  1
  V  V7  1  0.50000000  0.80157200  0.75000000  1
  V  V8  1  0.50000000  0.73646400  0.25000000  1
  V  V9  1  0.87274000  0.00000000  0.00000000  1
  V  V10  1  0.62726000  0.50000000  0.50000000  1
  V  V11  1  0.00000000  0.76353600  0.75000000  1
  V  V12  1  0.00000000  0.69842800  0.25000000  1
  V  V13  1  0.00000000  0.30157200  0.75000000  1
  V  V14  1  0.00000000  0.23646400  0.25000000  1
  V  V15  1  0.37274000  0.50000000  0.00000000  1
  P  P16  1  0.23031050  0.14251550  0.81468600  1
  P  P17  1  0.23031050  0.85748450  0.18531400  1
  P  P18  1  0.24188200  0.05824100  0.28036300  1
  P  P19  1  0.24188200  0.94175900  0.71963700  1
  P  P20  1  0.44253750  0.70714950  0.51425000  1
  P  P21  1  0.44253750  0.29285050  0.48575000  1
  P  P22  1  0.55746250  0.29285050  0.01425000  1
  P  P23  1  0.55746250  0.70714950  0.98575000  1
  P  P24  1  0.75811800  0.05824100  0.21963700  1
  P  P25  1  0.75811800  0.94175900  0.78036300  1
  P  P26  1  0.76968950  0.85748450  0.31468600  1
  P  P27  1  0.76968950  0.14251550  0.68531400  1
  P  P28  1  0.73031050  0.64251550  0.81468600  1
  P  P29  1  0.73031050  0.35748450  0.18531400  1
  P  P30  1  0.74188200  0.55824100  0.28036300  1
  P  P31  1  0.74188200  0.44175900  0.71963700  1
  P  P32  1  0.94253750  0.20714950  0.51425000  1
  P  P33  1  0.94253750  0.79285050  0.48575000  1
  P  P34  1  0.05746250  0.79285050  0.01425000  1
  P  P35  1  0.05746250  0.20714950  0.98575000  1
  P  P36  1  0.25811800  0.55824100  0.21963700  1
  P  P37  1  0.25811800  0.44175900  0.78036300  1
  P  P38  1  0.26968950  0.35748450  0.31468600  1
  P  P39  1  0.26968950  0.64251550  0.68531400  1
  O  O40  1  0.13106200  0.13060600  0.29673400  1
  O  O41  1  0.13106200  0.86939400  0.70326600  1
  O  O42  1  0.18901450  0.02685450  0.80277300  1
  O  O43  1  0.18901450  0.97314550  0.19722700  1
  O  O44  1  0.19729150  0.16399050  0.94021100  1
  O  O45  1  0.19729150  0.83600950  0.05978900  1
  O  O46  1  0.26904350  0.99367050  0.60666800  1
  O  O47  1  0.26904350  0.00632950  0.39333200  1
  O  O48  1  0.35973550  0.29959450  0.24084800  1
  O  O49  1  0.35973550  0.70040550  0.75915200  1
  O  O50  1  0.36772450  0.90605350  0.77005900  1
  O  O51  1  0.36772450  0.09394650  0.22994100  1
  O  O52  1  0.37479300  0.84718200  0.20180200  1
  O  O53  1  0.37479300  0.15281800  0.79819800  1
  O  O54  1  0.41768500  0.26895000  0.60422200  1
  O  O55  1  0.41768500  0.73105000  0.39577800  1
  O  O56  1  0.46400700  0.38266900  0.03224600  1
  O  O57  1  0.46400700  0.61733100  0.96775400  1
  O  O58  1  0.47755650  0.79867950  0.58199400  1
  O  O59  1  0.47755650  0.20132050  0.41800600  1
  O  O60  1  0.52244350  0.20132050  0.08199400  1
  O  O61  1  0.52244350  0.79867950  0.91800600  1
  O  O62  1  0.53599300  0.61733100  0.53224600  1
  O  O63  1  0.53599300  0.38266900  0.46775400  1
  O  O64  1  0.58231500  0.73105000  0.10422200  1
  O  O65  1  0.58231500  0.26895000  0.89577800  1
  O  O66  1  0.62520700  0.15281800  0.70180200  1
  O  O67  1  0.62520700  0.84718200  0.29819800  1
  O  O68  1  0.63227550  0.09394650  0.27005900  1
  O  O69  1  0.63227550  0.90605350  0.72994100  1
  O  O70  1  0.64026450  0.29959450  0.25915200  1
  O  O71  1  0.64026450  0.70040550  0.74084800  1
  O  O72  1  0.73095650  0.00632950  0.10666800  1
  O  O73  1  0.73095650  0.99367050  0.89333200  1
  O  O74  1  0.80270850  0.16399050  0.55978900  1
  O  O75  1  0.80270850  0.83600950  0.44021100  1
  O  O76  1  0.81098550  0.97314550  0.30277300  1
  O  O77  1  0.81098550  0.02685450  0.69722700  1
  O  O78  1  0.86893800  0.13060600  0.20326600  1
  O  O79  1  0.86893800  0.86939400  0.79673400  1
  O  O80  1  0.63106200  0.63060600  0.29673400  1
  O  O81  1  0.63106200  0.36939400  0.70326600  1
  O  O82  1  0.68901450  0.52685450  0.80277300  1
  O  O83  1  0.68901450  0.47314550  0.19722700  1
  O  O84  1  0.69729150  0.66399050  0.94021100  1
  O  O85  1  0.69729150  0.33600950  0.05978900  1
  O  O86  1  0.76904350  0.49367050  0.60666800  1
  O  O87  1  0.76904350  0.50632950  0.39333200  1
  O  O88  1  0.85973550  0.79959450  0.24084800  1
  O  O89  1  0.85973550  0.20040550  0.75915200  1
  O  O90  1  0.86772450  0.40605350  0.77005900  1
  O  O91  1  0.86772450  0.59394650  0.22994100  1
  O  O92  1  0.87479300  0.34718200  0.20180200  1
  O  O93  1  0.87479300  0.65281800  0.79819800  1
  O  O94  1  0.91768500  0.76895000  0.60422200  1
  O  O95  1  0.91768500  0.23105000  0.39577800  1
  O  O96  1  0.96400700  0.88266900  0.03224600  1
  O  O97  1  0.96400700  0.11733100  0.96775400  1
  O  O98  1  0.97755650  0.29867950  0.58199400  1
  O  O99  1  0.97755650  0.70132050  0.41800600  1
  O  O100  1  0.02244350  0.70132050  0.08199400  1
  O  O101  1  0.02244350  0.29867950  0.91800600  1
  O  O102  1  0.03599300  0.11733100  0.53224600  1
  O  O103  1  0.03599300  0.88266900  0.46775400  1
  O  O104  1  0.08231500  0.23105000  0.10422200  1
  O  O105  1  0.08231500  0.76895000  0.89577800  1
  O  O106  1  0.12520700  0.65281800  0.70180200  1
  O  O107  1  0.12520700  0.34718200  0.29819800  1
  O  O108  1  0.13227550  0.59394650  0.27005900  1
  O  O109  1  0.13227550  0.40605350  0.72994100  1
  O  O110  1  0.14026450  0.79959450  0.25915200  1
  O  O111  1  0.14026450  0.20040550  0.74084800  1
  O  O112  1  0.23095650  0.50632950  0.10666800  1
  O  O113  1  0.23095650  0.49367050  0.89333200  1
  O  O114  1  0.30270850  0.66399050  0.55978900  1
  O  O115  1  0.30270850  0.33600950  0.44021100  1
  O  O116  1  0.31098550  0.47314550  0.30277300  1
  O  O117  1  0.31098550  0.52685450  0.69722700  1
  O  O118  1  0.36893800  0.63060600  0.20326600  1
  O  O119  1  0.36893800  0.36939400  0.79673400  1
