# generated using pymatgen
data_Dy2Zn17
_symmetry_space_group_name_H-M   'P 1'
_cell_length_a   8.96781457
_cell_length_b   8.96781457
_cell_length_c   13.22359220
_cell_angle_alpha   90.00000000
_cell_angle_beta   90.00000000
_cell_angle_gamma   120.00000000
_symmetry_Int_Tables_number   1
_chemical_formula_structural   Dy2Zn17
_chemical_formula_sum   'Dy6 Zn51'
_cell_volume   920.98661595
_cell_formula_units_Z   3
loop_
 _symmetry_equiv_pos_site_id
 _symmetry_equiv_pos_as_xyz
  1  'x, y, z'
loop_
 _atom_site_type_symbol
 _atom_site_label
 _atom_site_symmetry_multiplicity
 _atom_site_fract_x
 _atom_site_fract_y
 _atom_site_fract_z
 _atom_site_occupancy
  Dy  Dy0  1  0.33333333  0.66666667  0.33178967  1
  Dy  Dy1  1  0.33333333  0.66666667  0.00154367  1
  Dy  Dy2  1  0.00000000  0.00000000  0.66512300  1
  Dy  Dy3  1  0.00000000  0.00000000  0.33487700  1
  Dy  Dy4  1  0.66666667  0.33333333  0.99845633  1
  Dy  Dy5  1  0.66666667  0.33333333  0.66821033  1
  Zn  Zn6  1  0.17126267  0.82873733  0.18059733  1
  Zn  Zn7  1  0.17126267  0.34252533  0.18059733  1
  Zn  Zn8  1  0.33333333  0.66666667  0.76661667  1
  Zn  Zn9  1  0.33333333  0.66666667  0.56671667  1
  Zn  Zn10  1  0.16666667  0.83333333  0.83333333  1
  Zn  Zn11  1  0.33333333  0.16666667  0.16666667  1
  Zn  Zn12  1  0.83333333  0.66666667  0.16666667  1
  Zn  Zn13  1  0.36918067  0.03584733  0.33333333  1
  Zn  Zn14  1  0.00000000  0.29748600  0.00000000  1
  Zn  Zn15  1  0.29748600  1.00000000  0.00000000  1
  Zn  Zn16  1  0.96415267  0.63081933  0.33333333  1
  Zn  Zn17  1  0.00000000  0.70251400  0.00000000  1
  Zn  Zn18  1  0.70251400  1.00000000  0.00000000  1
  Zn  Zn19  1  0.49540400  0.99080800  0.15273600  1
  Zn  Zn20  1  0.49540400  0.50459600  0.15273600  1
  Zn  Zn21  1  0.00919200  0.50459600  0.15273600  1
  Zn  Zn22  1  0.65747467  0.82873733  0.18059733  1
  Zn  Zn23  1  0.83792933  0.16207067  0.51393067  1
  Zn  Zn24  1  0.83792933  0.67585867  0.51393067  1
  Zn  Zn25  1  0.00000000  0.00000000  0.09995000  1
  Zn  Zn26  1  0.00000000  0.00000000  0.90005000  1
  Zn  Zn27  1  0.83333333  0.16666667  0.16666667  1
  Zn  Zn28  1  0.00000000  0.50000000  0.50000000  1
  Zn  Zn29  1  0.50000000  0.00000000  0.50000000  1
  Zn  Zn30  1  0.03584733  0.36918067  0.66666667  1
  Zn  Zn31  1  0.66666667  0.63081933  0.33333333  1
  Zn  Zn32  1  0.96415267  0.33333333  0.33333333  1
  Zn  Zn33  1  0.63081933  0.96415267  0.66666667  1
  Zn  Zn34  1  0.66666667  0.03584733  0.33333333  1
  Zn  Zn35  1  0.36918067  0.33333333  0.33333333  1
  Zn  Zn36  1  0.16207067  0.32414133  0.48606933  1
  Zn  Zn37  1  0.16207067  0.83792933  0.48606933  1
  Zn  Zn38  1  0.67585867  0.83792933  0.48606933  1
  Zn  Zn39  1  0.32414133  0.16207067  0.51393067  1
  Zn  Zn40  1  0.50459600  0.49540400  0.84726400  1
  Zn  Zn41  1  0.50459600  0.00919200  0.84726400  1
  Zn  Zn42  1  0.66666667  0.33333333  0.43328333  1
  Zn  Zn43  1  0.66666667  0.33333333  0.23338333  1
  Zn  Zn44  1  0.50000000  0.50000000  0.50000000  1
  Zn  Zn45  1  0.66666667  0.83333333  0.83333333  1
  Zn  Zn46  1  0.16666667  0.33333333  0.83333333  1
  Zn  Zn47  1  0.70251400  0.70251400  0.00000000  1
  Zn  Zn48  1  0.33333333  0.96415267  0.66666667  1
  Zn  Zn49  1  0.63081933  0.66666667  0.66666667  1
  Zn  Zn50  1  0.29748600  0.29748600  0.00000000  1
  Zn  Zn51  1  0.33333333  0.36918067  0.66666667  1
  Zn  Zn52  1  0.03584733  0.66666667  0.66666667  1
  Zn  Zn53  1  0.82873733  0.65747467  0.81940267  1
  Zn  Zn54  1  0.82873733  0.17126267  0.81940267  1
  Zn  Zn55  1  0.34252533  0.17126267  0.81940267  1
  Zn  Zn56  1  0.99080800  0.49540400  0.84726400  1
