# generated using pymatgen
data_Ca11Ga7
_symmetry_space_group_name_H-M   'P 1'
_cell_length_a   16.11453800
_cell_length_b   16.11453800
_cell_length_c   16.11453800
_cell_angle_alpha   90.00000000
_cell_angle_beta   90.00000000
_cell_angle_gamma   90.00000000
_symmetry_Int_Tables_number   1
_chemical_formula_structural   Ca11Ga7
_chemical_formula_sum   'Ca88 Ga56'
_cell_volume   4184.59639638
_cell_formula_units_Z   8
loop_
 _symmetry_equiv_pos_site_id
 _symmetry_equiv_pos_as_xyz
  1  'x, y, z'
loop_
 _atom_site_type_symbol
 _atom_site_label
 _atom_site_symmetry_multiplicity
 _atom_site_fract_x
 _atom_site_fract_y
 _atom_site_fract_z
 _atom_site_occupancy
  Ca  Ca0  1  0.00000000  0.00000000  0.00000000  1
  Ca  Ca1  1  0.50000000  0.00000000  0.00000000  1
  Ca  Ca2  1  0.12960900  0.62960900  0.62960900  1
  Ca  Ca3  1  0.37039100  0.12960900  0.62960900  1
  Ca  Ca4  1  0.12960900  0.37039100  0.62960900  1
  Ca  Ca5  1  0.12960900  0.12960900  0.87039100  1
  Ca  Ca6  1  0.37039100  0.62960900  0.87039100  1
  Ca  Ca7  1  0.37039100  0.87039100  0.62960900  1
  Ca  Ca8  1  0.12960900  0.87039100  0.87039100  1
  Ca  Ca9  1  0.37039100  0.37039100  0.87039100  1
  Ca  Ca10  1  0.16747150  0.00000000  0.66747150  1
  Ca  Ca11  1  0.00000000  0.16747150  0.66747150  1
  Ca  Ca12  1  0.00000000  0.83252850  0.66747150  1
  Ca  Ca13  1  0.66747150  0.00000000  0.83252850  1
  Ca  Ca14  1  0.83252850  0.00000000  0.66747150  1
  Ca  Ca15  1  0.66747150  0.16747150  0.00000000  1
  Ca  Ca16  1  0.66747150  0.83252850  0.00000000  1
  Ca  Ca17  1  0.50000000  0.16747150  0.83252850  1
  Ca  Ca18  1  0.33252850  0.83252850  0.00000000  1
  Ca  Ca19  1  0.33252850  0.16747150  0.00000000  1
  Ca  Ca20  1  0.50000000  0.83252850  0.83252850  1
  Ca  Ca21  1  0.33252850  0.00000000  0.83252850  1
  Ca  Ca22  1  0.00000000  0.50000000  0.50000000  1
  Ca  Ca23  1  0.50000000  0.50000000  0.50000000  1
  Ca  Ca24  1  0.12960900  0.12960900  0.12960900  1
  Ca  Ca25  1  0.37039100  0.62960900  0.12960900  1
  Ca  Ca26  1  0.12960900  0.87039100  0.12960900  1
  Ca  Ca27  1  0.12960900  0.62960900  0.37039100  1
  Ca  Ca28  1  0.37039100  0.12960900  0.37039100  1
  Ca  Ca29  1  0.37039100  0.37039100  0.12960900  1
  Ca  Ca30  1  0.12960900  0.37039100  0.37039100  1
  Ca  Ca31  1  0.37039100  0.87039100  0.37039100  1
  Ca  Ca32  1  0.16747150  0.50000000  0.16747150  1
  Ca  Ca33  1  0.00000000  0.66747150  0.16747150  1
  Ca  Ca34  1  0.00000000  0.33252850  0.16747150  1
  Ca  Ca35  1  0.66747150  0.50000000  0.33252850  1
  Ca  Ca36  1  0.83252850  0.50000000  0.16747150  1
  Ca  Ca37  1  0.66747150  0.66747150  0.50000000  1
  Ca  Ca38  1  0.66747150  0.33252850  0.50000000  1
  Ca  Ca39  1  0.50000000  0.66747150  0.33252850  1
  Ca  Ca40  1  0.33252850  0.33252850  0.50000000  1
  Ca  Ca41  1  0.33252850  0.66747150  0.50000000  1
  Ca  Ca42  1  0.50000000  0.33252850  0.33252850  1
  Ca  Ca43  1  0.33252850  0.50000000  0.33252850  1
  Ca  Ca44  1  0.50000000  0.00000000  0.50000000  1
  Ca  Ca45  1  0.00000000  0.00000000  0.50000000  1
  Ca  Ca46  1  0.62960900  0.62960900  0.12960900  1
  Ca  Ca47  1  0.87039100  0.12960900  0.12960900  1
  Ca  Ca48  1  0.62960900  0.37039100  0.12960900  1
  Ca  Ca49  1  0.62960900  0.12960900  0.37039100  1
  Ca  Ca50  1  0.87039100  0.62960900  0.37039100  1
  Ca  Ca51  1  0.87039100  0.87039100  0.12960900  1
  Ca  Ca52  1  0.62960900  0.87039100  0.37039100  1
  Ca  Ca53  1  0.87039100  0.37039100  0.37039100  1
  Ca  Ca54  1  0.66747150  0.00000000  0.16747150  1
  Ca  Ca55  1  0.50000000  0.16747150  0.16747150  1
  Ca  Ca56  1  0.50000000  0.83252850  0.16747150  1
  Ca  Ca57  1  0.16747150  0.00000000  0.33252850  1
  Ca  Ca58  1  0.33252850  0.00000000  0.16747150  1
  Ca  Ca59  1  0.16747150  0.16747150  0.50000000  1
  Ca  Ca60  1  0.16747150  0.83252850  0.50000000  1
  Ca  Ca61  1  0.00000000  0.16747150  0.33252850  1
  Ca  Ca62  1  0.83252850  0.83252850  0.50000000  1
  Ca  Ca63  1  0.83252850  0.16747150  0.50000000  1
  Ca  Ca64  1  0.00000000  0.83252850  0.33252850  1
  Ca  Ca65  1  0.83252850  0.00000000  0.33252850  1
  Ca  Ca66  1  0.50000000  0.50000000  0.00000000  1
  Ca  Ca67  1  0.00000000  0.50000000  0.00000000  1
  Ca  Ca68  1  0.62960900  0.12960900  0.62960900  1
  Ca  Ca69  1  0.87039100  0.62960900  0.62960900  1
  Ca  Ca70  1  0.62960900  0.87039100  0.62960900  1
  Ca  Ca71  1  0.62960900  0.62960900  0.87039100  1
  Ca  Ca72  1  0.87039100  0.12960900  0.87039100  1
  Ca  Ca73  1  0.87039100  0.37039100  0.62960900  1
  Ca  Ca74  1  0.62960900  0.37039100  0.87039100  1
  Ca  Ca75  1  0.87039100  0.87039100  0.87039100  1
  Ca  Ca76  1  0.66747150  0.50000000  0.66747150  1
  Ca  Ca77  1  0.50000000  0.66747150  0.66747150  1
  Ca  Ca78  1  0.50000000  0.33252850  0.66747150  1
  Ca  Ca79  1  0.16747150  0.50000000  0.83252850  1
  Ca  Ca80  1  0.33252850  0.50000000  0.66747150  1
  Ca  Ca81  1  0.16747150  0.66747150  0.00000000  1
  Ca  Ca82  1  0.16747150  0.33252850  0.00000000  1
  Ca  Ca83  1  0.00000000  0.66747150  0.83252850  1
  Ca  Ca84  1  0.83252850  0.33252850  0.00000000  1
  Ca  Ca85  1  0.83252850  0.66747150  0.00000000  1
  Ca  Ca86  1  0.00000000  0.33252850  0.83252850  1
  Ca  Ca87  1  0.83252850  0.50000000  0.83252850  1
  Ga  Ga88  1  0.50000000  0.71916800  0.00000000  1
  Ga  Ga89  1  0.78083200  0.00000000  0.00000000  1
  Ga  Ga90  1  0.21916800  0.00000000  0.00000000  1
  Ga  Ga91  1  0.00000000  0.00000000  0.78083200  1
  Ga  Ga92  1  0.50000000  0.00000000  0.71916800  1
  Ga  Ga93  1  0.50000000  0.28083200  0.00000000  1
  Ga  Ga94  1  0.30938733  0.80938733  0.80938733  1
  Ga  Ga95  1  0.19061267  0.30938733  0.80938733  1
  Ga  Ga96  1  0.30938733  0.19061267  0.80938733  1
  Ga  Ga97  1  0.30938733  0.30938733  0.69061267  1
  Ga  Ga98  1  0.19061267  0.80938733  0.69061267  1
  Ga  Ga99  1  0.19061267  0.69061267  0.80938733  1
  Ga  Ga100  1  0.30938733  0.69061267  0.69061267  1
  Ga  Ga101  1  0.19061267  0.19061267  0.69061267  1
  Ga  Ga102  1  0.50000000  0.21916800  0.50000000  1
  Ga  Ga103  1  0.78083200  0.50000000  0.50000000  1
  Ga  Ga104  1  0.21916800  0.50000000  0.50000000  1
  Ga  Ga105  1  0.00000000  0.50000000  0.28083200  1
  Ga  Ga106  1  0.50000000  0.50000000  0.21916800  1
  Ga  Ga107  1  0.50000000  0.78083200  0.50000000  1
  Ga  Ga108  1  0.30938733  0.30938733  0.30938733  1
  Ga  Ga109  1  0.19061267  0.80938733  0.30938733  1
  Ga  Ga110  1  0.30938733  0.69061267  0.30938733  1
  Ga  Ga111  1  0.30938733  0.80938733  0.19061267  1
  Ga  Ga112  1  0.19061267  0.30938733  0.19061267  1
  Ga  Ga113  1  0.19061267  0.19061267  0.30938733  1
  Ga  Ga114  1  0.30938733  0.19061267  0.19061267  1
  Ga  Ga115  1  0.19061267  0.69061267  0.19061267  1
  Ga  Ga116  1  0.00000000  0.71916800  0.50000000  1
  Ga  Ga117  1  0.28083200  0.00000000  0.50000000  1
  Ga  Ga118  1  0.71916800  0.00000000  0.50000000  1
  Ga  Ga119  1  0.50000000  0.00000000  0.28083200  1
  Ga  Ga120  1  0.00000000  0.00000000  0.21916800  1
  Ga  Ga121  1  0.00000000  0.28083200  0.50000000  1
  Ga  Ga122  1  0.80938733  0.80938733  0.30938733  1
  Ga  Ga123  1  0.69061267  0.30938733  0.30938733  1
  Ga  Ga124  1  0.80938733  0.19061267  0.30938733  1
  Ga  Ga125  1  0.80938733  0.30938733  0.19061267  1
  Ga  Ga126  1  0.69061267  0.80938733  0.19061267  1
  Ga  Ga127  1  0.69061267  0.69061267  0.30938733  1
  Ga  Ga128  1  0.80938733  0.69061267  0.19061267  1
  Ga  Ga129  1  0.69061267  0.19061267  0.19061267  1
  Ga  Ga130  1  0.00000000  0.21916800  0.00000000  1
  Ga  Ga131  1  0.28083200  0.50000000  0.00000000  1
  Ga  Ga132  1  0.71916800  0.50000000  0.00000000  1
  Ga  Ga133  1  0.50000000  0.50000000  0.78083200  1
  Ga  Ga134  1  0.00000000  0.50000000  0.71916800  1
  Ga  Ga135  1  0.00000000  0.78083200  0.00000000  1
  Ga  Ga136  1  0.80938733  0.30938733  0.80938733  1
  Ga  Ga137  1  0.69061267  0.80938733  0.80938733  1
  Ga  Ga138  1  0.80938733  0.69061267  0.80938733  1
  Ga  Ga139  1  0.80938733  0.80938733  0.69061267  1
  Ga  Ga140  1  0.69061267  0.30938733  0.69061267  1
  Ga  Ga141  1  0.69061267  0.19061267  0.80938733  1
  Ga  Ga142  1  0.80938733  0.19061267  0.69061267  1
  Ga  Ga143  1  0.69061267  0.69061267  0.69061267  1
