# generated using pymatgen
data_Co(PO3)4
_symmetry_space_group_name_H-M   'P 1'
_cell_length_a   5.19367100
_cell_length_b   13.63465300
_cell_length_c   7.20428569
_cell_angle_alpha   90.00000000
_cell_angle_beta   97.57119806
_cell_angle_gamma   90.00000000
_symmetry_Int_Tables_number   1
_chemical_formula_structural   Co(PO3)4
_chemical_formula_sum   'Co2 P8 O24'
_cell_volume   505.71592238
_cell_formula_units_Z   2
loop_
 _symmetry_equiv_pos_site_id
 _symmetry_equiv_pos_as_xyz
  1  'x, y, z'
loop_
 _atom_site_type_symbol
 _atom_site_label
 _atom_site_symmetry_multiplicity
 _atom_site_fract_x
 _atom_site_fract_y
 _atom_site_fract_z
 _atom_site_occupancy
  Co  Co0  1  0.51593500  0.76366200  0.50754900  1
  Co  Co1  1  0.48406500  0.26366200  0.49245100  1
  P  P2  1  0.85631000  0.83235300  0.89770000  1
  P  P3  1  0.21385700  0.67728500  0.11351900  1
  P  P4  1  0.00325700  0.62287700  0.46049000  1
  P  P5  1  0.97652500  0.40207400  0.45605200  1
  P  P6  1  0.14369000  0.33235300  0.10230000  1
  P  P7  1  0.78614300  0.17728500  0.88648100  1
  P  P8  1  0.02347500  0.90207400  0.54394800  1
  P  P9  1  0.99674300  0.12287700  0.53951000  1
  O  O10  1  0.73335000  0.63832600  0.50738200  1
  O  O11  1  0.70702300  0.39020200  0.50669200  1
  O  O12  1  0.35647100  0.59723400  0.02467500  1
  O  O13  1  0.81391000  0.83550200  0.44703400  1
  O  O14  1  0.29297700  0.89020200  0.49330800  1
  O  O15  1  0.00024400  0.63394900  0.23590800  1
  O  O16  1  0.03325200  0.89328100  0.76809500  1
  O  O17  1  0.81575400  0.89153500  0.06498300  1
  O  O18  1  0.37771700  0.29030500  0.22500400  1
  O  O19  1  0.77827600  0.18366500  0.43705800  1
  O  O20  1  0.60247200  0.24598900  0.76659500  1
  O  O21  1  0.22172400  0.68366500  0.56294200  1
  O  O22  1  0.99975600  0.13394900  0.76409200  1
  O  O23  1  0.08338500  0.51087900  0.49851800  1
  O  O24  1  0.95701900  0.23896300  0.04295900  1
  O  O25  1  0.18609000  0.33550200  0.55296600  1
  O  O26  1  0.91661500  0.01087900  0.50148200  1
  O  O27  1  0.64352900  0.09723400  0.97532500  1
  O  O28  1  0.04298100  0.73896300  0.95704100  1
  O  O29  1  0.62228300  0.79030500  0.77499600  1
  O  O30  1  0.39752800  0.74598900  0.23340500  1
  O  O31  1  0.18424600  0.39153500  0.93501700  1
  O  O32  1  0.26665000  0.13832600  0.49261800  1
  O  O33  1  0.96674800  0.39328100  0.23190500  1
