# generated using pymatgen
data_BaBe13
_symmetry_space_group_name_H-M   'P 1'
_cell_length_a   10.60120000
_cell_length_b   10.60120000
_cell_length_c   10.60120000
_cell_angle_alpha   90.00000000
_cell_angle_beta   90.00000000
_cell_angle_gamma   90.00000000
_symmetry_Int_Tables_number   1
_chemical_formula_structural   BaBe13
_chemical_formula_sum   'Ba8 Be104'
_cell_volume   1191.42054179
_cell_formula_units_Z   8
loop_
 _symmetry_equiv_pos_site_id
 _symmetry_equiv_pos_as_xyz
  1  'x, y, z'
loop_
 _atom_site_type_symbol
 _atom_site_label
 _atom_site_symmetry_multiplicity
 _atom_site_fract_x
 _atom_site_fract_y
 _atom_site_fract_z
 _atom_site_occupancy
  Ba  Ba0  1  0.25000000  0.75000000  0.25000000  1
  Ba  Ba1  1  0.25000000  0.25000000  0.25000000  1
  Ba  Ba2  1  0.25000000  0.25000000  0.75000000  1
  Ba  Ba3  1  0.25000000  0.75000000  0.75000000  1
  Ba  Ba4  1  0.75000000  0.75000000  0.75000000  1
  Ba  Ba5  1  0.75000000  0.25000000  0.75000000  1
  Ba  Ba6  1  0.75000000  0.25000000  0.25000000  1
  Ba  Ba7  1  0.75000000  0.75000000  0.25000000  1
  Be  Be8  1  0.60787950  0.67429150  0.50000000  1
  Be  Be9  1  0.39212050  0.67429150  0.50000000  1
  Be  Be10  1  0.00000000  0.00000000  0.50000000  1
  Be  Be11  1  0.50000000  0.00000000  0.50000000  1
  Be  Be12  1  0.60787950  0.32570850  0.50000000  1
  Be  Be13  1  0.00000000  0.82570850  0.10787950  1
  Be  Be14  1  0.50000000  0.82570850  0.39212050  1
  Be  Be15  1  0.67429150  0.10787950  0.50000000  1
  Be  Be16  1  0.32570850  0.89212050  0.50000000  1
  Be  Be17  1  0.10787950  0.00000000  0.17429150  1
  Be  Be18  1  0.60787950  0.00000000  0.32570850  1
  Be  Be19  1  0.67429150  0.00000000  0.10787950  1
  Be  Be20  1  0.50000000  0.89212050  0.17429150  1
  Be  Be21  1  0.50000000  0.10787950  0.17429150  1
  Be  Be22  1  0.82570850  0.00000000  0.39212050  1
  Be  Be23  1  0.32570850  0.00000000  0.10787950  1
  Be  Be24  1  0.00000000  0.10787950  0.32570850  1
  Be  Be25  1  0.17429150  0.00000000  0.39212050  1
  Be  Be26  1  0.00000000  0.89212050  0.32570850  1
  Be  Be27  1  0.67429150  0.89212050  0.50000000  1
  Be  Be28  1  0.00000000  0.17429150  0.10787950  1
  Be  Be29  1  0.89212050  0.00000000  0.17429150  1
  Be  Be30  1  0.39212050  0.00000000  0.32570850  1
  Be  Be31  1  0.50000000  0.17429150  0.39212050  1
  Be  Be32  1  0.32570850  0.10787950  0.50000000  1
  Be  Be33  1  0.39212050  0.32570850  0.50000000  1
  Be  Be34  1  0.60787950  0.17429150  0.00000000  1
  Be  Be35  1  0.39212050  0.17429150  0.00000000  1
  Be  Be36  1  0.00000000  0.50000000  0.00000000  1
  Be  Be37  1  0.50000000  0.50000000  0.00000000  1
  Be  Be38  1  0.60787950  0.82570850  0.00000000  1
  Be  Be39  1  0.00000000  0.32570850  0.60787950  1
  Be  Be40  1  0.50000000  0.32570850  0.89212050  1
  Be  Be41  1  0.67429150  0.60787950  0.00000000  1
  Be  Be42  1  0.32570850  0.39212050  0.00000000  1
  Be  Be43  1  0.10787950  0.50000000  0.67429150  1
  Be  Be44  1  0.60787950  0.50000000  0.82570850  1
  Be  Be45  1  0.67429150  0.50000000  0.60787950  1
  Be  Be46  1  0.50000000  0.39212050  0.67429150  1
  Be  Be47  1  0.50000000  0.60787950  0.67429150  1
  Be  Be48  1  0.82570850  0.50000000  0.89212050  1
  Be  Be49  1  0.32570850  0.50000000  0.60787950  1
  Be  Be50  1  0.00000000  0.60787950  0.82570850  1
  Be  Be51  1  0.17429150  0.50000000  0.89212050  1
  Be  Be52  1  0.00000000  0.39212050  0.82570850  1
  Be  Be53  1  0.67429150  0.39212050  0.00000000  1
  Be  Be54  1  0.00000000  0.67429150  0.60787950  1
  Be  Be55  1  0.89212050  0.50000000  0.67429150  1
  Be  Be56  1  0.39212050  0.50000000  0.82570850  1
  Be  Be57  1  0.50000000  0.67429150  0.89212050  1
  Be  Be58  1  0.32570850  0.60787950  0.00000000  1
  Be  Be59  1  0.39212050  0.82570850  0.00000000  1
  Be  Be60  1  0.10787950  0.67429150  0.00000000  1
  Be  Be61  1  0.89212050  0.67429150  0.00000000  1
  Be  Be62  1  0.50000000  0.00000000  0.00000000  1
  Be  Be63  1  0.00000000  0.00000000  0.00000000  1
  Be  Be64  1  0.10787950  0.32570850  0.00000000  1
  Be  Be65  1  0.50000000  0.82570850  0.60787950  1
  Be  Be66  1  0.00000000  0.82570850  0.89212050  1
  Be  Be67  1  0.17429150  0.10787950  0.00000000  1
  Be  Be68  1  0.82570850  0.89212050  0.00000000  1
  Be  Be69  1  0.60787950  0.00000000  0.67429150  1
  Be  Be70  1  0.10787950  0.00000000  0.82570850  1
  Be  Be71  1  0.17429150  0.00000000  0.60787950  1
  Be  Be72  1  0.00000000  0.89212050  0.67429150  1
  Be  Be73  1  0.00000000  0.10787950  0.67429150  1
  Be  Be74  1  0.32570850  0.00000000  0.89212050  1
  Be  Be75  1  0.82570850  0.00000000  0.60787950  1
  Be  Be76  1  0.50000000  0.10787950  0.82570850  1
  Be  Be77  1  0.67429150  0.00000000  0.89212050  1
  Be  Be78  1  0.50000000  0.89212050  0.82570850  1
  Be  Be79  1  0.17429150  0.89212050  0.00000000  1
  Be  Be80  1  0.50000000  0.17429150  0.60787950  1
  Be  Be81  1  0.39212050  0.00000000  0.67429150  1
  Be  Be82  1  0.89212050  0.00000000  0.82570850  1
  Be  Be83  1  0.00000000  0.17429150  0.89212050  1
  Be  Be84  1  0.82570850  0.10787950  0.00000000  1
  Be  Be85  1  0.89212050  0.32570850  0.00000000  1
  Be  Be86  1  0.10787950  0.17429150  0.50000000  1
  Be  Be87  1  0.89212050  0.17429150  0.50000000  1
  Be  Be88  1  0.50000000  0.50000000  0.50000000  1
  Be  Be89  1  0.00000000  0.50000000  0.50000000  1
  Be  Be90  1  0.10787950  0.82570850  0.50000000  1
  Be  Be91  1  0.50000000  0.32570850  0.10787950  1
  Be  Be92  1  0.00000000  0.32570850  0.39212050  1
  Be  Be93  1  0.17429150  0.60787950  0.50000000  1
  Be  Be94  1  0.82570850  0.39212050  0.50000000  1
  Be  Be95  1  0.60787950  0.50000000  0.17429150  1
  Be  Be96  1  0.10787950  0.50000000  0.32570850  1
  Be  Be97  1  0.17429150  0.50000000  0.10787950  1
  Be  Be98  1  0.00000000  0.39212050  0.17429150  1
  Be  Be99  1  0.00000000  0.60787950  0.17429150  1
  Be  Be100  1  0.32570850  0.50000000  0.39212050  1
  Be  Be101  1  0.82570850  0.50000000  0.10787950  1
  Be  Be102  1  0.50000000  0.60787950  0.32570850  1
  Be  Be103  1  0.67429150  0.50000000  0.39212050  1
  Be  Be104  1  0.50000000  0.39212050  0.32570850  1
  Be  Be105  1  0.17429150  0.39212050  0.50000000  1
  Be  Be106  1  0.50000000  0.67429150  0.10787950  1
  Be  Be107  1  0.39212050  0.50000000  0.17429150  1
  Be  Be108  1  0.89212050  0.50000000  0.32570850  1
  Be  Be109  1  0.00000000  0.67429150  0.39212050  1
  Be  Be110  1  0.82570850  0.60787950  0.50000000  1
  Be  Be111  1  0.89212050  0.82570850  0.50000000  1
