# generated using pymatgen
data_La2USe4
_symmetry_space_group_name_H-M   'P 1'
_cell_length_a   8.98889600
_cell_length_b   8.98889600
_cell_length_c   8.91467600
_cell_angle_alpha   90.00000000
_cell_angle_beta   90.00000000
_cell_angle_gamma   90.00000000
_symmetry_Int_Tables_number   1
_chemical_formula_structural   La2USe4
_chemical_formula_sum   'La8 U4 Se16'
_cell_volume   720.30806105
_cell_formula_units_Z   4
loop_
 _symmetry_equiv_pos_site_id
 _symmetry_equiv_pos_as_xyz
  1  'x, y, z'
loop_
 _atom_site_type_symbol
 _atom_site_label
 _atom_site_symmetry_multiplicity
 _atom_site_fract_x
 _atom_site_fract_y
 _atom_site_fract_z
 _atom_site_occupancy
  La  La0  1  0.37309600  0.25000000  0.87500000  1
  La  La1  1  0.12690400  0.25000000  0.37500000  1
  La  La2  1  0.75000000  0.37309600  0.12500000  1
  La  La3  1  0.75000000  0.12690400  0.62500000  1
  La  La4  1  0.87309600  0.75000000  0.37500000  1
  La  La5  1  0.62690400  0.75000000  0.87500000  1
  La  La6  1  0.25000000  0.87309600  0.62500000  1
  La  La7  1  0.25000000  0.62690400  0.12500000  1
  U  U8  1  0.50000000  0.50000000  0.50000000  1
  U  U9  1  0.50000000  0.00000000  0.25000000  1
  U  U10  1  0.00000000  0.00000000  0.00000000  1
  U  U11  1  0.00000000  0.50000000  0.75000000  1
  Se  Se12  1  0.57450550  0.67581450  0.20646150  1
  Se  Se13  1  0.82418550  0.07450550  0.29353850  1
  Se  Se14  1  0.67581450  0.07450550  0.95646150  1
  Se  Se15  1  0.67581450  0.42549450  0.79353850  1
  Se  Se16  1  0.07450550  0.32418550  0.04353850  1
  Se  Se17  1  0.92549450  0.82418550  0.70646150  1
  Se  Se18  1  0.42549450  0.17581450  0.54353850  1
  Se  Se19  1  0.82418550  0.42549450  0.45646150  1
  Se  Se20  1  0.07450550  0.17581450  0.70646150  1
  Se  Se21  1  0.32418550  0.57450550  0.79353850  1
  Se  Se22  1  0.17581450  0.57450550  0.45646150  1
  Se  Se23  1  0.17581450  0.92549450  0.29353850  1
  Se  Se24  1  0.57450550  0.82418550  0.54353850  1
  Se  Se25  1  0.42549450  0.32418550  0.20646150  1
  Se  Se26  1  0.92549450  0.67581450  0.04353850  1
  Se  Se27  1  0.32418550  0.92549450  0.95646150  1
