# generated using pymatgen
data_LiV3(P3O10)2
_symmetry_space_group_name_H-M   'P 1'
_cell_length_a   10.27928600
_cell_length_b   13.82027400
_cell_length_c   12.57783100
_cell_angle_alpha   90.00000000
_cell_angle_beta   90.00000000
_cell_angle_gamma   90.00000000
_symmetry_Int_Tables_number   1
_chemical_formula_structural   LiV3(P3O10)2
_chemical_formula_sum   'Li4 V12 P24 O80'
_cell_volume   1786.83873331
_cell_formula_units_Z   4
loop_
 _symmetry_equiv_pos_site_id
 _symmetry_equiv_pos_as_xyz
  1  'x, y, z'
loop_
 _atom_site_type_symbol
 _atom_site_label
 _atom_site_symmetry_multiplicity
 _atom_site_fract_x
 _atom_site_fract_y
 _atom_site_fract_z
 _atom_site_occupancy
  Li  Li0  1  0.10552200  0.00000000  0.00000000  1
  Li  Li1  1  0.60552200  0.00000000  0.50000000  1
  Li  Li2  1  0.60552200  0.50000000  0.00000000  1
  Li  Li3  1  0.10552200  0.50000000  0.50000000  1
  V  V4  1  0.38155200  0.00000000  0.00000000  1
  V  V5  1  0.54877400  0.27613600  0.28888100  1
  V  V6  1  0.54877400  0.22386400  0.78888100  1
  V  V7  1  0.54877400  0.77613600  0.21111900  1
  V  V8  1  0.54877400  0.72386400  0.71111900  1
  V  V9  1  0.88155200  0.00000000  0.50000000  1
  V  V10  1  0.88155200  0.50000000  0.00000000  1
  V  V11  1  0.04877400  0.77613600  0.28888100  1
  V  V12  1  0.04877400  0.72386400  0.78888100  1
  V  V13  1  0.04877400  0.27613600  0.21111900  1
  V  V14  1  0.04877400  0.22386400  0.71111900  1
  V  V15  1  0.38155200  0.50000000  0.50000000  1
  P  P16  1  0.27083550  0.13436450  0.29988600  1
  P  P17  1  0.27083550  0.86563550  0.70011400  1
  P  P18  1  0.29316000  0.06882800  0.78742100  1
  P  P19  1  0.29316000  0.93117200  0.21257900  1
  P  P20  1  0.56442200  0.81120800  0.94616300  1
  P  P21  1  0.56442200  0.68879200  0.44616300  1
  P  P22  1  0.56442200  0.18879200  0.05383700  1
  P  P23  1  0.56442200  0.31120800  0.55383700  1
  P  P24  1  0.77083550  0.86563550  0.79988600  1
  P  P25  1  0.77083550  0.13436450  0.20011400  1
  P  P26  1  0.79316000  0.06882800  0.71257900  1
  P  P27  1  0.79316000  0.93117200  0.28742100  1
  P  P28  1  0.77083550  0.63436450  0.29988600  1
  P  P29  1  0.77083550  0.36563550  0.70011400  1
  P  P30  1  0.79316000  0.56882800  0.78742100  1
  P  P31  1  0.79316000  0.43117200  0.21257900  1
  P  P32  1  0.06442200  0.31120800  0.94616300  1
  P  P33  1  0.06442200  0.18879200  0.44616300  1
  P  P34  1  0.06442200  0.68879200  0.05383700  1
  P  P35  1  0.06442200  0.81120800  0.55383700  1
  P  P36  1  0.27083550  0.36563550  0.79988600  1
  P  P37  1  0.27083550  0.63436450  0.20011400  1
  P  P38  1  0.29316000  0.56882800  0.71257900  1
  P  P39  1  0.29316000  0.43117200  0.28742100  1
  O  O40  1  0.17148650  0.84172950  0.78389900  1
  O  O41  1  0.17148650  0.15827050  0.21610100  1
  O  O42  1  0.20002300  0.13835600  0.73666500  1
  O  O43  1  0.20002300  0.86164400  0.26333500  1
  O  O44  1  0.20656350  0.85595150  0.58350900  1
  O  O45  1  0.20656350  0.14404850  0.41649100  1
  O  O46  1  0.24151700  0.02870900  0.89724500  1
  O  O47  1  0.24151700  0.97129100  0.10275500  1
  O  O48  1  0.30374750  0.97858750  0.70523000  1
  O  O49  1  0.30374750  0.02141250  0.29477000  1
  O  O50  1  0.39761900  0.81242200  0.69510300  1
  O  O51  1  0.39761900  0.68757800  0.19510300  1
  O  O52  1  0.39761900  0.31242200  0.80489700  1
  O  O53  1  0.39761900  0.18757800  0.30489700  1
  O  O54  1  0.43158550  0.39750150  0.30627500  1
  O  O55  1  0.43158550  0.10249850  0.80627500  1
  O  O56  1  0.43158550  0.89750150  0.19372500  1
  O  O57  1  0.43158550  0.60249850  0.69372500  1
  O  O58  1  0.46978000  0.39789800  0.56519400  1
  O  O59  1  0.46978000  0.10210200  0.06519400  1
  O  O60  1  0.46978000  0.89789800  0.93480600  1
  O  O61  1  0.46978000  0.60210200  0.43480600  1
  O  O62  1  0.52862000  0.23125500  0.63184900  1
  O  O63  1  0.52862000  0.26874500  0.13184900  1
  O  O64  1  0.52862000  0.73125500  0.86815100  1
  O  O65  1  0.52862000  0.76874500  0.36815100  1
  O  O66  1  0.57965800  0.72682300  0.55757700  1
  O  O67  1  0.57965800  0.27317700  0.44242300  1
  O  O68  1  0.57965800  0.77317700  0.05757700  1
  O  O69  1  0.57965800  0.22682300  0.94242300  1
  O  O70  1  0.67148650  0.15827050  0.28389900  1
  O  O71  1  0.67148650  0.84172950  0.71610100  1
  O  O72  1  0.70002300  0.86164400  0.23666500  1
  O  O73  1  0.70002300  0.13835600  0.76333500  1
  O  O74  1  0.70656350  0.14404850  0.08350900  1
  O  O75  1  0.70656350  0.85595150  0.91649100  1
  O  O76  1  0.74151700  0.02870900  0.60275500  1
  O  O77  1  0.74151700  0.97129100  0.39724500  1
  O  O78  1  0.80374750  0.02141250  0.20523000  1
  O  O79  1  0.80374750  0.97858750  0.79477000  1
  O  O80  1  0.67148650  0.34172950  0.78389900  1
  O  O81  1  0.67148650  0.65827050  0.21610100  1
  O  O82  1  0.70002300  0.63835600  0.73666500  1
  O  O83  1  0.70002300  0.36164400  0.26333500  1
  O  O84  1  0.70656350  0.35595150  0.58350900  1
  O  O85  1  0.70656350  0.64404850  0.41649100  1
  O  O86  1  0.74151700  0.52870900  0.89724500  1
  O  O87  1  0.74151700  0.47129100  0.10275500  1
  O  O88  1  0.80374750  0.47858750  0.70523000  1
  O  O89  1  0.80374750  0.52141250  0.29477000  1
  O  O90  1  0.89761900  0.31242200  0.69510300  1
  O  O91  1  0.89761900  0.18757800  0.19510300  1
  O  O92  1  0.89761900  0.81242200  0.80489700  1
  O  O93  1  0.89761900  0.68757800  0.30489700  1
  O  O94  1  0.93158550  0.89750150  0.30627500  1
  O  O95  1  0.93158550  0.60249850  0.80627500  1
  O  O96  1  0.93158550  0.39750150  0.19372500  1
  O  O97  1  0.93158550  0.10249850  0.69372500  1
  O  O98  1  0.96978000  0.89789800  0.56519400  1
  O  O99  1  0.96978000  0.60210200  0.06519400  1
  O  O100  1  0.96978000  0.39789800  0.93480600  1
  O  O101  1  0.96978000  0.10210200  0.43480600  1
  O  O102  1  0.02862000  0.73125500  0.63184900  1
  O  O103  1  0.02862000  0.76874500  0.13184900  1
  O  O104  1  0.02862000  0.23125500  0.86815100  1
  O  O105  1  0.02862000  0.26874500  0.36815100  1
  O  O106  1  0.07965800  0.22682300  0.55757700  1
  O  O107  1  0.07965800  0.77317700  0.44242300  1
  O  O108  1  0.07965800  0.27317700  0.05757700  1
  O  O109  1  0.07965800  0.72682300  0.94242300  1
  O  O110  1  0.17148650  0.65827050  0.28389900  1
  O  O111  1  0.17148650  0.34172950  0.71610100  1
  O  O112  1  0.20002300  0.36164400  0.23666500  1
  O  O113  1  0.20002300  0.63835600  0.76333500  1
  O  O114  1  0.20656350  0.64404850  0.08350900  1
  O  O115  1  0.20656350  0.35595150  0.91649100  1
  O  O116  1  0.24151700  0.52870900  0.60275500  1
  O  O117  1  0.24151700  0.47129100  0.39724500  1
  O  O118  1  0.30374750  0.52141250  0.20523000  1
  O  O119  1  0.30374750  0.47858750  0.79477000  1
