# generated using pymatgen
data_Nd2Co17
_symmetry_space_group_name_H-M   'P 1'
_cell_length_a   8.38446434
_cell_length_b   8.38446434
_cell_length_c   12.19085816
_cell_angle_alpha   90.00000000
_cell_angle_beta   90.00000000
_cell_angle_gamma   120.00000000
_symmetry_Int_Tables_number   1
_chemical_formula_structural   Nd2Co17
_chemical_formula_sum   'Nd6 Co51'
_cell_volume   742.19077902
_cell_formula_units_Z   3
loop_
 _symmetry_equiv_pos_site_id
 _symmetry_equiv_pos_as_xyz
  1  'x, y, z'
loop_
 _atom_site_type_symbol
 _atom_site_label
 _atom_site_symmetry_multiplicity
 _atom_site_fract_x
 _atom_site_fract_y
 _atom_site_fract_z
 _atom_site_occupancy
  Nd  Nd0  1  0.33333333  0.66666667  0.01130367  1
  Nd  Nd1  1  0.33333333  0.66666667  0.32202967  1
  Nd  Nd2  1  0.00000000  0.00000000  0.34463700  1
  Nd  Nd3  1  0.00000000  0.00000000  0.65536300  1
  Nd  Nd4  1  0.66666667  0.33333333  0.67797033  1
  Nd  Nd5  1  0.66666667  0.33333333  0.98869633  1
  Co  Co6  1  0.33333333  0.66666667  0.76244667  1
  Co  Co7  1  0.33333333  0.66666667  0.57088667  1
  Co  Co8  1  0.16666667  0.83333333  0.83333333  1
  Co  Co9  1  0.33333333  0.16666667  0.16666667  1
  Co  Co10  1  0.83333333  0.66666667  0.16666667  1
  Co  Co11  1  0.95163567  0.61830233  0.33333333  1
  Co  Co12  1  0.00000000  0.71503100  0.00000000  1
  Co  Co13  1  0.71503100  1.00000000  0.00000000  1
  Co  Co14  1  0.38169767  0.04836433  0.33333333  1
  Co  Co15  1  0.00000000  0.28496900  0.00000000  1
  Co  Co16  1  0.28496900  1.00000000  0.00000000  1
  Co  Co17  1  0.50286200  0.00572400  0.15414800  1
  Co  Co18  1  0.50286200  0.49713800  0.15414800  1
  Co  Co19  1  0.99427600  0.49713800  0.15414800  1
  Co  Co20  1  0.67239067  0.83619533  0.17918533  1
  Co  Co21  1  0.16380467  0.32760933  0.17918533  1
  Co  Co22  1  0.16380467  0.83619533  0.17918533  1
  Co  Co23  1  0.00000000  0.00000000  0.09578000  1
  Co  Co24  1  0.00000000  0.00000000  0.90422000  1
  Co  Co25  1  0.83333333  0.16666667  0.16666667  1
  Co  Co26  1  0.00000000  0.50000000  0.50000000  1
  Co  Co27  1  0.50000000  0.00000000  0.50000000  1
  Co  Co28  1  0.61830233  0.95163567  0.66666667  1
  Co  Co29  1  0.66666667  0.04836433  0.33333333  1
  Co  Co30  1  0.38169767  0.33333333  0.33333333  1
  Co  Co31  1  0.04836433  0.38169767  0.66666667  1
  Co  Co32  1  0.66666667  0.61830233  0.33333333  1
  Co  Co33  1  0.95163567  0.33333333  0.33333333  1
  Co  Co34  1  0.16952867  0.33905733  0.48748133  1
  Co  Co35  1  0.16952867  0.83047133  0.48748133  1
  Co  Co36  1  0.66094267  0.83047133  0.48748133  1
  Co  Co37  1  0.33905733  0.16952867  0.51251867  1
  Co  Co38  1  0.83047133  0.66094267  0.51251867  1
  Co  Co39  1  0.83047133  0.16952867  0.51251867  1
  Co  Co40  1  0.66666667  0.33333333  0.42911333  1
  Co  Co41  1  0.66666667  0.33333333  0.23755333  1
  Co  Co42  1  0.50000000  0.50000000  0.50000000  1
  Co  Co43  1  0.66666667  0.83333333  0.83333333  1
  Co  Co44  1  0.16666667  0.33333333  0.83333333  1
  Co  Co45  1  0.28496900  0.28496900  0.00000000  1
  Co  Co46  1  0.33333333  0.38169767  0.66666667  1
  Co  Co47  1  0.04836433  0.66666667  0.66666667  1
  Co  Co48  1  0.71503100  0.71503100  0.00000000  1
  Co  Co49  1  0.33333333  0.95163567  0.66666667  1
  Co  Co50  1  0.61830233  0.66666667  0.66666667  1
  Co  Co51  1  0.83619533  0.67239067  0.82081467  1
  Co  Co52  1  0.83619533  0.16380467  0.82081467  1
  Co  Co53  1  0.32760933  0.16380467  0.82081467  1
  Co  Co54  1  0.00572400  0.50286200  0.84585200  1
  Co  Co55  1  0.49713800  0.99427600  0.84585200  1
  Co  Co56  1  0.49713800  0.50286200  0.84585200  1
