# generated using pymatgen
data_LiCr(PO3)3
_symmetry_space_group_name_H-M   'P 1'
_cell_length_a   9.67270449
_cell_length_b   9.75145914
_cell_length_c   9.75108700
_cell_angle_alpha   106.03515907
_cell_angle_beta   106.54265353
_cell_angle_gamma   112.43062856
_symmetry_Int_Tables_number   1
_chemical_formula_structural   LiCr(PO3)3
_chemical_formula_sum   'Li4 Cr4 P12 O36'
_cell_volume   734.08416249
_cell_formula_units_Z   4
loop_
 _symmetry_equiv_pos_site_id
 _symmetry_equiv_pos_as_xyz
  1  'x, y, z'
loop_
 _atom_site_type_symbol
 _atom_site_label
 _atom_site_symmetry_multiplicity
 _atom_site_fract_x
 _atom_site_fract_y
 _atom_site_fract_z
 _atom_site_occupancy
  Li  Li0  1  0.65456900  0.06789100  0.50346900  1
  Li  Li1  1  0.34543100  0.93210900  0.49653100  1
  Li  Li2  1  0.35298800  0.16363600  0.31814200  1
  Li  Li3  1  0.64701200  0.83636400  0.68185800  1
  Cr  Cr4  1  0.73961300  0.23020400  0.28000000  1
  Cr  Cr5  1  0.10206600  0.29667400  0.21503300  1
  Cr  Cr6  1  0.89793400  0.70332600  0.78496700  1
  Cr  Cr7  1  0.26038700  0.76979600  0.72000000  1
  P  P8  1  0.42804300  0.66851100  0.29824400  1
  P  P9  1  0.04675600  0.78966300  0.15919500  1
  P  P10  1  0.98632600  0.61064100  0.35426900  1
  P  P11  1  0.49005600  0.85054700  0.10433100  1
  P  P12  1  0.18962500  0.08624200  0.92379800  1
  P  P13  1  0.50994400  0.14945300  0.89566900  1
  P  P14  1  0.01367400  0.38935900  0.64573100  1
  P  P15  1  0.95324400  0.21033700  0.84080500  1
  P  P16  1  0.81037500  0.91375800  0.07620200  1
  P  P17  1  0.31509500  0.42466400  0.58871500  1
  P  P18  1  0.68490500  0.57533600  0.41128500  1
  P  P19  1  0.57195700  0.33148900  0.70175600  1
  O  O20  1  0.56200800  0.01093800  0.24951100  1
  O  O21  1  0.89756700  0.82670200  0.15652800  1
  O  O22  1  0.63797200  0.82194200  0.08696800  1
  O  O23  1  0.96180300  0.26991600  0.00315700  1
  O  O24  1  0.03819700  0.73008400  0.99684300  1
  O  O25  1  0.36202800  0.17805800  0.91303200  1
  O  O26  1  0.10243300  0.17329800  0.84347200  1
  O  O27  1  0.01475900  0.36938900  0.80260600  1
  O  O28  1  0.37312400  0.82448800  0.95022400  1
  O  O29  1  0.60461500  0.29926000  0.85885600  1
  O  O30  1  0.09788200  0.90534900  0.80981400  1
  O  O31  1  0.05866900  0.56437000  0.67712500  1
  O  O32  1  0.15651800  0.35285500  0.62653100  1
  O  O33  1  0.42823600  0.37748300  0.70125700  1
  O  O34  1  0.79107700  0.07185500  0.70532000  1
  O  O35  1  0.78129300  0.86439600  0.90634300  1
  O  O36  1  0.72745200  0.47871900  0.73949300  1
  O  O37  1  0.50574500  0.17552400  0.55645000  1
  O  O38  1  0.39167800  0.60641300  0.64214900  1
  O  O39  1  0.43799200  0.98906200  0.75048900  1
  O  O40  1  0.26254500  0.31208900  0.41800900  1
  O  O41  1  0.62687600  0.17551200  0.04977600  1
  O  O42  1  0.84813100  0.25596900  0.50669300  1
  O  O43  1  0.73745500  0.68791100  0.58199100  1
  O  O44  1  0.15186900  0.74403100  0.49330700  1
  O  O45  1  0.60832200  0.39358700  0.35785100  1
  O  O46  1  0.49425500  0.82447600  0.44355000  1
  O  O47  1  0.27254800  0.52128100  0.26050700  1
  O  O48  1  0.21870700  0.13560400  0.09365700  1
  O  O49  1  0.20892300  0.92814500  0.29468000  1
  O  O50  1  0.57176400  0.62251700  0.29874300  1
  O  O51  1  0.84348200  0.64714500  0.37346900  1
  O  O52  1  0.94133100  0.43563000  0.32287500  1
  O  O53  1  0.90211800  0.09465100  0.19018600  1
  O  O54  1  0.39538500  0.70074000  0.14114400  1
  O  O55  1  0.98524100  0.63061100  0.19739400  1
