# generated using pymatgen
data_Ce2Se3
_symmetry_space_group_name_H-M   'P 1'
_cell_length_a   8.90414600
_cell_length_b   8.90414600
_cell_length_c   26.67070200
_cell_angle_alpha   90.00000000
_cell_angle_beta   90.00000000
_cell_angle_gamma   90.00000000
_symmetry_Int_Tables_number   1
_chemical_formula_structural   Ce2Se3
_chemical_formula_sum   'Ce32 Se48'
_cell_volume   2114.55502967
_cell_formula_units_Z   16
loop_
 _symmetry_equiv_pos_site_id
 _symmetry_equiv_pos_as_xyz
  1  'x, y, z'
loop_
 _atom_site_type_symbol
 _atom_site_label
 _atom_site_symmetry_multiplicity
 _atom_site_fract_x
 _atom_site_fract_y
 _atom_site_fract_z
 _atom_site_occupancy
  Ce  Ce0  1  0.75553350  0.86660750  0.71012400  1
  Ce  Ce1  1  0.50000000  0.50000000  0.66648150  1
  Ce  Ce2  1  0.87966300  0.25000000  0.62500000  1
  Ce  Ce3  1  0.50000000  0.00000000  0.58351850  1
  Ce  Ce4  1  0.75553350  0.63339250  0.53987600  1
  Ce  Ce5  1  0.12033700  0.75000000  0.62500000  1
  Ce  Ce6  1  0.24446650  0.36660750  0.53987600  1
  Ce  Ce7  1  0.86660750  0.25553350  0.96012400  1
  Ce  Ce8  1  0.75000000  0.62033700  0.87500000  1
  Ce  Ce9  1  0.50000000  0.00000000  0.91648150  1
  Ce  Ce10  1  0.25000000  0.37966300  0.87500000  1
  Ce  Ce11  1  0.13339250  0.74446650  0.96012400  1
  Ce  Ce12  1  0.00000000  0.00000000  0.83351850  1
  Ce  Ce13  1  0.36660750  0.74446650  0.78987600  1
  Ce  Ce14  1  0.24446650  0.13339250  0.71012400  1
  Ce  Ce15  1  0.63339250  0.25553350  0.78987600  1
  Ce  Ce16  1  0.25553350  0.36660750  0.21012400  1
  Ce  Ce17  1  0.00000000  0.00000000  0.16648150  1
  Ce  Ce18  1  0.37966300  0.75000000  0.12500000  1
  Ce  Ce19  1  0.00000000  0.50000000  0.08351850  1
  Ce  Ce20  1  0.25553350  0.13339250  0.03987600  1
  Ce  Ce21  1  0.62033700  0.25000000  0.12500000  1
  Ce  Ce22  1  0.74446650  0.86660750  0.03987600  1
  Ce  Ce23  1  0.36660750  0.75553350  0.46012400  1
  Ce  Ce24  1  0.25000000  0.12033700  0.37500000  1
  Ce  Ce25  1  0.00000000  0.50000000  0.41648150  1
  Ce  Ce26  1  0.75000000  0.87966300  0.37500000  1
  Ce  Ce27  1  0.63339250  0.24446650  0.46012400  1
  Ce  Ce28  1  0.50000000  0.50000000  0.33351850  1
  Ce  Ce29  1  0.86660750  0.24446650  0.28987600  1
  Ce  Ce30  1  0.74446650  0.63339250  0.21012400  1
  Ce  Ce31  1  0.13339250  0.75553350  0.28987600  1
  Se  Se32  1  0.17941100  0.42567800  0.64681750  1
  Se  Se33  1  0.57379250  0.17388550  0.68297000  1
  Se  Se34  1  0.42620750  0.82611450  0.68297000  1
  Se  Se35  1  0.57379250  0.32611450  0.56703000  1
  Se  Se36  1  0.42620750  0.67388550  0.56703000  1
  Se  Se37  1  0.82058900  0.57432200  0.64681750  1
  Se  Se38  1  0.82058900  0.92567800  0.60318250  1
  Se  Se39  1  0.17186350  0.42084050  0.98397400  1
  Se  Se40  1  0.07915950  0.67186350  0.51602600  1
  Se  Se41  1  0.17941100  0.07432200  0.60318250  1
  Se  Se42  1  0.92084050  0.32813650  0.51602600  1
  Se  Se43  1  0.57432200  0.32058900  0.89681750  1
  Se  Se44  1  0.42567800  0.67941100  0.89681750  1
  Se  Se45  1  0.82813650  0.57915950  0.98397400  1
  Se  Se46  1  0.82611450  0.92620750  0.93297000  1
  Se  Se47  1  0.67388550  0.92620750  0.81703000  1
  Se  Se48  1  0.07432200  0.67941100  0.85318250  1
  Se  Se49  1  0.17388550  0.07379250  0.93297000  1
  Se  Se50  1  0.07915950  0.82813650  0.73397400  1
  Se  Se51  1  0.92567800  0.32058900  0.85318250  1
  Se  Se52  1  0.92084050  0.17186350  0.73397400  1
  Se  Se53  1  0.32611450  0.07379250  0.81703000  1
  Se  Se54  1  0.32813650  0.42084050  0.76602600  1
  Se  Se55  1  0.67186350  0.57915950  0.76602600  1
  Se  Se56  1  0.67941100  0.92567800  0.14681750  1
  Se  Se57  1  0.07379250  0.67388550  0.18297000  1
  Se  Se58  1  0.92620750  0.32611450  0.18297000  1
  Se  Se59  1  0.07379250  0.82611450  0.06703000  1
  Se  Se60  1  0.92620750  0.17388550  0.06703000  1
  Se  Se61  1  0.32058900  0.07432200  0.14681750  1
  Se  Se62  1  0.32058900  0.42567800  0.10318250  1
  Se  Se63  1  0.67186350  0.92084050  0.48397400  1
  Se  Se64  1  0.57915950  0.17186350  0.01602600  1
  Se  Se65  1  0.67941100  0.57432200  0.10318250  1
  Se  Se66  1  0.42084050  0.82813650  0.01602600  1
  Se  Se67  1  0.07432200  0.82058900  0.39681750  1
  Se  Se68  1  0.92567800  0.17941100  0.39681750  1
  Se  Se69  1  0.32813650  0.07915950  0.48397400  1
  Se  Se70  1  0.32611450  0.42620750  0.43297000  1
  Se  Se71  1  0.17388550  0.42620750  0.31703000  1
  Se  Se72  1  0.57432200  0.17941100  0.35318250  1
  Se  Se73  1  0.67388550  0.57379250  0.43297000  1
  Se  Se74  1  0.57915950  0.32813650  0.23397400  1
  Se  Se75  1  0.42567800  0.82058900  0.35318250  1
  Se  Se76  1  0.42084050  0.67186350  0.23397400  1
  Se  Se77  1  0.82611450  0.57379250  0.31703000  1
  Se  Se78  1  0.82813650  0.92084050  0.26602600  1
  Se  Se79  1  0.17186350  0.07915950  0.26602600  1
