# generated using pymatgen
data_Ba2Cr7O14
_symmetry_space_group_name_H-M   'P 1'
_cell_length_a   5.88727624
_cell_length_b   5.88727624
_cell_length_c   28.07210280
_cell_angle_alpha   90.00000000
_cell_angle_beta   90.00000000
_cell_angle_gamma   120.00000000
_symmetry_Int_Tables_number   1
_chemical_formula_structural   Ba2Cr7O14
_chemical_formula_sum   'Ba6 Cr21 O42'
_cell_volume   842.62512725
_cell_formula_units_Z   3
loop_
 _symmetry_equiv_pos_site_id
 _symmetry_equiv_pos_as_xyz
  1  'x, y, z'
loop_
 _atom_site_type_symbol
 _atom_site_label
 _atom_site_symmetry_multiplicity
 _atom_site_fract_x
 _atom_site_fract_y
 _atom_site_fract_z
 _atom_site_occupancy
  Ba  Ba0  1  0.00000000  0.00000000  0.28905200  1
  Ba  Ba1  1  0.66666667  0.33333333  0.04428133  1
  Ba  Ba2  1  0.66666667  0.33333333  0.62238533  1
  Ba  Ba3  1  0.33333333  0.66666667  0.37761467  1
  Ba  Ba4  1  0.33333333  0.66666667  0.95571867  1
  Ba  Ba5  1  0.00000000  0.00000000  0.71094800  1
  Cr  Cr6  1  0.00000000  0.00000000  0.06212600  1
  Cr  Cr7  1  0.66666667  0.33333333  0.27120733  1
  Cr  Cr8  1  0.33333333  0.66666667  0.09411067  1
  Cr  Cr9  1  0.33333333  0.66666667  0.23922267  1
  Cr  Cr10  1  0.83333333  0.66666667  0.16666667  1
  Cr  Cr11  1  0.83333333  0.16666667  0.16666667  1
  Cr  Cr12  1  0.33333333  0.16666667  0.16666667  1
  Cr  Cr13  1  0.66666667  0.33333333  0.39545933  1
  Cr  Cr14  1  0.33333333  0.66666667  0.60454067  1
  Cr  Cr15  1  0.00000000  0.00000000  0.42744400  1
  Cr  Cr16  1  0.00000000  0.00000000  0.57255600  1
  Cr  Cr17  1  0.50000000  0.00000000  0.50000000  1
  Cr  Cr18  1  0.50000000  0.50000000  0.50000000  1
  Cr  Cr19  1  0.00000000  0.50000000  0.50000000  1
  Cr  Cr20  1  0.33333333  0.66666667  0.72879267  1
  Cr  Cr21  1  0.00000000  0.00000000  0.93787400  1
  Cr  Cr22  1  0.66666667  0.33333333  0.76077733  1
  Cr  Cr23  1  0.66666667  0.33333333  0.90588933  1
  Cr  Cr24  1  0.16666667  0.33333333  0.83333333  1
  Cr  Cr25  1  0.16666667  0.83333333  0.83333333  1
  Cr  Cr26  1  0.66666667  0.83333333  0.83333333  1
  O  O27  1  0.00000000  0.00000000  0.12925100  1
  O  O28  1  0.66666667  0.33333333  0.20408233  1
  O  O29  1  0.98504333  0.49252167  0.12806867  1
  O  O30  1  0.50747833  0.01495667  0.12806867  1
  O  O31  1  0.50747833  0.49252167  0.12806867  1
  O  O32  1  0.15918833  0.84081167  0.20526467  1
  O  O33  1  0.68162333  0.84081167  0.20526467  1
  O  O34  1  0.15918833  0.31837667  0.20526467  1
  O  O35  1  0.00828467  0.50414233  0.28495433  1
  O  O36  1  0.17080900  0.34161800  0.04837900  1
  O  O37  1  0.65838200  0.82919100  0.04837900  1
  O  O38  1  0.17080900  0.82919100  0.04837900  1
  O  O39  1  0.49585767  0.50414233  0.28495433  1
  O  O40  1  0.49585767  0.99171533  0.28495433  1
  O  O41  1  0.66666667  0.33333333  0.46258433  1
  O  O42  1  0.33333333  0.66666667  0.53741567  1
  O  O43  1  0.65171000  0.82585500  0.46140200  1
  O  O44  1  0.17414500  0.34829000  0.46140200  1
  O  O45  1  0.17414500  0.82585500  0.46140200  1
  O  O46  1  0.82585500  0.17414500  0.53859800  1
  O  O47  1  0.34829000  0.17414500  0.53859800  1
  O  O48  1  0.82585500  0.65171000  0.53859800  1
  O  O49  1  0.67495133  0.83747567  0.61828767  1
  O  O50  1  0.83747567  0.67495133  0.38171233  1
  O  O51  1  0.32504867  0.16252433  0.38171233  1
  O  O52  1  0.83747567  0.16252433  0.38171233  1
  O  O53  1  0.16252433  0.83747567  0.61828767  1
  O  O54  1  0.16252433  0.32504867  0.61828767  1
  O  O55  1  0.33333333  0.66666667  0.79591767  1
  O  O56  1  0.00000000  0.00000000  0.87074900  1
  O  O57  1  0.31837667  0.15918833  0.79473533  1
  O  O58  1  0.84081167  0.68162333  0.79473533  1
  O  O59  1  0.84081167  0.15918833  0.79473533  1
  O  O60  1  0.49252167  0.50747833  0.87193133  1
  O  O61  1  0.01495667  0.50747833  0.87193133  1
  O  O62  1  0.49252167  0.98504333  0.87193133  1
  O  O63  1  0.34161800  0.17080900  0.95162100  1
  O  O64  1  0.50414233  0.00828467  0.71504567  1
  O  O65  1  0.99171533  0.49585767  0.71504567  1
  O  O66  1  0.50414233  0.49585767  0.71504567  1
  O  O67  1  0.82919100  0.17080900  0.95162100  1
  O  O68  1  0.82919100  0.65838200  0.95162100  1
