# generated using pymatgen
data_Li3V2(PO4)3
_symmetry_space_group_name_H-M   'P 1'
_cell_length_a   14.37238400
_cell_length_b   8.85893200
_cell_length_c   8.60236836
_cell_angle_alpha   90.00000000
_cell_angle_beta   123.56815614
_cell_angle_gamma   90.00000000
_symmetry_Int_Tables_number   1
_chemical_formula_structural   Li3V2(PO4)3
_chemical_formula_sum   'Li12 V8 P12 O48'
_cell_volume   912.62513089
_cell_formula_units_Z   4
loop_
 _symmetry_equiv_pos_site_id
 _symmetry_equiv_pos_as_xyz
  1  'x, y, z'
loop_
 _atom_site_type_symbol
 _atom_site_label
 _atom_site_symmetry_multiplicity
 _atom_site_fract_x
 _atom_site_fract_y
 _atom_site_fract_z
 _atom_site_occupancy
  Li  Li0  1  0.30191300  0.53836400  0.35911500  1
  Li  Li1  1  0.30191300  0.46163600  0.85911500  1
  Li  Li2  1  0.75000000  0.75000000  0.50000000  1
  Li  Li3  1  0.69808700  0.53836400  0.14088500  1
  Li  Li4  1  0.25000000  0.75000000  0.00000000  1
  Li  Li5  1  0.69808700  0.46163600  0.64088500  1
  Li  Li6  1  0.80191300  0.03836400  0.35911500  1
  Li  Li7  1  0.80191300  0.96163600  0.85911500  1
  Li  Li8  1  0.25000000  0.25000000  0.50000000  1
  Li  Li9  1  0.19808700  0.03836400  0.14088500  1
  Li  Li10  1  0.75000000  0.25000000  0.00000000  1
  Li  Li11  1  0.19808700  0.96163600  0.64088500  1
  V  V12  1  0.11090350  0.74618250  0.14784800  1
  V  V13  1  0.11090350  0.25381750  0.64784800  1
  V  V14  1  0.88909650  0.74618250  0.35215200  1
  V  V15  1  0.88909650  0.25381750  0.85215200  1
  V  V16  1  0.61090350  0.24618250  0.14784800  1
  V  V17  1  0.61090350  0.75381750  0.64784800  1
  V  V18  1  0.38909650  0.24618250  0.35215200  1
  V  V19  1  0.38909650  0.75381750  0.85215200  1
  P  P20  1  0.14965900  0.40446200  0.03403600  1
  P  P21  1  0.00000000  0.95578900  0.75000000  1
  P  P22  1  0.14965900  0.59553800  0.53403600  1
  P  P23  1  0.85034100  0.40446200  0.46596400  1
  P  P24  1  0.00000000  0.04421100  0.25000000  1
  P  P25  1  0.85034100  0.59553800  0.96596400  1
  P  P26  1  0.64965900  0.90446200  0.03403600  1
  P  P27  1  0.50000000  0.45578900  0.75000000  1
  P  P28  1  0.64965900  0.09553800  0.53403600  1
  P  P29  1  0.35034100  0.90446200  0.46596400  1
  P  P30  1  0.50000000  0.54421100  0.25000000  1
  P  P31  1  0.35034100  0.09553800  0.96596400  1
  O  O32  1  0.42993850  0.55402050  0.79761200  1
  O  O33  1  0.42993850  0.44597950  0.29761200  1
  O  O34  1  0.23122750  0.32898050  0.22974100  1
  O  O35  1  0.17155800  0.57728400  0.07057000  1
  O  O36  1  0.17880800  0.36594100  0.89035000  1
  O  O37  1  0.03310400  0.35164700  0.96935300  1
  O  O38  1  0.08736950  0.85835450  0.91930900  1
  O  O39  1  0.23122750  0.67101950  0.72974100  1
  O  O40  1  0.17155800  0.42271600  0.57057000  1
  O  O41  1  0.17880800  0.63405900  0.39035000  1
  O  O42  1  0.03310400  0.64835300  0.46935300  1
  O  O43  1  0.08736950  0.14164550  0.41930900  1
  O  O44  1  0.91263050  0.85835450  0.58069100  1
  O  O45  1  0.96689600  0.35164700  0.53064700  1
  O  O46  1  0.82119200  0.36594100  0.60965000  1
  O  O47  1  0.82844200  0.57728400  0.42943000  1
  O  O48  1  0.76877250  0.32898050  0.27025900  1
  O  O49  1  0.91263050  0.14164550  0.08069100  1
  O  O50  1  0.96689600  0.64835300  0.03064700  1
  O  O51  1  0.82119200  0.63405900  0.10965000  1
  O  O52  1  0.82844200  0.42271600  0.92943000  1
  O  O53  1  0.76877250  0.67101950  0.77025900  1
  O  O54  1  0.57006150  0.55402050  0.70238800  1
  O  O55  1  0.57006150  0.44597950  0.20238800  1
  O  O56  1  0.92993850  0.05402050  0.79761200  1
  O  O57  1  0.92993850  0.94597950  0.29761200  1
  O  O58  1  0.73122750  0.82898050  0.22974100  1
  O  O59  1  0.67155800  0.07728400  0.07057000  1
  O  O60  1  0.67880800  0.86594100  0.89035000  1
  O  O61  1  0.53310400  0.85164700  0.96935300  1
  O  O62  1  0.58736950  0.35835450  0.91930900  1
  O  O63  1  0.73122750  0.17101950  0.72974100  1
  O  O64  1  0.67155800  0.92271600  0.57057000  1
  O  O65  1  0.67880800  0.13405900  0.39035000  1
  O  O66  1  0.53310400  0.14835300  0.46935300  1
  O  O67  1  0.58736950  0.64164550  0.41930900  1
  O  O68  1  0.41263050  0.35835450  0.58069100  1
  O  O69  1  0.46689600  0.85164700  0.53064700  1
  O  O70  1  0.32119200  0.86594100  0.60965000  1
  O  O71  1  0.32844200  0.07728400  0.42943000  1
  O  O72  1  0.26877250  0.82898050  0.27025900  1
  O  O73  1  0.41263050  0.64164550  0.08069100  1
  O  O74  1  0.46689600  0.14835300  0.03064700  1
  O  O75  1  0.32119200  0.13405900  0.10965000  1
  O  O76  1  0.32844200  0.92271600  0.92943000  1
  O  O77  1  0.26877250  0.17101950  0.77025900  1
  O  O78  1  0.07006150  0.05402050  0.70238800  1
  O  O79  1  0.07006150  0.94597950  0.20238800  1
