# generated using pymatgen
data_V3(PO4)4
_symmetry_space_group_name_H-M   'P 1'
_cell_length_a   8.31144300
_cell_length_b   5.11005900
_cell_length_c   15.61375278
_cell_angle_alpha   90.00000000
_cell_angle_beta   114.25883602
_cell_angle_gamma   90.00000000
_symmetry_Int_Tables_number   1
_chemical_formula_structural   V3(PO4)4
_chemical_formula_sum   'V6 P8 O32'
_cell_volume   604.59002297
_cell_formula_units_Z   2
loop_
 _symmetry_equiv_pos_site_id
 _symmetry_equiv_pos_as_xyz
  1  'x, y, z'
loop_
 _atom_site_type_symbol
 _atom_site_label
 _atom_site_symmetry_multiplicity
 _atom_site_fract_x
 _atom_site_fract_y
 _atom_site_fract_z
 _atom_site_occupancy
  V  V0  1  0.50000000  0.50000000  0.00000000  1
  V  V1  1  0.18055600  0.11318200  0.19704300  1
  V  V2  1  0.81944400  0.61318200  0.30295700  1
  V  V3  1  0.50000000  0.00000000  0.50000000  1
  V  V4  1  0.18055600  0.38681800  0.69704300  1
  V  V5  1  0.81944400  0.88681800  0.80295700  1
  P  P6  1  0.52681500  0.00063500  0.14413400  1
  P  P7  1  0.92680500  0.58461400  0.12012000  1
  P  P8  1  0.47318500  0.50063500  0.35586600  1
  P  P9  1  0.07319500  0.08461400  0.37988000  1
  P  P10  1  0.92680500  0.91538600  0.62012000  1
  P  P11  1  0.52681500  0.49936500  0.64413400  1
  P  P12  1  0.07319500  0.41538600  0.87988000  1
  P  P13  1  0.47318500  0.99936500  0.85586600  1
  O  O14  1  0.74773100  0.59970600  0.03692000  1
  O  O15  1  0.47086300  0.79170700  0.06603400  1
  O  O16  1  0.56070800  0.27000400  0.11225400  1
  O  O17  1  0.02117900  0.32953600  0.10888500  1
  O  O18  1  0.36783700  0.01771700  0.17416900  1
  O  O19  1  0.04146100  0.82120300  0.12509400  1
  O  O20  1  0.90560700  0.55029700  0.21474700  1
  O  O21  1  0.68987900  0.91469500  0.23097200  1
  O  O22  1  0.31012100  0.41469500  0.26902800  1
  O  O23  1  0.63216300  0.51771700  0.32583100  1
  O  O24  1  0.09439300  0.05029700  0.28525300  1
  O  O25  1  0.43929200  0.77000400  0.38774600  1
  O  O26  1  0.95853900  0.32120300  0.37490600  1
  O  O27  1  0.97882100  0.82953600  0.39111500  1
  O  O28  1  0.52913700  0.29170700  0.43396600  1
  O  O29  1  0.25226900  0.09970600  0.46308000  1
  O  O30  1  0.74773100  0.90029400  0.53692000  1
  O  O31  1  0.47086300  0.70829300  0.56603400  1
  O  O32  1  0.02117900  0.17046400  0.60888500  1
  O  O33  1  0.04146100  0.67879700  0.62509400  1
  O  O34  1  0.56070800  0.22999600  0.61225400  1
  O  O35  1  0.90560700  0.94970300  0.71474700  1
  O  O36  1  0.36783700  0.48228300  0.67416900  1
  O  O37  1  0.68987900  0.58530500  0.73097200  1
  O  O38  1  0.31012100  0.08530500  0.76902800  1
  O  O39  1  0.09439300  0.44970300  0.78525300  1
  O  O40  1  0.95853900  0.17879700  0.87490600  1
  O  O41  1  0.63216300  0.98228300  0.82583100  1
  O  O42  1  0.97882100  0.67046400  0.89111500  1
  O  O43  1  0.43929200  0.72999600  0.88774600  1
  O  O44  1  0.52913700  0.20829300  0.93396600  1
  O  O45  1  0.25226900  0.40029400  0.96308000  1
