# generated using pymatgen
data_LiMn4O8
_symmetry_space_group_name_H-M   'P 1'
_cell_length_a   8.35475902
_cell_length_b   8.35475902
_cell_length_c   8.35475902
_cell_angle_alpha   90.00000000
_cell_angle_beta   90.00000000
_cell_angle_gamma   90.00000000
_symmetry_Int_Tables_number   1
_chemical_formula_structural   LiMn4O8
_chemical_formula_sum   'Li4 Mn16 O32'
_cell_volume   583.17887526
_cell_formula_units_Z   4
loop_
 _symmetry_equiv_pos_site_id
 _symmetry_equiv_pos_as_xyz
  1  'x, y, z'
loop_
 _atom_site_type_symbol
 _atom_site_label
 _atom_site_symmetry_multiplicity
 _atom_site_fract_x
 _atom_site_fract_y
 _atom_site_fract_z
 _atom_site_occupancy
  Li  Li0  1  0.75000000  0.75000000  0.75000000  1
  Li  Li1  1  0.75000000  0.25000000  0.25000000  1
  Li  Li2  1  0.25000000  0.75000000  0.25000000  1
  Li  Li3  1  0.25000000  0.25000000  0.75000000  1
  Mn  Mn4  1  0.62587133  0.62587133  0.37412867  1
  Mn  Mn5  1  0.62587133  0.87412867  0.12587133  1
  Mn  Mn6  1  0.87412867  0.62587133  0.12587133  1
  Mn  Mn7  1  0.87412867  0.87412867  0.37412867  1
  Mn  Mn8  1  0.62587133  0.12587133  0.87412867  1
  Mn  Mn9  1  0.62587133  0.37412867  0.62587133  1
  Mn  Mn10  1  0.87412867  0.12587133  0.62587133  1
  Mn  Mn11  1  0.87412867  0.37412867  0.87412867  1
  Mn  Mn12  1  0.12587133  0.62587133  0.87412867  1
  Mn  Mn13  1  0.12587133  0.87412867  0.62587133  1
  Mn  Mn14  1  0.37412867  0.62587133  0.62587133  1
  Mn  Mn15  1  0.37412867  0.87412867  0.87412867  1
  Mn  Mn16  1  0.12587133  0.12587133  0.37412867  1
  Mn  Mn17  1  0.12587133  0.37412867  0.12587133  1
  Mn  Mn18  1  0.37412867  0.12587133  0.12587133  1
  Mn  Mn19  1  0.37412867  0.37412867  0.37412867  1
  O  O20  1  0.85960533  0.85960533  0.14039467  1
  O  O21  1  0.85960533  0.64039467  0.35960533  1
  O  O22  1  0.64039467  0.85960533  0.35960533  1
  O  O23  1  0.64039467  0.64039467  0.14039467  1
  O  O24  1  0.61121700  0.61121700  0.61121700  1
  O  O25  1  0.38878300  0.61121700  0.38878300  1
  O  O26  1  0.61121700  0.38878300  0.38878300  1
  O  O27  1  0.38878300  0.38878300  0.61121700  1
  O  O28  1  0.85960533  0.35960533  0.64039467  1
  O  O29  1  0.85960533  0.14039467  0.85960533  1
  O  O30  1  0.64039467  0.35960533  0.85960533  1
  O  O31  1  0.64039467  0.14039467  0.64039467  1
  O  O32  1  0.61121700  0.11121700  0.11121700  1
  O  O33  1  0.38878300  0.11121700  0.88878300  1
  O  O34  1  0.61121700  0.88878300  0.88878300  1
  O  O35  1  0.38878300  0.88878300  0.11121700  1
  O  O36  1  0.35960533  0.85960533  0.64039467  1
  O  O37  1  0.35960533  0.64039467  0.85960533  1
  O  O38  1  0.14039467  0.85960533  0.85960533  1
  O  O39  1  0.14039467  0.64039467  0.64039467  1
  O  O40  1  0.11121700  0.61121700  0.11121700  1
  O  O41  1  0.88878300  0.61121700  0.88878300  1
  O  O42  1  0.11121700  0.38878300  0.88878300  1
  O  O43  1  0.88878300  0.38878300  0.11121700  1
  O  O44  1  0.35960533  0.35960533  0.14039467  1
  O  O45  1  0.35960533  0.14039467  0.35960533  1
  O  O46  1  0.14039467  0.35960533  0.35960533  1
  O  O47  1  0.14039467  0.14039467  0.14039467  1
  O  O48  1  0.11121700  0.11121700  0.61121700  1
  O  O49  1  0.88878300  0.11121700  0.38878300  1
  O  O50  1  0.11121700  0.88878300  0.38878300  1
  O  O51  1  0.88878300  0.88878300  0.61121700  1
