# generated using pymatgen
data_Er2FeSi2
_symmetry_space_group_name_H-M   'P 1'
_cell_length_a   10.38426000
_cell_length_b   4.11681800
_cell_length_c   9.87514424
_cell_angle_alpha   90.00000000
_cell_angle_beta   119.12495669
_cell_angle_gamma   90.00000000
_symmetry_Int_Tables_number   1
_chemical_formula_structural   Er2FeSi2
_chemical_formula_sum   'Er8 Fe4 Si8'
_cell_volume   368.78526435
_cell_formula_units_Z   4
loop_
 _symmetry_equiv_pos_site_id
 _symmetry_equiv_pos_as_xyz
  1  'x, y, z'
loop_
 _atom_site_type_symbol
 _atom_site_label
 _atom_site_symmetry_multiplicity
 _atom_site_fract_x
 _atom_site_fract_y
 _atom_site_fract_z
 _atom_site_occupancy
  Er  Er0  1  0.18844500  0.00000000  0.10908500  1
  Er  Er1  1  0.81155500  0.00000000  0.89091500  1
  Er  Er2  1  0.49928300  0.50000000  0.32781000  1
  Er  Er3  1  0.50071700  0.50000000  0.67219000  1
  Er  Er4  1  0.68844500  0.50000000  0.10908500  1
  Er  Er5  1  0.31155500  0.50000000  0.89091500  1
  Er  Er6  1  0.99928300  0.00000000  0.32781000  1
  Er  Er7  1  0.00071700  0.00000000  0.67219000  1
  Fe  Fe8  1  0.22871400  0.50000000  0.37534100  1
  Fe  Fe9  1  0.77128600  0.50000000  0.62465900  1
  Fe  Fe10  1  0.72871400  0.00000000  0.37534100  1
  Fe  Fe11  1  0.27128600  0.00000000  0.62465900  1
  Si  Si12  1  0.49884400  0.00000000  0.12646500  1
  Si  Si13  1  0.50115600  0.00000000  0.87353500  1
  Si  Si14  1  0.34698200  0.00000000  0.43649400  1
  Si  Si15  1  0.65301800  0.00000000  0.56350600  1
  Si  Si16  1  0.99884400  0.50000000  0.12646500  1
  Si  Si17  1  0.00115600  0.50000000  0.87353500  1
  Si  Si18  1  0.84698200  0.50000000  0.43649400  1
  Si  Si19  1  0.15301800  0.50000000  0.56350600  1
