# generated using pymatgen
data_Sm4Sb3
_symmetry_space_group_name_H-M   'P 1'
_cell_length_a   9.40372200
_cell_length_b   9.40372200
_cell_length_c   9.40372200
_cell_angle_alpha   90.00000000
_cell_angle_beta   90.00000000
_cell_angle_gamma   90.00000000
_symmetry_Int_Tables_number   1
_chemical_formula_structural   Sm4Sb3
_chemical_formula_sum   'Sm16 Sb12'
_cell_volume   831.57101847
_cell_formula_units_Z   4
loop_
 _symmetry_equiv_pos_site_id
 _symmetry_equiv_pos_as_xyz
  1  'x, y, z'
loop_
 _atom_site_type_symbol
 _atom_site_label
 _atom_site_symmetry_multiplicity
 _atom_site_fract_x
 _atom_site_fract_y
 _atom_site_fract_z
 _atom_site_occupancy
  Sm  Sm0  1  0.17860050  0.82139950  0.32139950  1
  Sm  Sm1  1  0.92860050  0.07139950  0.57139950  1
  Sm  Sm2  1  0.07139950  0.57139950  0.92860050  1
  Sm  Sm3  1  0.17860050  0.17860050  0.17860050  1
  Sm  Sm4  1  0.82139950  0.32139950  0.17860050  1
  Sm  Sm5  1  0.57139950  0.92860050  0.07139950  1
  Sm  Sm6  1  0.42860050  0.42860050  0.42860050  1
  Sm  Sm7  1  0.32139950  0.17860050  0.82139950  1
  Sm  Sm8  1  0.67860050  0.32139950  0.82139950  1
  Sm  Sm9  1  0.42860050  0.57139950  0.07139950  1
  Sm  Sm10  1  0.57139950  0.07139950  0.42860050  1
  Sm  Sm11  1  0.67860050  0.67860050  0.67860050  1
  Sm  Sm12  1  0.32139950  0.82139950  0.67860050  1
  Sm  Sm13  1  0.07139950  0.42860050  0.57139950  1
  Sm  Sm14  1  0.92860050  0.92860050  0.92860050  1
  Sm  Sm15  1  0.82139950  0.67860050  0.32139950  1
  Sb  Sb16  1  0.50000000  0.25000000  0.12500000  1
  Sb  Sb17  1  0.75000000  0.37500000  0.50000000  1
  Sb  Sb18  1  0.25000000  0.12500000  0.50000000  1
  Sb  Sb19  1  0.50000000  0.75000000  0.37500000  1
  Sb  Sb20  1  0.37500000  0.50000000  0.75000000  1
  Sb  Sb21  1  0.12500000  0.50000000  0.25000000  1
  Sb  Sb22  1  0.00000000  0.75000000  0.62500000  1
  Sb  Sb23  1  0.25000000  0.87500000  0.00000000  1
  Sb  Sb24  1  0.75000000  0.62500000  0.00000000  1
  Sb  Sb25  1  0.00000000  0.25000000  0.87500000  1
  Sb  Sb26  1  0.87500000  0.00000000  0.25000000  1
  Sb  Sb27  1  0.62500000  0.00000000  0.75000000  1
