# generated using pymatgen
data_SrNd5S8
_symmetry_space_group_name_H-M   'P 1'
_cell_length_a   8.64006800
_cell_length_b   8.64006800
_cell_length_c   8.64423000
_cell_angle_alpha   90.00000000
_cell_angle_beta   90.00000000
_cell_angle_gamma   90.00000000
_symmetry_Int_Tables_number   1
_chemical_formula_structural   SrNd5S8
_chemical_formula_sum   'Sr2 Nd10 S16'
_cell_volume   645.29846916
_cell_formula_units_Z   2
loop_
 _symmetry_equiv_pos_site_id
 _symmetry_equiv_pos_as_xyz
  1  'x, y, z'
loop_
 _atom_site_type_symbol
 _atom_site_label
 _atom_site_symmetry_multiplicity
 _atom_site_fract_x
 _atom_site_fract_y
 _atom_site_fract_z
 _atom_site_occupancy
  Sr  Sr0  1  0.00000000  0.00000000  0.00000000  1
  Sr  Sr1  1  0.50000000  0.50000000  0.50000000  1
  Nd  Nd2  1  0.24926050  0.62393750  0.87265950  1
  Nd  Nd3  1  0.00000000  0.50000000  0.25000000  1
  Nd  Nd4  1  0.25073950  0.87606250  0.37265950  1
  Nd  Nd5  1  0.37606250  0.24926050  0.12734050  1
  Nd  Nd6  1  0.12393750  0.25073950  0.62734050  1
  Nd  Nd7  1  0.74926050  0.12393750  0.37265950  1
  Nd  Nd8  1  0.50000000  0.00000000  0.75000000  1
  Nd  Nd9  1  0.75073950  0.37606250  0.87265950  1
  Nd  Nd10  1  0.87606250  0.74926050  0.62734050  1
  Nd  Nd11  1  0.62393750  0.75073950  0.12734050  1
  S  S12  1  0.17866150  0.92492550  0.69328650  1
  S  S13  1  0.07567400  0.32899000  0.94960800  1
  S  S14  1  0.07507450  0.17866150  0.30671350  1
  S  S15  1  0.42492550  0.32133850  0.80671350  1
  S  S16  1  0.32133850  0.57507450  0.19328650  1
  S  S17  1  0.82899000  0.42432600  0.55039200  1
  S  S18  1  0.67101000  0.07567400  0.05039200  1
  S  S19  1  0.42432600  0.17101000  0.44960800  1
  S  S20  1  0.67866150  0.42492550  0.19328650  1
  S  S21  1  0.57567400  0.82899000  0.44960800  1
  S  S22  1  0.57507450  0.67866150  0.80671350  1
  S  S23  1  0.92492550  0.82133850  0.30671350  1
  S  S24  1  0.82133850  0.07507450  0.69328650  1
  S  S25  1  0.32899000  0.92432600  0.05039200  1
  S  S26  1  0.17101000  0.57567400  0.55039200  1
  S  S27  1  0.92432600  0.67101000  0.94960800  1
