# generated using pymatgen
data_Li3Mo2(PO4)3
_symmetry_space_group_name_H-M   'P 1'
_cell_length_a   8.60384837
_cell_length_b   8.60384837
_cell_length_c   23.22816598
_cell_angle_alpha   90.00000000
_cell_angle_beta   90.00000000
_cell_angle_gamma   120.00000000
_symmetry_Int_Tables_number   1
_chemical_formula_structural   Li3Mo2(PO4)3
_chemical_formula_sum   'Li18 Mo12 P18 O72'
_cell_volume   1489.12463593
_cell_formula_units_Z   6
loop_
 _symmetry_equiv_pos_site_id
 _symmetry_equiv_pos_as_xyz
  1  'x, y, z'
loop_
 _atom_site_type_symbol
 _atom_site_label
 _atom_site_symmetry_multiplicity
 _atom_site_fract_x
 _atom_site_fract_y
 _atom_site_fract_z
 _atom_site_occupancy
  Li  Li0  1  0.37982600  0.01863200  0.28535300  1
  Li  Li1  1  0.98136800  0.36119400  0.28535300  1
  Li  Li2  1  0.63880600  0.62017400  0.28535300  1
  Li  Li3  1  0.02786067  0.71315933  0.04798033  1
  Li  Li4  1  0.68529867  0.97213933  0.04798033  1
  Li  Li5  1  0.28684067  0.31470133  0.04798033  1
  Li  Li6  1  0.04649267  0.35196533  0.61868633  1
  Li  Li7  1  0.64803467  0.69452733  0.61868633  1
  Li  Li8  1  0.30547267  0.95350733  0.61868633  1
  Li  Li9  1  0.69452733  0.04649267  0.38131367  1
  Li  Li10  1  0.35196533  0.30547267  0.38131367  1
  Li  Li11  1  0.95350733  0.64803467  0.38131367  1
  Li  Li12  1  0.71315933  0.68529867  0.95201967  1
  Li  Li13  1  0.31470133  0.02786067  0.95201967  1
  Li  Li14  1  0.97213933  0.28684067  0.95201967  1
  Li  Li15  1  0.36119400  0.37982600  0.71464700  1
  Li  Li16  1  0.01863200  0.63880600  0.71464700  1
  Li  Li17  1  0.62017400  0.98136800  0.71464700  1
  Mo  Mo18  1  0.33333333  0.66666667  0.31888267  1
  Mo  Mo19  1  0.00000000  0.00000000  0.14524600  1
  Mo  Mo20  1  0.66666667  0.33333333  0.18808733  1
  Mo  Mo21  1  0.33333333  0.66666667  0.01445067  1
  Mo  Mo22  1  0.00000000  0.00000000  0.65221600  1
  Mo  Mo23  1  0.66666667  0.33333333  0.47857933  1
  Mo  Mo24  1  0.33333333  0.66666667  0.52142067  1
  Mo  Mo25  1  0.00000000  0.00000000  0.34778400  1
  Mo  Mo26  1  0.66666667  0.33333333  0.98554933  1
  Mo  Mo27  1  0.33333333  0.66666667  0.81191267  1
  Mo  Mo28  1  0.00000000  0.00000000  0.85475400  1
  Mo  Mo29  1  0.66666667  0.33333333  0.68111733  1
  P  P30  1  0.66847600  0.62714400  0.08221700  1
  P  P31  1  0.70799867  0.00180933  0.25111633  1
  P  P32  1  0.37285600  0.04133200  0.08221700  1
  P  P33  1  0.29381067  0.29200133  0.25111633  1
  P  P34  1  0.99819067  0.70618933  0.25111633  1
  P  P35  1  0.95866800  0.33152400  0.08221700  1
  P  P36  1  0.33514267  0.96047733  0.41555033  1
  P  P37  1  0.37466533  0.33514267  0.58444967  1
  P  P38  1  0.03952267  0.37466533  0.41555033  1
  P  P39  1  0.96047733  0.62533467  0.58444967  1
  P  P40  1  0.66485733  0.03952267  0.58444967  1
  P  P41  1  0.62533467  0.66485733  0.41555033  1
  P  P42  1  0.00180933  0.29381067  0.74888367  1
  P  P43  1  0.04133200  0.66847600  0.91778300  1
  P  P44  1  0.70618933  0.70799867  0.74888367  1
  P  P45  1  0.62714400  0.95866800  0.91778300  1
  P  P46  1  0.33152400  0.37285600  0.91778300  1
  P  P47  1  0.29200133  0.99819067  0.74888367  1
  O  O48  1  0.76242833  0.58352567  0.03056567  1
  O  O49  1  0.77842100  0.83473600  0.08821400  1
  O  O50  1  0.47227367  0.56726233  0.06416533  1
  O  O51  1  0.82109733  0.23757167  0.03056567  1
  O  O52  1  0.90423833  0.74980767  0.30276767  1
  O  O53  1  0.88824567  0.49859733  0.24511933  1
  O  O54  1  0.19439300  0.76607100  0.26916800  1
  O  O55  1  0.84556933  0.09576167  0.30276767  1
  O  O56  1  0.86119467  0.32700433  0.13680033  1
  O  O57  1  0.25019233  0.15443067  0.30276767  1
  O  O58  1  0.99367100  0.79914300  0.19653300  1
  O  O59  1  0.61035167  0.11175433  0.24511933  1
  O  O60  1  0.23392900  0.42832200  0.26916800  1
  O  O61  1  0.50140267  0.38964833  0.24511933  1
  O  O62  1  0.09498867  0.52772633  0.06416533  1
  O  O63  1  0.20085700  0.19452800  0.19653300  1
  O  O64  1  0.46580967  0.13880533  0.13680033  1
  O  O65  1  0.57167800  0.80560700  0.26916800  1
  O  O66  1  0.16526400  0.94368500  0.08821400  1
  O  O67  1  0.43273767  0.90501133  0.06416533  1
  O  O68  1  0.05631500  0.22157900  0.08821400  1
  O  O69  1  0.67299567  0.53419033  0.13680033  1
  O  O70  1  0.41647433  0.17890267  0.03056567  1
  O  O71  1  0.80547200  0.00632900  0.19653300  1
  O  O72  1  0.42909500  0.91685900  0.36389900  1
  O  O73  1  0.44508767  0.16806933  0.42154733  1
  O  O74  1  0.13894033  0.90059567  0.39749867  1
  O  O75  1  0.48776400  0.57090500  0.36389900  1
  O  O76  1  0.57090500  0.08314100  0.63610100  1
  O  O77  1  0.55491233  0.83193067  0.57845267  1
  O  O78  1  0.86105967  0.09940433  0.60250133  1
  O  O79  1  0.51223600  0.42909500  0.63610100  1
  O  O80  1  0.52786133  0.66033767  0.47013367  1
  O  O81  1  0.91685900  0.48776400  0.63610100  1
  O  O82  1  0.66033767  0.13247633  0.52986633  1
  O  O83  1  0.27701833  0.44508767  0.57845267  1
  O  O84  1  0.90059567  0.76165533  0.60250133  1
  O  O85  1  0.16806933  0.72298167  0.57845267  1
  O  O86  1  0.76165533  0.86105967  0.39749867  1
  O  O87  1  0.86752367  0.52786133  0.52986633  1
  O  O88  1  0.13247633  0.47213867  0.47013367  1
  O  O89  1  0.23834467  0.13894033  0.60250133  1
  O  O90  1  0.83193067  0.27701833  0.42154733  1
  O  O91  1  0.09940433  0.23834467  0.39749867  1
  O  O92  1  0.72298167  0.55491233  0.42154733  1
  O  O93  1  0.33966233  0.86752367  0.47013367  1
  O  O94  1  0.08314100  0.51223600  0.36389900  1
  O  O95  1  0.47213867  0.33966233  0.52986633  1
  O  O96  1  0.09576167  0.25019233  0.69723233  1
  O  O97  1  0.11175433  0.50140267  0.75488067  1
  O  O98  1  0.80560700  0.23392900  0.73083200  1
  O  O99  1  0.15443067  0.90423833  0.69723233  1
  O  O100  1  0.23757167  0.41647433  0.96943433  1
  O  O101  1  0.22157900  0.16526400  0.91178600  1
  O  O102  1  0.52772633  0.43273767  0.93583467  1
  O  O103  1  0.17890267  0.76242833  0.96943433  1
  O  O104  1  0.19452800  0.99367100  0.80346700  1
  O  O105  1  0.58352567  0.82109733  0.96943433  1
  O  O106  1  0.32700433  0.46580967  0.86319967  1
  O  O107  1  0.94368500  0.77842100  0.91178600  1
  O  O108  1  0.56726233  0.09498867  0.93583467  1
  O  O109  1  0.83473600  0.05631500  0.91178600  1
  O  O110  1  0.42832200  0.19439300  0.73083200  1
  O  O111  1  0.53419033  0.86119467  0.86319967  1
  O  O112  1  0.79914300  0.80547200  0.80346700  1
  O  O113  1  0.90501133  0.47227367  0.93583467  1
  O  O114  1  0.49859733  0.61035167  0.75488067  1
  O  O115  1  0.76607100  0.57167800  0.73083200  1
  O  O116  1  0.38964833  0.88824567  0.75488067  1
  O  O117  1  0.00632900  0.20085700  0.80346700  1
  O  O118  1  0.74980767  0.84556933  0.69723233  1
  O  O119  1  0.13880533  0.67299567  0.86319967  1
