# generated using pymatgen
data_Ta2VO6
_symmetry_space_group_name_H-M   'P 1'
_cell_length_a   4.84074100
_cell_length_b   4.84074100
_cell_length_c   9.24550000
_cell_angle_alpha   90.00000000
_cell_angle_beta   90.00000000
_cell_angle_gamma   90.00000000
_symmetry_Int_Tables_number   1
_chemical_formula_structural   Ta2VO6
_chemical_formula_sum   'Ta4 V2 O12'
_cell_volume   216.64770674
_cell_formula_units_Z   2
loop_
 _symmetry_equiv_pos_site_id
 _symmetry_equiv_pos_as_xyz
  1  'x, y, z'
loop_
 _atom_site_type_symbol
 _atom_site_label
 _atom_site_symmetry_multiplicity
 _atom_site_fract_x
 _atom_site_fract_y
 _atom_site_fract_z
 _atom_site_occupancy
  Ta  Ta0  1  0.00000000  0.00000000  0.33053900  1
  Ta  Ta1  1  0.50000000  0.50000000  0.83053900  1
  Ta  Ta2  1  0.00000000  0.00000000  0.66946100  1
  Ta  Ta3  1  0.50000000  0.50000000  0.16946100  1
  V  V4  1  0.50000000  0.50000000  0.50000000  1
  V  V5  1  0.00000000  0.00000000  0.00000000  1
  O  O6  1  0.81459800  0.81459800  0.50000000  1
  O  O7  1  0.68540200  0.31459800  0.00000000  1
  O  O8  1  0.31459800  0.68540200  0.00000000  1
  O  O9  1  0.18540200  0.18540200  0.50000000  1
  O  O10  1  0.20576600  0.20576600  0.17857200  1
  O  O11  1  0.79423400  0.79423400  0.17857200  1
  O  O12  1  0.20576600  0.20576600  0.82142800  1
  O  O13  1  0.70576600  0.29423400  0.67857200  1
  O  O14  1  0.29423400  0.70576600  0.67857200  1
  O  O15  1  0.29423400  0.70576600  0.32142800  1
  O  O16  1  0.79423400  0.79423400  0.82142800  1
  O  O17  1  0.70576600  0.29423400  0.32142800  1
