# generated using pymatgen
data_Mg2Ta3N5
_symmetry_space_group_name_H-M   'P 1'
_cell_length_a   5.35923200
_cell_length_b   15.49892200
_cell_length_c   5.31892059
_cell_angle_alpha   90.00000000
_cell_angle_beta   109.14173910
_cell_angle_gamma   90.00000000
_symmetry_Int_Tables_number   1
_chemical_formula_structural   Mg2Ta3N5
_chemical_formula_sum   'Mg8 Ta12 N20'
_cell_volume   417.37477867
_cell_formula_units_Z   4
loop_
 _symmetry_equiv_pos_site_id
 _symmetry_equiv_pos_as_xyz
  1  'x, y, z'
loop_
 _atom_site_type_symbol
 _atom_site_label
 _atom_site_symmetry_multiplicity
 _atom_site_fract_x
 _atom_site_fract_y
 _atom_site_fract_z
 _atom_site_occupancy
  Mg  Mg0  1  0.00000000  0.55108800  0.25000000  1
  Mg  Mg1  1  0.50000000  0.94891200  0.75000000  1
  Mg  Mg2  1  0.00000000  0.74848600  0.25000000  1
  Mg  Mg3  1  0.50000000  0.75151400  0.75000000  1
  Mg  Mg4  1  0.50000000  0.05108800  0.25000000  1
  Mg  Mg5  1  0.00000000  0.44891200  0.75000000  1
  Mg  Mg6  1  0.50000000  0.24848600  0.25000000  1
  Mg  Mg7  1  0.00000000  0.25151400  0.75000000  1
  Ta  Ta8  1  0.50000000  0.64933200  0.25000000  1
  Ta  Ta9  1  0.00000000  0.64734700  0.75000000  1
  Ta  Ta10  1  0.00000000  0.95374100  0.25000000  1
  Ta  Ta11  1  0.50000000  0.54625900  0.75000000  1
  Ta  Ta12  1  0.50000000  0.85265300  0.25000000  1
  Ta  Ta13  1  0.00000000  0.85066800  0.75000000  1
  Ta  Ta14  1  0.00000000  0.14933200  0.25000000  1
  Ta  Ta15  1  0.50000000  0.14734700  0.75000000  1
  Ta  Ta16  1  0.50000000  0.45374100  0.25000000  1
  Ta  Ta17  1  0.00000000  0.04625900  0.75000000  1
  Ta  Ta18  1  0.00000000  0.35265300  0.25000000  1
  Ta  Ta19  1  0.50000000  0.35066800  0.75000000  1
  N  N20  1  0.74516050  0.65021650  0.99968100  1
  N  N21  1  0.23954850  0.54926050  0.00180100  1
  N  N22  1  0.25483950  0.65021650  0.50031900  1
  N  N23  1  0.26045150  0.95073950  0.99819900  1
  N  N24  1  0.76045150  0.54926050  0.49819900  1
  N  N25  1  0.75483950  0.84978350  0.00031900  1
  N  N26  1  0.73954850  0.95073950  0.50180100  1
  N  N27  1  0.25000000  0.75000000  0.00000000  1
  N  N28  1  0.24516050  0.84978350  0.49968100  1
  N  N29  1  0.75000000  0.75000000  0.50000000  1
  N  N30  1  0.24516050  0.15021650  0.99968100  1
  N  N31  1  0.73954850  0.04926050  0.00180100  1
  N  N32  1  0.75483950  0.15021650  0.50031900  1
  N  N33  1  0.76045150  0.45073950  0.99819900  1
  N  N34  1  0.26045150  0.04926050  0.49819900  1
  N  N35  1  0.25483950  0.34978350  0.00031900  1
  N  N36  1  0.23954850  0.45073950  0.50180100  1
  N  N37  1  0.75000000  0.25000000  0.00000000  1
  N  N38  1  0.74516050  0.34978350  0.49968100  1
  N  N39  1  0.25000000  0.25000000  0.50000000  1
