# generated using pymatgen
data_CeSbO3
_symmetry_space_group_name_H-M   'P 1'
_cell_length_a   10.98555200
_cell_length_b   10.98555200
_cell_length_c   10.98555200
_cell_angle_alpha   90.00000000
_cell_angle_beta   90.00000000
_cell_angle_gamma   90.00000000
_symmetry_Int_Tables_number   1
_chemical_formula_structural   CeSbO3
_chemical_formula_sum   'Ce16 Sb16 O48'
_cell_volume   1325.76226156
_cell_formula_units_Z   16
loop_
 _symmetry_equiv_pos_site_id
 _symmetry_equiv_pos_as_xyz
  1  'x, y, z'
loop_
 _atom_site_type_symbol
 _atom_site_label
 _atom_site_symmetry_multiplicity
 _atom_site_fract_x
 _atom_site_fract_y
 _atom_site_fract_z
 _atom_site_occupancy
  Ce  Ce0  1  0.37500000  0.12500000  0.37500000  1
  Ce  Ce1  1  0.62500000  0.87500000  0.37500000  1
  Ce  Ce2  1  0.12500000  0.12500000  0.12500000  1
  Ce  Ce3  1  0.87500000  0.87500000  0.12500000  1
  Ce  Ce4  1  0.37500000  0.62500000  0.87500000  1
  Ce  Ce5  1  0.62500000  0.37500000  0.87500000  1
  Ce  Ce6  1  0.12500000  0.62500000  0.62500000  1
  Ce  Ce7  1  0.87500000  0.37500000  0.62500000  1
  Ce  Ce8  1  0.87500000  0.12500000  0.87500000  1
  Ce  Ce9  1  0.12500000  0.87500000  0.87500000  1
  Ce  Ce10  1  0.62500000  0.12500000  0.62500000  1
  Ce  Ce11  1  0.37500000  0.87500000  0.62500000  1
  Ce  Ce12  1  0.87500000  0.62500000  0.37500000  1
  Ce  Ce13  1  0.12500000  0.37500000  0.37500000  1
  Ce  Ce14  1  0.62500000  0.62500000  0.12500000  1
  Ce  Ce15  1  0.37500000  0.37500000  0.12500000  1
  Sb  Sb16  1  0.12500000  0.87500000  0.37500000  1
  Sb  Sb17  1  0.37500000  0.87500000  0.12500000  1
  Sb  Sb18  1  0.37500000  0.62500000  0.37500000  1
  Sb  Sb19  1  0.12500000  0.62500000  0.12500000  1
  Sb  Sb20  1  0.12500000  0.37500000  0.87500000  1
  Sb  Sb21  1  0.37500000  0.37500000  0.62500000  1
  Sb  Sb22  1  0.37500000  0.12500000  0.87500000  1
  Sb  Sb23  1  0.12500000  0.12500000  0.62500000  1
  Sb  Sb24  1  0.62500000  0.87500000  0.87500000  1
  Sb  Sb25  1  0.87500000  0.87500000  0.62500000  1
  Sb  Sb26  1  0.87500000  0.62500000  0.87500000  1
  Sb  Sb27  1  0.62500000  0.62500000  0.62500000  1
  Sb  Sb28  1  0.62500000  0.37500000  0.37500000  1
  Sb  Sb29  1  0.87500000  0.37500000  0.12500000  1
  Sb  Sb30  1  0.87500000  0.12500000  0.37500000  1
  Sb  Sb31  1  0.62500000  0.12500000  0.12500000  1
  O  O32  1  0.25000000  0.01786100  0.25000000  1
  O  O33  1  0.48213900  0.25000000  0.25000000  1
  O  O34  1  0.25000000  0.25000000  0.01786100  1
  O  O35  1  0.25000000  0.25000000  0.48213900  1
  O  O36  1  0.73213900  0.00000000  0.50000000  1
  O  O37  1  0.50000000  0.76786100  0.50000000  1
  O  O38  1  0.25000000  0.48213900  0.25000000  1
  O  O39  1  0.01786100  0.25000000  0.25000000  1
  O  O40  1  0.00000000  0.00000000  0.23213900  1
  O  O41  1  0.50000000  0.00000000  0.26786100  1
  O  O42  1  0.50000000  0.23213900  0.50000000  1
  O  O43  1  0.26786100  0.00000000  0.50000000  1
  O  O44  1  0.25000000  0.51786100  0.75000000  1
  O  O45  1  0.48213900  0.75000000  0.75000000  1
  O  O46  1  0.25000000  0.75000000  0.51786100  1
  O  O47  1  0.25000000  0.75000000  0.98213900  1
  O  O48  1  0.73213900  0.50000000  0.00000000  1
  O  O49  1  0.50000000  0.26786100  0.00000000  1
  O  O50  1  0.25000000  0.98213900  0.75000000  1
  O  O51  1  0.01786100  0.75000000  0.75000000  1
  O  O52  1  0.00000000  0.50000000  0.73213900  1
  O  O53  1  0.50000000  0.50000000  0.76786100  1
  O  O54  1  0.50000000  0.73213900  0.00000000  1
  O  O55  1  0.26786100  0.50000000  0.00000000  1
  O  O56  1  0.75000000  0.01786100  0.75000000  1
  O  O57  1  0.98213900  0.25000000  0.75000000  1
  O  O58  1  0.75000000  0.25000000  0.51786100  1
  O  O59  1  0.75000000  0.25000000  0.98213900  1
  O  O60  1  0.23213900  0.00000000  0.00000000  1
  O  O61  1  0.00000000  0.76786100  0.00000000  1
  O  O62  1  0.75000000  0.48213900  0.75000000  1
  O  O63  1  0.51786100  0.25000000  0.75000000  1
  O  O64  1  0.50000000  0.00000000  0.73213900  1
  O  O65  1  0.00000000  0.00000000  0.76786100  1
  O  O66  1  0.00000000  0.23213900  0.00000000  1
  O  O67  1  0.76786100  0.00000000  0.00000000  1
  O  O68  1  0.75000000  0.51786100  0.25000000  1
  O  O69  1  0.98213900  0.75000000  0.25000000  1
  O  O70  1  0.75000000  0.75000000  0.01786100  1
  O  O71  1  0.75000000  0.75000000  0.48213900  1
  O  O72  1  0.23213900  0.50000000  0.50000000  1
  O  O73  1  0.00000000  0.26786100  0.50000000  1
  O  O74  1  0.75000000  0.98213900  0.25000000  1
  O  O75  1  0.51786100  0.75000000  0.25000000  1
  O  O76  1  0.50000000  0.50000000  0.23213900  1
  O  O77  1  0.00000000  0.50000000  0.26786100  1
  O  O78  1  0.00000000  0.73213900  0.50000000  1
  O  O79  1  0.76786100  0.50000000  0.50000000  1
