# generated using pymatgen
data_Ce2B2Ir5
_symmetry_space_group_name_H-M   'P 1'
_cell_length_a   5.50884778
_cell_length_b   5.50884778
_cell_length_c   31.74932838
_cell_angle_alpha   90.00000000
_cell_angle_beta   90.00000000
_cell_angle_gamma   120.00000000
_symmetry_Int_Tables_number   1
_chemical_formula_structural   Ce2B2Ir5
_chemical_formula_sum   'Ce12 B12 Ir30'
_cell_volume   834.42386746
_cell_formula_units_Z   6
loop_
 _symmetry_equiv_pos_site_id
 _symmetry_equiv_pos_as_xyz
  1  'x, y, z'
loop_
 _atom_site_type_symbol
 _atom_site_label
 _atom_site_symmetry_multiplicity
 _atom_site_fract_x
 _atom_site_fract_y
 _atom_site_fract_z
 _atom_site_occupancy
  Ce  Ce0  1  0.00000000  0.00000000  0.15215500  1
  Ce  Ce1  1  0.66666667  0.33333333  0.28205433  1
  Ce  Ce2  1  0.66666667  0.33333333  0.18117833  1
  Ce  Ce3  1  0.00000000  0.00000000  0.05127900  1
  Ce  Ce4  1  0.66666667  0.33333333  0.48548833  1
  Ce  Ce5  1  0.33333333  0.66666667  0.61538767  1
  Ce  Ce6  1  0.33333333  0.66666667  0.51451167  1
  Ce  Ce7  1  0.66666667  0.33333333  0.38461233  1
  Ce  Ce8  1  0.33333333  0.66666667  0.81882167  1
  Ce  Ce9  1  0.00000000  0.00000000  0.94872100  1
  Ce  Ce10  1  0.00000000  0.00000000  0.84784500  1
  Ce  Ce11  1  0.33333333  0.66666667  0.71794567  1
  B  B12  1  0.33333333  0.66666667  0.28422967  1
  B  B13  1  0.66666667  0.33333333  0.04996633  1
  B  B14  1  0.33333333  0.66666667  0.04910367  1
  B  B15  1  0.00000000  0.00000000  0.28336700  1
  B  B16  1  0.00000000  0.00000000  0.61756300  1
  B  B17  1  0.33333333  0.66666667  0.38329967  1
  B  B18  1  0.00000000  0.00000000  0.38243700  1
  B  B19  1  0.66666667  0.33333333  0.61670033  1
  B  B20  1  0.66666667  0.33333333  0.95089633  1
  B  B21  1  0.00000000  0.00000000  0.71663300  1
  B  B22  1  0.66666667  0.33333333  0.71577033  1
  B  B23  1  0.33333333  0.66666667  0.95003367  1
  Ir  Ir24  1  0.16904100  0.83095900  0.23739300  1
  Ir  Ir25  1  0.66191800  0.83095900  0.23739300  1
  Ir  Ir26  1  0.50000000  0.00000000  0.00000000  1
  Ir  Ir27  1  0.50000000  0.50000000  0.00000000  1
  Ir  Ir28  1  0.00000000  0.50000000  0.00000000  1
  Ir  Ir29  1  0.33333333  0.66666667  0.16666667  1
  Ir  Ir30  1  0.49762567  0.50237433  0.09594033  1
  Ir  Ir31  1  0.49762567  0.99525133  0.09594033  1
  Ir  Ir32  1  0.00474867  0.50237433  0.09594033  1
  Ir  Ir33  1  0.16904100  0.33808200  0.23739300  1
  Ir  Ir34  1  0.83570767  0.16429233  0.57072633  1
  Ir  Ir35  1  0.32858467  0.16429233  0.57072633  1
  Ir  Ir36  1  0.16666667  0.33333333  0.33333333  1
  Ir  Ir37  1  0.16666667  0.83333333  0.33333333  1
  Ir  Ir38  1  0.66666667  0.83333333  0.33333333  1
  Ir  Ir39  1  1.00000000  1.00000000  0.50000000  1
  Ir  Ir40  1  0.16429233  0.83570767  0.42927367  1
  Ir  Ir41  1  0.16429233  0.32858467  0.42927367  1
  Ir  Ir42  1  0.67141533  0.83570767  0.42927367  1
  Ir  Ir43  1  0.83570767  0.67141533  0.57072633  1
  Ir  Ir44  1  0.50237433  0.49762567  0.90405967  1
  Ir  Ir45  1  0.99525133  0.49762567  0.90405967  1
  Ir  Ir46  1  0.83333333  0.66666667  0.66666667  1
  Ir  Ir47  1  0.83333333  0.16666667  0.66666667  1
  Ir  Ir48  1  0.33333333  0.16666667  0.66666667  1
  Ir  Ir49  1  0.66666667  0.33333333  0.83333333  1
  Ir  Ir50  1  0.83095900  0.16904100  0.76260700  1
  Ir  Ir51  1  0.83095900  0.66191800  0.76260700  1
  Ir  Ir52  1  0.33808200  0.16904100  0.76260700  1
  Ir  Ir53  1  0.50237433  0.00474867  0.90405967  1
