# generated using pymatgen
data_Co5RuO8
_symmetry_space_group_name_H-M   'P 1'
_cell_length_a   5.97115169
_cell_length_b   5.97115169
_cell_length_c   14.89219599
_cell_angle_alpha   90.00000000
_cell_angle_beta   90.00000000
_cell_angle_gamma   120.00000000
_symmetry_Int_Tables_number   1
_chemical_formula_structural   Co5RuO8
_chemical_formula_sum   'Co15 Ru3 O24'
_cell_volume   459.83876757
_cell_formula_units_Z   3
loop_
 _symmetry_equiv_pos_site_id
 _symmetry_equiv_pos_as_xyz
  1  'x, y, z'
loop_
 _atom_site_type_symbol
 _atom_site_label
 _atom_site_symmetry_multiplicity
 _atom_site_fract_x
 _atom_site_fract_y
 _atom_site_fract_z
 _atom_site_occupancy
  Co  Co0  1  0.66666667  0.33333333  0.20081133  1
  Co  Co1  1  0.00000000  0.50000000  0.00000000  1
  Co  Co2  1  0.50000000  0.50000000  0.00000000  1
  Co  Co3  1  0.50000000  0.00000000  0.00000000  1
  Co  Co4  1  0.00000000  0.00000000  0.13252200  1
  Co  Co5  1  0.33333333  0.66666667  0.53414467  1
  Co  Co6  1  0.66666667  0.83333333  0.33333333  1
  Co  Co7  1  0.16666667  0.83333333  0.33333333  1
  Co  Co8  1  0.16666667  0.33333333  0.33333333  1
  Co  Co9  1  0.66666667  0.33333333  0.46585533  1
  Co  Co10  1  0.00000000  0.00000000  0.86747800  1
  Co  Co11  1  0.33333333  0.16666667  0.66666667  1
  Co  Co12  1  0.83333333  0.16666667  0.66666667  1
  Co  Co13  1  0.83333333  0.66666667  0.66666667  1
  Co  Co14  1  0.33333333  0.66666667  0.79918867  1
  Ru  Ru15  1  0.33333333  0.66666667  0.16666667  1
  Ru  Ru16  1  1.00000000  1.00000000  0.50000000  1
  Ru  Ru17  1  0.66666667  0.33333333  0.83333333  1
  O  O18  1  0.48779267  0.97558533  0.24717733  1
  O  O19  1  0.48779267  0.51220733  0.24717733  1
  O  O20  1  0.02441467  0.51220733  0.24717733  1
  O  O21  1  0.66666667  0.33333333  0.06626233  1
  O  O22  1  0.00000000  0.00000000  0.26707100  1
  O  O23  1  0.64225200  0.82112600  0.08615600  1
  O  O24  1  0.17887400  0.82112600  0.08615600  1
  O  O25  1  0.17887400  0.35774800  0.08615600  1
  O  O26  1  0.15445933  0.30891867  0.58051067  1
  O  O27  1  0.15445933  0.84554067  0.58051067  1
  O  O28  1  0.69108133  0.84554067  0.58051067  1
  O  O29  1  0.33333333  0.66666667  0.39959567  1
  O  O30  1  0.66666667  0.33333333  0.60040433  1
  O  O31  1  0.30891867  0.15445933  0.41948933  1
  O  O32  1  0.84554067  0.15445933  0.41948933  1
  O  O33  1  0.84554067  0.69108133  0.41948933  1
  O  O34  1  0.82112600  0.64225200  0.91384400  1
  O  O35  1  0.82112600  0.17887400  0.91384400  1
  O  O36  1  0.35774800  0.17887400  0.91384400  1
  O  O37  1  0.00000000  0.00000000  0.73292900  1
  O  O38  1  0.33333333  0.66666667  0.93373767  1
  O  O39  1  0.97558533  0.48779267  0.75282267  1
  O  O40  1  0.51220733  0.48779267  0.75282267  1
  O  O41  1  0.51220733  0.02441467  0.75282267  1
