# generated using pymatgen
data_Li3Mo(PO4)2
_symmetry_space_group_name_H-M   'P 1'
_cell_length_a   8.41543900
_cell_length_b   5.55980200
_cell_length_c   6.24208900
_cell_angle_alpha   90.00000000
_cell_angle_beta   90.00168168
_cell_angle_gamma   90.00000000
_symmetry_Int_Tables_number   1
_chemical_formula_structural   Li3Mo(PO4)2
_chemical_formula_sum   'Li6 Mo2 P4 O16'
_cell_volume   292.05594990
_cell_formula_units_Z   2
loop_
 _symmetry_equiv_pos_site_id
 _symmetry_equiv_pos_as_xyz
  1  'x, y, z'
loop_
 _atom_site_type_symbol
 _atom_site_label
 _atom_site_symmetry_multiplicity
 _atom_site_fract_x
 _atom_site_fract_y
 _atom_site_fract_z
 _atom_site_occupancy
  Li  Li0  1  0.83215050  0.00000000  0.71992650  1
  Li  Li1  1  0.00000000  0.50000000  0.50000000  1
  Li  Li2  1  0.66784950  0.50000000  0.28007350  1
  Li  Li3  1  0.33215050  0.50000000  0.71992650  1
  Li  Li4  1  0.50000000  0.00000000  0.50000000  1
  Li  Li5  1  0.16784950  0.00000000  0.28007350  1
  Mo  Mo6  1  0.00000000  0.50000000  0.00000000  1
  Mo  Mo7  1  0.50000000  0.00000000  0.00000000  1
  P  P8  1  0.64975400  0.50000000  0.76447550  1
  P  P9  1  0.85024600  0.00000000  0.23552450  1
  P  P10  1  0.14975400  0.00000000  0.76447550  1
  P  P11  1  0.35024600  0.50000000  0.23552450  1
  O  O12  1  0.74811900  0.50000000  0.97555100  1
  O  O13  1  0.74331450  0.00000000  0.43091500  1
  O  O14  1  0.75188100  0.00000000  0.02444900  1
  O  O15  1  0.75668550  0.50000000  0.56908500  1
  O  O16  1  0.96596950  0.77587450  0.23769750  1
  O  O17  1  0.46596950  0.72412550  0.23769750  1
  O  O18  1  0.03403050  0.77587450  0.76230250  1
  O  O19  1  0.53403050  0.72412550  0.76230250  1
  O  O20  1  0.24811900  0.00000000  0.97555100  1
  O  O21  1  0.24331450  0.50000000  0.43091500  1
  O  O22  1  0.25188100  0.50000000  0.02444900  1
  O  O23  1  0.25668550  0.00000000  0.56908500  1
  O  O24  1  0.46596950  0.27587450  0.23769750  1
  O  O25  1  0.96596950  0.22412550  0.23769750  1
  O  O26  1  0.53403050  0.27587450  0.76230250  1
  O  O27  1  0.03403050  0.22412550  0.76230250  1
