# generated using pymatgen
data_NdSi2Ni
_symmetry_space_group_name_H-M   'P 1'
_cell_length_a   4.14591000
_cell_length_b   16.42674800
_cell_length_c   4.06844000
_cell_angle_alpha   90.00000000
_cell_angle_beta   90.00000000
_cell_angle_gamma   90.00000000
_symmetry_Int_Tables_number   1
_chemical_formula_structural   NdSi2Ni
_chemical_formula_sum   'Nd4 Si8 Ni4'
_cell_volume   277.07630056
_cell_formula_units_Z   4
loop_
 _symmetry_equiv_pos_site_id
 _symmetry_equiv_pos_as_xyz
  1  'x, y, z'
loop_
 _atom_site_type_symbol
 _atom_site_label
 _atom_site_symmetry_multiplicity
 _atom_site_fract_x
 _atom_site_fract_y
 _atom_site_fract_z
 _atom_site_occupancy
  Nd  Nd0  1  0.50000000  0.39343200  0.75000000  1
  Nd  Nd1  1  0.00000000  0.10656800  0.25000000  1
  Nd  Nd2  1  0.00000000  0.89343200  0.75000000  1
  Nd  Nd3  1  0.50000000  0.60656800  0.25000000  1
  Si  Si4  1  0.00000000  0.24999400  0.75000000  1
  Si  Si5  1  0.50000000  0.25000600  0.25000000  1
  Si  Si6  1  0.00000000  0.45945300  0.25000000  1
  Si  Si7  1  0.50000000  0.04054700  0.75000000  1
  Si  Si8  1  0.50000000  0.74999400  0.75000000  1
  Si  Si9  1  0.00000000  0.75000600  0.25000000  1
  Si  Si10  1  0.50000000  0.95945300  0.25000000  1
  Si  Si11  1  0.00000000  0.54054700  0.75000000  1
  Ni  Ni12  1  0.00000000  0.31879700  0.25000000  1
  Ni  Ni13  1  0.50000000  0.18120300  0.75000000  1
  Ni  Ni14  1  0.50000000  0.81879700  0.25000000  1
  Ni  Ni15  1  0.00000000  0.68120300  0.75000000  1
