# generated using pymatgen
data_U12Rh4Se31
_symmetry_space_group_name_H-M   'P 1'
_cell_length_a   13.68501600
_cell_length_b   13.68501600
_cell_length_c   13.71451000
_cell_angle_alpha   90.00000000
_cell_angle_beta   90.00000000
_cell_angle_gamma   90.00000000
_symmetry_Int_Tables_number   1
_chemical_formula_structural   U12Rh4Se31
_chemical_formula_sum   'U24 Rh8 Se62'
_cell_volume   2568.44880992
_cell_formula_units_Z   2
loop_
 _symmetry_equiv_pos_site_id
 _symmetry_equiv_pos_as_xyz
  1  'x, y, z'
loop_
 _atom_site_type_symbol
 _atom_site_label
 _atom_site_symmetry_multiplicity
 _atom_site_fract_x
 _atom_site_fract_y
 _atom_site_fract_z
 _atom_site_occupancy
  U  U0  1  0.79569650  0.50000000  0.20516250  1
  U  U1  1  0.29569650  0.00000000  0.29483750  1
  U  U2  1  0.19950100  0.19950100  0.50000000  1
  U  U3  1  0.50000000  0.20430350  0.20516250  1
  U  U4  1  0.50000000  0.79569650  0.20516250  1
  U  U5  1  0.19950100  0.80049900  0.50000000  1
  U  U6  1  0.00000000  0.29569650  0.29483750  1
  U  U7  1  0.30049900  0.30049900  0.00000000  1
  U  U8  1  0.20430350  0.50000000  0.20516250  1
  U  U9  1  0.00000000  0.70430350  0.29483750  1
  U  U10  1  0.80049900  0.19950100  0.50000000  1
  U  U11  1  0.70430350  0.00000000  0.29483750  1
  U  U12  1  0.29569650  0.00000000  0.70516250  1
  U  U13  1  0.79569650  0.50000000  0.79483750  1
  U  U14  1  0.69950100  0.69950100  0.00000000  1
  U  U15  1  0.00000000  0.70430350  0.70516250  1
  U  U16  1  0.00000000  0.29569650  0.70516250  1
  U  U17  1  0.69950100  0.30049900  0.00000000  1
  U  U18  1  0.50000000  0.79569650  0.79483750  1
  U  U19  1  0.80049900  0.80049900  0.50000000  1
  U  U20  1  0.70430350  0.00000000  0.70516250  1
  U  U21  1  0.50000000  0.20430350  0.79483750  1
  U  U22  1  0.30049900  0.69950100  0.00000000  1
  U  U23  1  0.20430350  0.50000000  0.79483750  1
  Rh  Rh24  1  0.25000000  0.25000000  0.75000000  1
  Rh  Rh25  1  0.75000000  0.25000000  0.25000000  1
  Rh  Rh26  1  0.25000000  0.25000000  0.25000000  1
  Rh  Rh27  1  0.25000000  0.75000000  0.25000000  1
  Rh  Rh28  1  0.75000000  0.75000000  0.25000000  1
  Rh  Rh29  1  0.25000000  0.75000000  0.75000000  1
  Rh  Rh30  1  0.75000000  0.75000000  0.75000000  1
  Rh  Rh31  1  0.75000000  0.25000000  0.75000000  1
  Se  Se32  1  0.37216100  0.81000900  0.62735700  1
  Se  Se33  1  0.12783900  0.31000900  0.87264300  1
  Se  Se34  1  0.37216100  0.81000900  0.37264300  1
  Se  Se35  1  0.37216100  0.18999100  0.62735700  1
  Se  Se36  1  0.26304200  0.00000000  0.50000000  1
  Se  Se37  1  0.50000000  0.00000000  0.25000000  1
  Se  Se38  1  0.12581950  0.12581950  0.68567550  1
  Se  Se39  1  0.68999100  0.12783900  0.12735700  1
  Se  Se40  1  0.37216100  0.18999100  0.37264300  1
  Se  Se41  1  0.18999100  0.37216100  0.62735700  1
  Se  Se42  1  0.12581950  0.87418050  0.68567550  1
  Se  Se43  1  0.68999100  0.12783900  0.87264300  1
  Se  Se44  1  0.12581950  0.12581950  0.31432450  1
  Se  Se45  1  0.31000900  0.12783900  0.12735700  1
  Se  Se46  1  0.00000000  0.26304200  0.50000000  1
  Se  Se47  1  0.50000000  0.23695800  0.00000000  1
  Se  Se48  1  0.18999100  0.37216100  0.37264300  1
  Se  Se49  1  0.37418050  0.37418050  0.18567550  1
  Se  Se50  1  0.81000900  0.37216100  0.62735700  1
  Se  Se51  1  0.12581950  0.87418050  0.31432450  1
  Se  Se52  1  0.00000000  0.00000000  0.50000000  1
  Se  Se53  1  0.12783900  0.31000900  0.12735700  1
  Se  Se54  1  0.87418050  0.12581950  0.68567550  1
  Se  Se55  1  0.81000900  0.37216100  0.37264300  1
  Se  Se56  1  0.37418050  0.37418050  0.81432450  1
  Se  Se57  1  0.00000000  0.50000000  0.25000000  1
  Se  Se58  1  0.23695800  0.50000000  0.00000000  1
  Se  Se59  1  0.12783900  0.68999100  0.12735700  1
  Se  Se60  1  0.31000900  0.12783900  0.87264300  1
  Se  Se61  1  0.87418050  0.12581950  0.31432450  1
  Se  Se62  1  0.12783900  0.68999100  0.87264300  1
  Se  Se63  1  0.87216100  0.31000900  0.12735700  1
  Se  Se64  1  0.62783900  0.81000900  0.37264300  1
  Se  Se65  1  0.87216100  0.31000900  0.87264300  1
  Se  Se66  1  0.87216100  0.68999100  0.12735700  1
  Se  Se67  1  0.76304200  0.50000000  0.00000000  1
  Se  Se68  1  0.00000000  0.50000000  0.75000000  1
  Se  Se69  1  0.62581950  0.62581950  0.18567550  1
  Se  Se70  1  0.18999100  0.62783900  0.62735700  1
  Se  Se71  1  0.87216100  0.68999100  0.87264300  1
  Se  Se72  1  0.68999100  0.87216100  0.12735700  1
  Se  Se73  1  0.62581950  0.37418050  0.18567550  1
  Se  Se74  1  0.18999100  0.62783900  0.37264300  1
  Se  Se75  1  0.62581950  0.62581950  0.81432450  1
  Se  Se76  1  0.81000900  0.62783900  0.62735700  1
  Se  Se77  1  0.50000000  0.76304200  0.00000000  1
  Se  Se78  1  0.00000000  0.73695800  0.50000000  1
  Se  Se79  1  0.68999100  0.87216100  0.87264300  1
  Se  Se80  1  0.87418050  0.87418050  0.68567550  1
  Se  Se81  1  0.31000900  0.87216100  0.12735700  1
  Se  Se82  1  0.62581950  0.37418050  0.81432450  1
  Se  Se83  1  0.50000000  0.50000000  0.00000000  1
  Se  Se84  1  0.62783900  0.81000900  0.62735700  1
  Se  Se85  1  0.37418050  0.62581950  0.18567550  1
  Se  Se86  1  0.31000900  0.87216100  0.87264300  1
  Se  Se87  1  0.87418050  0.87418050  0.31432450  1
  Se  Se88  1  0.50000000  0.00000000  0.75000000  1
  Se  Se89  1  0.73695800  0.00000000  0.50000000  1
  Se  Se90  1  0.62783900  0.18999100  0.62735700  1
  Se  Se91  1  0.81000900  0.62783900  0.37264300  1
  Se  Se92  1  0.37418050  0.62581950  0.81432450  1
  Se  Se93  1  0.62783900  0.18999100  0.37264300  1
