# generated using pymatgen
data_Ta9VO25
_symmetry_space_group_name_H-M   'P 1'
_cell_length_a   15.91620639
_cell_length_b   15.91620639
_cell_length_c   3.86145635
_cell_angle_alpha   90.00000000
_cell_angle_beta   90.00000000
_cell_angle_gamma   90.00000000
_symmetry_Int_Tables_number   1
_chemical_formula_structural   Ta9VO25
_chemical_formula_sum   'Ta18 V2 O50'
_cell_volume   978.20584691
_cell_formula_units_Z   2
loop_
 _symmetry_equiv_pos_site_id
 _symmetry_equiv_pos_as_xyz
  1  'x, y, z'
loop_
 _atom_site_type_symbol
 _atom_site_label
 _atom_site_symmetry_multiplicity
 _atom_site_fract_x
 _atom_site_fract_y
 _atom_site_fract_z
 _atom_site_occupancy
  Ta  Ta0  1  0.10249080  0.72006926  0.75191862  1
  Ta  Ta1  1  0.82254417  0.11903752  0.24674743  1
  Ta  Ta2  1  0.17745583  0.88096248  0.24674743  1
  Ta  Ta3  1  0.88096248  0.82254417  0.75325257  1
  Ta  Ta4  1  0.11903752  0.17745583  0.75325257  1
  Ta  Ta5  1  0.27993074  0.10249080  0.24808138  1
  Ta  Ta6  1  0.72006926  0.89750920  0.24808138  1
  Ta  Ta7  1  0.89750920  0.27993074  0.75191862  1
  Ta  Ta8  1  0.50000000  0.00000000  0.25000000  1
  Ta  Ta9  1  0.60249080  0.22006926  0.25191862  1
  Ta  Ta10  1  0.32254417  0.61903752  0.74674743  1
  Ta  Ta11  1  0.67745583  0.38096248  0.74674743  1
  Ta  Ta12  1  0.38096248  0.32254417  0.25325256  1
  Ta  Ta13  1  0.61903752  0.67745583  0.25325256  1
  Ta  Ta14  1  0.77993074  0.60249080  0.74808138  1
  Ta  Ta15  1  0.22006926  0.39750920  0.74808138  1
  Ta  Ta16  1  0.39750920  0.77993074  0.25191862  1
  Ta  Ta17  1  0.00000000  0.50000000  0.75000000  1
  V  V18  1  0.00000000  0.00000000  0.50000000  1
  V  V19  1  0.50000000  0.50000000  0.00000000  1
  O  O20  1  0.94133561  0.07168794  0.26044455  1
  O  O21  1  0.92831206  0.94133561  0.73955545  1
  O  O22  1  0.07168794  0.05866439  0.73955545  1
  O  O23  1  0.05866439  0.92831206  0.26044455  1
  O  O24  1  0.00000000  0.50000000  0.25000000  1
  O  O25  1  0.11249243  0.75234309  0.25281920  1
  O  O26  1  0.24765691  0.11249243  0.74718080  1
  O  O27  1  0.75234309  0.88750757  0.74718080  1
  O  O28  1  0.88750757  0.24765691  0.25281920  1
  O  O29  1  0.71554020  0.17626703  0.25701929  1
  O  O30  1  0.77752640  0.01213530  0.24488133  1
  O  O31  1  0.98786470  0.77752640  0.75511867  1
  O  O32  1  0.01213530  0.22247360  0.75511867  1
  O  O33  1  0.22247360  0.98786470  0.24488133  1
  O  O34  1  0.38454604  0.05201116  0.24987795  1
  O  O35  1  0.94798884  0.38454604  0.75012205  1
  O  O36  1  0.05201116  0.61545396  0.75012205  1
  O  O37  1  0.82373297  0.71554020  0.74298071  1
  O  O38  1  0.84071445  0.14816520  0.75246095  1
  O  O39  1  0.85183480  0.84071445  0.24753905  1
  O  O40  1  0.14816520  0.15928555  0.24753905  1
  O  O41  1  0.15928555  0.85183480  0.75246095  1
  O  O42  1  0.28445980  0.82373297  0.25701929  1
  O  O43  1  0.17626703  0.28445980  0.74298071  1
  O  O44  1  0.61545396  0.94798884  0.24987795  1
  O  O45  1  0.44133561  0.57168794  0.76044455  1
  O  O46  1  0.42831206  0.44133561  0.23955545  1
  O  O47  1  0.57168794  0.55866439  0.23955545  1
  O  O48  1  0.55866439  0.42831206  0.76044455  1
  O  O49  1  0.50000000  0.00000000  0.75000000  1
  O  O50  1  0.61249243  0.25234309  0.75281920  1
  O  O51  1  0.74765691  0.61249243  0.24718080  1
  O  O52  1  0.25234309  0.38750757  0.24718080  1
  O  O53  1  0.38750757  0.74765691  0.75281920  1
  O  O54  1  0.21554020  0.67626703  0.75701929  1
  O  O55  1  0.27752640  0.51213530  0.74488133  1
  O  O56  1  0.48786470  0.27752640  0.25511867  1
  O  O57  1  0.51213530  0.72247360  0.25511867  1
  O  O58  1  0.72247360  0.48786470  0.74488133  1
  O  O59  1  0.88454604  0.55201116  0.74987795  1
  O  O60  1  0.44798884  0.88454604  0.25012205  1
  O  O61  1  0.55201116  0.11545396  0.25012205  1
  O  O62  1  0.32373297  0.21554020  0.24298071  1
  O  O63  1  0.34071446  0.64816520  0.25246095  1
  O  O64  1  0.35183480  0.34071446  0.74753905  1
  O  O65  1  0.64816520  0.65928555  0.74753905  1
  O  O66  1  0.65928555  0.35183480  0.25246095  1
  O  O67  1  0.78445980  0.32373297  0.75701929  1
  O  O68  1  0.67626703  0.78445980  0.24298071  1
  O  O69  1  0.11545396  0.44798884  0.74987795  1
