# generated using pymatgen
data_Cr4(PO4)3
_symmetry_space_group_name_H-M   'P 1'
_cell_length_a   12.42372000
_cell_length_b   12.61487800
_cell_length_c   6.80955928
_cell_angle_alpha   90.00000000
_cell_angle_beta   116.91465360
_cell_angle_gamma   90.00000000
_symmetry_Int_Tables_number   1
_chemical_formula_structural   Cr4(PO4)3
_chemical_formula_sum   'Cr16 P12 O48'
_cell_volume   951.62011096
_cell_formula_units_Z   4
loop_
 _symmetry_equiv_pos_site_id
 _symmetry_equiv_pos_as_xyz
  1  'x, y, z'
loop_
 _atom_site_type_symbol
 _atom_site_label
 _atom_site_symmetry_multiplicity
 _atom_site_fract_x
 _atom_site_fract_y
 _atom_site_fract_z
 _atom_site_occupancy
  Cr  Cr0  1  0.22088700  0.84219600  0.13184500  1
  Cr  Cr1  1  0.77911300  0.15780400  0.86815500  1
  Cr  Cr2  1  0.50000000  0.99679900  0.25000000  1
  Cr  Cr3  1  0.50000000  0.75398800  0.75000000  1
  Cr  Cr4  1  0.22088700  0.15780400  0.63184500  1
  Cr  Cr5  1  0.50000000  0.00320100  0.75000000  1
  Cr  Cr6  1  0.77911300  0.84219600  0.36815500  1
  Cr  Cr7  1  0.50000000  0.24601200  0.25000000  1
  Cr  Cr8  1  0.72088700  0.34219600  0.13184500  1
  Cr  Cr9  1  0.27911300  0.65780400  0.86815500  1
  Cr  Cr10  1  0.00000000  0.49679900  0.25000000  1
  Cr  Cr11  1  0.00000000  0.25398800  0.75000000  1
  Cr  Cr12  1  0.72088700  0.65780400  0.63184500  1
  Cr  Cr13  1  0.00000000  0.50320100  0.75000000  1
  Cr  Cr14  1  0.27911300  0.34219600  0.36815500  1
  Cr  Cr15  1  0.00000000  0.74601200  0.25000000  1
  P  P16  1  0.76028750  0.11244150  0.37494100  1
  P  P17  1  0.50000000  0.78005100  0.25000000  1
  P  P18  1  0.23971250  0.88755850  0.62505900  1
  P  P19  1  0.50000000  0.21994900  0.75000000  1
  P  P20  1  0.23971250  0.11244150  0.12505900  1
  P  P21  1  0.76028750  0.88755850  0.87494100  1
  P  P22  1  0.26028750  0.61244150  0.37494100  1
  P  P23  1  0.00000000  0.28005100  0.25000000  1
  P  P24  1  0.73971250  0.38755850  0.62505900  1
  P  P25  1  0.00000000  0.71994900  0.75000000  1
  P  P26  1  0.73971250  0.61244150  0.12505900  1
  P  P27  1  0.26028750  0.38755850  0.87494100  1
  O  O28  1  0.20155200  0.00052300  0.63353600  1
  O  O29  1  0.83500800  0.83672100  0.10616100  1
  O  O30  1  0.59582300  0.86411100  0.25100500  1
  O  O31  1  0.45387700  0.71302000  0.04043400  1
  O  O32  1  0.40417700  0.86411100  0.24899500  1
  O  O33  1  0.77179650  0.18284150  0.19500000  1
  O  O34  1  0.37799150  0.88488250  0.67547300  1
  O  O35  1  0.83500800  0.16327900  0.60616100  1
  O  O36  1  0.59582300  0.13588900  0.75100500  1
  O  O37  1  0.16499200  0.16327900  0.89383900  1
  O  O38  1  0.79844800  0.00052300  0.86646400  1
  O  O39  1  0.62200850  0.88488250  0.82452700  1
  O  O40  1  0.79844800  0.99947700  0.36646400  1
  O  O41  1  0.45387700  0.28698000  0.54043400  1
  O  O42  1  0.20155200  0.99947700  0.13353600  1
  O  O43  1  0.40417700  0.13588900  0.74899500  1
  O  O44  1  0.54612300  0.71302000  0.45956600  1
  O  O45  1  0.54612300  0.28698000  0.95956600  1
  O  O46  1  0.37799150  0.11511750  0.17547300  1
  O  O47  1  0.22820350  0.18284150  0.30500000  1
  O  O48  1  0.16499200  0.83672100  0.39383900  1
  O  O49  1  0.62200850  0.11511750  0.32452700  1
  O  O50  1  0.22820350  0.81715850  0.80500000  1
  O  O51  1  0.77179650  0.81715850  0.69500000  1
  O  O52  1  0.70155200  0.50052300  0.63353600  1
  O  O53  1  0.33500800  0.33672100  0.10616100  1
  O  O54  1  0.09582300  0.36411100  0.25100500  1
  O  O55  1  0.95387700  0.21302000  0.04043400  1
  O  O56  1  0.90417700  0.36411100  0.24899500  1
  O  O57  1  0.27179650  0.68284150  0.19500000  1
  O  O58  1  0.87799150  0.38488250  0.67547300  1
  O  O59  1  0.33500800  0.66327900  0.60616100  1
  O  O60  1  0.09582300  0.63588900  0.75100500  1
  O  O61  1  0.66499200  0.66327900  0.89383900  1
  O  O62  1  0.29844800  0.50052300  0.86646400  1
  O  O63  1  0.12200850  0.38488250  0.82452700  1
  O  O64  1  0.29844800  0.49947700  0.36646400  1
  O  O65  1  0.95387700  0.78698000  0.54043400  1
  O  O66  1  0.70155200  0.49947700  0.13353600  1
  O  O67  1  0.90417700  0.63588900  0.74899500  1
  O  O68  1  0.04612300  0.21302000  0.45956600  1
  O  O69  1  0.04612300  0.78698000  0.95956600  1
  O  O70  1  0.87799150  0.61511750  0.17547300  1
  O  O71  1  0.72820350  0.68284150  0.30500000  1
  O  O72  1  0.66499200  0.33672100  0.39383900  1
  O  O73  1  0.12200850  0.61511750  0.32452700  1
  O  O74  1  0.72820350  0.31715850  0.80500000  1
  O  O75  1  0.27179650  0.31715850  0.69500000  1
