# generated using pymatgen
data_Sc2Ni12P7
_symmetry_space_group_name_H-M   'P 1'
_cell_length_a   8.97868226
_cell_length_b   8.97868226
_cell_length_c   3.59498400
_cell_angle_alpha   90.00000000
_cell_angle_beta   90.00000000
_cell_angle_gamma   120.00000000
_symmetry_Int_Tables_number   1
_chemical_formula_structural   Sc2Ni12P7
_chemical_formula_sum   'Sc2 Ni12 P7'
_cell_volume   250.98790813
_cell_formula_units_Z   1
loop_
 _symmetry_equiv_pos_site_id
 _symmetry_equiv_pos_as_xyz
  1  'x, y, z'
loop_
 _atom_site_type_symbol
 _atom_site_label
 _atom_site_symmetry_multiplicity
 _atom_site_fract_x
 _atom_site_fract_y
 _atom_site_fract_z
 _atom_site_occupancy
  Sc  Sc0  1  0.66666667  0.33333333  0.50000000  1
  Sc  Sc1  1  0.33333333  0.66666667  0.00000000  1
  Ni  Ni2  1  0.38326067  0.43385633  0.50000000  1
  Ni  Ni3  1  0.05059567  0.61673933  0.50000000  1
  Ni  Ni4  1  0.21985867  0.09384333  0.50000000  1
  Ni  Ni5  1  0.87398467  0.78014133  0.50000000  1
  Ni  Ni6  1  0.90615667  0.12601533  0.50000000  1
  Ni  Ni7  1  0.72362667  0.87852733  0.00000000  1
  Ni  Ni8  1  0.12147267  0.84509933  0.00000000  1
  Ni  Ni9  1  0.15490067  0.27637333  0.00000000  1
  Ni  Ni10  1  0.93719567  0.37301533  0.00000000  1
  Ni  Ni11  1  0.62698467  0.56418033  0.00000000  1
  Ni  Ni12  1  0.43581967  0.06280433  0.00000000  1
  Ni  Ni13  1  0.56614367  0.94940433  0.50000000  1
  P  P14  1  0.00000000  0.00000000  0.00000000  1
  P  P15  1  0.41246067  0.29388133  0.00000000  1
  P  P16  1  0.58823467  0.70638833  0.50000000  1
  P  P17  1  0.29361167  0.88184633  0.50000000  1
  P  P18  1  0.11815367  0.41176533  0.50000000  1
  P  P19  1  0.70611867  0.11857933  0.00000000  1
  P  P20  1  0.88142067  0.58753933  0.00000000  1
