# generated using pymatgen
data_Sr4Bi3
_symmetry_space_group_name_H-M   'P 1'
_cell_length_a   10.22488200
_cell_length_b   10.22488200
_cell_length_c   10.22488200
_cell_angle_alpha   90.00000000
_cell_angle_beta   90.00000000
_cell_angle_gamma   90.00000000
_symmetry_Int_Tables_number   1
_chemical_formula_structural   Sr4Bi3
_chemical_formula_sum   'Sr16 Bi12'
_cell_volume   1068.99313013
_cell_formula_units_Z   4
loop_
 _symmetry_equiv_pos_site_id
 _symmetry_equiv_pos_as_xyz
  1  'x, y, z'
loop_
 _atom_site_type_symbol
 _atom_site_label
 _atom_site_symmetry_multiplicity
 _atom_site_fract_x
 _atom_site_fract_y
 _atom_site_fract_z
 _atom_site_occupancy
  Sr  Sr0  1  0.07280050  0.57280050  0.92719950  1
  Sr  Sr1  1  0.17719950  0.82280050  0.32280050  1
  Sr  Sr2  1  0.17719950  0.17719950  0.17719950  1
  Sr  Sr3  1  0.32280050  0.17719950  0.82280050  1
  Sr  Sr4  1  0.42719950  0.42719950  0.42719950  1
  Sr  Sr5  1  0.57280050  0.92719950  0.07280050  1
  Sr  Sr6  1  0.82280050  0.32280050  0.17719950  1
  Sr  Sr7  1  0.92719950  0.07280050  0.57280050  1
  Sr  Sr8  1  0.57280050  0.07280050  0.42719950  1
  Sr  Sr9  1  0.67719950  0.32280050  0.82280050  1
  Sr  Sr10  1  0.67719950  0.67719950  0.67719950  1
  Sr  Sr11  1  0.82280050  0.67719950  0.32280050  1
  Sr  Sr12  1  0.92719950  0.92719950  0.92719950  1
  Sr  Sr13  1  0.07280050  0.42719950  0.57280050  1
  Sr  Sr14  1  0.32280050  0.82280050  0.67719950  1
  Sr  Sr15  1  0.42719950  0.57280050  0.07280050  1
  Bi  Bi16  1  0.75000000  0.37500000  0.50000000  1
  Bi  Bi17  1  0.50000000  0.75000000  0.37500000  1
  Bi  Bi18  1  0.50000000  0.25000000  0.12500000  1
  Bi  Bi19  1  0.37500000  0.50000000  0.75000000  1
  Bi  Bi20  1  0.12500000  0.50000000  0.25000000  1
  Bi  Bi21  1  0.25000000  0.12500000  0.50000000  1
  Bi  Bi22  1  0.25000000  0.87500000  0.00000000  1
  Bi  Bi23  1  0.00000000  0.25000000  0.87500000  1
  Bi  Bi24  1  0.00000000  0.75000000  0.62500000  1
  Bi  Bi25  1  0.87500000  0.00000000  0.25000000  1
  Bi  Bi26  1  0.62500000  0.00000000  0.75000000  1
  Bi  Bi27  1  0.75000000  0.62500000  0.00000000  1
