# generated using pymatgen
data_SrAu2
_symmetry_space_group_name_H-M   'P 1'
_cell_length_a   4.84021000
_cell_length_b   7.64085800
_cell_length_c   8.31953200
_cell_angle_alpha   90.00000000
_cell_angle_beta   90.00000000
_cell_angle_gamma   90.00000000
_symmetry_Int_Tables_number   1
_chemical_formula_structural   SrAu2
_chemical_formula_sum   'Sr4 Au8'
_cell_volume   307.68422453
_cell_formula_units_Z   4
loop_
 _symmetry_equiv_pos_site_id
 _symmetry_equiv_pos_as_xyz
  1  'x, y, z'
loop_
 _atom_site_type_symbol
 _atom_site_label
 _atom_site_symmetry_multiplicity
 _atom_site_fract_x
 _atom_site_fract_y
 _atom_site_fract_z
 _atom_site_occupancy
  Sr  Sr0  1  0.00000000  0.25000000  0.46578600  1
  Sr  Sr1  1  0.00000000  0.75000000  0.53421400  1
  Sr  Sr2  1  0.50000000  0.75000000  0.96578600  1
  Sr  Sr3  1  0.50000000  0.25000000  0.03421400  1
  Au  Au4  1  0.50000000  0.95962300  0.33548200  1
  Au  Au5  1  0.50000000  0.04037700  0.66451800  1
  Au  Au6  1  0.00000000  0.04037700  0.83548200  1
  Au  Au7  1  0.00000000  0.95962300  0.16451800  1
  Au  Au8  1  0.00000000  0.45962300  0.83548200  1
  Au  Au9  1  0.00000000  0.54037700  0.16451800  1
  Au  Au10  1  0.50000000  0.54037700  0.33548200  1
  Au  Au11  1  0.50000000  0.45962300  0.66451800  1
