# generated using pymatgen
data_Ba4Nb14O23
_symmetry_space_group_name_H-M   'P 1'
_cell_length_a   12.60802000
_cell_length_b   21.06676400
_cell_length_c   4.20490900
_cell_angle_alpha   90.00000000
_cell_angle_beta   90.00000000
_cell_angle_gamma   90.00000000
_symmetry_Int_Tables_number   1
_chemical_formula_structural   Ba4Nb14O23
_chemical_formula_sum   'Ba8 Nb28 O46'
_cell_volume   1116.86664414
_cell_formula_units_Z   2
loop_
 _symmetry_equiv_pos_site_id
 _symmetry_equiv_pos_as_xyz
  1  'x, y, z'
loop_
 _atom_site_type_symbol
 _atom_site_label
 _atom_site_symmetry_multiplicity
 _atom_site_fract_x
 _atom_site_fract_y
 _atom_site_fract_z
 _atom_site_occupancy
  Ba  Ba0  1  0.33036550  0.10157450  0.00000000  1
  Ba  Ba1  1  0.66963450  0.89842550  0.00000000  1
  Ba  Ba2  1  0.33036550  0.89842550  0.00000000  1
  Ba  Ba3  1  0.66963450  0.10157450  0.00000000  1
  Ba  Ba4  1  0.83036550  0.60157450  0.00000000  1
  Ba  Ba5  1  0.16963450  0.39842550  0.00000000  1
  Ba  Ba6  1  0.83036550  0.39842550  0.00000000  1
  Ba  Ba7  1  0.16963450  0.60157450  0.00000000  1
  Nb  Nb8  1  0.50000000  0.00000000  0.50000000  1
  Nb  Nb9  1  0.66077200  0.70093000  0.50000000  1
  Nb  Nb10  1  0.33922800  0.29907000  0.50000000  1
  Nb  Nb11  1  0.66077200  0.29907000  0.50000000  1
  Nb  Nb12  1  0.33922800  0.70093000  0.50000000  1
  Nb  Nb13  1  0.16286300  0.00000000  0.50000000  1
  Nb  Nb14  1  0.83713700  0.00000000  0.50000000  1
  Nb  Nb15  1  0.50000000  0.20206300  0.50000000  1
  Nb  Nb16  1  0.50000000  0.79793700  0.50000000  1
  Nb  Nb17  1  0.50000000  0.29630700  0.00000000  1
  Nb  Nb18  1  0.50000000  0.70369300  0.00000000  1
  Nb  Nb19  1  0.50000000  0.40033200  0.50000000  1
  Nb  Nb20  1  0.50000000  0.59966800  0.50000000  1
  Nb  Nb21  1  0.00000000  0.00000000  0.00000000  1
  Nb  Nb22  1  0.00000000  0.50000000  0.50000000  1
  Nb  Nb23  1  0.16077200  0.20093000  0.50000000  1
  Nb  Nb24  1  0.83922800  0.79907000  0.50000000  1
  Nb  Nb25  1  0.16077200  0.79907000  0.50000000  1
  Nb  Nb26  1  0.83922800  0.20093000  0.50000000  1
  Nb  Nb27  1  0.66286300  0.50000000  0.50000000  1
  Nb  Nb28  1  0.33713700  0.50000000  0.50000000  1
  Nb  Nb29  1  0.00000000  0.70206300  0.50000000  1
  Nb  Nb30  1  0.00000000  0.29793700  0.50000000  1
  Nb  Nb31  1  0.00000000  0.79630700  0.00000000  1
  Nb  Nb32  1  0.00000000  0.20369300  0.00000000  1
  Nb  Nb33  1  0.00000000  0.90033200  0.50000000  1
  Nb  Nb34  1  0.00000000  0.09966800  0.50000000  1
  Nb  Nb35  1  0.50000000  0.50000000  0.00000000  1
  O  O36  1  0.66202700  0.00000000  0.50000000  1
  O  O37  1  0.33797300  0.00000000  0.50000000  1
  O  O38  1  0.50000000  0.00000000  0.00000000  1
  O  O39  1  0.50000000  0.09599100  0.50000000  1
  O  O40  1  0.50000000  0.90400900  0.50000000  1
  O  O41  1  0.66596750  0.80198350  0.50000000  1
  O  O42  1  0.33403250  0.19801650  0.50000000  1
  O  O43  1  0.66596750  0.19801650  0.50000000  1
  O  O44  1  0.33403250  0.80198350  0.50000000  1
  O  O45  1  0.66677400  0.69691300  0.00000000  1
  O  O46  1  0.33322600  0.30308700  0.00000000  1
  O  O47  1  0.66677400  0.30308700  0.00000000  1
  O  O48  1  0.33322600  0.69691300  0.00000000  1
  O  O49  1  0.16963000  0.09984600  0.50000000  1
  O  O50  1  0.83037000  0.90015400  0.50000000  1
  O  O51  1  0.16963000  0.90015400  0.50000000  1
  O  O52  1  0.83037000  0.09984600  0.50000000  1
  O  O53  1  0.17021150  0.00000000  0.00000000  1
  O  O54  1  0.50000000  0.60040800  0.00000000  1
  O  O55  1  0.50000000  0.39959200  0.00000000  1
  O  O56  1  0.50000000  0.80390200  0.00000000  1
  O  O57  1  0.50000000  0.19609800  0.00000000  1
  O  O58  1  0.82978850  0.00000000  0.00000000  1
  O  O59  1  0.16202700  0.50000000  0.50000000  1
  O  O60  1  0.83797300  0.50000000  0.50000000  1
  O  O61  1  0.00000000  0.50000000  0.00000000  1
  O  O62  1  0.00000000  0.59599100  0.50000000  1
  O  O63  1  0.00000000  0.40400900  0.50000000  1
  O  O64  1  0.16596750  0.30198350  0.50000000  1
  O  O65  1  0.83403250  0.69801650  0.50000000  1
  O  O66  1  0.16596750  0.69801650  0.50000000  1
  O  O67  1  0.83403250  0.30198350  0.50000000  1
  O  O68  1  0.16677400  0.19691300  0.00000000  1
  O  O69  1  0.83322600  0.80308700  0.00000000  1
  O  O70  1  0.16677400  0.80308700  0.00000000  1
  O  O71  1  0.83322600  0.19691300  0.00000000  1
  O  O72  1  0.66963000  0.59984600  0.50000000  1
  O  O73  1  0.33037000  0.40015400  0.50000000  1
  O  O74  1  0.66963000  0.40015400  0.50000000  1
  O  O75  1  0.33037000  0.59984600  0.50000000  1
  O  O76  1  0.67021150  0.50000000  0.00000000  1
  O  O77  1  0.00000000  0.10040800  0.00000000  1
  O  O78  1  0.00000000  0.89959200  0.00000000  1
  O  O79  1  0.00000000  0.30390200  0.00000000  1
  O  O80  1  0.00000000  0.69609800  0.00000000  1
  O  O81  1  0.32978850  0.50000000  0.00000000  1
