# generated using pymatgen
data_Cu2Ag2O3
_symmetry_space_group_name_H-M   'P 1'
_cell_length_a   5.99439400
_cell_length_b   5.99439400
_cell_length_c   10.74318400
_cell_angle_alpha   90.00000000
_cell_angle_beta   90.00000000
_cell_angle_gamma   90.00000000
_symmetry_Int_Tables_number   1
_chemical_formula_structural   Cu2Ag2O3
_chemical_formula_sum   'Cu8 Ag8 O12'
_cell_volume   386.03224615
_cell_formula_units_Z   4
loop_
 _symmetry_equiv_pos_site_id
 _symmetry_equiv_pos_as_xyz
  1  'x, y, z'
loop_
 _atom_site_type_symbol
 _atom_site_label
 _atom_site_symmetry_multiplicity
 _atom_site_fract_x
 _atom_site_fract_y
 _atom_site_fract_z
 _atom_site_occupancy
  Cu  Cu0  1  0.25000000  0.00000000  0.37500000  1
  Cu  Cu1  1  0.50000000  0.75000000  0.12500000  1
  Cu  Cu2  1  0.50000000  0.25000000  0.12500000  1
  Cu  Cu3  1  0.75000000  0.00000000  0.37500000  1
  Cu  Cu4  1  0.75000000  0.50000000  0.87500000  1
  Cu  Cu5  1  0.00000000  0.25000000  0.62500000  1
  Cu  Cu6  1  0.00000000  0.75000000  0.62500000  1
  Cu  Cu7  1  0.25000000  0.50000000  0.87500000  1
  Ag  Ag8  1  0.00000000  0.25000000  0.12500000  1
  Ag  Ag9  1  0.75000000  0.50000000  0.37500000  1
  Ag  Ag10  1  0.25000000  0.50000000  0.37500000  1
  Ag  Ag11  1  0.00000000  0.75000000  0.12500000  1
  Ag  Ag12  1  0.50000000  0.75000000  0.62500000  1
  Ag  Ag13  1  0.25000000  0.00000000  0.87500000  1
  Ag  Ag14  1  0.75000000  0.00000000  0.87500000  1
  Ag  Ag15  1  0.50000000  0.25000000  0.62500000  1
  O  O16  1  0.50000000  0.00000000  0.25000000  1
  O  O17  1  0.50000000  0.50000000  0.00000000  1
  O  O18  1  0.50000000  0.50000000  0.23663300  1
  O  O19  1  0.50000000  0.00000000  0.48663300  1
  O  O20  1  0.00000000  0.00000000  0.26336700  1
  O  O21  1  0.50000000  0.00000000  0.01336700  1
  O  O22  1  0.00000000  0.50000000  0.75000000  1
  O  O23  1  0.00000000  0.00000000  0.50000000  1
  O  O24  1  0.00000000  0.00000000  0.73663300  1
  O  O25  1  0.00000000  0.50000000  0.98663300  1
  O  O26  1  0.50000000  0.50000000  0.76336700  1
  O  O27  1  0.00000000  0.50000000  0.51336700  1
