# generated using pymatgen
data_La4Re6O19
_symmetry_space_group_name_H-M   'P 1'
_cell_length_a   9.14971600
_cell_length_b   9.14971600
_cell_length_c   9.14971600
_cell_angle_alpha   90.00000000
_cell_angle_beta   90.00000000
_cell_angle_gamma   90.00000000
_symmetry_Int_Tables_number   1
_chemical_formula_structural   La4Re6O19
_chemical_formula_sum   'La8 Re12 O38'
_cell_volume   765.98954564
_cell_formula_units_Z   2
loop_
 _symmetry_equiv_pos_site_id
 _symmetry_equiv_pos_as_xyz
  1  'x, y, z'
loop_
 _atom_site_type_symbol
 _atom_site_label
 _atom_site_symmetry_multiplicity
 _atom_site_fract_x
 _atom_site_fract_y
 _atom_site_fract_z
 _atom_site_occupancy
  La  La0  1  0.84351150  0.15648850  0.15648850  1
  La  La1  1  0.34351150  0.34351150  0.34351150  1
  La  La2  1  0.15648850  0.84351150  0.15648850  1
  La  La3  1  0.15648850  0.15648850  0.84351150  1
  La  La4  1  0.34351150  0.65648850  0.65648850  1
  La  La5  1  0.84351150  0.84351150  0.84351150  1
  La  La6  1  0.65648850  0.34351150  0.65648850  1
  La  La7  1  0.65648850  0.65648850  0.34351150  1
  Re  Re8  1  0.00000000  0.13275900  0.50000000  1
  Re  Re9  1  0.36724100  0.00000000  0.50000000  1
  Re  Re10  1  0.50000000  0.00000000  0.13275900  1
  Re  Re11  1  0.13275900  0.50000000  0.00000000  1
  Re  Re12  1  0.00000000  0.50000000  0.36724100  1
  Re  Re13  1  0.50000000  0.36724100  0.00000000  1
  Re  Re14  1  0.50000000  0.63275900  0.00000000  1
  Re  Re15  1  0.86724100  0.50000000  0.00000000  1
  Re  Re16  1  0.00000000  0.50000000  0.63275900  1
  Re  Re17  1  0.63275900  0.00000000  0.50000000  1
  Re  Re18  1  0.50000000  0.00000000  0.86724100  1
  Re  Re19  1  0.00000000  0.86724100  0.50000000  1
  O  O20  1  0.00000000  0.00000000  0.00000000  1
  O  O21  1  0.21650350  0.84328650  0.48719950  1
  O  O22  1  0.28349650  0.65671350  0.98719950  1
  O  O23  1  0.21650350  0.15671350  0.51280050  1
  O  O24  1  0.98719950  0.28349650  0.65671350  1
  O  O25  1  0.84328650  0.48719950  0.21650350  1
  O  O26  1  0.34328650  0.01280050  0.28349650  1
  O  O27  1  0.01280050  0.28349650  0.34328650  1
  O  O28  1  0.65671350  0.98719950  0.28349650  1
  O  O29  1  0.51280050  0.21650350  0.15671350  1
  O  O30  1  0.00000000  0.32139200  0.00000000  1
  O  O31  1  0.00000000  0.00000000  0.32139200  1
  O  O32  1  0.67860800  0.00000000  0.00000000  1
  O  O33  1  0.00000000  0.00000000  0.67860800  1
  O  O34  1  0.32139200  0.00000000  0.00000000  1
  O  O35  1  0.00000000  0.67860800  0.00000000  1
  O  O36  1  0.28349650  0.34328650  0.01280050  1
  O  O37  1  0.48719950  0.21650350  0.84328650  1
  O  O38  1  0.15671350  0.51280050  0.21650350  1
  O  O39  1  0.50000000  0.50000000  0.50000000  1
  O  O40  1  0.71650350  0.34328650  0.98719950  1
  O  O41  1  0.78349650  0.15671350  0.48719950  1
  O  O42  1  0.71650350  0.65671350  0.01280050  1
  O  O43  1  0.48719950  0.78349650  0.15671350  1
  O  O44  1  0.34328650  0.98719950  0.71650350  1
  O  O45  1  0.84328650  0.51280050  0.78349650  1
  O  O46  1  0.51280050  0.78349650  0.84328650  1
  O  O47  1  0.15671350  0.48719950  0.78349650  1
  O  O48  1  0.01280050  0.71650350  0.65671350  1
  O  O49  1  0.50000000  0.82139200  0.50000000  1
  O  O50  1  0.50000000  0.50000000  0.82139200  1
  O  O51  1  0.17860800  0.50000000  0.50000000  1
  O  O52  1  0.50000000  0.50000000  0.17860800  1
  O  O53  1  0.82139200  0.50000000  0.50000000  1
  O  O54  1  0.50000000  0.17860800  0.50000000  1
  O  O55  1  0.78349650  0.84328650  0.51280050  1
  O  O56  1  0.98719950  0.71650350  0.34328650  1
  O  O57  1  0.65671350  0.01280050  0.71650350  1
