# generated using pymatgen
data_NdTe2Se
_symmetry_space_group_name_H-M   'P 1'
_cell_length_a   4.30099400
_cell_length_b   26.49587400
_cell_length_c   4.31138300
_cell_angle_alpha   90.00000000
_cell_angle_beta   90.00000000
_cell_angle_gamma   90.00000000
_symmetry_Int_Tables_number   1
_chemical_formula_structural   NdTe2Se
_chemical_formula_sum   'Nd4 Te8 Se4'
_cell_volume   491.31914961
_cell_formula_units_Z   4
loop_
 _symmetry_equiv_pos_site_id
 _symmetry_equiv_pos_as_xyz
  1  'x, y, z'
loop_
 _atom_site_type_symbol
 _atom_site_label
 _atom_site_symmetry_multiplicity
 _atom_site_fract_x
 _atom_site_fract_y
 _atom_site_fract_z
 _atom_site_occupancy
  Nd  Nd0  1  0.00000000  0.81977100  0.25000000  1
  Nd  Nd1  1  0.50000000  0.68022900  0.75000000  1
  Nd  Nd2  1  0.50000000  0.31977100  0.25000000  1
  Nd  Nd3  1  0.00000000  0.18022900  0.75000000  1
  Te  Te4  1  0.00000000  0.58002700  0.75000000  1
  Te  Te5  1  0.50000000  0.91997300  0.25000000  1
  Te  Te6  1  0.50000000  0.58002700  0.25000000  1
  Te  Te7  1  0.00000000  0.91997300  0.75000000  1
  Te  Te8  1  0.50000000  0.08002700  0.75000000  1
  Te  Te9  1  0.00000000  0.41997300  0.25000000  1
  Te  Te10  1  0.00000000  0.08002700  0.25000000  1
  Te  Te11  1  0.50000000  0.41997300  0.75000000  1
  Se  Se12  1  0.00000000  0.70615200  0.25000000  1
  Se  Se13  1  0.50000000  0.79384800  0.75000000  1
  Se  Se14  1  0.50000000  0.20615200  0.25000000  1
  Se  Se15  1  0.00000000  0.29384800  0.75000000  1
