# generated using pymatgen
data_Er2Si3Rh
_symmetry_space_group_name_H-M   'P 1'
_cell_length_a   8.13761592
_cell_length_b   8.13761592
_cell_length_c   7.82255400
_cell_angle_alpha   90.00000000
_cell_angle_beta   90.00000000
_cell_angle_gamma   120.00000000
_symmetry_Int_Tables_number   1
_chemical_formula_structural   Er2Si3Rh
_chemical_formula_sum   'Er8 Si12 Rh4'
_cell_volume   448.61478020
_cell_formula_units_Z   4
loop_
 _symmetry_equiv_pos_site_id
 _symmetry_equiv_pos_as_xyz
  1  'x, y, z'
loop_
 _atom_site_type_symbol
 _atom_site_label
 _atom_site_symmetry_multiplicity
 _atom_site_fract_x
 _atom_site_fract_y
 _atom_site_fract_z
 _atom_site_occupancy
  Er  Er0  1  0.49100200  0.50899800  0.75000000  1
  Er  Er1  1  0.49100200  0.98200400  0.75000000  1
  Er  Er2  1  0.98200400  0.49100200  0.25000000  1
  Er  Er3  1  0.50899800  0.49100200  0.25000000  1
  Er  Er4  1  0.50899800  0.01799600  0.25000000  1
  Er  Er5  1  0.01799600  0.50899800  0.75000000  1
  Er  Er6  1  0.00000000  0.00000000  0.25000000  1
  Er  Er7  1  0.00000000  0.00000000  0.75000000  1
  Si  Si8  1  0.83321600  0.66643200  0.99958000  1
  Si  Si9  1  0.33356800  0.16678400  0.99958000  1
  Si  Si10  1  0.83321600  0.16678400  0.99958000  1
  Si  Si11  1  0.16678400  0.83321600  0.49958000  1
  Si  Si12  1  0.66643200  0.83321600  0.00042000  1
  Si  Si13  1  0.16678400  0.33356800  0.49958000  1
  Si  Si14  1  0.66643200  0.83321600  0.49958000  1
  Si  Si15  1  0.33356800  0.16678400  0.50042000  1
  Si  Si16  1  0.83321600  0.16678400  0.50042000  1
  Si  Si17  1  0.16678400  0.83321600  0.00042000  1
  Si  Si18  1  0.16678400  0.33356800  0.00042000  1
  Si  Si19  1  0.83321600  0.66643200  0.50042000  1
  Rh  Rh20  1  0.66666667  0.33333333  0.53330100  1
  Rh  Rh21  1  0.33333333  0.66666667  0.46669900  1
  Rh  Rh22  1  0.33333333  0.66666667  0.03330100  1
  Rh  Rh23  1  0.66666667  0.33333333  0.96669900  1
