# generated using pymatgen
data_U2P2O9
_symmetry_space_group_name_H-M   'P 1'
_cell_length_a   7.13408600
_cell_length_b   9.07244000
_cell_length_c   12.77270700
_cell_angle_alpha   90.00000000
_cell_angle_beta   90.00000000
_cell_angle_gamma   90.00000000
_symmetry_Int_Tables_number   1
_chemical_formula_structural   U2P2O9
_chemical_formula_sum   'U8 P8 O36'
_cell_volume   826.69515971
_cell_formula_units_Z   4
loop_
 _symmetry_equiv_pos_site_id
 _symmetry_equiv_pos_as_xyz
  1  'x, y, z'
loop_
 _atom_site_type_symbol
 _atom_site_label
 _atom_site_symmetry_multiplicity
 _atom_site_fract_x
 _atom_site_fract_y
 _atom_site_fract_z
 _atom_site_occupancy
  U  U0  1  0.50000000  0.29138900  0.43094100  1
  U  U1  1  0.50000000  0.20861100  0.93094100  1
  U  U2  1  0.50000000  0.70861100  0.56905900  1
  U  U3  1  0.50000000  0.79138900  0.06905900  1
  U  U4  1  0.00000000  0.79138900  0.43094100  1
  U  U5  1  0.00000000  0.70861100  0.93094100  1
  U  U6  1  0.00000000  0.20861100  0.56905900  1
  U  U7  1  0.00000000  0.29138900  0.06905900  1
  P  P8  1  0.50000000  0.39073500  0.14365300  1
  P  P9  1  0.50000000  0.10926500  0.64365300  1
  P  P10  1  0.50000000  0.60926500  0.85634700  1
  P  P11  1  0.50000000  0.89073500  0.35634700  1
  P  P12  1  0.00000000  0.89073500  0.14365300  1
  P  P13  1  0.00000000  0.60926500  0.64365300  1
  P  P14  1  0.00000000  0.10926500  0.85634700  1
  P  P15  1  0.00000000  0.39073500  0.35634700  1
  O  O16  1  0.50000000  0.55850300  0.12370300  1
  O  O17  1  0.50000000  0.94149700  0.62370300  1
  O  O18  1  0.50000000  0.44149700  0.87629700  1
  O  O19  1  0.50000000  0.05850300  0.37629700  1
  O  O20  1  0.50000000  0.00000000  0.00000000  1
  O  O21  1  0.00000000  0.00000000  0.50000000  1
  O  O22  1  0.50000000  0.86024700  0.23904500  1
  O  O23  1  0.50000000  0.63975300  0.73904500  1
  O  O24  1  0.66975300  0.81605300  0.41350600  1
  O  O25  1  0.33024700  0.68394700  0.91350600  1
  O  O26  1  0.66975300  0.18394700  0.58649400  1
  O  O27  1  0.33024700  0.31605300  0.08649400  1
  O  O28  1  0.33024700  0.18394700  0.58649400  1
  O  O29  1  0.66975300  0.31605300  0.08649400  1
  O  O30  1  0.33024700  0.81605300  0.41350600  1
  O  O31  1  0.66975300  0.68394700  0.91350600  1
  O  O32  1  0.50000000  0.36024700  0.26095500  1
  O  O33  1  0.50000000  0.13975300  0.76095500  1
  O  O34  1  0.00000000  0.05850300  0.12370300  1
  O  O35  1  0.00000000  0.44149700  0.62370300  1
  O  O36  1  0.00000000  0.94149700  0.87629700  1
  O  O37  1  0.00000000  0.55850300  0.37629700  1
  O  O38  1  0.00000000  0.50000000  0.00000000  1
  O  O39  1  0.50000000  0.50000000  0.50000000  1
  O  O40  1  0.00000000  0.36024700  0.23904500  1
  O  O41  1  0.00000000  0.13975300  0.73904500  1
  O  O42  1  0.16975300  0.31605300  0.41350600  1
  O  O43  1  0.83024700  0.18394700  0.91350600  1
  O  O44  1  0.16975300  0.68394700  0.58649400  1
  O  O45  1  0.83024700  0.81605300  0.08649400  1
  O  O46  1  0.83024700  0.68394700  0.58649400  1
  O  O47  1  0.16975300  0.81605300  0.08649400  1
  O  O48  1  0.83024700  0.31605300  0.41350600  1
  O  O49  1  0.16975300  0.18394700  0.91350600  1
  O  O50  1  0.00000000  0.86024700  0.26095500  1
  O  O51  1  0.00000000  0.63975300  0.76095500  1
