# generated using pymatgen
data_K2TbF6
_symmetry_space_group_name_H-M   'P 1'
_cell_length_a   6.99687000
_cell_length_b   11.49766400
_cell_length_c   7.42427749
_cell_angle_alpha   90.00000000
_cell_angle_beta   90.62555029
_cell_angle_gamma   90.00000000
_symmetry_Int_Tables_number   1
_chemical_formula_structural   K2TbF6
_chemical_formula_sum   'K8 Tb4 F24'
_cell_volume   597.23015629
_cell_formula_units_Z   4
loop_
 _symmetry_equiv_pos_site_id
 _symmetry_equiv_pos_as_xyz
  1  'x, y, z'
loop_
 _atom_site_type_symbol
 _atom_site_label
 _atom_site_symmetry_multiplicity
 _atom_site_fract_x
 _atom_site_fract_y
 _atom_site_fract_z
 _atom_site_occupancy
  K  K0  1  0.47517850  0.83855750  0.99852200  1
  K  K1  1  0.52482150  0.83855750  0.50147800  1
  K  K2  1  0.47517850  0.16144250  0.49852200  1
  K  K3  1  0.52482150  0.16144250  0.00147800  1
  K  K4  1  0.97517850  0.33855750  0.99852200  1
  K  K5  1  0.02482150  0.33855750  0.50147800  1
  K  K6  1  0.97517850  0.66144250  0.49852200  1
  K  K7  1  0.02482150  0.66144250  0.00147800  1
  Tb  Tb8  1  0.50000000  0.53842000  0.75000000  1
  Tb  Tb9  1  0.50000000  0.46158000  0.25000000  1
  Tb  Tb10  1  0.00000000  0.03842000  0.75000000  1
  Tb  Tb11  1  0.00000000  0.96158000  0.25000000  1
  F  F12  1  0.54462800  0.39402600  0.95644500  1
  F  F13  1  0.45537200  0.39402600  0.54355500  1
  F  F14  1  0.45537200  0.60597400  0.04355500  1
  F  F15  1  0.54462800  0.60597400  0.45644500  1
  F  F16  1  0.79528600  0.80649300  0.22419700  1
  F  F17  1  0.20471400  0.80649300  0.27580300  1
  F  F18  1  0.69196550  0.98489350  0.79061500  1
  F  F19  1  0.30803450  0.98489350  0.70938500  1
  F  F20  1  0.30803450  0.01510650  0.20938500  1
  F  F21  1  0.69196550  0.01510650  0.29061500  1
  F  F22  1  0.79528600  0.19350700  0.72419700  1
  F  F23  1  0.20471400  0.19350700  0.77580300  1
  F  F24  1  0.04462800  0.89402600  0.95644500  1
  F  F25  1  0.95537200  0.89402600  0.54355500  1
  F  F26  1  0.95537200  0.10597400  0.04355500  1
  F  F27  1  0.04462800  0.10597400  0.45644500  1
  F  F28  1  0.29528600  0.30649300  0.22419700  1
  F  F29  1  0.70471400  0.30649300  0.27580300  1
  F  F30  1  0.19196550  0.48489350  0.79061500  1
  F  F31  1  0.80803450  0.48489350  0.70938500  1
  F  F32  1  0.80803450  0.51510650  0.20938500  1
  F  F33  1  0.19196550  0.51510650  0.29061500  1
  F  F34  1  0.29528600  0.69350700  0.72419700  1
  F  F35  1  0.70471400  0.69350700  0.77580300  1
