# generated using pymatgen
data_Rb2Mn3Se4
_symmetry_space_group_name_H-M   'P 1'
_cell_length_a   6.26196800
_cell_length_b   11.97153000
_cell_length_c   14.34940200
_cell_angle_alpha   90.00000000
_cell_angle_beta   90.00000000
_cell_angle_gamma   90.00000000
_symmetry_Int_Tables_number   1
_chemical_formula_structural   Rb2Mn3Se4
_chemical_formula_sum   'Rb8 Mn12 Se16'
_cell_volume   1075.70776774
_cell_formula_units_Z   4
loop_
 _symmetry_equiv_pos_site_id
 _symmetry_equiv_pos_as_xyz
  1  'x, y, z'
loop_
 _atom_site_type_symbol
 _atom_site_label
 _atom_site_symmetry_multiplicity
 _atom_site_fract_x
 _atom_site_fract_y
 _atom_site_fract_z
 _atom_site_occupancy
  Rb  Rb0  1  0.23684500  0.12216200  0.00000000  1
  Rb  Rb1  1  0.73684500  0.37783800  0.00000000  1
  Rb  Rb2  1  0.26315500  0.62216200  0.00000000  1
  Rb  Rb3  1  0.76315500  0.87783800  0.00000000  1
  Rb  Rb4  1  0.73684500  0.62216200  0.50000000  1
  Rb  Rb5  1  0.23684500  0.87783800  0.50000000  1
  Rb  Rb6  1  0.76315500  0.12216200  0.50000000  1
  Rb  Rb7  1  0.26315500  0.37783800  0.50000000  1
  Mn  Mn8  1  0.50000000  0.27174700  0.25000000  1
  Mn  Mn9  1  0.50000000  0.72825300  0.25000000  1
  Mn  Mn10  1  0.50000000  0.72825300  0.75000000  1
  Mn  Mn11  1  0.00000000  0.50000000  0.25000000  1
  Mn  Mn12  1  0.00000000  0.50000000  0.75000000  1
  Mn  Mn13  1  0.50000000  0.27174700  0.75000000  1
  Mn  Mn14  1  0.00000000  0.77174700  0.75000000  1
  Mn  Mn15  1  0.00000000  0.22825300  0.75000000  1
  Mn  Mn16  1  0.00000000  0.22825300  0.25000000  1
  Mn  Mn17  1  0.50000000  0.00000000  0.75000000  1
  Mn  Mn18  1  0.50000000  0.00000000  0.25000000  1
  Mn  Mn19  1  0.00000000  0.77174700  0.25000000  1
  Se  Se20  1  0.22096750  0.36696450  0.85288650  1
  Se  Se21  1  0.22096750  0.63303550  0.64711350  1
  Se  Se22  1  0.77903250  0.36696450  0.64711350  1
  Se  Se23  1  0.77903250  0.63303550  0.85288650  1
  Se  Se24  1  0.77903250  0.63303550  0.14711350  1
  Se  Se25  1  0.77903250  0.36696450  0.35288650  1
  Se  Se26  1  0.22096750  0.63303550  0.35288650  1
  Se  Se27  1  0.22096750  0.36696450  0.14711350  1
  Se  Se28  1  0.72096750  0.86696450  0.35288650  1
  Se  Se29  1  0.72096750  0.13303550  0.14711350  1
  Se  Se30  1  0.27903250  0.86696450  0.14711350  1
  Se  Se31  1  0.27903250  0.13303550  0.35288650  1
  Se  Se32  1  0.27903250  0.13303550  0.64711350  1
  Se  Se33  1  0.27903250  0.86696450  0.85288650  1
  Se  Se34  1  0.72096750  0.13303550  0.85288650  1
  Se  Se35  1  0.72096750  0.86696450  0.64711350  1
