# generated using pymatgen
data_Cu(BO2)2
_symmetry_space_group_name_H-M   'P 1'
_cell_length_a   11.59008800
_cell_length_b   11.59008800
_cell_length_c   5.67314800
_cell_angle_alpha   90.00000000
_cell_angle_beta   90.00000000
_cell_angle_gamma   90.00000000
_symmetry_Int_Tables_number   1
_chemical_formula_structural   Cu(BO2)2
_chemical_formula_sum   'Cu12 B24 O48'
_cell_volume   762.07476422
_cell_formula_units_Z   12
loop_
 _symmetry_equiv_pos_site_id
 _symmetry_equiv_pos_as_xyz
  1  'x, y, z'
loop_
 _atom_site_type_symbol
 _atom_site_label
 _atom_site_symmetry_multiplicity
 _atom_site_fract_x
 _atom_site_fract_y
 _atom_site_fract_z
 _atom_site_occupancy
  Cu  Cu0  1  0.00000000  0.00000000  0.50000000  1
  Cu  Cu1  1  0.50000000  0.00000000  0.75000000  1
  Cu  Cu2  1  0.75000000  0.91788700  0.12500000  1
  Cu  Cu3  1  0.25000000  0.08211300  0.12500000  1
  Cu  Cu4  1  0.08211300  0.75000000  0.87500000  1
  Cu  Cu5  1  0.91788700  0.25000000  0.87500000  1
  Cu  Cu6  1  0.50000000  0.50000000  0.00000000  1
  Cu  Cu7  1  0.00000000  0.50000000  0.25000000  1
  Cu  Cu8  1  0.25000000  0.41788700  0.62500000  1
  Cu  Cu9  1  0.75000000  0.58211300  0.62500000  1
  Cu  Cu10  1  0.58211300  0.25000000  0.37500000  1
  Cu  Cu11  1  0.41788700  0.75000000  0.37500000  1
  B  B12  1  0.85213800  0.81533800  0.69730300  1
  B  B13  1  0.14786200  0.31533800  0.05269700  1
  B  B14  1  0.14786200  0.18466200  0.69730300  1
  B  B15  1  0.85213800  0.68466200  0.05269700  1
  B  B16  1  0.18466200  0.85213800  0.30269700  1
  B  B17  1  0.31533800  0.85213800  0.94730300  1
  B  B18  1  0.81533800  0.14786200  0.30269700  1
  B  B19  1  0.68466200  0.14786200  0.94730300  1
  B  B20  1  0.75000000  0.00081300  0.62500000  1
  B  B21  1  0.25000000  0.99918700  0.62500000  1
  B  B22  1  0.99918700  0.75000000  0.37500000  1
  B  B23  1  0.00081300  0.25000000  0.37500000  1
  B  B24  1  0.35213800  0.31533800  0.19730300  1
  B  B25  1  0.64786200  0.81533800  0.55269700  1
  B  B26  1  0.64786200  0.68466200  0.19730300  1
  B  B27  1  0.35213800  0.18466200  0.55269700  1
  B  B28  1  0.68466200  0.35213800  0.80269700  1
  B  B29  1  0.81533800  0.35213800  0.44730300  1
  B  B30  1  0.31533800  0.64786200  0.80269700  1
  B  B31  1  0.18466200  0.64786200  0.44730300  1
  B  B32  1  0.25000000  0.50081300  0.12500000  1
  B  B33  1  0.75000000  0.49918700  0.12500000  1
  B  B34  1  0.49918700  0.25000000  0.87500000  1
  B  B35  1  0.50081300  0.75000000  0.87500000  1
  O  O36  1  0.92951700  0.84073800  0.49408500  1
  O  O37  1  0.07048300  0.34073800  0.25591500  1
  O  O38  1  0.07048300  0.15926200  0.49408500  1
  O  O39  1  0.92951700  0.65926200  0.25591500  1
  O  O40  1  0.15926200  0.92951700  0.50591500  1
  O  O41  1  0.34073800  0.92951700  0.74408500  1
  O  O42  1  0.84073800  0.07048300  0.50591500  1
  O  O43  1  0.65926200  0.07048300  0.74408500  1
  O  O44  1  0.25000000  0.24791500  0.12500000  1
  O  O45  1  0.75000000  0.75208500  0.12500000  1
  O  O46  1  0.75208500  0.25000000  0.87500000  1
  O  O47  1  0.24791500  0.75000000  0.87500000  1
  O  O48  1  0.91581600  0.75000000  0.87500000  1
  O  O49  1  0.08418400  0.25000000  0.87500000  1
  O  O50  1  0.25000000  0.91581600  0.12500000  1
  O  O51  1  0.75000000  0.08418400  0.12500000  1
  O  O52  1  0.81279750  0.92675350  0.79685550  1
  O  O53  1  0.68720250  0.92675350  0.45314450  1
  O  O54  1  0.18720250  0.07324650  0.79685550  1
  O  O55  1  0.31279750  0.07324650  0.45314450  1
  O  O56  1  0.07324650  0.81279750  0.20314450  1
  O  O57  1  0.92675350  0.31279750  0.54685550  1
  O  O58  1  0.92675350  0.18720250  0.20314450  1
  O  O59  1  0.07324650  0.68720250  0.54685550  1
  O  O60  1  0.42951700  0.34073800  0.99408500  1
  O  O61  1  0.57048300  0.84073800  0.75591500  1
  O  O62  1  0.57048300  0.65926200  0.99408500  1
  O  O63  1  0.42951700  0.15926200  0.75591500  1
  O  O64  1  0.65926200  0.42951700  0.00591500  1
  O  O65  1  0.84073800  0.42951700  0.24408500  1
  O  O66  1  0.34073800  0.57048300  0.00591500  1
  O  O67  1  0.15926200  0.57048300  0.24408500  1
  O  O68  1  0.75000000  0.74791500  0.62500000  1
  O  O69  1  0.25000000  0.25208500  0.62500000  1
  O  O70  1  0.25208500  0.75000000  0.37500000  1
  O  O71  1  0.74791500  0.25000000  0.37500000  1
  O  O72  1  0.41581600  0.25000000  0.37500000  1
  O  O73  1  0.58418400  0.75000000  0.37500000  1
  O  O74  1  0.75000000  0.41581600  0.62500000  1
  O  O75  1  0.25000000  0.58418400  0.62500000  1
  O  O76  1  0.31279750  0.42675350  0.29685550  1
  O  O77  1  0.18720250  0.42675350  0.95314450  1
  O  O78  1  0.68720250  0.57324650  0.29685550  1
  O  O79  1  0.81279750  0.57324650  0.95314450  1
  O  O80  1  0.57324650  0.31279750  0.70314450  1
  O  O81  1  0.42675350  0.81279750  0.04685550  1
  O  O82  1  0.42675350  0.68720250  0.70314450  1
  O  O83  1  0.57324650  0.18720250  0.04685550  1
