# generated using pymatgen
data_LaTe2Se
_symmetry_space_group_name_H-M   'P 1'
_cell_length_a   4.33274200
_cell_length_b   26.72320800
_cell_length_c   4.34631600
_cell_angle_alpha   90.00000000
_cell_angle_beta   90.00000000
_cell_angle_gamma   90.00000000
_symmetry_Int_Tables_number   1
_chemical_formula_structural   LaTe2Se
_chemical_formula_sum   'La4 Te8 Se4'
_cell_volume   503.23717962
_cell_formula_units_Z   4
loop_
 _symmetry_equiv_pos_site_id
 _symmetry_equiv_pos_as_xyz
  1  'x, y, z'
loop_
 _atom_site_type_symbol
 _atom_site_label
 _atom_site_symmetry_multiplicity
 _atom_site_fract_x
 _atom_site_fract_y
 _atom_site_fract_z
 _atom_site_occupancy
  La  La0  1  0.00000000  0.81958300  0.75000000  1
  La  La1  1  0.50000000  0.68041700  0.25000000  1
  La  La2  1  0.50000000  0.31958300  0.75000000  1
  La  La3  1  0.00000000  0.18041700  0.25000000  1
  Te  Te4  1  0.50000000  0.92051600  0.75000000  1
  Te  Te5  1  0.00000000  0.57948400  0.25000000  1
  Te  Te6  1  0.00000000  0.92049500  0.25000000  1
  Te  Te7  1  0.50000000  0.57950500  0.75000000  1
  Te  Te8  1  0.00000000  0.42051600  0.75000000  1
  Te  Te9  1  0.50000000  0.07948400  0.25000000  1
  Te  Te10  1  0.50000000  0.42049500  0.25000000  1
  Te  Te11  1  0.00000000  0.07950500  0.75000000  1
  Se  Se12  1  0.50000000  0.79489000  0.25000000  1
  Se  Se13  1  0.00000000  0.70511000  0.75000000  1
  Se  Se14  1  0.00000000  0.29489000  0.25000000  1
  Se  Se15  1  0.50000000  0.20511000  0.75000000  1
