# generated using pymatgen
data_La3(B3Ru4)2
_symmetry_space_group_name_H-M   'P 1'
_cell_length_a   5.58773400
_cell_length_b   9.84382200
_cell_length_c   17.61808800
_cell_angle_alpha   90.00000000
_cell_angle_beta   90.00000000
_cell_angle_gamma   90.00000000
_symmetry_Int_Tables_number   1
_chemical_formula_structural   La3(B3Ru4)2
_chemical_formula_sum   'La12 B24 Ru32'
_cell_volume   969.07692055
_cell_formula_units_Z   4
loop_
 _symmetry_equiv_pos_site_id
 _symmetry_equiv_pos_as_xyz
  1  'x, y, z'
loop_
 _atom_site_type_symbol
 _atom_site_label
 _atom_site_symmetry_multiplicity
 _atom_site_fract_x
 _atom_site_fract_y
 _atom_site_fract_z
 _atom_site_occupancy
  La  La0  1  0.00000000  0.00000000  0.00000000  1
  La  La1  1  0.00000000  0.00000000  0.81799000  1
  La  La2  1  0.50000000  0.00000000  0.68201000  1
  La  La3  1  0.00000000  0.50000000  0.50000000  1
  La  La4  1  0.00000000  0.50000000  0.31799000  1
  La  La5  1  0.50000000  0.50000000  0.18201000  1
  La  La6  1  0.50000000  0.00000000  0.50000000  1
  La  La7  1  0.50000000  0.00000000  0.31799000  1
  La  La8  1  0.00000000  0.00000000  0.18201000  1
  La  La9  1  0.50000000  0.50000000  0.00000000  1
  La  La10  1  0.50000000  0.50000000  0.81799000  1
  La  La11  1  0.00000000  0.50000000  0.68201000  1
  B  B12  1  0.00000000  0.66916100  0.00000000  1
  B  B13  1  0.50000000  0.83083900  0.00000000  1
  B  B14  1  0.50000000  0.83596400  0.82903000  1
  B  B15  1  0.00000000  0.66403600  0.82903000  1
  B  B16  1  0.50000000  0.66403600  0.67097000  1
  B  B17  1  0.00000000  0.83596400  0.67097000  1
  B  B18  1  0.00000000  0.16916100  0.50000000  1
  B  B19  1  0.50000000  0.33083900  0.50000000  1
  B  B20  1  0.50000000  0.33596400  0.32903000  1
  B  B21  1  0.00000000  0.16403600  0.32903000  1
  B  B22  1  0.50000000  0.16403600  0.17097000  1
  B  B23  1  0.00000000  0.33596400  0.17097000  1
  B  B24  1  0.50000000  0.66916100  0.50000000  1
  B  B25  1  0.00000000  0.83083900  0.50000000  1
  B  B26  1  0.00000000  0.83596400  0.32903000  1
  B  B27  1  0.50000000  0.66403600  0.32903000  1
  B  B28  1  0.00000000  0.66403600  0.17097000  1
  B  B29  1  0.50000000  0.83596400  0.17097000  1
  B  B30  1  0.50000000  0.16916100  0.00000000  1
  B  B31  1  0.00000000  0.33083900  0.00000000  1
  B  B32  1  0.00000000  0.33596400  0.82903000  1
  B  B33  1  0.50000000  0.16403600  0.82903000  1
  B  B34  1  0.00000000  0.16403600  0.67097000  1
  B  B35  1  0.50000000  0.33596400  0.67097000  1
  Ru  Ru36  1  0.75000000  0.75000000  0.91418600  1
  Ru  Ru37  1  0.50000000  0.00000000  0.91318000  1
  Ru  Ru38  1  0.00000000  0.00000000  0.58682000  1
  Ru  Ru39  1  0.25000000  0.75000000  0.75000000  1
  Ru  Ru40  1  0.75000000  0.75000000  0.75000000  1
  Ru  Ru41  1  0.25000000  0.75000000  0.58581400  1
  Ru  Ru42  1  0.75000000  0.75000000  0.58581400  1
  Ru  Ru43  1  0.25000000  0.75000000  0.91418600  1
  Ru  Ru44  1  0.75000000  0.25000000  0.41418600  1
  Ru  Ru45  1  0.50000000  0.50000000  0.41318000  1
  Ru  Ru46  1  0.00000000  0.50000000  0.08682000  1
  Ru  Ru47  1  0.25000000  0.25000000  0.25000000  1
  Ru  Ru48  1  0.75000000  0.25000000  0.25000000  1
  Ru  Ru49  1  0.25000000  0.25000000  0.08581400  1
  Ru  Ru50  1  0.75000000  0.25000000  0.08581400  1
  Ru  Ru51  1  0.25000000  0.25000000  0.41418600  1
  Ru  Ru52  1  0.25000000  0.75000000  0.41418600  1
  Ru  Ru53  1  0.00000000  0.00000000  0.41318000  1
  Ru  Ru54  1  0.50000000  0.00000000  0.08682000  1
  Ru  Ru55  1  0.75000000  0.75000000  0.25000000  1
  Ru  Ru56  1  0.25000000  0.75000000  0.25000000  1
  Ru  Ru57  1  0.75000000  0.75000000  0.08581400  1
  Ru  Ru58  1  0.25000000  0.75000000  0.08581400  1
  Ru  Ru59  1  0.75000000  0.75000000  0.41418600  1
  Ru  Ru60  1  0.25000000  0.25000000  0.91418600  1
  Ru  Ru61  1  0.00000000  0.50000000  0.91318000  1
  Ru  Ru62  1  0.50000000  0.50000000  0.58682000  1
  Ru  Ru63  1  0.75000000  0.25000000  0.75000000  1
  Ru  Ru64  1  0.25000000  0.25000000  0.75000000  1
  Ru  Ru65  1  0.75000000  0.25000000  0.58581400  1
  Ru  Ru66  1  0.25000000  0.25000000  0.58581400  1
  Ru  Ru67  1  0.75000000  0.25000000  0.91418600  1
