# generated using pymatgen
data_USiO4
_symmetry_space_group_name_H-M   'P 1'
_cell_length_a   7.01418400
_cell_length_b   7.01418400
_cell_length_c   6.30645200
_cell_angle_alpha   90.00000000
_cell_angle_beta   90.00000000
_cell_angle_gamma   90.00000000
_symmetry_Int_Tables_number   1
_chemical_formula_structural   USiO4
_chemical_formula_sum   'U4 Si4 O16'
_cell_volume   310.26972678
_cell_formula_units_Z   4
loop_
 _symmetry_equiv_pos_site_id
 _symmetry_equiv_pos_as_xyz
  1  'x, y, z'
loop_
 _atom_site_type_symbol
 _atom_site_label
 _atom_site_symmetry_multiplicity
 _atom_site_fract_x
 _atom_site_fract_y
 _atom_site_fract_z
 _atom_site_occupancy
  U  U0  1  0.50000000  0.00000000  0.75000000  1
  U  U1  1  0.00000000  0.00000000  0.50000000  1
  U  U2  1  0.00000000  0.50000000  0.25000000  1
  U  U3  1  0.50000000  0.50000000  0.00000000  1
  Si  Si4  1  0.50000000  0.00000000  0.25000000  1
  Si  Si5  1  0.50000000  0.50000000  0.50000000  1
  Si  Si6  1  0.00000000  0.50000000  0.75000000  1
  Si  Si7  1  0.00000000  0.00000000  0.00000000  1
  O  O8  1  0.68044700  0.00000000  0.41773100  1
  O  O9  1  0.50000000  0.31955300  0.66773100  1
  O  O10  1  0.00000000  0.18044700  0.16773100  1
  O  O11  1  0.31955300  0.00000000  0.41773100  1
  O  O12  1  0.00000000  0.31955300  0.58226900  1
  O  O13  1  0.68044700  0.50000000  0.33226900  1
  O  O14  1  0.81955300  0.00000000  0.83226900  1
  O  O15  1  0.00000000  0.68044700  0.58226900  1
  O  O16  1  0.18044700  0.50000000  0.91773100  1
  O  O17  1  0.00000000  0.81955300  0.16773100  1
  O  O18  1  0.50000000  0.68044700  0.66773100  1
  O  O19  1  0.81955300  0.50000000  0.91773100  1
  O  O20  1  0.50000000  0.81955300  0.08226900  1
  O  O21  1  0.18044700  0.00000000  0.83226900  1
  O  O22  1  0.31955300  0.50000000  0.33226900  1
  O  O23  1  0.50000000  0.18044700  0.08226900  1
