# generated using pymatgen
data_Y4Al23Ni6
_symmetry_space_group_name_H-M   'P 1'
_cell_length_a   15.82084600
_cell_length_b   4.06984800
_cell_length_c   18.33925324
_cell_angle_alpha   90.00000000
_cell_angle_beta   112.88637471
_cell_angle_gamma   90.00000000
_symmetry_Int_Tables_number   1
_chemical_formula_structural   Y4Al23Ni6
_chemical_formula_sum   'Y8 Al46 Ni12'
_cell_volume   1087.87801689
_cell_formula_units_Z   2
loop_
 _symmetry_equiv_pos_site_id
 _symmetry_equiv_pos_as_xyz
  1  'x, y, z'
loop_
 _atom_site_type_symbol
 _atom_site_label
 _atom_site_symmetry_multiplicity
 _atom_site_fract_x
 _atom_site_fract_y
 _atom_site_fract_z
 _atom_site_occupancy
  Y  Y0  1  0.23461600  0.50000000  0.78096800  1
  Y  Y1  1  0.07193700  0.50000000  0.40643400  1
  Y  Y2  1  0.92806300  0.50000000  0.59356600  1
  Y  Y3  1  0.76538400  0.50000000  0.21903200  1
  Y  Y4  1  0.73461600  0.00000000  0.78096800  1
  Y  Y5  1  0.57193700  0.00000000  0.40643400  1
  Y  Y6  1  0.42806300  0.00000000  0.59356600  1
  Y  Y7  1  0.26538400  0.00000000  0.21903200  1
  Al  Al8  1  0.00000000  0.00000000  0.50000000  1
  Al  Al9  1  0.85521800  0.00000000  0.14291300  1
  Al  Al10  1  0.91898700  0.00000000  0.31415100  1
  Al  Al11  1  0.08101300  0.00000000  0.68584900  1
  Al  Al12  1  0.41031900  0.50000000  0.94766400  1
  Al  Al13  1  0.58968100  0.50000000  0.05233600  1
  Al  Al14  1  0.90932800  0.00000000  0.71821500  1
  Al  Al15  1  0.09067200  0.00000000  0.28178500  1
  Al  Al16  1  0.79943300  0.00000000  0.47970200  1
  Al  Al17  1  0.20056700  0.00000000  0.52029800  1
  Al  Al18  1  0.14478200  0.00000000  0.85708700  1
  Al  Al19  1  0.61065600  0.00000000  0.16423200  1
  Al  Al20  1  0.24391200  0.50000000  0.95351700  1
  Al  Al21  1  0.75608800  0.50000000  0.04648300  1
  Al  Al22  1  0.38934400  0.00000000  0.83576800  1
  Al  Al23  1  0.96747900  0.50000000  0.21852800  1
  Al  Al24  1  0.72611500  0.00000000  0.32497300  1
  Al  Al25  1  0.27388500  0.00000000  0.67502700  1
  Al  Al26  1  0.12185500  0.50000000  0.59465900  1
  Al  Al27  1  0.87814500  0.50000000  0.40534100  1
  Al  Al28  1  0.06570700  0.50000000  0.94065800  1
  Al  Al29  1  0.93429300  0.50000000  0.05934200  1
  Al  Al30  1  0.03252100  0.50000000  0.78147200  1
  Al  Al31  1  0.50000000  0.50000000  0.50000000  1
  Al  Al32  1  0.35521800  0.50000000  0.14291300  1
  Al  Al33  1  0.41898700  0.50000000  0.31415100  1
  Al  Al34  1  0.58101300  0.50000000  0.68584900  1
  Al  Al35  1  0.91031900  0.00000000  0.94766400  1
  Al  Al36  1  0.08968100  0.00000000  0.05233600  1
  Al  Al37  1  0.40932800  0.50000000  0.71821500  1
  Al  Al38  1  0.59067200  0.50000000  0.28178500  1
  Al  Al39  1  0.29943300  0.50000000  0.47970200  1
  Al  Al40  1  0.70056700  0.50000000  0.52029800  1
  Al  Al41  1  0.64478200  0.50000000  0.85708700  1
  Al  Al42  1  0.11065600  0.50000000  0.16423200  1
  Al  Al43  1  0.74391200  0.00000000  0.95351700  1
  Al  Al44  1  0.25608800  0.00000000  0.04648300  1
  Al  Al45  1  0.88934400  0.50000000  0.83576800  1
  Al  Al46  1  0.46747900  0.00000000  0.21852800  1
  Al  Al47  1  0.22611500  0.50000000  0.32497300  1
  Al  Al48  1  0.77388500  0.50000000  0.67502700  1
  Al  Al49  1  0.62185500  0.00000000  0.59465900  1
  Al  Al50  1  0.37814500  0.00000000  0.40534100  1
  Al  Al51  1  0.56570700  0.00000000  0.94065800  1
  Al  Al52  1  0.43429300  0.00000000  0.05934200  1
  Al  Al53  1  0.53252100  0.00000000  0.78147200  1
  Ni  Ni54  1  0.99160800  0.00000000  0.86098200  1
  Ni  Ni55  1  0.00839200  0.00000000  0.13901800  1
  Ni  Ni56  1  0.27256900  0.50000000  0.60074700  1
  Ni  Ni57  1  0.68901400  0.00000000  0.06821600  1
  Ni  Ni58  1  0.72743100  0.50000000  0.39925300  1
  Ni  Ni59  1  0.31098600  0.00000000  0.93178400  1
  Ni  Ni60  1  0.49160800  0.50000000  0.86098200  1
  Ni  Ni61  1  0.50839200  0.50000000  0.13901800  1
  Ni  Ni62  1  0.77256900  0.00000000  0.60074700  1
  Ni  Ni63  1  0.18901400  0.50000000  0.06821600  1
  Ni  Ni64  1  0.22743100  0.00000000  0.39925300  1
  Ni  Ni65  1  0.81098600  0.50000000  0.93178400  1
