# generated using pymatgen
data_Y2B5Pd14
_symmetry_space_group_name_H-M   'P 1'
_cell_length_a   8.30318600
_cell_length_b   8.30318600
_cell_length_c   17.21454800
_cell_angle_alpha   90.00000000
_cell_angle_beta   90.00000000
_cell_angle_gamma   90.00000000
_symmetry_Int_Tables_number   1
_chemical_formula_structural   Y2B5Pd14
_chemical_formula_sum   'Y8 B20 Pd56'
_cell_volume   1186.82082259
_cell_formula_units_Z   4
loop_
 _symmetry_equiv_pos_site_id
 _symmetry_equiv_pos_as_xyz
  1  'x, y, z'
loop_
 _atom_site_type_symbol
 _atom_site_label
 _atom_site_symmetry_multiplicity
 _atom_site_fract_x
 _atom_site_fract_y
 _atom_site_fract_z
 _atom_site_occupancy
  Y  Y0  1  0.50000000  0.50000000  0.28394300  1
  Y  Y1  1  0.00000000  0.50000000  0.03394300  1
  Y  Y2  1  0.00000000  0.50000000  0.46605700  1
  Y  Y3  1  0.00000000  0.00000000  0.21605700  1
  Y  Y4  1  0.00000000  0.00000000  0.78394300  1
  Y  Y5  1  0.50000000  0.00000000  0.53394300  1
  Y  Y6  1  0.50000000  0.00000000  0.96605700  1
  Y  Y7  1  0.50000000  0.50000000  0.71605700  1
  B  B8  1  0.50000000  0.00000000  0.25000000  1
  B  B9  1  0.50000000  0.50000000  0.00000000  1
  B  B10  1  0.21080500  0.25000000  0.12500000  1
  B  B11  1  0.75000000  0.71080500  0.37500000  1
  B  B12  1  0.25000000  0.28919500  0.37500000  1
  B  B13  1  0.78919500  0.75000000  0.12500000  1
  B  B14  1  0.78919500  0.25000000  0.12500000  1
  B  B15  1  0.75000000  0.28919500  0.37500000  1
  B  B16  1  0.25000000  0.71080500  0.37500000  1
  B  B17  1  0.21080500  0.75000000  0.12500000  1
  B  B18  1  0.00000000  0.50000000  0.75000000  1
  B  B19  1  0.00000000  0.00000000  0.50000000  1
  B  B20  1  0.71080500  0.75000000  0.62500000  1
  B  B21  1  0.25000000  0.21080500  0.87500000  1
  B  B22  1  0.75000000  0.78919500  0.87500000  1
  B  B23  1  0.28919500  0.25000000  0.62500000  1
  B  B24  1  0.28919500  0.75000000  0.62500000  1
  B  B25  1  0.25000000  0.78919500  0.87500000  1
  B  B26  1  0.75000000  0.21080500  0.87500000  1
  B  B27  1  0.71080500  0.25000000  0.62500000  1
  Pd  Pd28  1  0.16870700  0.50000000  0.30757000  1
  Pd  Pd29  1  0.00000000  0.66870700  0.19243000  1
  Pd  Pd30  1  0.81278850  0.81278850  0.50000000  1
  Pd  Pd31  1  0.68721150  0.81278850  0.25000000  1
  Pd  Pd32  1  0.31278850  0.18721150  0.25000000  1
  Pd  Pd33  1  0.68721150  0.68721150  0.00000000  1
  Pd  Pd34  1  0.68721150  0.18721150  0.25000000  1
  Pd  Pd35  1  0.31278850  0.68721150  0.00000000  1
  Pd  Pd36  1  0.68721150  0.31278850  0.00000000  1
  Pd  Pd37  1  0.31278850  0.81278850  0.25000000  1
  Pd  Pd38  1  0.50000000  0.25000000  0.12500000  1
  Pd  Pd39  1  0.75000000  0.00000000  0.37500000  1
  Pd  Pd40  1  0.25000000  0.00000000  0.37500000  1
  Pd  Pd41  1  0.50000000  0.75000000  0.12500000  1
  Pd  Pd42  1  0.83129300  0.50000000  0.30757000  1
  Pd  Pd43  1  0.00000000  0.83129300  0.05757000  1
  Pd  Pd44  1  0.00000000  0.16870700  0.05757000  1
  Pd  Pd45  1  0.33129300  0.50000000  0.44243000  1
  Pd  Pd46  1  0.66870700  0.50000000  0.44243000  1
  Pd  Pd47  1  0.00000000  0.33129300  0.19243000  1
  Pd  Pd48  1  0.00000000  0.21382300  0.35568900  1
  Pd  Pd49  1  0.71382300  0.50000000  0.14431100  1
  Pd  Pd50  1  0.28617700  0.50000000  0.14431100  1
  Pd  Pd51  1  0.50000000  0.78617700  0.39431100  1
  Pd  Pd52  1  0.50000000  0.21382300  0.39431100  1
  Pd  Pd53  1  0.28617700  0.00000000  0.10568900  1
  Pd  Pd54  1  0.71382300  0.00000000  0.10568900  1
  Pd  Pd55  1  0.00000000  0.78617700  0.35568900  1
  Pd  Pd56  1  0.66870700  0.00000000  0.80757000  1
  Pd  Pd57  1  0.50000000  0.16870700  0.69243000  1
  Pd  Pd58  1  0.31278850  0.31278850  0.00000000  1
  Pd  Pd59  1  0.18721150  0.31278850  0.75000000  1
  Pd  Pd60  1  0.81278850  0.68721150  0.75000000  1
  Pd  Pd61  1  0.18721150  0.18721150  0.50000000  1
  Pd  Pd62  1  0.18721150  0.68721150  0.75000000  1
  Pd  Pd63  1  0.81278850  0.18721150  0.50000000  1
  Pd  Pd64  1  0.18721150  0.81278850  0.50000000  1
  Pd  Pd65  1  0.81278850  0.31278850  0.75000000  1
  Pd  Pd66  1  0.00000000  0.75000000  0.62500000  1
  Pd  Pd67  1  0.25000000  0.50000000  0.87500000  1
  Pd  Pd68  1  0.75000000  0.50000000  0.87500000  1
  Pd  Pd69  1  0.00000000  0.25000000  0.62500000  1
  Pd  Pd70  1  0.33129300  0.00000000  0.80757000  1
  Pd  Pd71  1  0.50000000  0.33129300  0.55757000  1
  Pd  Pd72  1  0.50000000  0.66870700  0.55757000  1
  Pd  Pd73  1  0.83129300  0.00000000  0.94243000  1
  Pd  Pd74  1  0.16870700  0.00000000  0.94243000  1
  Pd  Pd75  1  0.50000000  0.83129300  0.69243000  1
  Pd  Pd76  1  0.50000000  0.71382300  0.85568900  1
  Pd  Pd77  1  0.21382300  0.00000000  0.64431100  1
  Pd  Pd78  1  0.78617700  0.00000000  0.64431100  1
  Pd  Pd79  1  0.00000000  0.28617700  0.89431100  1
  Pd  Pd80  1  0.00000000  0.71382300  0.89431100  1
  Pd  Pd81  1  0.78617700  0.50000000  0.60568900  1
  Pd  Pd82  1  0.21382300  0.50000000  0.60568900  1
  Pd  Pd83  1  0.50000000  0.28617700  0.85568900  1
