# generated using pymatgen
data_Nb4GaS8
_symmetry_space_group_name_H-M   'P 1'
_cell_length_a   10.08813600
_cell_length_b   10.08813600
_cell_length_c   10.08813600
_cell_angle_alpha   90.00000000
_cell_angle_beta   90.00000000
_cell_angle_gamma   90.00000000
_symmetry_Int_Tables_number   1
_chemical_formula_structural   Nb4GaS8
_chemical_formula_sum   'Nb16 Ga4 S32'
_cell_volume   1026.67452327
_cell_formula_units_Z   4
loop_
 _symmetry_equiv_pos_site_id
 _symmetry_equiv_pos_as_xyz
  1  'x, y, z'
loop_
 _atom_site_type_symbol
 _atom_site_label
 _atom_site_symmetry_multiplicity
 _atom_site_fract_x
 _atom_site_fract_y
 _atom_site_fract_z
 _atom_site_occupancy
  Nb  Nb0  1  0.14461300  0.35538700  0.14461300  1
  Nb  Nb1  1  0.35538700  0.14461300  0.14461300  1
  Nb  Nb2  1  0.85538700  0.35538700  0.85538700  1
  Nb  Nb3  1  0.64461300  0.14461300  0.85538700  1
  Nb  Nb4  1  0.14461300  0.85538700  0.64461300  1
  Nb  Nb5  1  0.35538700  0.64461300  0.64461300  1
  Nb  Nb6  1  0.85538700  0.85538700  0.35538700  1
  Nb  Nb7  1  0.64461300  0.64461300  0.35538700  1
  Nb  Nb8  1  0.64461300  0.35538700  0.64461300  1
  Nb  Nb9  1  0.85538700  0.14461300  0.64461300  1
  Nb  Nb10  1  0.35538700  0.35538700  0.35538700  1
  Nb  Nb11  1  0.14461300  0.14461300  0.35538700  1
  Nb  Nb12  1  0.64461300  0.85538700  0.14461300  1
  Nb  Nb13  1  0.85538700  0.64461300  0.14461300  1
  Nb  Nb14  1  0.35538700  0.85538700  0.85538700  1
  Nb  Nb15  1  0.14461300  0.64461300  0.85538700  1
  Ga  Ga16  1  0.25000000  0.25000000  0.75000000  1
  Ga  Ga17  1  0.25000000  0.75000000  0.25000000  1
  Ga  Ga18  1  0.75000000  0.25000000  0.25000000  1
  Ga  Ga19  1  0.75000000  0.75000000  0.75000000  1
  S  S20  1  0.38195467  0.38195467  0.11804533  1
  S  S21  1  0.11804533  0.11804533  0.11804533  1
  S  S22  1  0.11804533  0.38195467  0.38195467  1
  S  S23  1  0.38195467  0.11804533  0.38195467  1
  S  S24  1  0.61689400  0.11689400  0.11689400  1
  S  S25  1  0.88310600  0.38310600  0.11689400  1
  S  S26  1  0.38310600  0.11689400  0.88310600  1
  S  S27  1  0.11689400  0.38310600  0.88310600  1
  S  S28  1  0.38195467  0.88195467  0.61804533  1
  S  S29  1  0.11804533  0.61804533  0.61804533  1
  S  S30  1  0.11804533  0.88195467  0.88195467  1
  S  S31  1  0.38195467  0.61804533  0.88195467  1
  S  S32  1  0.61689400  0.61689400  0.61689400  1
  S  S33  1  0.88310600  0.88310600  0.61689400  1
  S  S34  1  0.38310600  0.61689400  0.38310600  1
  S  S35  1  0.11689400  0.88310600  0.38310600  1
  S  S36  1  0.88195467  0.38195467  0.61804533  1
  S  S37  1  0.61804533  0.11804533  0.61804533  1
  S  S38  1  0.61804533  0.38195467  0.88195467  1
  S  S39  1  0.88195467  0.11804533  0.88195467  1
  S  S40  1  0.11689400  0.11689400  0.61689400  1
  S  S41  1  0.38310600  0.38310600  0.61689400  1
  S  S42  1  0.88310600  0.11689400  0.38310600  1
  S  S43  1  0.61689400  0.38310600  0.38310600  1
  S  S44  1  0.88195467  0.88195467  0.11804533  1
  S  S45  1  0.61804533  0.61804533  0.11804533  1
  S  S46  1  0.61804533  0.88195467  0.38195467  1
  S  S47  1  0.88195467  0.61804533  0.38195467  1
  S  S48  1  0.11689400  0.61689400  0.11689400  1
  S  S49  1  0.38310600  0.88310600  0.11689400  1
  S  S50  1  0.88310600  0.61689400  0.88310600  1
  S  S51  1  0.61689400  0.88310600  0.88310600  1
