# generated using pymatgen
data_YbPO4
_symmetry_space_group_name_H-M   'P 1'
_cell_length_a   7.00603400
_cell_length_b   7.00603400
_cell_length_c   6.14589400
_cell_angle_alpha   90.00000000
_cell_angle_beta   90.00000000
_cell_angle_gamma   90.00000000
_symmetry_Int_Tables_number   1
_chemical_formula_structural   YbPO4
_chemical_formula_sum   'Yb4 P4 O16'
_cell_volume   301.66821031
_cell_formula_units_Z   4
loop_
 _symmetry_equiv_pos_site_id
 _symmetry_equiv_pos_as_xyz
  1  'x, y, z'
loop_
 _atom_site_type_symbol
 _atom_site_label
 _atom_site_symmetry_multiplicity
 _atom_site_fract_x
 _atom_site_fract_y
 _atom_site_fract_z
 _atom_site_occupancy
  Yb  Yb0  1  0.50000000  0.00000000  0.25000000  1
  Yb  Yb1  1  0.50000000  0.50000000  0.50000000  1
  Yb  Yb2  1  0.00000000  0.50000000  0.75000000  1
  Yb  Yb3  1  0.00000000  0.00000000  0.00000000  1
  P  P4  1  0.00000000  0.00000000  0.50000000  1
  P  P5  1  0.50000000  0.00000000  0.75000000  1
  P  P6  1  0.50000000  0.50000000  0.00000000  1
  P  P7  1  0.00000000  0.50000000  0.25000000  1
  O  O8  1  0.00000000  0.17544600  0.65279400  1
  O  O9  1  0.82455400  0.50000000  0.40279400  1
  O  O10  1  0.67544600  0.00000000  0.90279400  1
  O  O11  1  0.00000000  0.82455400  0.65279400  1
  O  O12  1  0.17544600  0.00000000  0.34720600  1
  O  O13  1  0.00000000  0.32455400  0.09720600  1
  O  O14  1  0.50000000  0.17544600  0.59720600  1
  O  O15  1  0.82455400  0.00000000  0.34720600  1
  O  O16  1  0.50000000  0.67544600  0.15279400  1
  O  O17  1  0.32455400  0.00000000  0.90279400  1
  O  O18  1  0.17544600  0.50000000  0.40279400  1
  O  O19  1  0.50000000  0.32455400  0.15279400  1
  O  O20  1  0.67544600  0.50000000  0.84720600  1
  O  O21  1  0.50000000  0.82455400  0.59720600  1
  O  O22  1  0.00000000  0.67544600  0.09720600  1
  O  O23  1  0.32455400  0.50000000  0.84720600  1
