# generated using pymatgen
data_Eu(AsRu)2
_symmetry_space_group_name_H-M   'P 1'
_cell_length_a   4.21537200
_cell_length_b   4.21537200
_cell_length_c   10.76124600
_cell_angle_alpha   90.00000000
_cell_angle_beta   90.00000000
_cell_angle_gamma   90.00000000
_symmetry_Int_Tables_number   1
_chemical_formula_structural   Eu(AsRu)2
_chemical_formula_sum   'Eu2 As4 Ru4'
_cell_volume   191.22046604
_cell_formula_units_Z   2
loop_
 _symmetry_equiv_pos_site_id
 _symmetry_equiv_pos_as_xyz
  1  'x, y, z'
loop_
 _atom_site_type_symbol
 _atom_site_label
 _atom_site_symmetry_multiplicity
 _atom_site_fract_x
 _atom_site_fract_y
 _atom_site_fract_z
 _atom_site_occupancy
  Eu  Eu0  1  0.00000000  0.00000000  0.00000000  1
  Eu  Eu1  1  0.50000000  0.50000000  0.50000000  1
  As  As2  1  0.50000000  0.50000000  0.13553200  1
  As  As3  1  0.00000000  0.00000000  0.36446800  1
  As  As4  1  0.00000000  0.00000000  0.63553200  1
  As  As5  1  0.50000000  0.50000000  0.86446800  1
  Ru  Ru6  1  0.00000000  0.50000000  0.25000000  1
  Ru  Ru7  1  0.50000000  0.00000000  0.25000000  1
  Ru  Ru8  1  0.50000000  0.00000000  0.75000000  1
  Ru  Ru9  1  0.00000000  0.50000000  0.75000000  1
