# generated using pymatgen
data_Li(PrGe3)2
_symmetry_space_group_name_H-M   'P 1'
_cell_length_a   4.14831000
_cell_length_b   21.64571200
_cell_length_c   4.29788100
_cell_angle_alpha   90.00000000
_cell_angle_beta   90.00000000
_cell_angle_gamma   90.00000000
_symmetry_Int_Tables_number   1
_chemical_formula_structural   Li(PrGe3)2
_chemical_formula_sum   'Li2 Pr4 Ge12'
_cell_volume   385.92015962
_cell_formula_units_Z   2
loop_
 _symmetry_equiv_pos_site_id
 _symmetry_equiv_pos_as_xyz
  1  'x, y, z'
loop_
 _atom_site_type_symbol
 _atom_site_label
 _atom_site_symmetry_multiplicity
 _atom_site_fract_x
 _atom_site_fract_y
 _atom_site_fract_z
 _atom_site_occupancy
  Li  Li0  1  0.00000000  0.00000000  0.00000000  1
  Li  Li1  1  0.50000000  0.50000000  0.00000000  1
  Pr  Pr2  1  0.00000000  0.83364400  0.00000000  1
  Pr  Pr3  1  0.50000000  0.66635600  0.00000000  1
  Pr  Pr4  1  0.50000000  0.33364400  0.00000000  1
  Pr  Pr5  1  0.00000000  0.16635600  0.00000000  1
  Ge  Ge6  1  0.50000000  0.78718500  0.50000000  1
  Ge  Ge7  1  0.00000000  0.71281500  0.50000000  1
  Ge  Ge8  1  0.50000000  0.93881600  0.00000000  1
  Ge  Ge9  1  0.00000000  0.93870400  0.50000000  1
  Ge  Ge10  1  0.50000000  0.56129600  0.50000000  1
  Ge  Ge11  1  0.00000000  0.56118400  0.00000000  1
  Ge  Ge12  1  0.00000000  0.28718500  0.50000000  1
  Ge  Ge13  1  0.50000000  0.21281500  0.50000000  1
  Ge  Ge14  1  0.00000000  0.43881600  0.00000000  1
  Ge  Ge15  1  0.50000000  0.43870400  0.50000000  1
  Ge  Ge16  1  0.00000000  0.06129600  0.50000000  1
  Ge  Ge17  1  0.50000000  0.06118400  0.00000000  1
