# generated using pymatgen
data_TbSi2Ni
_symmetry_space_group_name_H-M   'P 1'
_cell_length_a   4.01008000
_cell_length_b   16.45159200
_cell_length_c   3.98165700
_cell_angle_alpha   90.00000000
_cell_angle_beta   90.00000000
_cell_angle_gamma   90.00000000
_symmetry_Int_Tables_number   1
_chemical_formula_structural   TbSi2Ni
_chemical_formula_sum   'Tb4 Si8 Ni4'
_cell_volume   262.67867212
_cell_formula_units_Z   4
loop_
 _symmetry_equiv_pos_site_id
 _symmetry_equiv_pos_as_xyz
  1  'x, y, z'
loop_
 _atom_site_type_symbol
 _atom_site_label
 _atom_site_symmetry_multiplicity
 _atom_site_fract_x
 _atom_site_fract_y
 _atom_site_fract_z
 _atom_site_occupancy
  Tb  Tb0  1  0.50000000  0.39396500  0.75000000  1
  Tb  Tb1  1  0.00000000  0.10603500  0.25000000  1
  Tb  Tb2  1  0.00000000  0.89396500  0.75000000  1
  Tb  Tb3  1  0.50000000  0.60603500  0.25000000  1
  Si  Si4  1  0.00000000  0.25049200  0.75000000  1
  Si  Si5  1  0.50000000  0.24950800  0.25000000  1
  Si  Si6  1  0.50000000  0.04001600  0.75000000  1
  Si  Si7  1  0.00000000  0.45998400  0.25000000  1
  Si  Si8  1  0.50000000  0.75049200  0.75000000  1
  Si  Si9  1  0.00000000  0.74950800  0.25000000  1
  Si  Si10  1  0.00000000  0.54001600  0.75000000  1
  Si  Si11  1  0.50000000  0.95998400  0.25000000  1
  Ni  Ni12  1  0.50000000  0.17793700  0.75000000  1
  Ni  Ni13  1  0.00000000  0.32206300  0.25000000  1
  Ni  Ni14  1  0.00000000  0.67793700  0.75000000  1
  Ni  Ni15  1  0.50000000  0.82206300  0.25000000  1
