# generated using pymatgen
data_CsNa2Si17
_symmetry_space_group_name_H-M   'P 1'
_cell_length_a   14.83891800
_cell_length_b   14.83891800
_cell_length_c   14.83891800
_cell_angle_alpha   90.00000000
_cell_angle_beta   90.00000000
_cell_angle_gamma   90.00000000
_symmetry_Int_Tables_number   1
_chemical_formula_structural   CsNa2Si17
_chemical_formula_sum   'Cs8 Na16 Si136'
_cell_volume   3267.43310382
_cell_formula_units_Z   8
loop_
 _symmetry_equiv_pos_site_id
 _symmetry_equiv_pos_as_xyz
  1  'x, y, z'
loop_
 _atom_site_type_symbol
 _atom_site_label
 _atom_site_symmetry_multiplicity
 _atom_site_fract_x
 _atom_site_fract_y
 _atom_site_fract_z
 _atom_site_occupancy
  Cs  Cs0  1  0.00000000  0.00000000  0.50000000  1
  Cs  Cs1  1  0.25000000  0.75000000  0.25000000  1
  Cs  Cs2  1  0.00000000  0.50000000  0.00000000  1
  Cs  Cs3  1  0.25000000  0.25000000  0.75000000  1
  Cs  Cs4  1  0.50000000  0.00000000  0.00000000  1
  Cs  Cs5  1  0.75000000  0.75000000  0.75000000  1
  Cs  Cs6  1  0.50000000  0.50000000  0.50000000  1
  Cs  Cs7  1  0.75000000  0.25000000  0.25000000  1
  Na  Na8  1  0.12500000  0.12500000  0.12500000  1
  Na  Na9  1  0.62500000  0.87500000  0.37500000  1
  Na  Na10  1  0.87500000  0.87500000  0.12500000  1
  Na  Na11  1  0.37500000  0.12500000  0.37500000  1
  Na  Na12  1  0.12500000  0.62500000  0.62500000  1
  Na  Na13  1  0.62500000  0.37500000  0.87500000  1
  Na  Na14  1  0.87500000  0.37500000  0.62500000  1
  Na  Na15  1  0.37500000  0.62500000  0.87500000  1
  Na  Na16  1  0.62500000  0.12500000  0.62500000  1
  Na  Na17  1  0.12500000  0.87500000  0.87500000  1
  Na  Na18  1  0.37500000  0.87500000  0.62500000  1
  Na  Na19  1  0.87500000  0.12500000  0.87500000  1
  Na  Na20  1  0.62500000  0.62500000  0.12500000  1
  Na  Na21  1  0.12500000  0.37500000  0.37500000  1
  Na  Na22  1  0.37500000  0.37500000  0.12500000  1
  Na  Na23  1  0.87500000  0.62500000  0.37500000  1
  Si  Si24  1  0.30725000  0.30725000  0.49502400  1
  Si  Si25  1  0.19275000  0.49502400  0.19275000  1
  Si  Si26  1  0.30725000  0.00497600  0.19275000  1
  Si  Si27  1  0.49502400  0.19275000  0.19275000  1
  Si  Si28  1  0.49502400  0.30725000  0.30725000  1
  Si  Si29  1  0.94275000  0.05725000  0.24502400  1
  Si  Si30  1  0.44275000  0.75497600  0.44275000  1
  Si  Si31  1  0.55725000  0.24502400  0.44275000  1
  Si  Si32  1  0.55725000  0.05725000  0.25497600  1
  Si  Si33  1  0.05725000  0.94275000  0.24502400  1
  Si  Si34  1  0.94275000  0.24502400  0.05725000  1
  Si  Si35  1  0.44275000  0.94275000  0.25497600  1
  Si  Si36  1  0.05725000  0.75497600  0.05725000  1
  Si  Si37  1  0.19275000  0.00497600  0.30725000  1
  Si  Si38  1  0.19275000  0.30725000  0.00497600  1
  Si  Si39  1  0.00497600  0.30725000  0.19275000  1
  Si  Si40  1  0.00497600  0.19275000  0.30725000  1
  Si  Si41  1  0.30725000  0.19275000  0.00497600  1
  Si  Si42  1  0.30725000  0.49502400  0.30725000  1
  Si  Si43  1  0.75497600  0.05725000  0.05725000  1
  Si  Si44  1  0.25497600  0.94275000  0.44275000  1
  Si  Si45  1  0.24502400  0.94275000  0.05725000  1
  Si  Si46  1  0.09221000  0.90779000  0.09221000  1
  Si  Si47  1  0.15779000  0.15779000  0.34221000  1
  Si  Si48  1  0.34221000  0.15779000  0.15779000  1
  Si  Si49  1  0.34221000  0.34221000  0.34221000  1
  Si  Si50  1  0.90779000  0.09221000  0.09221000  1
  Si  Si51  1  0.40779000  0.90779000  0.40779000  1
  Si  Si52  1  0.59221000  0.09221000  0.40779000  1
  Si  Si53  1  0.15779000  0.34221000  0.15779000  1
  Si  Si54  1  0.50000000  0.00000000  0.50000000  1
  Si  Si55  1  0.25000000  0.25000000  0.25000000  1
  Si  Si56  1  0.19275000  0.19275000  0.49502400  1
  Si  Si57  1  0.74502400  0.05725000  0.44275000  1
  Si  Si58  1  0.30725000  0.80725000  0.99502400  1
  Si  Si59  1  0.19275000  0.99502400  0.69275000  1
  Si  Si60  1  0.30725000  0.50497600  0.69275000  1
  Si  Si61  1  0.49502400  0.69275000  0.69275000  1
  Si  Si62  1  0.49502400  0.80725000  0.80725000  1
  Si  Si63  1  0.94275000  0.55725000  0.74502400  1
  Si  Si64  1  0.44275000  0.25497600  0.94275000  1
  Si  Si65  1  0.55725000  0.74502400  0.94275000  1
  Si  Si66  1  0.55725000  0.55725000  0.75497600  1
  Si  Si67  1  0.05725000  0.44275000  0.74502400  1
  Si  Si68  1  0.94275000  0.74502400  0.55725000  1
  Si  Si69  1  0.44275000  0.44275000  0.75497600  1
  Si  Si70  1  0.05725000  0.25497600  0.55725000  1
  Si  Si71  1  0.19275000  0.50497600  0.80725000  1
  Si  Si72  1  0.19275000  0.80725000  0.50497600  1
  Si  Si73  1  0.00497600  0.80725000  0.69275000  1
  Si  Si74  1  0.00497600  0.69275000  0.80725000  1
  Si  Si75  1  0.30725000  0.69275000  0.50497600  1
  Si  Si76  1  0.30725000  0.99502400  0.80725000  1
  Si  Si77  1  0.75497600  0.55725000  0.55725000  1
  Si  Si78  1  0.25497600  0.44275000  0.94275000  1
  Si  Si79  1  0.24502400  0.44275000  0.55725000  1
  Si  Si80  1  0.09221000  0.40779000  0.59221000  1
  Si  Si81  1  0.15779000  0.65779000  0.84221000  1
  Si  Si82  1  0.34221000  0.65779000  0.65779000  1
  Si  Si83  1  0.34221000  0.84221000  0.84221000  1
  Si  Si84  1  0.90779000  0.59221000  0.59221000  1
  Si  Si85  1  0.40779000  0.40779000  0.90779000  1
  Si  Si86  1  0.59221000  0.59221000  0.90779000  1
  Si  Si87  1  0.15779000  0.84221000  0.65779000  1
  Si  Si88  1  0.50000000  0.50000000  0.00000000  1
  Si  Si89  1  0.25000000  0.75000000  0.75000000  1
  Si  Si90  1  0.19275000  0.69275000  0.99502400  1
  Si  Si91  1  0.74502400  0.55725000  0.94275000  1
  Si  Si92  1  0.80725000  0.30725000  0.99502400  1
  Si  Si93  1  0.69275000  0.49502400  0.69275000  1
  Si  Si94  1  0.80725000  0.00497600  0.69275000  1
  Si  Si95  1  0.99502400  0.19275000  0.69275000  1
  Si  Si96  1  0.99502400  0.30725000  0.80725000  1
  Si  Si97  1  0.44275000  0.05725000  0.74502400  1
  Si  Si98  1  0.94275000  0.75497600  0.94275000  1
  Si  Si99  1  0.05725000  0.24502400  0.94275000  1
  Si  Si100  1  0.05725000  0.05725000  0.75497600  1
  Si  Si101  1  0.55725000  0.94275000  0.74502400  1
  Si  Si102  1  0.44275000  0.24502400  0.55725000  1
  Si  Si103  1  0.94275000  0.94275000  0.75497600  1
  Si  Si104  1  0.55725000  0.75497600  0.55725000  1
  Si  Si105  1  0.69275000  0.00497600  0.80725000  1
  Si  Si106  1  0.69275000  0.30725000  0.50497600  1
  Si  Si107  1  0.50497600  0.30725000  0.69275000  1
  Si  Si108  1  0.50497600  0.19275000  0.80725000  1
  Si  Si109  1  0.80725000  0.19275000  0.50497600  1
  Si  Si110  1  0.80725000  0.49502400  0.80725000  1
  Si  Si111  1  0.25497600  0.05725000  0.55725000  1
  Si  Si112  1  0.75497600  0.94275000  0.94275000  1
  Si  Si113  1  0.74502400  0.94275000  0.55725000  1
  Si  Si114  1  0.59221000  0.90779000  0.59221000  1
  Si  Si115  1  0.65779000  0.15779000  0.84221000  1
  Si  Si116  1  0.84221000  0.15779000  0.65779000  1
  Si  Si117  1  0.84221000  0.34221000  0.84221000  1
  Si  Si118  1  0.40779000  0.09221000  0.59221000  1
  Si  Si119  1  0.90779000  0.90779000  0.90779000  1
  Si  Si120  1  0.09221000  0.09221000  0.90779000  1
  Si  Si121  1  0.65779000  0.34221000  0.65779000  1
  Si  Si122  1  0.00000000  0.00000000  0.00000000  1
  Si  Si123  1  0.75000000  0.25000000  0.75000000  1
  Si  Si124  1  0.69275000  0.19275000  0.99502400  1
  Si  Si125  1  0.24502400  0.05725000  0.94275000  1
  Si  Si126  1  0.80725000  0.80725000  0.49502400  1
  Si  Si127  1  0.69275000  0.99502400  0.19275000  1
  Si  Si128  1  0.80725000  0.50497600  0.19275000  1
  Si  Si129  1  0.99502400  0.69275000  0.19275000  1
  Si  Si130  1  0.99502400  0.80725000  0.30725000  1
  Si  Si131  1  0.44275000  0.55725000  0.24502400  1
  Si  Si132  1  0.94275000  0.25497600  0.44275000  1
  Si  Si133  1  0.05725000  0.74502400  0.44275000  1
  Si  Si134  1  0.05725000  0.55725000  0.25497600  1
  Si  Si135  1  0.55725000  0.44275000  0.24502400  1
  Si  Si136  1  0.44275000  0.74502400  0.05725000  1
  Si  Si137  1  0.94275000  0.44275000  0.25497600  1
  Si  Si138  1  0.55725000  0.25497600  0.05725000  1
  Si  Si139  1  0.69275000  0.50497600  0.30725000  1
  Si  Si140  1  0.69275000  0.80725000  0.00497600  1
  Si  Si141  1  0.50497600  0.80725000  0.19275000  1
  Si  Si142  1  0.50497600  0.69275000  0.30725000  1
  Si  Si143  1  0.80725000  0.69275000  0.00497600  1
  Si  Si144  1  0.80725000  0.99502400  0.30725000  1
  Si  Si145  1  0.25497600  0.55725000  0.05725000  1
  Si  Si146  1  0.75497600  0.44275000  0.44275000  1
  Si  Si147  1  0.74502400  0.44275000  0.05725000  1
  Si  Si148  1  0.59221000  0.40779000  0.09221000  1
  Si  Si149  1  0.65779000  0.65779000  0.34221000  1
  Si  Si150  1  0.84221000  0.65779000  0.15779000  1
  Si  Si151  1  0.84221000  0.84221000  0.34221000  1
  Si  Si152  1  0.40779000  0.59221000  0.09221000  1
  Si  Si153  1  0.90779000  0.40779000  0.40779000  1
  Si  Si154  1  0.09221000  0.59221000  0.40779000  1
  Si  Si155  1  0.65779000  0.84221000  0.15779000  1
  Si  Si156  1  0.00000000  0.50000000  0.50000000  1
  Si  Si157  1  0.75000000  0.75000000  0.25000000  1
  Si  Si158  1  0.69275000  0.69275000  0.49502400  1
  Si  Si159  1  0.24502400  0.55725000  0.44275000  1
