# generated using pymatgen
data_Nd(CuO2)2
_symmetry_space_group_name_H-M   'P 1'
_cell_length_a   5.84559800
_cell_length_b   5.84559800
_cell_length_c   9.75414600
_cell_angle_alpha   90.00000000
_cell_angle_beta   90.00000000
_cell_angle_gamma   90.00000000
_symmetry_Int_Tables_number   1
_chemical_formula_structural   Nd(CuO2)2
_chemical_formula_sum   'Nd4 Cu8 O16'
_cell_volume   333.30907881
_cell_formula_units_Z   4
loop_
 _symmetry_equiv_pos_site_id
 _symmetry_equiv_pos_as_xyz
  1  'x, y, z'
loop_
 _atom_site_type_symbol
 _atom_site_label
 _atom_site_symmetry_multiplicity
 _atom_site_fract_x
 _atom_site_fract_y
 _atom_site_fract_z
 _atom_site_occupancy
  Nd  Nd0  1  0.00000000  0.00000000  0.00000000  1
  Nd  Nd1  1  0.00000000  0.50000000  0.25000000  1
  Nd  Nd2  1  0.50000000  0.50000000  0.50000000  1
  Nd  Nd3  1  0.50000000  0.00000000  0.75000000  1
  Cu  Cu4  1  0.75000000  0.00000000  0.37500000  1
  Cu  Cu5  1  0.25000000  0.00000000  0.37500000  1
  Cu  Cu6  1  0.50000000  0.75000000  0.12500000  1
  Cu  Cu7  1  0.50000000  0.25000000  0.12500000  1
  Cu  Cu8  1  0.25000000  0.50000000  0.87500000  1
  Cu  Cu9  1  0.75000000  0.50000000  0.87500000  1
  Cu  Cu10  1  0.00000000  0.25000000  0.62500000  1
  Cu  Cu11  1  0.00000000  0.75000000  0.62500000  1
  O  O12  1  0.14522450  0.71780450  0.44930750  1
  O  O13  1  0.85477550  0.28219550  0.44930750  1
  O  O14  1  0.35477550  0.28219550  0.30069250  1
  O  O15  1  0.64522450  0.71780450  0.30069250  1
  O  O16  1  0.78219550  0.14522450  0.19930750  1
  O  O17  1  0.21780450  0.85477550  0.19930750  1
  O  O18  1  0.78219550  0.64522450  0.05069250  1
  O  O19  1  0.21780450  0.35477550  0.05069250  1
  O  O20  1  0.64522450  0.21780450  0.94930750  1
  O  O21  1  0.35477550  0.78219550  0.94930750  1
  O  O22  1  0.85477550  0.78219550  0.80069250  1
  O  O23  1  0.14522450  0.21780450  0.80069250  1
  O  O24  1  0.28219550  0.64522450  0.69930750  1
  O  O25  1  0.71780450  0.35477550  0.69930750  1
  O  O26  1  0.28219550  0.14522450  0.55069250  1
  O  O27  1  0.71780450  0.85477550  0.55069250  1
