# generated using pymatgen
data_TbNiGe2
_symmetry_space_group_name_H-M   'P 1'
_cell_length_a   4.14232800
_cell_length_b   16.59650800
_cell_length_c   4.19220200
_cell_angle_alpha   90.00000000
_cell_angle_beta   90.00000000
_cell_angle_gamma   90.00000000
_symmetry_Int_Tables_number   1
_chemical_formula_structural   TbNiGe2
_chemical_formula_sum   'Tb4 Ni4 Ge8'
_cell_volume   288.20625681
_cell_formula_units_Z   4
loop_
 _symmetry_equiv_pos_site_id
 _symmetry_equiv_pos_as_xyz
  1  'x, y, z'
loop_
 _atom_site_type_symbol
 _atom_site_label
 _atom_site_symmetry_multiplicity
 _atom_site_fract_x
 _atom_site_fract_y
 _atom_site_fract_z
 _atom_site_occupancy
  Tb  Tb0  1  0.50000000  0.60797700  0.25000000  1
  Tb  Tb1  1  0.00000000  0.89202300  0.75000000  1
  Tb  Tb2  1  0.00000000  0.10797700  0.25000000  1
  Tb  Tb3  1  0.50000000  0.39202300  0.75000000  1
  Ni  Ni4  1  0.50000000  0.81972600  0.25000000  1
  Ni  Ni5  1  0.00000000  0.68027400  0.75000000  1
  Ni  Ni6  1  0.00000000  0.31972600  0.25000000  1
  Ni  Ni7  1  0.50000000  0.18027400  0.75000000  1
  Ge  Ge8  1  0.50000000  0.95812600  0.25000000  1
  Ge  Ge9  1  0.00000000  0.54187400  0.75000000  1
  Ge  Ge10  1  0.00000000  0.74887400  0.25000000  1
  Ge  Ge11  1  0.50000000  0.75112600  0.75000000  1
  Ge  Ge12  1  0.00000000  0.45812600  0.25000000  1
  Ge  Ge13  1  0.50000000  0.04187400  0.75000000  1
  Ge  Ge14  1  0.50000000  0.24887400  0.25000000  1
  Ge  Ge15  1  0.00000000  0.25112600  0.75000000  1
