# generated using pymatgen
data_TbAl4Ni
_symmetry_space_group_name_H-M   'P 1'
_cell_length_a   4.06746800
_cell_length_b   15.47570200
_cell_length_c   6.61164700
_cell_angle_alpha   90.00000000
_cell_angle_beta   90.00000000
_cell_angle_gamma   90.00000000
_symmetry_Int_Tables_number   1
_chemical_formula_structural   TbAl4Ni
_chemical_formula_sum   'Tb4 Al16 Ni4'
_cell_volume   416.18283238
_cell_formula_units_Z   4
loop_
 _symmetry_equiv_pos_site_id
 _symmetry_equiv_pos_as_xyz
  1  'x, y, z'
loop_
 _atom_site_type_symbol
 _atom_site_label
 _atom_site_symmetry_multiplicity
 _atom_site_fract_x
 _atom_site_fract_y
 _atom_site_fract_z
 _atom_site_occupancy
  Tb  Tb0  1  0.50000000  0.61670500  0.25000000  1
  Tb  Tb1  1  0.00000000  0.88329500  0.75000000  1
  Tb  Tb2  1  0.00000000  0.11670500  0.25000000  1
  Tb  Tb3  1  0.50000000  0.38329500  0.75000000  1
  Al  Al4  1  0.00000000  0.68896000  0.55279000  1
  Al  Al5  1  0.50000000  0.81104000  0.44721000  1
  Al  Al6  1  0.50000000  0.81104000  0.05279000  1
  Al  Al7  1  0.00000000  0.68896000  0.94721000  1
  Al  Al8  1  0.50000000  0.00000000  0.00000000  1
  Al  Al9  1  0.50000000  0.00000000  0.50000000  1
  Al  Al10  1  0.50000000  0.57680800  0.75000000  1
  Al  Al11  1  0.00000000  0.92319200  0.25000000  1
  Al  Al12  1  0.50000000  0.18896000  0.55279000  1
  Al  Al13  1  0.00000000  0.31104000  0.44721000  1
  Al  Al14  1  0.00000000  0.31104000  0.05279000  1
  Al  Al15  1  0.50000000  0.18896000  0.94721000  1
  Al  Al16  1  0.00000000  0.50000000  0.00000000  1
  Al  Al17  1  0.00000000  0.50000000  0.50000000  1
  Al  Al18  1  0.00000000  0.07680800  0.75000000  1
  Al  Al19  1  0.50000000  0.42319200  0.25000000  1
  Ni  Ni20  1  0.00000000  0.77366100  0.25000000  1
  Ni  Ni21  1  0.50000000  0.72633900  0.75000000  1
  Ni  Ni22  1  0.50000000  0.27366100  0.25000000  1
  Ni  Ni23  1  0.00000000  0.22633900  0.75000000  1
