# generated using pymatgen
data_LiVCuO4
_symmetry_space_group_name_H-M   'P 1'
_cell_length_a   5.71531000
_cell_length_b   5.81640800
_cell_length_c   9.01234600
_cell_angle_alpha   90.00000000
_cell_angle_beta   90.00000000
_cell_angle_gamma   90.00000000
_symmetry_Int_Tables_number   1
_chemical_formula_structural   LiVCuO4
_chemical_formula_sum   'Li4 V4 Cu4 O16'
_cell_volume   299.59358609
_cell_formula_units_Z   4
loop_
 _symmetry_equiv_pos_site_id
 _symmetry_equiv_pos_as_xyz
  1  'x, y, z'
loop_
 _atom_site_type_symbol
 _atom_site_label
 _atom_site_symmetry_multiplicity
 _atom_site_fract_x
 _atom_site_fract_y
 _atom_site_fract_z
 _atom_site_occupancy
  Li  Li0  1  0.25000000  0.25000000  0.75000000  1
  Li  Li1  1  0.75000000  0.25000000  0.75000000  1
  Li  Li2  1  0.75000000  0.75000000  0.25000000  1
  Li  Li3  1  0.25000000  0.75000000  0.25000000  1
  V  V4  1  0.50000000  0.75000000  0.88509000  1
  V  V5  1  0.00000000  0.75000000  0.61491000  1
  V  V6  1  0.00000000  0.25000000  0.38509000  1
  V  V7  1  0.50000000  0.25000000  0.11491000  1
  Cu  Cu8  1  0.00000000  0.00000000  0.00000000  1
  Cu  Cu9  1  0.00000000  0.50000000  0.00000000  1
  Cu  Cu10  1  0.50000000  0.50000000  0.50000000  1
  Cu  Cu11  1  0.50000000  0.00000000  0.50000000  1
  O  O12  1  0.23472500  0.75000000  0.99976900  1
  O  O13  1  0.73472500  0.75000000  0.50023100  1
  O  O14  1  0.26527500  0.75000000  0.50023100  1
  O  O15  1  0.76527500  0.75000000  0.99976900  1
  O  O16  1  0.50000000  0.51209800  0.77567700  1
  O  O17  1  0.00000000  0.98790200  0.72432300  1
  O  O18  1  0.00000000  0.51209800  0.72432300  1
  O  O19  1  0.50000000  0.98790200  0.77567700  1
  O  O20  1  0.73472500  0.25000000  0.49976900  1
  O  O21  1  0.23472500  0.25000000  0.00023100  1
  O  O22  1  0.76527500  0.25000000  0.00023100  1
  O  O23  1  0.26527500  0.25000000  0.49976900  1
  O  O24  1  0.00000000  0.01209800  0.27567700  1
  O  O25  1  0.50000000  0.48790200  0.22432300  1
  O  O26  1  0.50000000  0.01209800  0.22432300  1
  O  O27  1  0.00000000  0.48790200  0.27567700  1
