# generated using pymatgen
data_VBiPbO5
_symmetry_space_group_name_H-M   'P 1'
_cell_length_a   13.42383600
_cell_length_b   5.65569000
_cell_length_c   7.28370913
_cell_angle_alpha   90.00000000
_cell_angle_beta   111.45543992
_cell_angle_gamma   90.00000000
_symmetry_Int_Tables_number   1
_chemical_formula_structural   VBiPbO5
_chemical_formula_sum   'V4 Bi4 Pb4 O20'
_cell_volume   514.66617479
_cell_formula_units_Z   4
loop_
 _symmetry_equiv_pos_site_id
 _symmetry_equiv_pos_as_xyz
  1  'x, y, z'
loop_
 _atom_site_type_symbol
 _atom_site_label
 _atom_site_symmetry_multiplicity
 _atom_site_fract_x
 _atom_site_fract_y
 _atom_site_fract_z
 _atom_site_occupancy
  V  V0  1  0.16569400  0.00000000  0.64797100  1
  V  V1  1  0.33430600  0.50000000  0.35202900  1
  V  V2  1  0.66569400  0.50000000  0.64797100  1
  V  V3  1  0.83430600  0.00000000  0.35202900  1
  Bi  Bi4  1  0.01291800  0.50000000  0.25030700  1
  Bi  Bi5  1  0.48708200  0.00000000  0.74969300  1
  Bi  Bi6  1  0.51291800  0.00000000  0.25030700  1
  Bi  Bi7  1  0.98708200  0.50000000  0.74969300  1
  Pb  Pb8  1  0.15767600  0.00000000  0.11247600  1
  Pb  Pb9  1  0.34232400  0.50000000  0.88752400  1
  Pb  Pb10  1  0.65767600  0.50000000  0.11247600  1
  Pb  Pb11  1  0.84232400  0.00000000  0.88752400  1
  O  O12  1  0.00000000  0.26312900  0.00000000  1
  O  O13  1  0.00000000  0.73687100  0.00000000  1
  O  O14  1  0.19557200  0.50000000  0.28586000  1
  O  O15  1  0.30442800  0.00000000  0.71414000  1
  O  O16  1  0.36557950  0.25064350  0.24062500  1
  O  O17  1  0.13442050  0.75064350  0.75937500  1
  O  O18  1  0.39982400  0.50000000  0.60675800  1
  O  O19  1  0.10017600  0.00000000  0.39324200  1
  O  O20  1  0.36557950  0.74935650  0.24062500  1
  O  O21  1  0.13442050  0.24935650  0.75937500  1
  O  O22  1  0.50000000  0.76312900  0.00000000  1
  O  O23  1  0.50000000  0.23687100  0.00000000  1
  O  O24  1  0.69557200  0.00000000  0.28586000  1
  O  O25  1  0.80442800  0.50000000  0.71414000  1
  O  O26  1  0.86557950  0.75064350  0.24062500  1
  O  O27  1  0.63442050  0.25064350  0.75937500  1
  O  O28  1  0.89982400  0.00000000  0.60675800  1
  O  O29  1  0.60017600  0.50000000  0.39324200  1
  O  O30  1  0.86557950  0.24935650  0.24062500  1
  O  O31  1  0.63442050  0.74935650  0.75937500  1
