# generated using pymatgen
data_K2Th(MoO4)3
_symmetry_space_group_name_H-M   'P 1'
_cell_length_a   18.11528000
_cell_length_b   12.35918600
_cell_length_c   5.46564432
_cell_angle_alpha   90.00000000
_cell_angle_beta   104.97981664
_cell_angle_gamma   90.00000000
_symmetry_Int_Tables_number   1
_chemical_formula_structural   K2Th(MoO4)3
_chemical_formula_sum   'K8 Th4 Mo12 O48'
_cell_volume   1182.11853744
_cell_formula_units_Z   4
loop_
 _symmetry_equiv_pos_site_id
 _symmetry_equiv_pos_as_xyz
  1  'x, y, z'
loop_
 _atom_site_type_symbol
 _atom_site_label
 _atom_site_symmetry_multiplicity
 _atom_site_fract_x
 _atom_site_fract_y
 _atom_site_fract_z
 _atom_site_occupancy
  K  K0  1  0.83288500  0.12318400  0.58778000  1
  K  K1  1  0.16711500  0.87681600  0.41222000  1
  K  K2  1  0.83288500  0.87681600  0.08778000  1
  K  K3  1  0.16711500  0.12318400  0.91222000  1
  K  K4  1  0.33288500  0.62318400  0.58778000  1
  K  K5  1  0.66711500  0.37681600  0.41222000  1
  K  K6  1  0.33288500  0.37681600  0.08778000  1
  K  K7  1  0.66711500  0.62318400  0.91222000  1
  Th  Th8  1  0.50000000  0.87204200  0.75000000  1
  Th  Th9  1  0.50000000  0.12795800  0.25000000  1
  Th  Th10  1  0.00000000  0.37204200  0.75000000  1
  Th  Th11  1  0.00000000  0.62795800  0.25000000  1
  Mo  Mo12  1  0.65318350  0.88960750  0.38952200  1
  Mo  Mo13  1  0.65318350  0.11039250  0.88952200  1
  Mo  Mo14  1  0.34681650  0.11039250  0.61047800  1
  Mo  Mo15  1  0.34681650  0.88960750  0.11047800  1
  Mo  Mo16  1  0.50000000  0.35596400  0.75000000  1
  Mo  Mo17  1  0.50000000  0.64403600  0.25000000  1
  Mo  Mo18  1  0.15318350  0.38960750  0.38952200  1
  Mo  Mo19  1  0.15318350  0.61039250  0.88952200  1
  Mo  Mo20  1  0.84681650  0.61039250  0.61047800  1
  Mo  Mo21  1  0.84681650  0.38960750  0.11047800  1
  Mo  Mo22  1  0.00000000  0.85596400  0.75000000  1
  Mo  Mo23  1  0.00000000  0.14403600  0.25000000  1
  O  O24  1  0.07394350  0.93799550  0.92713800  1
  O  O25  1  0.53999500  0.72831600  0.03437100  1
  O  O26  1  0.42826800  0.04125800  0.85546500  1
  O  O27  1  0.46000500  0.27168400  0.96562900  1
  O  O28  1  0.72073850  0.02513850  0.08771700  1
  O  O29  1  0.39251000  0.81604000  0.89709000  1
  O  O30  1  0.07394350  0.06200450  0.42713800  1
  O  O31  1  0.29761450  0.20247150  0.75286200  1
  O  O32  1  0.92605650  0.93799550  0.57286200  1
  O  O33  1  0.53999500  0.27168400  0.53437100  1
  O  O34  1  0.27926150  0.02513850  0.41228300  1
  O  O35  1  0.42826800  0.95874200  0.35546500  1
  O  O36  1  0.60749000  0.81604000  0.60291000  1
  O  O37  1  0.70238550  0.79752850  0.24713800  1
  O  O38  1  0.39251000  0.18396000  0.39709000  1
  O  O39  1  0.29761450  0.79752850  0.25286200  1
  O  O40  1  0.70238550  0.20247150  0.74713800  1
  O  O41  1  0.72073850  0.97486150  0.58771700  1
  O  O42  1  0.27926150  0.97486150  0.91228300  1
  O  O43  1  0.92605650  0.06200450  0.07286200  1
  O  O44  1  0.60749000  0.18396000  0.10291000  1
  O  O45  1  0.46000500  0.72831600  0.46562900  1
  O  O46  1  0.57173200  0.04125800  0.64453500  1
  O  O47  1  0.57173200  0.95874200  0.14453500  1
  O  O48  1  0.57394350  0.43799550  0.92713800  1
  O  O49  1  0.03999500  0.22831600  0.03437100  1
  O  O50  1  0.92826800  0.54125800  0.85546500  1
  O  O51  1  0.96000500  0.77168400  0.96562900  1
  O  O52  1  0.22073850  0.52513850  0.08771700  1
  O  O53  1  0.89251000  0.31604000  0.89709000  1
  O  O54  1  0.57394350  0.56200450  0.42713800  1
  O  O55  1  0.79761450  0.70247150  0.75286200  1
  O  O56  1  0.42605650  0.43799550  0.57286200  1
  O  O57  1  0.03999500  0.77168400  0.53437100  1
  O  O58  1  0.77926150  0.52513850  0.41228300  1
  O  O59  1  0.92826800  0.45874200  0.35546500  1
  O  O60  1  0.10749000  0.31604000  0.60291000  1
  O  O61  1  0.20238550  0.29752850  0.24713800  1
  O  O62  1  0.89251000  0.68396000  0.39709000  1
  O  O63  1  0.79761450  0.29752850  0.25286200  1
  O  O64  1  0.20238550  0.70247150  0.74713800  1
  O  O65  1  0.22073850  0.47486150  0.58771700  1
  O  O66  1  0.77926150  0.47486150  0.91228300  1
  O  O67  1  0.42605650  0.56200450  0.07286200  1
  O  O68  1  0.10749000  0.68396000  0.10291000  1
  O  O69  1  0.96000500  0.22831600  0.46562900  1
  O  O70  1  0.07173200  0.54125800  0.64453500  1
  O  O71  1  0.07173200  0.45874200  0.14453500  1
