# generated using pymatgen
data_LiCr(PO3)4
_symmetry_space_group_name_H-M   'P 1'
_cell_length_a   5.20437300
_cell_length_b   13.62579400
_cell_length_c   7.37091436
_cell_angle_alpha   90.00000000
_cell_angle_beta   98.31048571
_cell_angle_gamma   90.00000000
_symmetry_Int_Tables_number   1
_chemical_formula_structural   LiCr(PO3)4
_chemical_formula_sum   'Li2 Cr2 P8 O24'
_cell_volume   517.21023966
_cell_formula_units_Z   2
loop_
 _symmetry_equiv_pos_site_id
 _symmetry_equiv_pos_as_xyz
  1  'x, y, z'
loop_
 _atom_site_type_symbol
 _atom_site_label
 _atom_site_symmetry_multiplicity
 _atom_site_fract_x
 _atom_site_fract_y
 _atom_site_fract_z
 _atom_site_occupancy
  Li  Li0  1  0.36874400  0.49033800  0.89153600  1
  Li  Li1  1  0.63125600  0.99033800  0.10846400  1
  Cr  Cr2  1  0.50620600  0.76563500  0.50145900  1
  Cr  Cr3  1  0.49379400  0.26563500  0.49854100  1
  P  P4  1  0.85822100  0.82320100  0.89274000  1
  P  P5  1  0.97497000  0.40267000  0.44483200  1
  P  P6  1  0.01086100  0.12689500  0.55556800  1
  P  P7  1  0.02503000  0.90267000  0.55516800  1
  P  P8  1  0.14177900  0.32320100  0.10726000  1
  P  P9  1  0.22100900  0.68031600  0.11683100  1
  P  P10  1  0.77899100  0.18031600  0.88316900  1
  P  P11  1  0.98913900  0.62689500  0.44443200  1
  O  O12  1  0.29547200  0.89090200  0.50877300  1
  O  O13  1  0.99261000  0.63893700  0.22910300  1
  O  O14  1  0.00739000  0.13893700  0.77089700  1
  O  O15  1  0.05026200  0.73196300  0.94561400  1
  O  O16  1  0.03161500  0.89034500  0.77195700  1
  O  O17  1  0.06569100  0.51398800  0.48464400  1
  O  O18  1  0.18392800  0.38119200  0.94432800  1
  O  O19  1  0.18915600  0.34291500  0.55081800  1
  O  O20  1  0.20574000  0.68390000  0.55537100  1
  O  O21  1  0.28229500  0.14164600  0.51259700  1
  O  O22  1  0.62691300  0.78197800  0.76913700  1
  O  O23  1  0.37308700  0.28197800  0.23086300  1
  O  O24  1  0.37428400  0.75742000  0.23373700  1
  O  O25  1  0.35811900  0.59660700  0.04499700  1
  O  O26  1  0.96838500  0.39034500  0.22804300  1
  O  O27  1  0.62571600  0.25742000  0.76626300  1
  O  O28  1  0.94973800  0.23196300  0.05438600  1
  O  O29  1  0.70452800  0.39090200  0.49122700  1
  O  O30  1  0.71770500  0.64164600  0.48740300  1
  O  O31  1  0.79426000  0.18390000  0.44462900  1
  O  O32  1  0.81084400  0.84291500  0.44918200  1
  O  O33  1  0.81607200  0.88119200  0.05567200  1
  O  O34  1  0.93430900  0.01398800  0.51535600  1
  O  O35  1  0.64188100  0.09660700  0.95500300  1
