# generated using pymatgen
data_Bi2WO6
_symmetry_space_group_name_H-M   'P 1'
_cell_length_a   16.48192800
_cell_length_b   3.85529600
_cell_length_c   8.34198053
_cell_angle_alpha   90.00000000
_cell_angle_beta   101.70584513
_cell_angle_gamma   90.00000000
_symmetry_Int_Tables_number   1
_chemical_formula_structural   Bi2WO6
_chemical_formula_sum   'Bi8 W4 O24'
_cell_volume   519.04768240
_cell_formula_units_Z   4
loop_
 _symmetry_equiv_pos_site_id
 _symmetry_equiv_pos_as_xyz
  1  'x, y, z'
loop_
 _atom_site_type_symbol
 _atom_site_label
 _atom_site_symmetry_multiplicity
 _atom_site_fract_x
 _atom_site_fract_y
 _atom_site_fract_z
 _atom_site_occupancy
  Bi  Bi0  1  0.68099100  0.00000000  0.60540400  1
  Bi  Bi1  1  0.81900900  0.50000000  0.39459600  1
  Bi  Bi2  1  0.83251200  0.50000000  0.92860100  1
  Bi  Bi3  1  0.66748800  0.00000000  0.07139900  1
  Bi  Bi4  1  0.18099100  0.50000000  0.60540400  1
  Bi  Bi5  1  0.31900900  0.00000000  0.39459600  1
  Bi  Bi6  1  0.33251200  0.00000000  0.92860100  1
  Bi  Bi7  1  0.16748800  0.50000000  0.07139900  1
  W  W8  1  0.50397000  0.50000000  0.70279200  1
  W  W9  1  0.99603000  0.00000000  0.29720800  1
  W  W10  1  0.00397000  0.00000000  0.70279200  1
  W  W11  1  0.49603000  0.50000000  0.29720800  1
  O  O12  1  0.75111500  0.00000000  0.88035900  1
  O  O13  1  0.73243300  0.00000000  0.36554000  1
  O  O14  1  0.92148400  0.00000000  0.48517300  1
  O  O15  1  0.76756700  0.50000000  0.63446000  1
  O  O16  1  0.57353400  0.50000000  0.17211100  1
  O  O17  1  0.89249100  0.00000000  0.15337000  1
  O  O18  1  0.57851600  0.50000000  0.51482700  1
  O  O19  1  0.60750900  0.50000000  0.84663000  1
  O  O20  1  0.74888500  0.50000000  0.11964100  1
  O  O21  1  0.92646600  0.00000000  0.82788900  1
  O  O22  1  0.50603700  0.00000000  0.68612100  1
  O  O23  1  0.99396300  0.50000000  0.31387900  1
  O  O24  1  0.25111500  0.50000000  0.88035900  1
  O  O25  1  0.23243300  0.50000000  0.36554000  1
  O  O26  1  0.42148400  0.50000000  0.48517300  1
  O  O27  1  0.26756700  0.00000000  0.63446000  1
  O  O28  1  0.07353400  0.00000000  0.17211100  1
  O  O29  1  0.39249100  0.50000000  0.15337000  1
  O  O30  1  0.07851600  0.00000000  0.51482700  1
  O  O31  1  0.10750900  0.00000000  0.84663000  1
  O  O32  1  0.24888500  0.00000000  0.11964100  1
  O  O33  1  0.42646600  0.50000000  0.82788900  1
  O  O34  1  0.00603700  0.50000000  0.68612100  1
  O  O35  1  0.49396300  0.00000000  0.31387900  1
