# generated using pymatgen
data_ScCr2Ag(H2O5)2
_symmetry_space_group_name_H-M   'P 1'
_cell_length_a   5.71643658
_cell_length_b   6.18258304
_cell_length_c   7.31323323
_cell_angle_alpha   110.03740021
_cell_angle_beta   91.54361172
_cell_angle_gamma   116.02019358
_symmetry_Int_Tables_number   1
_chemical_formula_structural   ScCr2Ag(H2O5)2
_chemical_formula_sum   'Sc1 Cr2 Ag1 H4 O10'
_cell_volume   213.34576821
_cell_formula_units_Z   1
loop_
 _symmetry_equiv_pos_site_id
 _symmetry_equiv_pos_as_xyz
  1  'x, y, z'
loop_
 _atom_site_type_symbol
 _atom_site_label
 _atom_site_symmetry_multiplicity
 _atom_site_fract_x
 _atom_site_fract_y
 _atom_site_fract_z
 _atom_site_occupancy
  Sc  Sc0  1  0.00000000  0.00000000  0.00000000  1
  Cr  Cr1  1  0.31987688  0.91792741  0.31633123  1
  Cr  Cr2  1  0.68012312  0.08207259  0.68366877  1
  Ag  Ag3  1  0.50000000  0.50000000  0.50000000  1
  H  H4  1  0.27302233  0.52522676  0.95791879  1
  H  H5  1  0.92219420  0.65291470  0.80151998  1
  H  H6  1  0.72697767  0.47477324  0.04208121  1
  H  H7  1  0.07780580  0.34708530  0.19848002  1
  O  O8  1  0.57489373  0.82533727  0.25182003  1
  O  O9  1  0.14162893  0.86234916  0.17951549  1
  O  O10  1  0.85837107  0.13765084  0.82048451  1
  O  O11  1  0.49454278  0.22820051  0.27950390  1
  O  O12  1  0.07446823  0.75131412  0.55027596  1
  O  O13  1  0.14383756  0.34760516  0.06071907  1
  O  O14  1  0.85616244  0.65239484  0.93928093  1
  O  O15  1  0.42510627  0.17466273  0.74817997  1
  O  O16  1  0.50545722  0.77179949  0.72049610  1
  O  O17  1  0.92553177  0.24868588  0.44972404  1
