# generated using pymatgen
data_In9Pt13
_symmetry_space_group_name_H-M   'P 1'
_cell_length_a   11.35995000
_cell_length_b   8.98603600
_cell_length_c   9.64371510
_cell_angle_alpha   90.00000000
_cell_angle_beta   125.43199962
_cell_angle_gamma   90.00000000
_symmetry_Int_Tables_number   1
_chemical_formula_structural   In9Pt13
_chemical_formula_sum   'In18 Pt26'
_cell_volume   802.12522355
_cell_formula_units_Z   2
loop_
 _symmetry_equiv_pos_site_id
 _symmetry_equiv_pos_as_xyz
  1  'x, y, z'
loop_
 _atom_site_type_symbol
 _atom_site_label
 _atom_site_symmetry_multiplicity
 _atom_site_fract_x
 _atom_site_fract_y
 _atom_site_fract_z
 _atom_site_occupancy
  In  In0  1  0.29688600  0.00000000  0.83190400  1
  In  In1  1  0.46090650  0.71380450  0.68942500  1
  In  In2  1  0.82242600  0.00000000  0.88239100  1
  In  In3  1  0.67757400  0.50000000  0.11760900  1
  In  In4  1  0.50000000  0.00000000  0.50000000  1
  In  In5  1  0.20311400  0.50000000  0.16809600  1
  In  In6  1  0.96090650  0.78619550  0.68942500  1
  In  In7  1  0.53909350  0.71380450  0.31057500  1
  In  In8  1  0.03909350  0.78619550  0.31057500  1
  In  In9  1  0.79688600  0.50000000  0.83190400  1
  In  In10  1  0.96090650  0.21380450  0.68942500  1
  In  In11  1  0.32242600  0.50000000  0.88239100  1
  In  In12  1  0.17757400  0.00000000  0.11760900  1
  In  In13  1  0.00000000  0.50000000  0.50000000  1
  In  In14  1  0.70311400  0.00000000  0.16809600  1
  In  In15  1  0.46090650  0.28619550  0.68942500  1
  In  In16  1  0.03909350  0.21380450  0.31057500  1
  In  In17  1  0.53909350  0.28619550  0.31057500  1
  Pt  Pt18  1  0.30267550  0.75998450  0.34032200  1
  Pt  Pt19  1  0.80267550  0.74001550  0.34032200  1
  Pt  Pt20  1  0.54615700  0.00000000  0.82358600  1
  Pt  Pt21  1  0.24438700  0.50000000  0.49284200  1
  Pt  Pt22  1  0.19732450  0.74001550  0.65967800  1
  Pt  Pt23  1  0.00000000  0.24772800  0.00000000  1
  Pt  Pt24  1  0.25561300  0.00000000  0.50715800  1
  Pt  Pt25  1  0.95384300  0.50000000  0.17641400  1
  Pt  Pt26  1  0.00000000  0.75227200  0.00000000  1
  Pt  Pt27  1  0.00000000  0.00000000  0.50000000  1
  Pt  Pt28  1  0.69732450  0.75998450  0.65967800  1
  Pt  Pt29  1  0.75000000  0.75000000  0.00000000  1
  Pt  Pt30  1  0.25000000  0.75000000  0.00000000  1
  Pt  Pt31  1  0.80267550  0.25998450  0.34032200  1
  Pt  Pt32  1  0.30267550  0.24001550  0.34032200  1
  Pt  Pt33  1  0.04615700  0.50000000  0.82358600  1
  Pt  Pt34  1  0.74438700  0.00000000  0.49284200  1
  Pt  Pt35  1  0.69732450  0.24001550  0.65967800  1
  Pt  Pt36  1  0.50000000  0.74772800  0.00000000  1
  Pt  Pt37  1  0.75561300  0.50000000  0.50715800  1
  Pt  Pt38  1  0.45384300  0.00000000  0.17641400  1
  Pt  Pt39  1  0.50000000  0.25227200  0.00000000  1
  Pt  Pt40  1  0.50000000  0.50000000  0.50000000  1
  Pt  Pt41  1  0.19732450  0.25998450  0.65967800  1
  Pt  Pt42  1  0.25000000  0.25000000  0.00000000  1
  Pt  Pt43  1  0.75000000  0.25000000  0.00000000  1
