# generated using pymatgen
data_Er2MoO6
_symmetry_space_group_name_H-M   'P 1'
_cell_length_a   16.39941800
_cell_length_b   11.04599400
_cell_length_c   5.35699371
_cell_angle_alpha   90.00000000
_cell_angle_beta   108.27315010
_cell_angle_gamma   90.00000000
_symmetry_Int_Tables_number   1
_chemical_formula_structural   Er2MoO6
_chemical_formula_sum   'Er16 Mo8 O48'
_cell_volume   921.47278150
_cell_formula_units_Z   8
loop_
 _symmetry_equiv_pos_site_id
 _symmetry_equiv_pos_as_xyz
  1  'x, y, z'
loop_
 _atom_site_type_symbol
 _atom_site_label
 _atom_site_symmetry_multiplicity
 _atom_site_fract_x
 _atom_site_fract_y
 _atom_site_fract_z
 _atom_site_occupancy
  Er  Er0  1  0.33280550  0.11564850  0.12268500  1
  Er  Er1  1  0.33280550  0.88435150  0.62268500  1
  Er  Er2  1  0.66719450  0.88435150  0.87731500  1
  Er  Er3  1  0.66719450  0.11564850  0.37731500  1
  Er  Er4  1  0.50000000  0.63708000  0.75000000  1
  Er  Er5  1  0.50000000  0.36292000  0.25000000  1
  Er  Er6  1  0.50000000  0.10582400  0.75000000  1
  Er  Er7  1  0.50000000  0.89417600  0.25000000  1
  Er  Er8  1  0.83280550  0.61564850  0.12268500  1
  Er  Er9  1  0.83280550  0.38435150  0.62268500  1
  Er  Er10  1  0.16719450  0.38435150  0.87731500  1
  Er  Er11  1  0.16719450  0.61564850  0.37731500  1
  Er  Er12  1  0.00000000  0.13708000  0.75000000  1
  Er  Er13  1  0.00000000  0.86292000  0.25000000  1
  Er  Er14  1  0.00000000  0.60582400  0.75000000  1
  Er  Er15  1  0.00000000  0.39417600  0.25000000  1
  Mo  Mo16  1  0.84579300  0.85852600  0.56094000  1
  Mo  Mo17  1  0.15420700  0.85852600  0.93906000  1
  Mo  Mo18  1  0.15420700  0.14147400  0.43906000  1
  Mo  Mo19  1  0.84579300  0.14147400  0.06094000  1
  Mo  Mo20  1  0.34579300  0.35852600  0.56094000  1
  Mo  Mo21  1  0.65420700  0.35852600  0.93906000  1
  Mo  Mo22  1  0.65420700  0.64147400  0.43906000  1
  Mo  Mo23  1  0.34579300  0.64147400  0.06094000  1
  O  O24  1  0.40892000  0.98133800  0.42192600  1
  O  O25  1  0.59108000  0.98133800  0.07807400  1
  O  O26  1  0.59108000  0.01866200  0.57807400  1
  O  O27  1  0.40892000  0.01866200  0.92192600  1
  O  O28  1  0.42825400  0.23427800  0.41825000  1
  O  O29  1  0.57174600  0.23427800  0.08175000  1
  O  O30  1  0.57174600  0.76572200  0.58175000  1
  O  O31  1  0.42825400  0.76572200  0.91825000  1
  O  O32  1  0.39482350  0.27902850  0.87455100  1
  O  O33  1  0.60517650  0.27902850  0.62544900  1
  O  O34  1  0.60517650  0.72097150  0.12544900  1
  O  O35  1  0.39482350  0.72097150  0.37455100  1
  O  O36  1  0.76252650  0.05186550  0.13660100  1
  O  O37  1  0.23747350  0.05186550  0.36339900  1
  O  O38  1  0.23747350  0.94813450  0.86339900  1
  O  O39  1  0.76252650  0.94813450  0.63660100  1
  O  O40  1  0.92104100  0.03006100  0.01366600  1
  O  O41  1  0.07895900  0.03006100  0.48633400  1
  O  O42  1  0.77144000  0.79587400  0.25274300  1
  O  O43  1  0.92104100  0.96993900  0.51366600  1
  O  O44  1  0.77144000  0.20412600  0.75274300  1
  O  O45  1  0.22856000  0.20412600  0.74725700  1
  O  O46  1  0.22856000  0.79587400  0.24725700  1
  O  O47  1  0.07895900  0.96993900  0.98633400  1
  O  O48  1  0.90892000  0.48133800  0.42192600  1
  O  O49  1  0.09108000  0.48133800  0.07807400  1
  O  O50  1  0.09108000  0.51866200  0.57807400  1
  O  O51  1  0.90892000  0.51866200  0.92192600  1
  O  O52  1  0.92825400  0.73427800  0.41825000  1
  O  O53  1  0.07174600  0.73427800  0.08175000  1
  O  O54  1  0.07174600  0.26572200  0.58175000  1
  O  O55  1  0.92825400  0.26572200  0.91825000  1
  O  O56  1  0.89482350  0.77902850  0.87455100  1
  O  O57  1  0.10517650  0.77902850  0.62544900  1
  O  O58  1  0.10517650  0.22097150  0.12544900  1
  O  O59  1  0.89482350  0.22097150  0.37455100  1
  O  O60  1  0.26252650  0.55186550  0.13660100  1
  O  O61  1  0.73747350  0.55186550  0.36339900  1
  O  O62  1  0.73747350  0.44813450  0.86339900  1
  O  O63  1  0.26252650  0.44813450  0.63660100  1
  O  O64  1  0.42104100  0.53006100  0.01366600  1
  O  O65  1  0.57895900  0.53006100  0.48633400  1
  O  O66  1  0.27144000  0.29587400  0.25274300  1
  O  O67  1  0.42104100  0.46993900  0.51366600  1
  O  O68  1  0.27144000  0.70412600  0.75274300  1
  O  O69  1  0.72856000  0.70412600  0.74725700  1
  O  O70  1  0.72856000  0.29587400  0.24725700  1
  O  O71  1  0.57895900  0.46993900  0.98633400  1
