# generated using pymatgen
data_Ce4Co2Sn5
_symmetry_space_group_name_H-M   'P 1'
_cell_length_a   14.06629012
_cell_length_b   4.42600452
_cell_length_c   10.99466980
_cell_angle_alpha   90.00000000
_cell_angle_beta   128.09733630
_cell_angle_gamma   90.00000000
_symmetry_Int_Tables_number   1
_chemical_formula_structural   Ce4Co2Sn5
_chemical_formula_sum   'Ce8 Co4 Sn10'
_cell_volume   538.67685935
_cell_formula_units_Z   2
loop_
 _symmetry_equiv_pos_site_id
 _symmetry_equiv_pos_as_xyz
  1  'x, y, z'
loop_
 _atom_site_type_symbol
 _atom_site_label
 _atom_site_symmetry_multiplicity
 _atom_site_fract_x
 _atom_site_fract_y
 _atom_site_fract_z
 _atom_site_occupancy
  Ce  Ce0  1  0.56824500  0.50000000  0.22205300  1
  Ce  Ce1  1  0.43175500  0.50000000  0.77794700  1
  Ce  Ce2  1  0.33351750  0.00000000  0.21924100  1
  Ce  Ce3  1  0.66648250  0.00000000  0.78075900  1
  Ce  Ce4  1  0.06824500  0.00000000  0.22205300  1
  Ce  Ce5  1  0.93175500  0.00000000  0.77794700  1
  Ce  Ce6  1  0.83351750  0.50000000  0.21924100  1
  Ce  Ce7  1  0.16648250  0.50000000  0.78075900  1
  Co  Co8  1  0.26521900  0.50000000  0.34861900  1
  Co  Co9  1  0.73478100  0.50000000  0.65138100  1
  Co  Co10  1  0.76521900  0.00000000  0.34861900  1
  Co  Co11  1  0.23478100  0.00000000  0.65138100  1
  Sn  Sn12  1  0.87467300  0.50000000  0.95338600  1
  Sn  Sn13  1  0.12532700  0.50000000  0.04661400  1
  Sn  Sn14  1  0.50000000  0.50000000  0.50000000  1
  Sn  Sn15  1  0.35006150  0.00000000  0.52549700  1
  Sn  Sn16  1  0.64993850  0.00000000  0.47450300  1
  Sn  Sn17  1  0.37467300  0.00000000  0.95338600  1
  Sn  Sn18  1  0.62532700  0.00000000  0.04661400  1
  Sn  Sn19  1  0.00000000  0.00000000  0.50000000  1
  Sn  Sn20  1  0.85006150  0.50000000  0.52549700  1
  Sn  Sn21  1  0.14993850  0.50000000  0.47450300  1
