# generated using pymatgen
data_CaMn6SiO12
_symmetry_space_group_name_H-M   'P 1'
_cell_length_a   9.63012400
_cell_length_b   9.63012400
_cell_length_c   19.18728400
_cell_angle_alpha   90.00000000
_cell_angle_beta   90.00000000
_cell_angle_gamma   90.00000000
_symmetry_Int_Tables_number   1
_chemical_formula_structural   CaMn6SiO12
_chemical_formula_sum   'Ca8 Mn48 Si8 O96'
_cell_volume   1779.41506171
_cell_formula_units_Z   8
loop_
 _symmetry_equiv_pos_site_id
 _symmetry_equiv_pos_as_xyz
  1  'x, y, z'
loop_
 _atom_site_type_symbol
 _atom_site_label
 _atom_site_symmetry_multiplicity
 _atom_site_fract_x
 _atom_site_fract_y
 _atom_site_fract_z
 _atom_site_occupancy
  Ca  Ca0  1  0.00000000  0.00000000  0.25000000  1
  Ca  Ca1  1  0.50000000  0.50000000  0.25000000  1
  Ca  Ca2  1  0.00000000  0.50000000  0.00000000  1
  Ca  Ca3  1  0.50000000  0.00000000  0.00000000  1
  Ca  Ca4  1  0.50000000  0.50000000  0.75000000  1
  Ca  Ca5  1  0.00000000  0.00000000  0.75000000  1
  Ca  Ca6  1  0.50000000  0.00000000  0.50000000  1
  Ca  Ca7  1  0.00000000  0.50000000  0.50000000  1
  Mn  Mn8  1  0.52811700  0.75000000  0.37500000  1
  Mn  Mn9  1  0.75000000  0.50000000  0.37500000  1
  Mn  Mn10  1  0.25000000  0.47188300  0.12500000  1
  Mn  Mn11  1  0.25000000  0.50000000  0.37500000  1
  Mn  Mn12  1  0.25000000  0.97188300  0.12500000  1
  Mn  Mn13  1  0.25000000  0.00000000  0.37500000  1
  Mn  Mn14  1  0.00000000  0.75000000  0.12500000  1
  Mn  Mn15  1  0.26277300  0.73722700  0.25000000  1
  Mn  Mn16  1  0.26277300  0.76277300  0.50000000  1
  Mn  Mn17  1  0.23722700  0.73722700  0.00000000  1
  Mn  Mn18  1  0.02811700  0.75000000  0.37500000  1
  Mn  Mn19  1  0.75000000  0.00000000  0.37500000  1
  Mn  Mn20  1  0.75000000  0.52811700  0.12500000  1
  Mn  Mn21  1  0.73722700  0.26277300  0.25000000  1
  Mn  Mn22  1  0.73722700  0.76277300  0.00000000  1
  Mn  Mn23  1  0.26277300  0.23722700  0.00000000  1
  Mn  Mn24  1  0.50000000  0.25000000  0.12500000  1
  Mn  Mn25  1  0.00000000  0.25000000  0.12500000  1
  Mn  Mn26  1  0.23722700  0.23722700  0.25000000  1
  Mn  Mn27  1  0.75000000  0.02811700  0.12500000  1
  Mn  Mn28  1  0.47188300  0.25000000  0.37500000  1
  Mn  Mn29  1  0.97188300  0.25000000  0.37500000  1
  Mn  Mn30  1  0.76277300  0.76277300  0.25000000  1
  Mn  Mn31  1  0.50000000  0.75000000  0.12500000  1
  Mn  Mn32  1  0.02811700  0.25000000  0.87500000  1
  Mn  Mn33  1  0.25000000  0.00000000  0.87500000  1
  Mn  Mn34  1  0.75000000  0.97188300  0.62500000  1
  Mn  Mn35  1  0.75000000  0.00000000  0.87500000  1
  Mn  Mn36  1  0.75000000  0.47188300  0.62500000  1
  Mn  Mn37  1  0.75000000  0.50000000  0.87500000  1
  Mn  Mn38  1  0.50000000  0.25000000  0.62500000  1
  Mn  Mn39  1  0.76277300  0.23722700  0.75000000  1
  Mn  Mn40  1  0.76277300  0.26277300  0.00000000  1
  Mn  Mn41  1  0.73722700  0.23722700  0.50000000  1
  Mn  Mn42  1  0.52811700  0.25000000  0.87500000  1
  Mn  Mn43  1  0.25000000  0.50000000  0.87500000  1
  Mn  Mn44  1  0.25000000  0.02811700  0.62500000  1
  Mn  Mn45  1  0.23722700  0.76277300  0.75000000  1
  Mn  Mn46  1  0.23722700  0.26277300  0.50000000  1
  Mn  Mn47  1  0.76277300  0.73722700  0.50000000  1
  Mn  Mn48  1  0.00000000  0.75000000  0.62500000  1
  Mn  Mn49  1  0.50000000  0.75000000  0.62500000  1
  Mn  Mn50  1  0.73722700  0.73722700  0.75000000  1
  Mn  Mn51  1  0.25000000  0.52811700  0.62500000  1
  Mn  Mn52  1  0.97188300  0.75000000  0.87500000  1
  Mn  Mn53  1  0.47188300  0.75000000  0.87500000  1
  Mn  Mn54  1  0.26277300  0.26277300  0.75000000  1
  Mn  Mn55  1  0.00000000  0.25000000  0.62500000  1
  Si  Si56  1  0.00000000  0.50000000  0.25000000  1
  Si  Si57  1  0.50000000  0.50000000  0.00000000  1
  Si  Si58  1  0.00000000  0.00000000  0.00000000  1
  Si  Si59  1  0.50000000  0.00000000  0.25000000  1
  Si  Si60  1  0.50000000  0.00000000  0.75000000  1
  Si  Si61  1  0.00000000  0.00000000  0.50000000  1
  Si  Si62  1  0.50000000  0.50000000  0.50000000  1
  Si  Si63  1  0.00000000  0.50000000  0.75000000  1
  O  O64  1  0.08427000  0.88960400  0.04930800  1
  O  O65  1  0.83092550  0.35861350  0.43187950  1
  O  O66  1  0.33092550  0.14138650  0.43187950  1
  O  O67  1  0.66907450  0.85861350  0.43187950  1
  O  O68  1  0.64138650  0.66907450  0.18187950  1
  O  O69  1  0.83092550  0.14138650  0.31812050  1
  O  O70  1  0.38277750  0.84828050  0.42665850  1
  O  O71  1  0.84828050  0.38277750  0.07334150  1
  O  O72  1  0.11722250  0.15171950  0.32334150  1
  O  O73  1  0.11722250  0.34828050  0.42665850  1
  O  O74  1  0.38277750  0.65171950  0.32334150  1
  O  O75  1  0.11039600  0.58427000  0.29930800  1
  O  O76  1  0.15171950  0.11722250  0.17665850  1
  O  O77  1  0.58427000  0.61039600  0.04930800  1
  O  O78  1  0.38960400  0.08427000  0.29930800  1
  O  O79  1  0.11039600  0.91573000  0.45069200  1
  O  O80  1  0.08427000  0.38960400  0.20069200  1
  O  O81  1  0.88960400  0.41573000  0.29930800  1
  O  O82  1  0.88960400  0.08427000  0.45069200  1
  O  O83  1  0.16907450  0.64138650  0.43187950  1
  O  O84  1  0.61039600  0.58427000  0.45069200  1
  O  O85  1  0.61722250  0.15171950  0.42665850  1
  O  O86  1  0.91573000  0.61039600  0.20069200  1
  O  O87  1  0.66907450  0.64138650  0.31812050  1
  O  O88  1  0.14138650  0.83092550  0.18187950  1
  O  O89  1  0.65171950  0.38277750  0.17665850  1
  O  O90  1  0.84828050  0.88277750  0.17665850  1
  O  O91  1  0.85861350  0.16907450  0.18187950  1
  O  O92  1  0.16907450  0.85861350  0.31812050  1
  O  O93  1  0.88277750  0.65171950  0.42665850  1
  O  O94  1  0.15171950  0.61722250  0.07334150  1
  O  O95  1  0.61722250  0.34828050  0.32334150  1
  O  O96  1  0.33092550  0.35861350  0.31812050  1
  O  O97  1  0.88277750  0.84828050  0.32334150  1
  O  O98  1  0.91573000  0.11039600  0.04930800  1
  O  O99  1  0.34828050  0.61722250  0.17665850  1
  O  O100  1  0.65171950  0.88277750  0.07334150  1
  O  O101  1  0.35861350  0.33092550  0.18187950  1
  O  O102  1  0.38960400  0.41573000  0.45069200  1
  O  O103  1  0.35861350  0.83092550  0.06812050  1
  O  O104  1  0.34828050  0.11722250  0.07334150  1
  O  O105  1  0.58427000  0.11039600  0.20069200  1
  O  O106  1  0.41573000  0.88960400  0.20069200  1
  O  O107  1  0.14138650  0.33092550  0.06812050  1
  O  O108  1  0.61039600  0.91573000  0.29930800  1
  O  O109  1  0.64138650  0.16907450  0.06812050  1
  O  O110  1  0.41573000  0.38960400  0.04930800  1
  O  O111  1  0.85861350  0.66907450  0.06812050  1
  O  O112  1  0.58427000  0.38960400  0.54930800  1
  O  O113  1  0.33092550  0.85861350  0.93187950  1
  O  O114  1  0.83092550  0.64138650  0.93187950  1
  O  O115  1  0.16907450  0.35861350  0.93187950  1
  O  O116  1  0.14138650  0.16907450  0.68187950  1
  O  O117  1  0.33092550  0.64138650  0.81812050  1
  O  O118  1  0.88277750  0.34828050  0.92665850  1
  O  O119  1  0.34828050  0.88277750  0.57334150  1
  O  O120  1  0.61722250  0.65171950  0.82334150  1
  O  O121  1  0.61722250  0.84828050  0.92665850  1
  O  O122  1  0.88277750  0.15171950  0.82334150  1
  O  O123  1  0.61039600  0.08427000  0.79930800  1
  O  O124  1  0.65171950  0.61722250  0.67665850  1
  O  O125  1  0.08427000  0.11039600  0.54930800  1
  O  O126  1  0.88960400  0.58427000  0.79930800  1
  O  O127  1  0.61039600  0.41573000  0.95069200  1
  O  O128  1  0.58427000  0.88960400  0.70069200  1
  O  O129  1  0.38960400  0.91573000  0.79930800  1
  O  O130  1  0.38960400  0.58427000  0.95069200  1
  O  O131  1  0.66907450  0.14138650  0.93187950  1
  O  O132  1  0.11039600  0.08427000  0.95069200  1
  O  O133  1  0.11722250  0.65171950  0.92665850  1
  O  O134  1  0.41573000  0.11039600  0.70069200  1
  O  O135  1  0.16907450  0.14138650  0.81812050  1
  O  O136  1  0.64138650  0.33092550  0.68187950  1
  O  O137  1  0.15171950  0.88277750  0.67665850  1
  O  O138  1  0.34828050  0.38277750  0.67665850  1
  O  O139  1  0.35861350  0.66907450  0.68187950  1
  O  O140  1  0.66907450  0.35861350  0.81812050  1
  O  O141  1  0.38277750  0.15171950  0.92665850  1
  O  O142  1  0.65171950  0.11722250  0.57334150  1
  O  O143  1  0.11722250  0.84828050  0.82334150  1
  O  O144  1  0.83092550  0.85861350  0.81812050  1
  O  O145  1  0.38277750  0.34828050  0.82334150  1
  O  O146  1  0.41573000  0.61039600  0.54930800  1
  O  O147  1  0.84828050  0.11722250  0.67665850  1
  O  O148  1  0.15171950  0.38277750  0.57334150  1
  O  O149  1  0.85861350  0.83092550  0.68187950  1
  O  O150  1  0.88960400  0.91573000  0.95069200  1
  O  O151  1  0.85861350  0.33092550  0.56812050  1
  O  O152  1  0.84828050  0.61722250  0.57334150  1
  O  O153  1  0.08427000  0.61039600  0.70069200  1
  O  O154  1  0.91573000  0.38960400  0.70069200  1
  O  O155  1  0.64138650  0.83092550  0.56812050  1
  O  O156  1  0.11039600  0.41573000  0.79930800  1
  O  O157  1  0.14138650  0.66907450  0.56812050  1
  O  O158  1  0.91573000  0.88960400  0.54930800  1
  O  O159  1  0.35861350  0.16907450  0.56812050  1
