# generated using pymatgen
data_K3LiIrO4
_symmetry_space_group_name_H-M   'P 1'
_cell_length_a   10.83248800
_cell_length_b   9.84657200
_cell_length_c   5.99232187
_cell_angle_alpha   90.00000000
_cell_angle_beta   104.03620868
_cell_angle_gamma   90.00000000
_symmetry_Int_Tables_number   1
_chemical_formula_structural   K3LiIrO4
_chemical_formula_sum   'K12 Li4 Ir4 O16'
_cell_volume   620.07469272
_cell_formula_units_Z   4
loop_
 _symmetry_equiv_pos_site_id
 _symmetry_equiv_pos_as_xyz
  1  'x, y, z'
loop_
 _atom_site_type_symbol
 _atom_site_label
 _atom_site_symmetry_multiplicity
 _atom_site_fract_x
 _atom_site_fract_y
 _atom_site_fract_z
 _atom_site_occupancy
  K  K0  1  0.34529650  0.58898450  0.02606800  1
  K  K1  1  0.00000000  0.40520500  0.25000000  1
  K  K2  1  0.34529650  0.41101550  0.52606800  1
  K  K3  1  0.65470350  0.58898450  0.47393200  1
  K  K4  1  0.65470350  0.41101550  0.97393200  1
  K  K5  1  0.00000000  0.59479500  0.75000000  1
  K  K6  1  0.84529650  0.08898450  0.02606800  1
  K  K7  1  0.50000000  0.90520500  0.25000000  1
  K  K8  1  0.84529650  0.91101550  0.52606800  1
  K  K9  1  0.15470350  0.08898450  0.47393200  1
  K  K10  1  0.15470350  0.91101550  0.97393200  1
  K  K11  1  0.50000000  0.09479500  0.75000000  1
  Li  Li12  1  0.00000000  0.26817500  0.75000000  1
  Li  Li13  1  0.00000000  0.73182500  0.25000000  1
  Li  Li14  1  0.50000000  0.76817500  0.75000000  1
  Li  Li15  1  0.50000000  0.23182500  0.25000000  1
  Ir  Ir16  1  0.75000000  0.75000000  0.00000000  1
  Ir  Ir17  1  0.25000000  0.75000000  0.50000000  1
  Ir  Ir18  1  0.25000000  0.25000000  0.00000000  1
  Ir  Ir19  1  0.75000000  0.25000000  0.50000000  1
  O  O20  1  0.15788600  0.63842200  0.24626400  1
  O  O21  1  0.91086600  0.17594600  0.46986500  1
  O  O22  1  0.15788600  0.36157800  0.74626400  1
  O  O23  1  0.91086600  0.82405400  0.96986500  1
  O  O24  1  0.08913400  0.82405400  0.53013500  1
  O  O25  1  0.08913400  0.17594600  0.03013500  1
  O  O26  1  0.84211400  0.63842200  0.25373600  1
  O  O27  1  0.84211400  0.36157800  0.75373600  1
  O  O28  1  0.65788600  0.13842200  0.24626400  1
  O  O29  1  0.41086600  0.67594600  0.46986500  1
  O  O30  1  0.65788600  0.86157800  0.74626400  1
  O  O31  1  0.41086600  0.32405400  0.96986500  1
  O  O32  1  0.58913400  0.32405400  0.53013500  1
  O  O33  1  0.58913400  0.67594600  0.03013500  1
  O  O34  1  0.34211400  0.13842200  0.25373600  1
  O  O35  1  0.34211400  0.86157800  0.75373600  1
