# generated using pymatgen
data_Ba2V5(PO6)4
_symmetry_space_group_name_H-M   'P 1'
_cell_length_a   12.50996600
_cell_length_b   23.41143000
_cell_length_c   7.81630574
_cell_angle_alpha   90.00000000
_cell_angle_beta   113.65469130
_cell_angle_gamma   90.00000000
_symmetry_Int_Tables_number   1
_chemical_formula_structural   Ba2V5(PO6)4
_chemical_formula_sum   'Ba8 V20 P16 O96'
_cell_volume   2096.87082898
_cell_formula_units_Z   4
loop_
 _symmetry_equiv_pos_site_id
 _symmetry_equiv_pos_as_xyz
  1  'x, y, z'
loop_
 _atom_site_type_symbol
 _atom_site_label
 _atom_site_symmetry_multiplicity
 _atom_site_fract_x
 _atom_site_fract_y
 _atom_site_fract_z
 _atom_site_occupancy
  Ba  Ba0  1  0.22182700  0.25192700  0.46835400  1
  Ba  Ba1  1  0.26656000  0.00000000  0.00483100  1
  Ba  Ba2  1  0.12000600  0.00000000  0.42547000  1
  Ba  Ba3  1  0.72182700  0.24807300  0.46835400  1
  Ba  Ba4  1  0.72182700  0.75192700  0.46835400  1
  Ba  Ba5  1  0.76656000  0.50000000  0.00483100  1
  Ba  Ba6  1  0.62000600  0.50000000  0.42547000  1
  Ba  Ba7  1  0.22182700  0.74807300  0.46835400  1
  V  V8  1  0.91077350  0.31843150  0.20603000  1
  V  V9  1  0.52660050  0.13804950  0.67610400  1
  V  V10  1  0.92725100  0.14298700  0.26585600  1
  V  V11  1  0.54102950  0.31320250  0.73153200  1
  V  V12  1  0.02660050  0.36195050  0.67610400  1
  V  V13  1  0.57175700  0.00000000  0.17954600  1
  V  V14  1  0.42725100  0.35701300  0.26585600  1
  V  V15  1  0.41077350  0.18156850  0.20603000  1
  V  V16  1  0.91572700  0.00000000  0.79721000  1
  V  V17  1  0.04102950  0.18679750  0.73153200  1
  V  V18  1  0.41077350  0.81843150  0.20603000  1
  V  V19  1  0.02660050  0.63804950  0.67610400  1
  V  V20  1  0.42725100  0.64298700  0.26585600  1
  V  V21  1  0.04102950  0.81320250  0.73153200  1
  V  V22  1  0.52660050  0.86195050  0.67610400  1
  V  V23  1  0.07175700  0.50000000  0.17954600  1
  V  V24  1  0.92725100  0.85701300  0.26585600  1
  V  V25  1  0.91077350  0.68156850  0.20603000  1
  V  V26  1  0.41572700  0.50000000  0.79721000  1
  V  V27  1  0.54102950  0.68679750  0.73153200  1
  P  P28  1  0.64710250  0.13013950  0.15399400  1
  P  P29  1  0.81345300  0.12798600  0.78585800  1
  P  P30  1  0.65517650  0.36737350  0.15233900  1
  P  P31  1  0.79529950  0.36873150  0.78288200  1
  P  P32  1  0.31345300  0.37201400  0.78585800  1
  P  P33  1  0.15517650  0.13262650  0.15233900  1
  P  P34  1  0.14710250  0.36986050  0.15399400  1
  P  P35  1  0.29529950  0.13126850  0.78288200  1
  P  P36  1  0.14710250  0.63013950  0.15399400  1
  P  P37  1  0.31345300  0.62798600  0.78585800  1
  P  P38  1  0.15517650  0.86737350  0.15233900  1
  P  P39  1  0.29529950  0.86873150  0.78288200  1
  P  P40  1  0.81345300  0.87201400  0.78585800  1
  P  P41  1  0.65517650  0.63262650  0.15233900  1
  P  P42  1  0.64710250  0.86986050  0.15399400  1
  P  P43  1  0.79529950  0.63126850  0.78288200  1
  O  O44  1  0.18489800  0.35074100  0.68418600  1
  O  O45  1  0.40299050  0.24746450  0.13757900  1
  O  O46  1  0.19879000  0.07316200  0.22097700  1
  O  O47  1  0.47372750  0.18174150  0.45934000  1
  O  O48  1  0.48220200  0.00000000  0.95834700  1
  O  O49  1  0.25828450  0.17758650  0.20818500  1
  O  O50  1  0.24873700  0.07255100  0.71281600  1
  O  O51  1  0.69910750  0.32151550  0.73059300  1
  O  O52  1  0.45041500  0.42088500  0.35857000  1
  O  O53  1  0.38089850  0.32883350  0.71410500  1
  O  O54  1  0.65838750  0.06840450  0.23179700  1
  O  O55  1  0.19910750  0.17848450  0.73059300  1
  O  O56  1  0.48360000  0.00000000  0.29045300  1
  O  O57  1  0.98328550  0.19240950  0.48806700  1
  O  O58  1  0.02559400  0.00000000  0.72725800  1
  O  O59  1  0.59792150  0.12785850  0.94063300  1
  O  O60  1  0.59167750  0.36769650  0.93471400  1
  O  O61  1  0.97413300  0.00000000  0.02616800  1
  O  O62  1  0.82427150  0.06659650  0.71624900  1
  O  O63  1  0.69879000  0.42683800  0.22097700  1
  O  O64  1  0.35464650  0.37140350  0.99563900  1
  O  O65  1  0.55685850  0.24793150  0.80959500  1
  O  O66  1  0.88089850  0.17116650  0.71410500  1
  O  O67  1  0.05685850  0.25206850  0.80959500  1
  O  O68  1  0.74873700  0.42744900  0.71281600  1
  O  O69  1  0.35889600  0.12813700  0.00313300  1
  O  O70  1  0.85464650  0.12859650  0.99563900  1
  O  O71  1  0.56740100  0.16636400  0.22190700  1
  O  O72  1  0.68489800  0.14925900  0.68418600  1
  O  O73  1  0.00093550  0.42625050  0.60364500  1
  O  O74  1  0.75828450  0.32241350  0.20818500  1
  O  O75  1  0.57949750  0.34005250  0.24681400  1
  O  O76  1  0.87993550  0.34322550  0.69985600  1
  O  O77  1  0.90299050  0.25253550  0.13757900  1
  O  O78  1  0.06740100  0.33363600  0.22190700  1
  O  O79  1  0.50093550  0.07374950  0.60364500  1
  O  O80  1  0.95041500  0.07911500  0.35857000  1
  O  O81  1  0.07949750  0.15994750  0.24681400  1
  O  O82  1  0.37993550  0.15677450  0.69985600  1
  O  O83  1  0.48328550  0.30759050  0.48806700  1
  O  O84  1  0.97372750  0.31825850  0.45934000  1
  O  O85  1  0.26513650  0.33882850  0.24486500  1
  O  O86  1  0.32427150  0.43340350  0.71624900  1
  O  O87  1  0.85889600  0.37186300  0.00313300  1
  O  O88  1  0.15838750  0.43159550  0.23179700  1
  O  O89  1  0.76513650  0.16117150  0.24486500  1
  O  O90  1  0.09167750  0.13230350  0.93471400  1
  O  O91  1  0.09792150  0.37214150  0.94063300  1
  O  O92  1  0.68489800  0.85074100  0.68418600  1
  O  O93  1  0.90299050  0.74746450  0.13757900  1
  O  O94  1  0.69879000  0.57316200  0.22097700  1
  O  O95  1  0.97372750  0.68174150  0.45934000  1
  O  O96  1  0.98220200  0.50000000  0.95834700  1
  O  O97  1  0.75828450  0.67758650  0.20818500  1
  O  O98  1  0.74873700  0.57255100  0.71281600  1
  O  O99  1  0.19910750  0.82151550  0.73059300  1
  O  O100  1  0.95041500  0.92088500  0.35857000  1
  O  O101  1  0.88089850  0.82883350  0.71410500  1
  O  O102  1  0.15838750  0.56840450  0.23179700  1
  O  O103  1  0.69910750  0.67848450  0.73059300  1
  O  O104  1  0.98360000  0.50000000  0.29045300  1
  O  O105  1  0.48328550  0.69240950  0.48806700  1
  O  O106  1  0.52559400  0.50000000  0.72725800  1
  O  O107  1  0.09792150  0.62785850  0.94063300  1
  O  O108  1  0.09167750  0.86769650  0.93471400  1
  O  O109  1  0.47413300  0.50000000  0.02616800  1
  O  O110  1  0.32427150  0.56659650  0.71624900  1
  O  O111  1  0.19879000  0.92683800  0.22097700  1
  O  O112  1  0.85464650  0.87140350  0.99563900  1
  O  O113  1  0.05685850  0.74793150  0.80959500  1
  O  O114  1  0.38089850  0.67116650  0.71410500  1
  O  O115  1  0.55685850  0.75206850  0.80959500  1
  O  O116  1  0.24873700  0.92744900  0.71281600  1
  O  O117  1  0.85889600  0.62813700  0.00313300  1
  O  O118  1  0.35464650  0.62859650  0.99563900  1
  O  O119  1  0.06740100  0.66636400  0.22190700  1
  O  O120  1  0.18489800  0.64925900  0.68418600  1
  O  O121  1  0.50093550  0.92625050  0.60364500  1
  O  O122  1  0.25828450  0.82241350  0.20818500  1
  O  O123  1  0.07949750  0.84005250  0.24681400  1
  O  O124  1  0.37993550  0.84322550  0.69985600  1
  O  O125  1  0.40299050  0.75253550  0.13757900  1
  O  O126  1  0.56740100  0.83363600  0.22190700  1
  O  O127  1  0.00093550  0.57374950  0.60364500  1
  O  O128  1  0.45041500  0.57911500  0.35857000  1
  O  O129  1  0.57949750  0.65994750  0.24681400  1
  O  O130  1  0.87993550  0.65677450  0.69985600  1
  O  O131  1  0.98328550  0.80759050  0.48806700  1
  O  O132  1  0.47372750  0.81825850  0.45934000  1
  O  O133  1  0.76513650  0.83882850  0.24486500  1
  O  O134  1  0.82427150  0.93340350  0.71624900  1
  O  O135  1  0.35889600  0.87186300  0.00313300  1
  O  O136  1  0.65838750  0.93159550  0.23179700  1
  O  O137  1  0.26513650  0.66117150  0.24486500  1
  O  O138  1  0.59167750  0.63230350  0.93471400  1
  O  O139  1  0.59792150  0.87214150  0.94063300  1
