# generated using pymatgen
data_KCrF3
_symmetry_space_group_name_H-M   'P 1'
_cell_length_a   8.17682800
_cell_length_b   8.76042200
_cell_length_c   5.95453140
_cell_angle_alpha   90.00000000
_cell_angle_beta   133.11848998
_cell_angle_gamma   90.00000000
_symmetry_Int_Tables_number   1
_chemical_formula_structural   KCrF3
_chemical_formula_sum   'K4 Cr4 F12'
_cell_volume   311.34771068
_cell_formula_units_Z   4
loop_
 _symmetry_equiv_pos_site_id
 _symmetry_equiv_pos_as_xyz
  1  'x, y, z'
loop_
 _atom_site_type_symbol
 _atom_site_label
 _atom_site_symmetry_multiplicity
 _atom_site_fract_x
 _atom_site_fract_y
 _atom_site_fract_z
 _atom_site_occupancy
  K  K0  1  0.00000000  0.25133800  0.00000000  1
  K  K1  1  0.50000000  0.24866200  0.00000000  1
  K  K2  1  0.50000000  0.75133800  0.00000000  1
  K  K3  1  0.00000000  0.74866200  0.00000000  1
  Cr  Cr4  1  0.50000000  0.00000000  0.50000000  1
  Cr  Cr5  1  0.00000000  0.00000000  0.50000000  1
  Cr  Cr6  1  0.00000000  0.50000000  0.50000000  1
  Cr  Cr7  1  0.50000000  0.50000000  0.50000000  1
  F  F8  1  0.00000000  0.26980900  0.50000000  1
  F  F9  1  0.28062900  0.00000000  0.56186900  1
  F  F10  1  0.71937100  0.00000000  0.43813100  1
  F  F11  1  0.19999800  0.00000000  0.96039100  1
  F  F12  1  0.50000000  0.23019100  0.50000000  1
  F  F13  1  0.80000200  0.00000000  0.03960900  1
  F  F14  1  0.50000000  0.76980900  0.50000000  1
  F  F15  1  0.78062900  0.50000000  0.56186900  1
  F  F16  1  0.21937100  0.50000000  0.43813100  1
  F  F17  1  0.69999800  0.50000000  0.96039100  1
  F  F18  1  0.00000000  0.73019100  0.50000000  1
  F  F19  1  0.30000200  0.50000000  0.03960900  1
