# generated using pymatgen
data_Li2Ni5(PO4)4
_symmetry_space_group_name_H-M   'P 1'
_cell_length_a   5.19648322
_cell_length_b   7.83783802
_cell_length_c   7.88704805
_cell_angle_alpha   110.33125810
_cell_angle_beta   93.85155595
_cell_angle_gamma   98.31630240
_symmetry_Int_Tables_number   1
_chemical_formula_structural   Li2Ni5(PO4)4
_chemical_formula_sum   'Li2 Ni5 P4 O16'
_cell_volume   295.65611566
_cell_formula_units_Z   1
loop_
 _symmetry_equiv_pos_site_id
 _symmetry_equiv_pos_as_xyz
  1  'x, y, z'
loop_
 _atom_site_type_symbol
 _atom_site_label
 _atom_site_symmetry_multiplicity
 _atom_site_fract_x
 _atom_site_fract_y
 _atom_site_fract_z
 _atom_site_occupancy
  Li  Li0  1  0.62863267  0.04153047  0.28253300  1
  Li  Li1  1  0.37136733  0.95846953  0.71746700  1
  Ni  Ni2  1  0.10194142  0.25493917  0.77021695  1
  Ni  Ni3  1  0.00000000  0.00000000  0.00000000  1
  Ni  Ni4  1  0.63456868  0.40583778  0.66999537  1
  Ni  Ni5  1  0.36543132  0.59416222  0.33000463  1
  Ni  Ni6  1  0.89805858  0.74506083  0.22978305  1
  P  P7  1  0.85241019  0.79444159  0.57897475  1
  P  P8  1  0.35940219  0.69669347  0.97139478  1
  P  P9  1  0.64059781  0.30330653  0.02860522  1
  P  P10  1  0.14758981  0.20555841  0.42102525  1
  O  O11  1  0.64525244  0.79377913  0.05501557  1
  O  O12  1  0.20873909  0.65890135  0.12382700  1
  O  O13  1  0.90174372  0.98269763  0.74702267  1
  O  O14  1  0.11084173  0.76760734  0.49134431  1
  O  O15  1  0.65452463  0.82497950  0.43336192  1
  O  O16  1  0.35474756  0.20622087  0.94498443  1
  O  O17  1  0.79126091  0.34109865  0.87617300  1
  O  O18  1  0.09825628  0.01730237  0.25297733  1
  O  O19  1  0.88915827  0.23239266  0.50865569  1
  O  O20  1  0.34547537  0.17502050  0.56663808  1
  O  O21  1  0.76932531  0.17406890  0.10393667  1
  O  O22  1  0.34525488  0.50700949  0.81523731  1
  O  O23  1  0.27552937  0.36280115  0.36929671  1
  O  O24  1  0.72447063  0.63719885  0.63070329  1
  O  O25  1  0.65474512  0.49299051  0.18476269  1
  O  O26  1  0.23067469  0.82593110  0.89606333  1
