# generated using pymatgen
data_NaCrF6
_symmetry_space_group_name_H-M   'P 1'
_cell_length_a   5.38460834
_cell_length_b   5.38460834
_cell_length_c   14.51413938
_cell_angle_alpha   90.00000000
_cell_angle_beta   90.00000000
_cell_angle_gamma   120.00000000
_symmetry_Int_Tables_number   1
_chemical_formula_structural   NaCrF6
_chemical_formula_sum   'Na3 Cr3 F18'
_cell_volume   364.44345962
_cell_formula_units_Z   3
loop_
 _symmetry_equiv_pos_site_id
 _symmetry_equiv_pos_as_xyz
  1  'x, y, z'
loop_
 _atom_site_type_symbol
 _atom_site_label
 _atom_site_symmetry_multiplicity
 _atom_site_fract_x
 _atom_site_fract_y
 _atom_site_fract_z
 _atom_site_occupancy
  Na  Na0  1  0.33333333  0.66666667  0.16666667  1
  Na  Na1  1  1.00000000  0.00000000  0.50000000  1
  Na  Na2  1  0.66666667  0.33333333  0.83333333  1
  Cr  Cr3  1  0.00000000  0.00000000  0.00000000  1
  Cr  Cr4  1  0.66666667  0.33333333  0.33333333  1
  Cr  Cr5  1  0.33333333  0.66666667  0.66666667  1
  F  F6  1  0.25911833  0.28552967  0.07207267  1
  F  F7  1  0.71447033  0.97358867  0.07207267  1
  F  F8  1  0.64025533  0.59245167  0.26126067  1
  F  F9  1  0.95219633  0.35974467  0.26126067  1
  F  F10  1  0.40754833  0.04780367  0.26126067  1
  F  F11  1  0.02641133  0.74088167  0.07207267  1
  F  F12  1  0.92578500  0.61886300  0.40540600  1
  F  F13  1  0.38113700  0.30692200  0.40540600  1
  F  F14  1  0.30692200  0.92578500  0.59459400  1
  F  F15  1  0.61886300  0.69307800  0.59459400  1
  F  F16  1  0.07421500  0.38113700  0.59459400  1
  F  F17  1  0.69307800  0.07421500  0.40540600  1
  F  F18  1  0.59245167  0.95219633  0.73873933  1
  F  F19  1  0.04780367  0.64025533  0.73873933  1
  F  F20  1  0.97358867  0.25911833  0.92792733  1
  F  F21  1  0.28552967  0.02641133  0.92792733  1
  F  F22  1  0.74088167  0.71447033  0.92792733  1
  F  F23  1  0.35974467  0.40754833  0.73873933  1
