# generated using pymatgen
data_Cr2(Co7B2)3
_symmetry_space_group_name_H-M   'P 1'
_cell_length_a   10.38834600
_cell_length_b   10.38834600
_cell_length_c   10.38834600
_cell_angle_alpha   90.00000000
_cell_angle_beta   90.00000000
_cell_angle_gamma   90.00000000
_symmetry_Int_Tables_number   1
_chemical_formula_structural   Cr2(Co7B2)3
_chemical_formula_sum   'Cr8 Co84 B24'
_cell_volume   1121.08674595
_cell_formula_units_Z   4
loop_
 _symmetry_equiv_pos_site_id
 _symmetry_equiv_pos_as_xyz
  1  'x, y, z'
loop_
 _atom_site_type_symbol
 _atom_site_label
 _atom_site_symmetry_multiplicity
 _atom_site_fract_x
 _atom_site_fract_y
 _atom_site_fract_z
 _atom_site_occupancy
  Cr  Cr0  1  0.25000000  0.25000000  0.75000000  1
  Cr  Cr1  1  0.25000000  0.75000000  0.75000000  1
  Cr  Cr2  1  0.25000000  0.75000000  0.25000000  1
  Cr  Cr3  1  0.25000000  0.25000000  0.25000000  1
  Cr  Cr4  1  0.75000000  0.25000000  0.25000000  1
  Cr  Cr5  1  0.75000000  0.75000000  0.25000000  1
  Cr  Cr6  1  0.75000000  0.75000000  0.75000000  1
  Cr  Cr7  1  0.75000000  0.25000000  0.75000000  1
  Co  Co8  1  0.00000000  0.00000000  0.00000000  1
  Co  Co9  1  0.87949333  0.87949333  0.62050667  1
  Co  Co10  1  0.37949333  0.12050667  0.87949333  1
  Co  Co11  1  0.62050667  0.87949333  0.87949333  1
  Co  Co12  1  0.12050667  0.12050667  0.62050667  1
  Co  Co13  1  0.62050667  0.12050667  0.87949333  1
  Co  Co14  1  0.12050667  0.87949333  0.62050667  1
  Co  Co15  1  0.87949333  0.12050667  0.62050667  1
  Co  Co16  1  0.37949333  0.87949333  0.87949333  1
  Co  Co17  1  0.16937100  0.16937100  0.00000000  1
  Co  Co18  1  0.16937100  0.00000000  0.83062900  1
  Co  Co19  1  0.00000000  0.16937100  0.83062900  1
  Co  Co20  1  0.16937100  0.83062900  0.00000000  1
  Co  Co21  1  0.66937100  0.00000000  0.66937100  1
  Co  Co22  1  0.00000000  0.33062900  0.66937100  1
  Co  Co23  1  0.33062900  0.66937100  0.00000000  1
  Co  Co24  1  0.33062900  0.00000000  0.66937100  1
  Co  Co25  1  0.00000000  0.66937100  0.66937100  1
  Co  Co26  1  0.33062900  0.33062900  0.00000000  1
  Co  Co27  1  0.83062900  0.00000000  0.83062900  1
  Co  Co28  1  0.00000000  0.83062900  0.83062900  1
  Co  Co29  1  0.00000000  0.50000000  0.50000000  1
  Co  Co30  1  0.87949333  0.37949333  0.12050667  1
  Co  Co31  1  0.37949333  0.62050667  0.37949333  1
  Co  Co32  1  0.62050667  0.37949333  0.37949333  1
  Co  Co33  1  0.12050667  0.62050667  0.12050667  1
  Co  Co34  1  0.62050667  0.62050667  0.37949333  1
  Co  Co35  1  0.12050667  0.37949333  0.12050667  1
  Co  Co36  1  0.87949333  0.62050667  0.12050667  1
  Co  Co37  1  0.37949333  0.37949333  0.37949333  1
  Co  Co38  1  0.16937100  0.66937100  0.50000000  1
  Co  Co39  1  0.16937100  0.50000000  0.33062900  1
  Co  Co40  1  0.00000000  0.66937100  0.33062900  1
  Co  Co41  1  0.16937100  0.33062900  0.50000000  1
  Co  Co42  1  0.66937100  0.50000000  0.16937100  1
  Co  Co43  1  0.00000000  0.83062900  0.16937100  1
  Co  Co44  1  0.33062900  0.16937100  0.50000000  1
  Co  Co45  1  0.33062900  0.50000000  0.16937100  1
  Co  Co46  1  0.00000000  0.16937100  0.16937100  1
  Co  Co47  1  0.33062900  0.83062900  0.50000000  1
  Co  Co48  1  0.83062900  0.50000000  0.33062900  1
  Co  Co49  1  0.00000000  0.33062900  0.33062900  1
  Co  Co50  1  0.50000000  0.00000000  0.50000000  1
  Co  Co51  1  0.37949333  0.87949333  0.12050667  1
  Co  Co52  1  0.87949333  0.12050667  0.37949333  1
  Co  Co53  1  0.12050667  0.87949333  0.37949333  1
  Co  Co54  1  0.62050667  0.12050667  0.12050667  1
  Co  Co55  1  0.12050667  0.12050667  0.37949333  1
  Co  Co56  1  0.62050667  0.87949333  0.12050667  1
  Co  Co57  1  0.37949333  0.12050667  0.12050667  1
  Co  Co58  1  0.87949333  0.87949333  0.37949333  1
  Co  Co59  1  0.66937100  0.16937100  0.50000000  1
  Co  Co60  1  0.66937100  0.00000000  0.33062900  1
  Co  Co61  1  0.50000000  0.16937100  0.33062900  1
  Co  Co62  1  0.66937100  0.83062900  0.50000000  1
  Co  Co63  1  0.16937100  0.00000000  0.16937100  1
  Co  Co64  1  0.50000000  0.33062900  0.16937100  1
  Co  Co65  1  0.83062900  0.66937100  0.50000000  1
  Co  Co66  1  0.83062900  0.00000000  0.16937100  1
  Co  Co67  1  0.50000000  0.66937100  0.16937100  1
  Co  Co68  1  0.83062900  0.33062900  0.50000000  1
  Co  Co69  1  0.33062900  0.00000000  0.33062900  1
  Co  Co70  1  0.50000000  0.83062900  0.33062900  1
  Co  Co71  1  0.50000000  0.50000000  0.00000000  1
  Co  Co72  1  0.37949333  0.37949333  0.62050667  1
  Co  Co73  1  0.87949333  0.62050667  0.87949333  1
  Co  Co74  1  0.12050667  0.37949333  0.87949333  1
  Co  Co75  1  0.62050667  0.62050667  0.62050667  1
  Co  Co76  1  0.12050667  0.62050667  0.87949333  1
  Co  Co77  1  0.62050667  0.37949333  0.62050667  1
  Co  Co78  1  0.37949333  0.62050667  0.62050667  1
  Co  Co79  1  0.87949333  0.37949333  0.87949333  1
  Co  Co80  1  0.66937100  0.66937100  0.00000000  1
  Co  Co81  1  0.66937100  0.50000000  0.83062900  1
  Co  Co82  1  0.50000000  0.66937100  0.83062900  1
  Co  Co83  1  0.66937100  0.33062900  0.00000000  1
  Co  Co84  1  0.16937100  0.50000000  0.66937100  1
  Co  Co85  1  0.50000000  0.83062900  0.66937100  1
  Co  Co86  1  0.83062900  0.16937100  0.00000000  1
  Co  Co87  1  0.83062900  0.50000000  0.66937100  1
  Co  Co88  1  0.50000000  0.16937100  0.66937100  1
  Co  Co89  1  0.83062900  0.83062900  0.00000000  1
  Co  Co90  1  0.33062900  0.50000000  0.83062900  1
  Co  Co91  1  0.50000000  0.33062900  0.83062900  1
  B  B92  1  0.00000000  0.00000000  0.72476800  1
  B  B93  1  0.50000000  0.77523200  0.00000000  1
  B  B94  1  0.27523200  0.00000000  0.00000000  1
  B  B95  1  0.50000000  0.00000000  0.77523200  1
  B  B96  1  0.50000000  0.22476800  0.00000000  1
  B  B97  1  0.72476800  0.00000000  0.00000000  1
  B  B98  1  0.00000000  0.50000000  0.22476800  1
  B  B99  1  0.50000000  0.27523200  0.50000000  1
  B  B100  1  0.27523200  0.50000000  0.50000000  1
  B  B101  1  0.50000000  0.50000000  0.27523200  1
  B  B102  1  0.50000000  0.72476800  0.50000000  1
  B  B103  1  0.72476800  0.50000000  0.50000000  1
  B  B104  1  0.50000000  0.00000000  0.22476800  1
  B  B105  1  0.00000000  0.77523200  0.50000000  1
  B  B106  1  0.77523200  0.00000000  0.50000000  1
  B  B107  1  0.00000000  0.00000000  0.27523200  1
  B  B108  1  0.00000000  0.22476800  0.50000000  1
  B  B109  1  0.22476800  0.00000000  0.50000000  1
  B  B110  1  0.50000000  0.50000000  0.72476800  1
  B  B111  1  0.00000000  0.27523200  0.00000000  1
  B  B112  1  0.77523200  0.50000000  0.00000000  1
  B  B113  1  0.00000000  0.50000000  0.77523200  1
  B  B114  1  0.00000000  0.72476800  0.00000000  1
  B  B115  1  0.22476800  0.50000000  0.00000000  1
