# generated using pymatgen
data_La7Ni16
_symmetry_space_group_name_H-M   'P 1'
_cell_length_a   7.33411000
_cell_length_b   7.33411000
_cell_length_c   14.44077600
_cell_angle_alpha   90.00000000
_cell_angle_beta   90.00000000
_cell_angle_gamma   90.00000000
_symmetry_Int_Tables_number   1
_chemical_formula_structural   La7Ni16
_chemical_formula_sum   'La14 Ni32'
_cell_volume   776.75734786
_cell_formula_units_Z   2
loop_
 _symmetry_equiv_pos_site_id
 _symmetry_equiv_pos_as_xyz
  1  'x, y, z'
loop_
 _atom_site_type_symbol
 _atom_site_label
 _atom_site_symmetry_multiplicity
 _atom_site_fract_x
 _atom_site_fract_y
 _atom_site_fract_z
 _atom_site_occupancy
  La  La0  1  0.69532825  0.69532825  0.39758775  1
  La  La1  1  0.30467175  0.30467175  0.39758775  1
  La  La2  1  0.19532825  0.80467175  0.10241225  1
  La  La3  1  0.00000000  0.50000000  0.25000000  1
  La  La4  1  0.50000000  0.50000000  0.00000000  1
  La  La5  1  0.80467175  0.19532825  0.10241225  1
  La  La6  1  0.50000000  0.00000000  0.25000000  1
  La  La7  1  0.19532825  0.19532825  0.89758775  1
  La  La8  1  0.80467175  0.80467175  0.89758775  1
  La  La9  1  0.69532825  0.30467175  0.60241225  1
  La  La10  1  0.50000000  0.00000000  0.75000000  1
  La  La11  1  0.00000000  0.00000000  0.50000000  1
  La  La12  1  0.30467175  0.69532825  0.60241225  1
  La  La13  1  0.00000000  0.50000000  0.75000000  1
  Ni  Ni14  1  0.88196225  0.11803775  0.31383725  1
  Ni  Ni15  1  0.86750900  0.61618650  0.06596675  1
  Ni  Ni16  1  0.61618650  0.86750900  0.06596675  1
  Ni  Ni17  1  0.11803775  0.88196225  0.31383725  1
  Ni  Ni18  1  0.36750900  0.88381350  0.43403325  1
  Ni  Ni19  1  0.36006875  0.63993125  0.30136275  1
  Ni  Ni20  1  0.61803775  0.61803775  0.18616275  1
  Ni  Ni21  1  0.11618650  0.63249100  0.43403325  1
  Ni  Ni22  1  0.86006875  0.86006875  0.19863725  1
  Ni  Ni23  1  0.63993125  0.36006875  0.30136275  1
  Ni  Ni24  1  0.38196225  0.38196225  0.18616275  1
  Ni  Ni25  1  0.88381350  0.36750900  0.43403325  1
  Ni  Ni26  1  0.63249100  0.11618650  0.43403325  1
  Ni  Ni27  1  0.38381350  0.13249100  0.06596675  1
  Ni  Ni28  1  0.13993125  0.13993125  0.19863725  1
  Ni  Ni29  1  0.13249100  0.38381350  0.06596675  1
  Ni  Ni30  1  0.38196225  0.61803775  0.81383725  1
  Ni  Ni31  1  0.36750900  0.11618650  0.56596675  1
  Ni  Ni32  1  0.11618650  0.36750900  0.56596675  1
  Ni  Ni33  1  0.61803775  0.38196225  0.81383725  1
  Ni  Ni34  1  0.86750900  0.38381350  0.93403325  1
  Ni  Ni35  1  0.86006875  0.13993125  0.80136275  1
  Ni  Ni36  1  0.11803775  0.11803775  0.68616275  1
  Ni  Ni37  1  0.61618650  0.13249100  0.93403325  1
  Ni  Ni38  1  0.36006875  0.36006875  0.69863725  1
  Ni  Ni39  1  0.13993125  0.86006875  0.80136275  1
  Ni  Ni40  1  0.88196225  0.88196225  0.68616275  1
  Ni  Ni41  1  0.38381350  0.86750900  0.93403325  1
  Ni  Ni42  1  0.13249100  0.61618650  0.93403325  1
  Ni  Ni43  1  0.88381350  0.63249100  0.56596675  1
  Ni  Ni44  1  0.63993125  0.63993125  0.69863725  1
  Ni  Ni45  1  0.63249100  0.88381350  0.56596675  1
