# generated using pymatgen
data_BaTb2Mn2O7
_symmetry_space_group_name_H-M   'P 1'
_cell_length_a   5.66920800
_cell_length_b   19.92263800
_cell_length_c   5.60331803
_cell_angle_alpha   90.00000000
_cell_angle_beta   90.00624768
_cell_angle_gamma   90.00000000
_symmetry_Int_Tables_number   1
_chemical_formula_structural   BaTb2Mn2O7
_chemical_formula_sum   'Ba4 Tb8 Mn8 O28'
_cell_volume   632.86999432
_cell_formula_units_Z   4
loop_
 _symmetry_equiv_pos_site_id
 _symmetry_equiv_pos_as_xyz
  1  'x, y, z'
loop_
 _atom_site_type_symbol
 _atom_site_label
 _atom_site_symmetry_multiplicity
 _atom_site_fract_x
 _atom_site_fract_y
 _atom_site_fract_z
 _atom_site_occupancy
  Ba  Ba0  1  0.74125300  0.00000000  0.25410100  1
  Ba  Ba1  1  0.25874700  0.00000000  0.74589900  1
  Ba  Ba2  1  0.24125300  0.50000000  0.25410100  1
  Ba  Ba3  1  0.75874700  0.50000000  0.74589900  1
  Tb  Tb4  1  0.22272250  0.31675750  0.27309200  1
  Tb  Tb5  1  0.27727750  0.18324250  0.72690800  1
  Tb  Tb6  1  0.77727750  0.31675750  0.72690800  1
  Tb  Tb7  1  0.72272250  0.18324250  0.27309200  1
  Tb  Tb8  1  0.72272250  0.81675750  0.27309200  1
  Tb  Tb9  1  0.77727750  0.68324250  0.72690800  1
  Tb  Tb10  1  0.27727750  0.81675750  0.72690800  1
  Tb  Tb11  1  0.22272250  0.68324250  0.27309200  1
  Mn  Mn12  1  0.24507650  0.10413950  0.24465300  1
  Mn  Mn13  1  0.75492350  0.10413950  0.75534700  1
  Mn  Mn14  1  0.25492350  0.39586050  0.75534700  1
  Mn  Mn15  1  0.74507650  0.39586050  0.24465300  1
  Mn  Mn16  1  0.74507650  0.60413950  0.24465300  1
  Mn  Mn17  1  0.25492350  0.60413950  0.75534700  1
  Mn  Mn18  1  0.75492350  0.89586050  0.75534700  1
  Mn  Mn19  1  0.24507650  0.89586050  0.24465300  1
  O  O20  1  0.50000000  0.38175000  0.50000000  1
  O  O21  1  0.50000000  0.09999600  0.50000000  1
  O  O22  1  0.82495550  0.28950750  0.28350900  1
  O  O23  1  0.67504450  0.21049250  0.71649100  1
  O  O24  1  0.50000000  0.37245400  0.00000000  1
  O  O25  1  0.00000000  0.12754600  0.00000000  1
  O  O26  1  0.00000000  0.40000400  0.50000000  1
  O  O27  1  0.17504450  0.28950750  0.71649100  1
  O  O28  1  0.22000000  0.00000000  0.23557300  1
  O  O29  1  0.32495550  0.21049250  0.28350900  1
  O  O30  1  0.50000000  0.10853600  0.00000000  1
  O  O31  1  0.00000000  0.39146400  0.00000000  1
  O  O32  1  0.78000000  0.00000000  0.76442700  1
  O  O33  1  0.00000000  0.11825000  0.50000000  1
  O  O34  1  0.00000000  0.88175000  0.50000000  1
  O  O35  1  0.00000000  0.59999600  0.50000000  1
  O  O36  1  0.32495550  0.78950750  0.28350900  1
  O  O37  1  0.17504450  0.71049250  0.71649100  1
  O  O38  1  0.00000000  0.87245400  0.00000000  1
  O  O39  1  0.50000000  0.62754600  0.00000000  1
  O  O40  1  0.50000000  0.90000400  0.50000000  1
  O  O41  1  0.67504450  0.78950750  0.71649100  1
  O  O42  1  0.72000000  0.50000000  0.23557300  1
  O  O43  1  0.82495550  0.71049250  0.28350900  1
  O  O44  1  0.00000000  0.60853600  0.00000000  1
  O  O45  1  0.50000000  0.89146400  0.00000000  1
  O  O46  1  0.28000000  0.50000000  0.76442700  1
  O  O47  1  0.50000000  0.61825000  0.50000000  1
