# generated using pymatgen
data_Ba2UCu2S5
_symmetry_space_group_name_H-M   'P 1'
_cell_length_a   13.72215600
_cell_length_b   4.07365200
_cell_length_c   9.38315123
_cell_angle_alpha   90.00000000
_cell_angle_beta   116.09369173
_cell_angle_gamma   90.00000000
_symmetry_Int_Tables_number   1
_chemical_formula_structural   Ba2UCu2S5
_chemical_formula_sum   'Ba4 U2 Cu4 S10'
_cell_volume   471.05117180
_cell_formula_units_Z   2
loop_
 _symmetry_equiv_pos_site_id
 _symmetry_equiv_pos_as_xyz
  1  'x, y, z'
loop_
 _atom_site_type_symbol
 _atom_site_label
 _atom_site_symmetry_multiplicity
 _atom_site_fract_x
 _atom_site_fract_y
 _atom_site_fract_z
 _atom_site_occupancy
  Ba  Ba0  1  0.82380500  0.00000000  0.29940000  1
  Ba  Ba1  1  0.17619500  0.00000000  0.70060000  1
  Ba  Ba2  1  0.32380500  0.50000000  0.29940000  1
  Ba  Ba3  1  0.67619500  0.50000000  0.70060000  1
  U  U4  1  0.00000000  0.00000000  0.00000000  1
  U  U5  1  0.50000000  0.50000000  0.00000000  1
  Cu  Cu6  1  0.94638900  0.50000000  0.70336200  1
  Cu  Cu7  1  0.05361100  0.50000000  0.29663800  1
  Cu  Cu8  1  0.44638900  0.00000000  0.70336200  1
  Cu  Cu9  1  0.55361100  0.00000000  0.29663800  1
  S  S10  1  0.11020000  0.50000000  0.93653400  1
  S  S11  1  0.85589200  0.00000000  0.69448200  1
  S  S12  1  0.88980000  0.50000000  0.06346600  1
  S  S13  1  0.00000000  0.50000000  0.50000000  1
  S  S14  1  0.14410800  0.00000000  0.30551800  1
  S  S15  1  0.61020000  0.00000000  0.93653400  1
  S  S16  1  0.35589200  0.50000000  0.69448200  1
  S  S17  1  0.38980000  0.00000000  0.06346600  1
  S  S18  1  0.50000000  0.00000000  0.50000000  1
  S  S19  1  0.64410800  0.50000000  0.30551800  1
