# generated using pymatgen
data_YbAg2
_symmetry_space_group_name_H-M   'P 1'
_cell_length_a   4.70448200
_cell_length_b   7.19605000
_cell_length_c   8.20391600
_cell_angle_alpha   90.00000000
_cell_angle_beta   90.00000000
_cell_angle_gamma   90.00000000
_symmetry_Int_Tables_number   1
_chemical_formula_structural   YbAg2
_chemical_formula_sum   'Yb4 Ag8'
_cell_volume   277.73281015
_cell_formula_units_Z   4
loop_
 _symmetry_equiv_pos_site_id
 _symmetry_equiv_pos_as_xyz
  1  'x, y, z'
loop_
 _atom_site_type_symbol
 _atom_site_label
 _atom_site_symmetry_multiplicity
 _atom_site_fract_x
 _atom_site_fract_y
 _atom_site_fract_z
 _atom_site_occupancy
  Yb  Yb0  1  0.00000000  0.75000000  0.45698500  1
  Yb  Yb1  1  0.00000000  0.25000000  0.54301500  1
  Yb  Yb2  1  0.50000000  0.25000000  0.95698500  1
  Yb  Yb3  1  0.50000000  0.75000000  0.04301500  1
  Ag  Ag4  1  0.50000000  0.95270500  0.66247400  1
  Ag  Ag5  1  0.00000000  0.95270500  0.83752600  1
  Ag  Ag6  1  0.50000000  0.04729500  0.33752600  1
  Ag  Ag7  1  0.00000000  0.04729500  0.16247400  1
  Ag  Ag8  1  0.00000000  0.45270500  0.16247400  1
  Ag  Ag9  1  0.50000000  0.45270500  0.33752600  1
  Ag  Ag10  1  0.00000000  0.54729500  0.83752600  1
  Ag  Ag11  1  0.50000000  0.54729500  0.66247400  1
