# generated using pymatgen
data_FeF3
_symmetry_space_group_name_H-M   'P 1'
_cell_length_a   10.48147000
_cell_length_b   10.48147000
_cell_length_c   10.48147000
_cell_angle_alpha   90.00000000
_cell_angle_beta   90.00000000
_cell_angle_gamma   90.00000000
_symmetry_Int_Tables_number   1
_chemical_formula_structural   FeF3
_chemical_formula_sum   'Fe16 F48'
_cell_volume   1151.50701201
_cell_formula_units_Z   16
loop_
 _symmetry_equiv_pos_site_id
 _symmetry_equiv_pos_as_xyz
  1  'x, y, z'
loop_
 _atom_site_type_symbol
 _atom_site_label
 _atom_site_symmetry_multiplicity
 _atom_site_fract_x
 _atom_site_fract_y
 _atom_site_fract_z
 _atom_site_occupancy
  Fe  Fe0  1  0.87500000  0.87500000  0.12500000  1
  Fe  Fe1  1  0.37500000  0.12500000  0.37500000  1
  Fe  Fe2  1  0.12500000  0.12500000  0.12500000  1
  Fe  Fe3  1  0.62500000  0.87500000  0.37500000  1
  Fe  Fe4  1  0.87500000  0.37500000  0.62500000  1
  Fe  Fe5  1  0.37500000  0.62500000  0.87500000  1
  Fe  Fe6  1  0.12500000  0.62500000  0.62500000  1
  Fe  Fe7  1  0.62500000  0.37500000  0.87500000  1
  Fe  Fe8  1  0.37500000  0.87500000  0.62500000  1
  Fe  Fe9  1  0.87500000  0.12500000  0.87500000  1
  Fe  Fe10  1  0.62500000  0.12500000  0.62500000  1
  Fe  Fe11  1  0.12500000  0.87500000  0.87500000  1
  Fe  Fe12  1  0.37500000  0.37500000  0.12500000  1
  Fe  Fe13  1  0.87500000  0.62500000  0.37500000  1
  Fe  Fe14  1  0.62500000  0.62500000  0.12500000  1
  Fe  Fe15  1  0.12500000  0.37500000  0.37500000  1
  F  F16  1  0.31354800  0.00000000  0.50000000  1
  F  F17  1  0.00000000  0.00000000  0.18645200  1
  F  F18  1  0.50000000  0.81354800  0.50000000  1
  F  F19  1  0.25000000  0.06354800  0.25000000  1
  F  F20  1  0.25000000  0.25000000  0.43645200  1
  F  F21  1  0.06354800  0.25000000  0.25000000  1
  F  F22  1  0.50000000  0.18645200  0.50000000  1
  F  F23  1  0.43645200  0.25000000  0.25000000  1
  F  F24  1  0.25000000  0.43645200  0.25000000  1
  F  F25  1  0.68645200  0.00000000  0.50000000  1
  F  F26  1  0.25000000  0.25000000  0.06354800  1
  F  F27  1  0.50000000  0.00000000  0.31354800  1
  F  F28  1  0.31354800  0.50000000  0.00000000  1
  F  F29  1  0.00000000  0.50000000  0.68645200  1
  F  F30  1  0.50000000  0.31354800  0.00000000  1
  F  F31  1  0.25000000  0.56354800  0.75000000  1
  F  F32  1  0.25000000  0.75000000  0.93645200  1
  F  F33  1  0.06354800  0.75000000  0.75000000  1
  F  F34  1  0.50000000  0.68645200  0.00000000  1
  F  F35  1  0.43645200  0.75000000  0.75000000  1
  F  F36  1  0.25000000  0.93645200  0.75000000  1
  F  F37  1  0.68645200  0.50000000  0.00000000  1
  F  F38  1  0.25000000  0.75000000  0.56354800  1
  F  F39  1  0.50000000  0.50000000  0.81354800  1
  F  F40  1  0.81354800  0.00000000  0.00000000  1
  F  F41  1  0.50000000  0.00000000  0.68645200  1
  F  F42  1  0.00000000  0.81354800  0.00000000  1
  F  F43  1  0.75000000  0.06354800  0.75000000  1
  F  F44  1  0.75000000  0.25000000  0.93645200  1
  F  F45  1  0.56354800  0.25000000  0.75000000  1
  F  F46  1  0.00000000  0.18645200  0.00000000  1
  F  F47  1  0.93645200  0.25000000  0.75000000  1
  F  F48  1  0.75000000  0.43645200  0.75000000  1
  F  F49  1  0.18645200  0.00000000  0.00000000  1
  F  F50  1  0.75000000  0.25000000  0.56354800  1
  F  F51  1  0.00000000  0.00000000  0.81354800  1
  F  F52  1  0.81354800  0.50000000  0.50000000  1
  F  F53  1  0.50000000  0.50000000  0.18645200  1
  F  F54  1  0.00000000  0.31354800  0.50000000  1
  F  F55  1  0.75000000  0.56354800  0.25000000  1
  F  F56  1  0.75000000  0.75000000  0.43645200  1
  F  F57  1  0.56354800  0.75000000  0.25000000  1
  F  F58  1  0.00000000  0.68645200  0.50000000  1
  F  F59  1  0.93645200  0.75000000  0.25000000  1
  F  F60  1  0.75000000  0.93645200  0.25000000  1
  F  F61  1  0.18645200  0.50000000  0.50000000  1
  F  F62  1  0.75000000  0.75000000  0.06354800  1
  F  F63  1  0.00000000  0.50000000  0.31354800  1
