# generated using pymatgen
data_CuO2
_symmetry_space_group_name_H-M   'P 1'
_cell_length_a   8.24746000
_cell_length_b   8.24746000
_cell_length_c   8.24746000
_cell_angle_alpha   90.00000000
_cell_angle_beta   90.00000000
_cell_angle_gamma   90.00000000
_symmetry_Int_Tables_number   1
_chemical_formula_structural   CuO2
_chemical_formula_sum   'Cu16 O32'
_cell_volume   560.99714841
_cell_formula_units_Z   16
loop_
 _symmetry_equiv_pos_site_id
 _symmetry_equiv_pos_as_xyz
  1  'x, y, z'
loop_
 _atom_site_type_symbol
 _atom_site_label
 _atom_site_symmetry_multiplicity
 _atom_site_fract_x
 _atom_site_fract_y
 _atom_site_fract_z
 _atom_site_occupancy
  Cu  Cu0  1  0.12500000  0.62500000  0.12500000  1
  Cu  Cu1  1  0.37500000  0.87500000  0.12500000  1
  Cu  Cu2  1  0.37500000  0.62500000  0.37500000  1
  Cu  Cu3  1  0.12500000  0.87500000  0.37500000  1
  Cu  Cu4  1  0.12500000  0.12500000  0.62500000  1
  Cu  Cu5  1  0.37500000  0.37500000  0.62500000  1
  Cu  Cu6  1  0.37500000  0.12500000  0.87500000  1
  Cu  Cu7  1  0.12500000  0.37500000  0.87500000  1
  Cu  Cu8  1  0.62500000  0.62500000  0.62500000  1
  Cu  Cu9  1  0.87500000  0.87500000  0.62500000  1
  Cu  Cu10  1  0.87500000  0.62500000  0.87500000  1
  Cu  Cu11  1  0.62500000  0.87500000  0.87500000  1
  Cu  Cu12  1  0.62500000  0.12500000  0.12500000  1
  Cu  Cu13  1  0.87500000  0.37500000  0.12500000  1
  Cu  Cu14  1  0.87500000  0.12500000  0.37500000  1
  Cu  Cu15  1  0.62500000  0.37500000  0.37500000  1
  O  O16  1  0.85930767  0.14069233  0.14069233  1
  O  O17  1  0.35930767  0.85930767  0.35930767  1
  O  O18  1  0.39069233  0.10930767  0.10930767  1
  O  O19  1  0.10930767  0.10930767  0.39069233  1
  O  O20  1  0.39069233  0.39069233  0.39069233  1
  O  O21  1  0.10930767  0.39069233  0.10930767  1
  O  O22  1  0.64069233  0.14069233  0.35930767  1
  O  O23  1  0.14069233  0.85930767  0.14069233  1
  O  O24  1  0.85930767  0.64069233  0.64069233  1
  O  O25  1  0.35930767  0.35930767  0.85930767  1
  O  O26  1  0.39069233  0.60930767  0.60930767  1
  O  O27  1  0.10930767  0.60930767  0.89069233  1
  O  O28  1  0.39069233  0.89069233  0.89069233  1
  O  O29  1  0.10930767  0.89069233  0.60930767  1
  O  O30  1  0.64069233  0.64069233  0.85930767  1
  O  O31  1  0.14069233  0.35930767  0.64069233  1
  O  O32  1  0.35930767  0.14069233  0.64069233  1
  O  O33  1  0.85930767  0.85930767  0.85930767  1
  O  O34  1  0.89069233  0.10930767  0.60930767  1
  O  O35  1  0.60930767  0.10930767  0.89069233  1
  O  O36  1  0.89069233  0.39069233  0.89069233  1
  O  O37  1  0.60930767  0.39069233  0.60930767  1
  O  O38  1  0.14069233  0.14069233  0.85930767  1
  O  O39  1  0.64069233  0.85930767  0.64069233  1
  O  O40  1  0.35930767  0.64069233  0.14069233  1
  O  O41  1  0.85930767  0.35930767  0.35930767  1
  O  O42  1  0.89069233  0.60930767  0.10930767  1
  O  O43  1  0.60930767  0.60930767  0.39069233  1
  O  O44  1  0.89069233  0.89069233  0.39069233  1
  O  O45  1  0.60930767  0.89069233  0.10930767  1
  O  O46  1  0.14069233  0.64069233  0.35930767  1
  O  O47  1  0.64069233  0.35930767  0.14069233  1
