# generated using pymatgen
data_BiPd
_symmetry_space_group_name_H-M   'P 1'
_cell_length_a   7.29214600
_cell_length_b   8.93178600
_cell_length_c   10.79936800
_cell_angle_alpha   90.00000000
_cell_angle_beta   90.00000000
_cell_angle_gamma   90.00000000
_symmetry_Int_Tables_number   1
_chemical_formula_structural   BiPd
_chemical_formula_sum   'Bi16 Pd16'
_cell_volume   703.38322222
_cell_formula_units_Z   16
loop_
 _symmetry_equiv_pos_site_id
 _symmetry_equiv_pos_as_xyz
  1  'x, y, z'
loop_
 _atom_site_type_symbol
 _atom_site_label
 _atom_site_symmetry_multiplicity
 _atom_site_fract_x
 _atom_site_fract_y
 _atom_site_fract_z
 _atom_site_occupancy
  Bi  Bi0  1  0.62296900  0.76953900  0.27927000  1
  Bi  Bi1  1  0.12272500  0.00000000  0.99366300  1
  Bi  Bi2  1  0.62296900  0.23046100  0.27927000  1
  Bi  Bi3  1  0.37703100  0.76953900  0.77927000  1
  Bi  Bi4  1  0.36703300  0.00000000  0.49868200  1
  Bi  Bi5  1  0.63296700  0.00000000  0.99868200  1
  Bi  Bi6  1  0.37703100  0.23046100  0.77927000  1
  Bi  Bi7  1  0.87727500  0.00000000  0.49366300  1
  Bi  Bi8  1  0.12296900  0.26953900  0.27927000  1
  Bi  Bi9  1  0.62272500  0.50000000  0.99366300  1
  Bi  Bi10  1  0.12296900  0.73046100  0.27927000  1
  Bi  Bi11  1  0.87703100  0.26953900  0.77927000  1
  Bi  Bi12  1  0.86703300  0.50000000  0.49868200  1
  Bi  Bi13  1  0.13296700  0.50000000  0.99868200  1
  Bi  Bi14  1  0.87703100  0.73046100  0.77927000  1
  Bi  Bi15  1  0.37727500  0.50000000  0.49366300  1
  Pd  Pd16  1  0.09063200  0.00000000  0.72112000  1
  Pd  Pd17  1  0.33218300  0.00000000  0.22800000  1
  Pd  Pd18  1  0.37765700  0.75440300  0.05599700  1
  Pd  Pd19  1  0.66781700  0.00000000  0.72800000  1
  Pd  Pd20  1  0.62234300  0.75440300  0.55599700  1
  Pd  Pd21  1  0.62234300  0.24559700  0.55599700  1
  Pd  Pd22  1  0.37765700  0.24559700  0.05599700  1
  Pd  Pd23  1  0.90936800  0.00000000  0.22112000  1
  Pd  Pd24  1  0.59063200  0.50000000  0.72112000  1
  Pd  Pd25  1  0.83218300  0.50000000  0.22800000  1
  Pd  Pd26  1  0.87765700  0.25440300  0.05599700  1
  Pd  Pd27  1  0.16781700  0.50000000  0.72800000  1
  Pd  Pd28  1  0.12234300  0.25440300  0.55599700  1
  Pd  Pd29  1  0.12234300  0.74559700  0.55599700  1
  Pd  Pd30  1  0.87765700  0.74559700  0.05599700  1
  Pd  Pd31  1  0.40936800  0.50000000  0.22112000  1
