# generated using pymatgen
data_LiMnO2
_symmetry_space_group_name_H-M   'P 1'
_cell_length_a   5.75779010
_cell_length_b   5.75779010
_cell_length_c   9.31507366
_cell_angle_alpha   90.00000000
_cell_angle_beta   90.00000000
_cell_angle_gamma   90.00000000
_symmetry_Int_Tables_number   1
_chemical_formula_structural   LiMnO2
_chemical_formula_sum   'Li8 Mn8 O16'
_cell_volume   308.81469025
_cell_formula_units_Z   8
loop_
 _symmetry_equiv_pos_site_id
 _symmetry_equiv_pos_as_xyz
  1  'x, y, z'
loop_
 _atom_site_type_symbol
 _atom_site_label
 _atom_site_symmetry_multiplicity
 _atom_site_fract_x
 _atom_site_fract_y
 _atom_site_fract_z
 _atom_site_occupancy
  Li  Li0  1  0.50000000  0.75000000  0.12500000  1
  Li  Li1  1  0.25000000  0.00000000  0.37500000  1
  Li  Li2  1  0.50000000  0.25000000  0.12500000  1
  Li  Li3  1  0.75000000  0.00000000  0.37500000  1
  Li  Li4  1  0.00000000  0.25000000  0.62500000  1
  Li  Li5  1  0.75000000  0.50000000  0.87500000  1
  Li  Li6  1  0.00000000  0.75000000  0.62500000  1
  Li  Li7  1  0.25000000  0.50000000  0.87500000  1
  Mn  Mn8  1  0.25000000  0.50000000  0.37500000  1
  Mn  Mn9  1  0.00000000  0.75000000  0.12500000  1
  Mn  Mn10  1  0.75000000  0.50000000  0.37500000  1
  Mn  Mn11  1  0.00000000  0.25000000  0.12500000  1
  Mn  Mn12  1  0.75000000  0.00000000  0.87500000  1
  Mn  Mn13  1  0.50000000  0.25000000  0.62500000  1
  Mn  Mn14  1  0.25000000  0.00000000  0.87500000  1
  Mn  Mn15  1  0.50000000  0.75000000  0.62500000  1
  O  O16  1  0.00000000  0.26936150  0.37574950  1
  O  O17  1  0.23063850  0.00000000  0.12574950  1
  O  O18  1  0.50000000  0.73063850  0.37425050  1
  O  O19  1  0.50000000  0.26936150  0.37425050  1
  O  O20  1  0.73063850  0.00000000  0.62425050  1
  O  O21  1  0.26936150  0.00000000  0.62425050  1
  O  O22  1  0.76936150  0.00000000  0.12574950  1
  O  O23  1  0.00000000  0.73063850  0.37574950  1
  O  O24  1  0.50000000  0.76936150  0.87574950  1
  O  O25  1  0.73063850  0.50000000  0.62574950  1
  O  O26  1  0.00000000  0.23063850  0.87425050  1
  O  O27  1  0.00000000  0.76936150  0.87425050  1
  O  O28  1  0.23063850  0.50000000  0.12425050  1
  O  O29  1  0.76936150  0.50000000  0.12425050  1
  O  O30  1  0.26936150  0.50000000  0.62574950  1
  O  O31  1  0.50000000  0.23063850  0.87574950  1
