# generated using pymatgen
data_Cs(MoO3)3
_symmetry_space_group_name_H-M   'P 1'
_cell_length_a   16.84731800
_cell_length_b   7.82810000
_cell_length_c   6.55514627
_cell_angle_alpha   90.00000000
_cell_angle_beta   93.93803022
_cell_angle_gamma   90.00000000
_symmetry_Int_Tables_number   1
_chemical_formula_structural   Cs(MoO3)3
_chemical_formula_sum   'Cs4 Mo12 O36'
_cell_volume   862.46783173
_cell_formula_units_Z   4
loop_
 _symmetry_equiv_pos_site_id
 _symmetry_equiv_pos_as_xyz
  1  'x, y, z'
loop_
 _atom_site_type_symbol
 _atom_site_label
 _atom_site_symmetry_multiplicity
 _atom_site_fract_x
 _atom_site_fract_y
 _atom_site_fract_z
 _atom_site_occupancy
  Cs  Cs0  1  0.79796500  0.50000000  0.17549400  1
  Cs  Cs1  1  0.70203500  0.00000000  0.82450600  1
  Cs  Cs2  1  0.29796500  0.00000000  0.17549400  1
  Cs  Cs3  1  0.20203500  0.50000000  0.82450600  1
  Mo  Mo4  1  0.94932850  0.73942150  0.73038100  1
  Mo  Mo5  1  0.55067150  0.23942150  0.26961900  1
  Mo  Mo6  1  0.55067150  0.76057850  0.26961900  1
  Mo  Mo7  1  0.94932850  0.26057850  0.73038100  1
  Mo  Mo8  1  0.60719000  0.50000000  0.64106400  1
  Mo  Mo9  1  0.89281000  0.00000000  0.35893600  1
  Mo  Mo10  1  0.44932850  0.23942150  0.73038100  1
  Mo  Mo11  1  0.05067150  0.73942150  0.26961900  1
  Mo  Mo12  1  0.05067150  0.26057850  0.26961900  1
  Mo  Mo13  1  0.44932850  0.76057850  0.73038100  1
  Mo  Mo14  1  0.10719000  0.00000000  0.64106400  1
  Mo  Mo15  1  0.39281000  0.50000000  0.35893600  1
  O  O16  1  0.92753100  0.76277400  0.41009900  1
  O  O17  1  0.57246900  0.26277400  0.58990100  1
  O  O18  1  0.57246900  0.73722600  0.58990100  1
  O  O19  1  0.92753100  0.23722600  0.41009900  1
  O  O20  1  0.85094600  0.73501000  0.78467800  1
  O  O21  1  0.64905400  0.23501000  0.21532200  1
  O  O22  1  0.64905400  0.76499000  0.21532200  1
  O  O23  1  0.85094600  0.26499000  0.78467800  1
  O  O24  1  0.00000000  0.25772900  0.00000000  1
  O  O25  1  0.00000000  0.74227100  0.00000000  1
  O  O26  1  0.80170400  0.00000000  0.46696700  1
  O  O27  1  0.69829600  0.50000000  0.53303300  1
  O  O28  1  0.86751500  0.00000000  0.09832100  1
  O  O29  1  0.63248500  0.50000000  0.90167900  1
  O  O30  1  0.96739800  0.50000000  0.70494200  1
  O  O31  1  0.53260200  0.00000000  0.29505800  1
  O  O32  1  0.96579400  0.00000000  0.69011100  1
  O  O33  1  0.53420600  0.50000000  0.30988900  1
  O  O34  1  0.42753100  0.26277400  0.41009900  1
  O  O35  1  0.07246900  0.76277400  0.58990100  1
  O  O36  1  0.07246900  0.23722600  0.58990100  1
  O  O37  1  0.42753100  0.73722600  0.41009900  1
  O  O38  1  0.35094600  0.23501000  0.78467800  1
  O  O39  1  0.14905400  0.73501000  0.21532200  1
  O  O40  1  0.14905400  0.26499000  0.21532200  1
  O  O41  1  0.35094600  0.76499000  0.78467800  1
  O  O42  1  0.50000000  0.75772900  0.00000000  1
  O  O43  1  0.50000000  0.24227100  0.00000000  1
  O  O44  1  0.30170400  0.50000000  0.46696700  1
  O  O45  1  0.19829600  0.00000000  0.53303300  1
  O  O46  1  0.36751500  0.50000000  0.09832100  1
  O  O47  1  0.13248500  0.00000000  0.90167900  1
  O  O48  1  0.46739800  0.00000000  0.70494200  1
  O  O49  1  0.03260200  0.50000000  0.29505800  1
  O  O50  1  0.46579400  0.50000000  0.69011100  1
  O  O51  1  0.03420600  0.00000000  0.30988900  1
