# generated using pymatgen
data_MnNb3O6
_symmetry_space_group_name_H-M   'P 1'
_cell_length_a   6.62617830
_cell_length_b   7.17741132
_cell_length_c   10.30086613
_cell_angle_alpha   90.00000000
_cell_angle_beta   90.00000000
_cell_angle_gamma   90.00000000
_symmetry_Int_Tables_number   1
_chemical_formula_structural   MnNb3O6
_chemical_formula_sum   'Mn4 Nb12 O24'
_cell_volume   489.89690596
_cell_formula_units_Z   4
loop_
 _symmetry_equiv_pos_site_id
 _symmetry_equiv_pos_as_xyz
  1  'x, y, z'
loop_
 _atom_site_type_symbol
 _atom_site_label
 _atom_site_symmetry_multiplicity
 _atom_site_fract_x
 _atom_site_fract_y
 _atom_site_fract_z
 _atom_site_occupancy
  Mn  Mn0  1  0.75290275  0.50000000  0.50000000  1
  Mn  Mn1  1  0.24709725  0.50000000  0.50000000  1
  Mn  Mn2  1  0.25290275  0.00000000  0.00000000  1
  Mn  Mn3  1  0.74709725  0.00000000  0.00000000  1
  Nb  Nb4  1  0.19820650  0.50000000  0.00000000  1
  Nb  Nb5  1  0.80179350  0.50000000  0.00000000  1
  Nb  Nb6  1  0.00000000  0.27896100  0.77771100  1
  Nb  Nb7  1  0.00000000  0.72103900  0.22228900  1
  Nb  Nb8  1  0.00000000  0.27896100  0.22228900  1
  Nb  Nb9  1  0.00000000  0.72103900  0.77771100  1
  Nb  Nb10  1  0.69820650  0.00000000  0.50000000  1
  Nb  Nb11  1  0.30179350  0.00000000  0.50000000  1
  Nb  Nb12  1  0.50000000  0.77896100  0.27771100  1
  Nb  Nb13  1  0.50000000  0.22103900  0.72228900  1
  Nb  Nb14  1  0.50000000  0.77896100  0.72228900  1
  Nb  Nb15  1  0.50000000  0.22103900  0.27771100  1
  O  O16  1  0.50000000  0.50000000  0.64516125  1
  O  O17  1  0.50000000  0.50000000  0.35483875  1
  O  O18  1  0.00000000  0.50000000  0.65035675  1
  O  O19  1  0.00000000  0.50000000  0.34964325  1
  O  O20  1  0.27672000  0.69566475  0.86583175  1
  O  O21  1  0.27672000  0.30433525  0.13416825  1
  O  O22  1  0.72328000  0.69566475  0.13416825  1
  O  O23  1  0.72328000  0.30433525  0.86583175  1
  O  O24  1  0.72328000  0.30433525  0.13416825  1
  O  O25  1  0.72328000  0.69566475  0.86583175  1
  O  O26  1  0.27672000  0.30433525  0.86583175  1
  O  O27  1  0.27672000  0.69566475  0.13416825  1
  O  O28  1  0.00000000  0.00000000  0.14516125  1
  O  O29  1  0.00000000  0.00000000  0.85483875  1
  O  O30  1  0.50000000  0.00000000  0.15035675  1
  O  O31  1  0.50000000  0.00000000  0.84964325  1
  O  O32  1  0.77672000  0.19566475  0.36583175  1
  O  O33  1  0.77672000  0.80433525  0.63416825  1
  O  O34  1  0.22328000  0.19566475  0.63416825  1
  O  O35  1  0.22328000  0.80433525  0.36583175  1
  O  O36  1  0.22328000  0.80433525  0.63416825  1
  O  O37  1  0.22328000  0.19566475  0.36583175  1
  O  O38  1  0.77672000  0.80433525  0.36583175  1
  O  O39  1  0.77672000  0.19566475  0.63416825  1
