# generated using pymatgen
data_Mn3Se3O10
_symmetry_space_group_name_H-M   'P 1'
_cell_length_a   16.11730000
_cell_length_b   6.80212400
_cell_length_c   9.94040169
_cell_angle_alpha   90.00000000
_cell_angle_beta   119.31056152
_cell_angle_gamma   90.00000000
_symmetry_Int_Tables_number   1
_chemical_formula_structural   Mn3Se3O10
_chemical_formula_sum   'Mn12 Se12 O40'
_cell_volume   950.26956195
_cell_formula_units_Z   4
loop_
 _symmetry_equiv_pos_site_id
 _symmetry_equiv_pos_as_xyz
  1  'x, y, z'
loop_
 _atom_site_type_symbol
 _atom_site_label
 _atom_site_symmetry_multiplicity
 _atom_site_fract_x
 _atom_site_fract_y
 _atom_site_fract_z
 _atom_site_occupancy
  Mn  Mn0  1  0.25000000  0.75000000  0.50000000  1
  Mn  Mn1  1  0.25000000  0.25000000  0.50000000  1
  Mn  Mn2  1  0.38284600  0.00000000  0.91524100  1
  Mn  Mn3  1  0.61715400  0.00000000  0.08475900  1
  Mn  Mn4  1  0.75000000  0.25000000  0.00000000  1
  Mn  Mn5  1  0.75000000  0.75000000  0.00000000  1
  Mn  Mn6  1  0.75000000  0.25000000  0.50000000  1
  Mn  Mn7  1  0.75000000  0.75000000  0.50000000  1
  Mn  Mn8  1  0.88284600  0.50000000  0.91524100  1
  Mn  Mn9  1  0.11715400  0.50000000  0.08475900  1
  Mn  Mn10  1  0.25000000  0.75000000  0.00000000  1
  Mn  Mn11  1  0.25000000  0.25000000  0.00000000  1
  Se  Se12  1  0.96870100  0.50000000  0.66731600  1
  Se  Se13  1  0.03129900  0.50000000  0.33268400  1
  Se  Se14  1  0.13950300  0.00000000  0.67304300  1
  Se  Se15  1  0.86049700  0.00000000  0.32695700  1
  Se  Se16  1  0.61372600  0.50000000  0.17062900  1
  Se  Se17  1  0.38627400  0.50000000  0.82937100  1
  Se  Se18  1  0.46870100  0.00000000  0.66731600  1
  Se  Se19  1  0.53129900  0.00000000  0.33268400  1
  Se  Se20  1  0.63950300  0.50000000  0.67304300  1
  Se  Se21  1  0.36049700  0.50000000  0.32695700  1
  Se  Se22  1  0.11372600  0.00000000  0.17062900  1
  Se  Se23  1  0.88627400  0.00000000  0.82937100  1
  O  O24  1  0.19257600  0.50000000  0.98494200  1
  O  O25  1  0.80742400  0.50000000  0.01505800  1
  O  O26  1  0.28380400  0.50000000  0.65180900  1
  O  O27  1  0.71619600  0.50000000  0.34819100  1
  O  O28  1  0.24918300  0.00000000  0.67049100  1
  O  O29  1  0.75081700  0.00000000  0.32950900  1
  O  O30  1  0.01697400  0.50000000  0.14029400  1
  O  O31  1  0.98302600  0.50000000  0.85970600  1
  O  O32  1  0.63726250  0.30433450  0.08094900  1
  O  O33  1  0.36273750  0.30433450  0.91905100  1
  O  O34  1  0.36273750  0.69566550  0.91905100  1
  O  O35  1  0.63726250  0.69566550  0.08094900  1
  O  O36  1  0.89698650  0.70059850  0.59192200  1
  O  O37  1  0.10301350  0.70059850  0.40807800  1
  O  O38  1  0.10301350  0.29940150  0.40807800  1
  O  O39  1  0.89698650  0.29940150  0.59192200  1
  O  O40  1  0.15017150  0.79904950  0.78576000  1
  O  O41  1  0.84982850  0.20095050  0.21424000  1
  O  O42  1  0.84982850  0.79904950  0.21424000  1
  O  O43  1  0.15017150  0.20095050  0.78576000  1
  O  O44  1  0.69257600  0.00000000  0.98494200  1
  O  O45  1  0.30742400  0.00000000  0.01505800  1
  O  O46  1  0.78380400  0.00000000  0.65180900  1
  O  O47  1  0.21619600  0.00000000  0.34819100  1
  O  O48  1  0.74918300  0.50000000  0.67049100  1
  O  O49  1  0.25081700  0.50000000  0.32950900  1
  O  O50  1  0.51697400  0.00000000  0.14029400  1
  O  O51  1  0.48302600  0.00000000  0.85970600  1
  O  O52  1  0.13726250  0.80433450  0.08094900  1
  O  O53  1  0.86273750  0.80433450  0.91905100  1
  O  O54  1  0.86273750  0.19566550  0.91905100  1
  O  O55  1  0.13726250  0.19566550  0.08094900  1
  O  O56  1  0.39698650  0.20059850  0.59192200  1
  O  O57  1  0.60301350  0.20059850  0.40807800  1
  O  O58  1  0.60301350  0.79940150  0.40807800  1
  O  O59  1  0.39698650  0.79940150  0.59192200  1
  O  O60  1  0.65017150  0.29904950  0.78576000  1
  O  O61  1  0.34982850  0.70095050  0.21424000  1
  O  O62  1  0.34982850  0.29904950  0.21424000  1
  O  O63  1  0.65017150  0.70095050  0.78576000  1
