# generated using pymatgen
data_Ce2Br3N
_symmetry_space_group_name_H-M   'P 1'
_cell_length_a   14.77279400
_cell_length_b   14.77279400
_cell_length_c   12.03561000
_cell_angle_alpha   90.00000000
_cell_angle_beta   90.00000000
_cell_angle_gamma   90.00000000
_symmetry_Int_Tables_number   1
_chemical_formula_structural   Ce2Br3N
_chemical_formula_sum   'Ce32 Br48 N16'
_cell_volume   2626.59667491
_cell_formula_units_Z   16
loop_
 _symmetry_equiv_pos_site_id
 _symmetry_equiv_pos_as_xyz
  1  'x, y, z'
loop_
 _atom_site_type_symbol
 _atom_site_label
 _atom_site_symmetry_multiplicity
 _atom_site_fract_x
 _atom_site_fract_y
 _atom_site_fract_z
 _atom_site_occupancy
  Ce  Ce0  1  0.62905100  0.27590300  0.12204300  1
  Ce  Ce1  1  0.83117600  0.16013900  0.17626100  1
  Ce  Ce2  1  0.16882400  0.83986100  0.17626100  1
  Ce  Ce3  1  0.37094900  0.22409700  0.62795700  1
  Ce  Ce4  1  0.66013900  0.66882400  0.32373900  1
  Ce  Ce5  1  0.72409700  0.12905100  0.87204300  1
  Ce  Ce6  1  0.37094900  0.72409700  0.12204300  1
  Ce  Ce7  1  0.22409700  0.12905100  0.37795700  1
  Ce  Ce8  1  0.27590300  0.87094900  0.87204300  1
  Ce  Ce9  1  0.33117600  0.16013900  0.07373900  1
  Ce  Ce10  1  0.33986100  0.83117600  0.42626100  1
  Ce  Ce11  1  0.62905100  0.77590300  0.62795700  1
  Ce  Ce12  1  0.66013900  0.16882400  0.42626100  1
  Ce  Ce13  1  0.33986100  0.33117600  0.32373900  1
  Ce  Ce14  1  0.77590300  0.87094900  0.37795700  1
  Ce  Ce15  1  0.66882400  0.83986100  0.07373900  1
  Ce  Ce16  1  0.12905100  0.77590300  0.62204300  1
  Ce  Ce17  1  0.33117600  0.66013900  0.67626100  1
  Ce  Ce18  1  0.66882400  0.33986100  0.67626100  1
  Ce  Ce19  1  0.87094900  0.72409700  0.12795700  1
  Ce  Ce20  1  0.16013900  0.16882400  0.82373900  1
  Ce  Ce21  1  0.22409700  0.62905100  0.37204300  1
  Ce  Ce22  1  0.87094900  0.22409700  0.62204300  1
  Ce  Ce23  1  0.72409700  0.62905100  0.87795700  1
  Ce  Ce24  1  0.77590300  0.37094900  0.37204300  1
  Ce  Ce25  1  0.83117600  0.66013900  0.57373900  1
  Ce  Ce26  1  0.83986100  0.33117600  0.92626100  1
  Ce  Ce27  1  0.12905100  0.27590300  0.12795700  1
  Ce  Ce28  1  0.16013900  0.66882400  0.92626100  1
  Ce  Ce29  1  0.83986100  0.83117600  0.82373900  1
  Ce  Ce30  1  0.27590300  0.37094900  0.87795700  1
  Ce  Ce31  1  0.16882400  0.33986100  0.57373900  1
  Br  Br32  1  0.62814500  0.95765700  0.51467000  1
  Br  Br33  1  0.37185500  0.04234300  0.51467000  1
  Br  Br34  1  0.34563500  0.08041700  0.81865600  1
  Br  Br35  1  0.51622100  0.32527600  0.48056300  1
  Br  Br36  1  0.45765700  0.87185500  0.98533000  1
  Br  Br37  1  0.48377900  0.67472400  0.48056300  1
  Br  Br38  1  0.65436500  0.91958300  0.81865600  1
  Br  Br39  1  0.82527600  0.98377900  0.01943700  1
  Br  Br40  1  0.17472400  0.01622100  0.01943700  1
  Br  Br41  1  0.48377900  0.17472400  0.26943700  1
  Br  Br42  1  0.58041700  0.15436500  0.68134400  1
  Br  Br43  1  0.87185500  0.04234300  0.73533000  1
  Br  Br44  1  0.12814500  0.95765700  0.73533000  1
  Br  Br45  1  0.41958300  0.34563500  0.06865600  1
  Br  Br46  1  0.54234300  0.12814500  0.98533000  1
  Br  Br47  1  0.54234300  0.62814500  0.76467000  1
  Br  Br48  1  0.15436500  0.91958300  0.43134400  1
  Br  Br49  1  0.45765700  0.37185500  0.76467000  1
  Br  Br50  1  0.51622100  0.82527600  0.26943700  1
  Br  Br51  1  0.58041700  0.65436500  0.06865600  1
  Br  Br52  1  0.67472400  0.01622100  0.23056300  1
  Br  Br53  1  0.41958300  0.84563500  0.68134400  1
  Br  Br54  1  0.84563500  0.08041700  0.43134400  1
  Br  Br55  1  0.32527600  0.98377900  0.23056300  1
  Br  Br56  1  0.12814500  0.45765700  0.01467000  1
  Br  Br57  1  0.87185500  0.54234300  0.01467000  1
  Br  Br58  1  0.84563500  0.58041700  0.31865600  1
  Br  Br59  1  0.01622100  0.82527600  0.98056300  1
  Br  Br60  1  0.95765700  0.37185500  0.48533000  1
  Br  Br61  1  0.98377900  0.17472400  0.98056300  1
  Br  Br62  1  0.15436500  0.41958300  0.31865600  1
  Br  Br63  1  0.32527600  0.48377900  0.51943700  1
  Br  Br64  1  0.67472400  0.51622100  0.51943700  1
  Br  Br65  1  0.98377900  0.67472400  0.76943700  1
  Br  Br66  1  0.08041700  0.65436500  0.18134400  1
  Br  Br67  1  0.37185500  0.54234300  0.23533000  1
  Br  Br68  1  0.62814500  0.45765700  0.23533000  1
  Br  Br69  1  0.91958300  0.84563500  0.56865600  1
  Br  Br70  1  0.04234300  0.62814500  0.48533000  1
  Br  Br71  1  0.04234300  0.12814500  0.26467000  1
  Br  Br72  1  0.65436500  0.41958300  0.93134400  1
  Br  Br73  1  0.95765700  0.87185500  0.26467000  1
  Br  Br74  1  0.01622100  0.32527600  0.76943700  1
  Br  Br75  1  0.08041700  0.15436500  0.56865600  1
  Br  Br76  1  0.17472400  0.51622100  0.73056300  1
  Br  Br77  1  0.91958300  0.34563500  0.18134400  1
  Br  Br78  1  0.34563500  0.58041700  0.93134400  1
  Br  Br79  1  0.82527600  0.48377900  0.73056300  1
  N  N80  1  0.27877150  0.75579650  0.27578150  1
  N  N81  1  0.25579650  0.22122850  0.22421850  1
  N  N82  1  0.75579650  0.22122850  0.02578150  1
  N  N83  1  0.24420350  0.77877150  0.02578150  1
  N  N84  1  0.72122850  0.24420350  0.27578150  1
  N  N85  1  0.72122850  0.74420350  0.47421850  1
  N  N86  1  0.27877150  0.25579650  0.47421850  1
  N  N87  1  0.74420350  0.77877150  0.22421850  1
  N  N88  1  0.77877150  0.25579650  0.77578150  1
  N  N89  1  0.75579650  0.72122850  0.72421850  1
  N  N90  1  0.25579650  0.72122850  0.52578150  1
  N  N91  1  0.74420350  0.27877150  0.52578150  1
  N  N92  1  0.22122850  0.74420350  0.77578150  1
  N  N93  1  0.22122850  0.24420350  0.97421850  1
  N  N94  1  0.77877150  0.75579650  0.97421850  1
  N  N95  1  0.24420350  0.27877150  0.72421850  1
