# generated using pymatgen
data_K2Mo3O10
_symmetry_space_group_name_H-M   'P 1'
_cell_length_a   14.37073400
_cell_length_b   8.11290200
_cell_length_c   9.11506442
_cell_angle_alpha   90.00000000
_cell_angle_beta   98.76287597
_cell_angle_gamma   90.00000000
_symmetry_Int_Tables_number   1
_chemical_formula_structural   K2Mo3O10
_chemical_formula_sum   'K8 Mo12 O40'
_cell_volume   1050.30568078
_cell_formula_units_Z   4
loop_
 _symmetry_equiv_pos_site_id
 _symmetry_equiv_pos_as_xyz
  1  'x, y, z'
loop_
 _atom_site_type_symbol
 _atom_site_label
 _atom_site_symmetry_multiplicity
 _atom_site_fract_x
 _atom_site_fract_y
 _atom_site_fract_z
 _atom_site_occupancy
  K  K0  1  0.68443500  0.09410100  0.15623600  1
  K  K1  1  0.81556500  0.59410100  0.34376400  1
  K  K2  1  0.81556500  0.40589900  0.84376400  1
  K  K3  1  0.68443500  0.90589900  0.65623600  1
  K  K4  1  0.18443500  0.59410100  0.15623600  1
  K  K5  1  0.31556500  0.09410100  0.34376400  1
  K  K6  1  0.31556500  0.90589900  0.84376400  1
  K  K7  1  0.18443500  0.40589900  0.65623600  1
  Mo  Mo8  1  0.89253450  0.07708150  0.48105200  1
  Mo  Mo9  1  0.60746550  0.57708150  0.01894800  1
  Mo  Mo10  1  0.60746550  0.42291850  0.51894800  1
  Mo  Mo11  1  0.89253450  0.92291850  0.98105200  1
  Mo  Mo12  1  0.00000000  0.70042200  0.75000000  1
  Mo  Mo13  1  0.00000000  0.29957800  0.25000000  1
  Mo  Mo14  1  0.39253450  0.57708150  0.48105200  1
  Mo  Mo15  1  0.10746550  0.07708150  0.01894800  1
  Mo  Mo16  1  0.10746550  0.92291850  0.51894800  1
  Mo  Mo17  1  0.39253450  0.42291850  0.98105200  1
  Mo  Mo18  1  0.50000000  0.20042200  0.75000000  1
  Mo  Mo19  1  0.50000000  0.79957800  0.25000000  1
  O  O20  1  0.79613450  0.05205850  0.91960300  1
  O  O21  1  0.70386550  0.55205850  0.58039700  1
  O  O22  1  0.70386550  0.44794150  0.08039700  1
  O  O23  1  0.79613450  0.94794150  0.41960300  1
  O  O24  1  0.97501950  0.08864250  0.09045900  1
  O  O25  1  0.52498050  0.58864250  0.40954100  1
  O  O26  1  0.52498050  0.41135750  0.90954100  1
  O  O27  1  0.97501950  0.91135750  0.59045900  1
  O  O28  1  0.86309850  0.19201850  0.62846800  1
  O  O29  1  0.63690150  0.69201850  0.87153200  1
  O  O30  1  0.63690150  0.30798150  0.37153200  1
  O  O31  1  0.86309850  0.80798150  0.12846800  1
  O  O32  1  0.61979400  0.26007800  0.67695200  1
  O  O33  1  0.88020600  0.76007800  0.82304800  1
  O  O34  1  0.88020600  0.23992200  0.32304800  1
  O  O35  1  0.61979400  0.73992200  0.17695200  1
  O  O36  1  0.55532750  0.06670350  0.88575600  1
  O  O37  1  0.94467250  0.56670350  0.61424400  1
  O  O38  1  0.94467250  0.43329650  0.11424400  1
  O  O39  1  0.55532750  0.93329650  0.38575600  1
  O  O40  1  0.29613450  0.55205850  0.91960300  1
  O  O41  1  0.20386550  0.05205850  0.58039700  1
  O  O42  1  0.20386550  0.94794150  0.08039700  1
  O  O43  1  0.29613450  0.44794150  0.41960300  1
  O  O44  1  0.47501950  0.58864250  0.09045900  1
  O  O45  1  0.02498050  0.08864250  0.40954100  1
  O  O46  1  0.02498050  0.91135750  0.90954100  1
  O  O47  1  0.47501950  0.41135750  0.59045900  1
  O  O48  1  0.36309850  0.69201850  0.62846800  1
  O  O49  1  0.13690150  0.19201850  0.87153200  1
  O  O50  1  0.13690150  0.80798150  0.37153200  1
  O  O51  1  0.36309850  0.30798150  0.12846800  1
  O  O52  1  0.11979400  0.76007800  0.67695200  1
  O  O53  1  0.38020600  0.26007800  0.82304800  1
  O  O54  1  0.38020600  0.73992200  0.32304800  1
  O  O55  1  0.11979400  0.23992200  0.17695200  1
  O  O56  1  0.05532750  0.56670350  0.88575600  1
  O  O57  1  0.44467250  0.06670350  0.61424400  1
  O  O58  1  0.44467250  0.93329650  0.11424400  1
  O  O59  1  0.05532750  0.43329650  0.38575600  1
