# generated using pymatgen
data_Ba6Na16N
_symmetry_space_group_name_H-M   'P 1'
_cell_length_a   12.40869200
_cell_length_b   12.40869200
_cell_length_c   12.40869200
_cell_angle_alpha   90.00000000
_cell_angle_beta   90.00000000
_cell_angle_gamma   90.00000000
_symmetry_Int_Tables_number   1
_chemical_formula_structural   Ba6Na16N
_chemical_formula_sum   'Ba12 Na32 N2'
_cell_volume   1910.63625691
_cell_formula_units_Z   2
loop_
 _symmetry_equiv_pos_site_id
 _symmetry_equiv_pos_as_xyz
  1  'x, y, z'
loop_
 _atom_site_type_symbol
 _atom_site_label
 _atom_site_symmetry_multiplicity
 _atom_site_fract_x
 _atom_site_fract_y
 _atom_site_fract_z
 _atom_site_occupancy
  Ba  Ba0  1  0.00000000  0.00000000  0.22908400  1
  Ba  Ba1  1  0.22908400  0.00000000  0.00000000  1
  Ba  Ba2  1  0.77091600  0.00000000  0.00000000  1
  Ba  Ba3  1  0.00000000  0.77091600  0.00000000  1
  Ba  Ba4  1  0.00000000  0.22908400  0.00000000  1
  Ba  Ba5  1  0.00000000  0.00000000  0.77091600  1
  Ba  Ba6  1  0.50000000  0.50000000  0.72908400  1
  Ba  Ba7  1  0.72908400  0.50000000  0.50000000  1
  Ba  Ba8  1  0.27091600  0.50000000  0.50000000  1
  Ba  Ba9  1  0.50000000  0.27091600  0.50000000  1
  Ba  Ba10  1  0.50000000  0.72908400  0.50000000  1
  Ba  Ba11  1  0.50000000  0.50000000  0.27091600  1
  Na  Na12  1  0.25000000  0.25000000  0.25000000  1
  Na  Na13  1  0.25000000  0.25000000  0.75000000  1
  Na  Na14  1  0.75000000  0.25000000  0.25000000  1
  Na  Na15  1  0.25000000  0.75000000  0.25000000  1
  Na  Na16  1  0.34761750  0.00000000  0.34761750  1
  Na  Na17  1  0.84761750  0.50000000  0.15238250  1
  Na  Na18  1  0.15238250  0.50000000  0.84761750  1
  Na  Na19  1  0.84761750  0.15238250  0.50000000  1
  Na  Na20  1  0.34761750  0.34761750  0.00000000  1
  Na  Na21  1  0.00000000  0.34761750  0.34761750  1
  Na  Na22  1  0.50000000  0.15238250  0.84761750  1
  Na  Na23  1  0.50000000  0.15238250  0.15238250  1
  Na  Na24  1  0.15238250  0.84761750  0.50000000  1
  Na  Na25  1  0.50000000  0.84761750  0.15238250  1
  Na  Na26  1  0.15238250  0.15238250  0.50000000  1
  Na  Na27  1  0.15238250  0.50000000  0.15238250  1
  Na  Na28  1  0.75000000  0.75000000  0.75000000  1
  Na  Na29  1  0.75000000  0.75000000  0.25000000  1
  Na  Na30  1  0.25000000  0.75000000  0.75000000  1
  Na  Na31  1  0.75000000  0.25000000  0.75000000  1
  Na  Na32  1  0.84761750  0.50000000  0.84761750  1
  Na  Na33  1  0.34761750  0.00000000  0.65238250  1
  Na  Na34  1  0.65238250  0.00000000  0.34761750  1
  Na  Na35  1  0.34761750  0.65238250  0.00000000  1
  Na  Na36  1  0.84761750  0.84761750  0.50000000  1
  Na  Na37  1  0.50000000  0.84761750  0.84761750  1
  Na  Na38  1  0.00000000  0.65238250  0.34761750  1
  Na  Na39  1  0.00000000  0.65238250  0.65238250  1
  Na  Na40  1  0.65238250  0.34761750  0.00000000  1
  Na  Na41  1  0.00000000  0.34761750  0.65238250  1
  Na  Na42  1  0.65238250  0.65238250  0.00000000  1
  Na  Na43  1  0.65238250  0.00000000  0.65238250  1
  N  N44  1  0.00000000  0.00000000  0.00000000  1
  N  N45  1  0.50000000  0.50000000  0.50000000  1
