# generated using pymatgen
data_Na2ErMoPO8
_symmetry_space_group_name_H-M   'P 1'
_cell_length_a   6.90410800
_cell_length_b   12.15422800
_cell_length_c   18.20814800
_cell_angle_alpha   90.00000000
_cell_angle_beta   90.00000000
_cell_angle_gamma   90.00000000
_symmetry_Int_Tables_number   1
_chemical_formula_structural   Na2ErMoPO8
_chemical_formula_sum   'Na16 Er8 Mo8 P8 O64'
_cell_volume   1527.92040250
_cell_formula_units_Z   8
loop_
 _symmetry_equiv_pos_site_id
 _symmetry_equiv_pos_as_xyz
  1  'x, y, z'
loop_
 _atom_site_type_symbol
 _atom_site_label
 _atom_site_symmetry_multiplicity
 _atom_site_fract_x
 _atom_site_fract_y
 _atom_site_fract_z
 _atom_site_occupancy
  Na  Na0  1  0.50433600  0.44556400  0.34598900  1
  Na  Na1  1  0.49566400  0.44556400  0.84598900  1
  Na  Na2  1  0.49566400  0.55443600  0.65401100  1
  Na  Na3  1  0.00433600  0.44556400  0.15401100  1
  Na  Na4  1  0.00433600  0.55443600  0.34598900  1
  Na  Na5  1  0.50433600  0.55443600  0.15401100  1
  Na  Na6  1  0.99566400  0.44556400  0.65401100  1
  Na  Na7  1  0.99566400  0.55443600  0.84598900  1
  Na  Na8  1  0.00433600  0.94556400  0.84598900  1
  Na  Na9  1  0.99566400  0.94556400  0.34598900  1
  Na  Na10  1  0.99566400  0.05443600  0.15401100  1
  Na  Na11  1  0.50433600  0.94556400  0.65401100  1
  Na  Na12  1  0.50433600  0.05443600  0.84598900  1
  Na  Na13  1  0.00433600  0.05443600  0.65401100  1
  Na  Na14  1  0.49566400  0.94556400  0.15401100  1
  Na  Na15  1  0.49566400  0.05443600  0.34598900  1
  Er  Er16  1  0.75000000  0.32172900  0.00000000  1
  Er  Er17  1  0.25000000  0.17827100  0.00000000  1
  Er  Er18  1  0.25000000  0.67827100  0.00000000  1
  Er  Er19  1  0.75000000  0.82172900  0.00000000  1
  Er  Er20  1  0.25000000  0.82172900  0.50000000  1
  Er  Er21  1  0.75000000  0.67827100  0.50000000  1
  Er  Er22  1  0.75000000  0.17827100  0.50000000  1
  Er  Er23  1  0.25000000  0.32172900  0.50000000  1
  Mo  Mo24  1  0.00000000  0.75000000  0.17699100  1
  Mo  Mo25  1  0.00000000  0.25000000  0.82300900  1
  Mo  Mo26  1  0.50000000  0.75000000  0.82300900  1
  Mo  Mo27  1  0.50000000  0.25000000  0.17699100  1
  Mo  Mo28  1  0.50000000  0.25000000  0.67699100  1
  Mo  Mo29  1  0.50000000  0.75000000  0.32300900  1
  Mo  Mo30  1  0.00000000  0.25000000  0.32300900  1
  Mo  Mo31  1  0.00000000  0.75000000  0.67699100  1
  P  P32  1  0.75000000  0.06877200  0.00000000  1
  P  P33  1  0.25000000  0.93122800  0.00000000  1
  P  P34  1  0.75000000  0.56877200  0.00000000  1
  P  P35  1  0.25000000  0.43122800  0.00000000  1
  P  P36  1  0.25000000  0.56877200  0.50000000  1
  P  P37  1  0.75000000  0.43122800  0.50000000  1
  P  P38  1  0.25000000  0.06877200  0.50000000  1
  P  P39  1  0.75000000  0.93122800  0.50000000  1
  O  O40  1  0.54229500  0.62964000  0.76918300  1
  O  O41  1  0.75940750  0.49239850  0.06795150  1
  O  O42  1  0.95770500  0.62964000  0.23081700  1
  O  O43  1  0.75940750  0.50760150  0.43204850  1
  O  O44  1  0.04229500  0.62964000  0.73081700  1
  O  O45  1  0.57435300  0.14870300  0.99316700  1
  O  O46  1  0.78862150  0.27492750  0.87975550  1
  O  O47  1  0.25940750  0.49239850  0.43204850  1
  O  O48  1  0.21137850  0.22507250  0.87975550  1
  O  O49  1  0.57435300  0.64870300  0.00683300  1
  O  O50  1  0.24059250  0.50760150  0.93204850  1
  O  O51  1  0.42564700  0.85129700  0.00683300  1
  O  O52  1  0.54229500  0.37036000  0.73081700  1
  O  O53  1  0.28862150  0.72507250  0.87975550  1
  O  O54  1  0.74059250  0.50760150  0.56795150  1
  O  O55  1  0.71137850  0.77492750  0.87975550  1
  O  O56  1  0.45770500  0.62964000  0.26918300  1
  O  O57  1  0.45770500  0.37036000  0.23081700  1
  O  O58  1  0.28862150  0.22507250  0.12024450  1
  O  O59  1  0.07435300  0.85129700  0.99316700  1
  O  O60  1  0.24059250  0.49239850  0.56795150  1
  O  O61  1  0.42564700  0.35129700  0.99316700  1
  O  O62  1  0.74059250  0.49239850  0.93204850  1
  O  O63  1  0.71137850  0.27492750  0.12024450  1
  O  O64  1  0.07435300  0.35129700  0.00683300  1
  O  O65  1  0.78862150  0.77492750  0.12024450  1
  O  O66  1  0.25940750  0.50760150  0.06795150  1
  O  O67  1  0.04229500  0.37036000  0.76918300  1
  O  O68  1  0.92564700  0.14870300  0.00683300  1
  O  O69  1  0.92564700  0.64870300  0.99316700  1
  O  O70  1  0.21137850  0.72507250  0.12024450  1
  O  O71  1  0.95770500  0.37036000  0.26918300  1
  O  O72  1  0.04229500  0.12964000  0.26918300  1
  O  O73  1  0.25940750  0.99239850  0.56795150  1
  O  O74  1  0.45770500  0.12964000  0.73081700  1
  O  O75  1  0.25940750  0.00760150  0.93204850  1
  O  O76  1  0.54229500  0.12964000  0.23081700  1
  O  O77  1  0.07435300  0.64870300  0.49316700  1
  O  O78  1  0.28862150  0.77492750  0.37975550  1
  O  O79  1  0.75940750  0.99239850  0.93204850  1
  O  O80  1  0.71137850  0.72507250  0.37975550  1
  O  O81  1  0.07435300  0.14870300  0.50683300  1
  O  O82  1  0.74059250  0.00760150  0.43204850  1
  O  O83  1  0.92564700  0.35129700  0.50683300  1
  O  O84  1  0.04229500  0.87036000  0.23081700  1
  O  O85  1  0.78862150  0.22507250  0.37975550  1
  O  O86  1  0.24059250  0.00760150  0.06795150  1
  O  O87  1  0.21137850  0.27492750  0.37975550  1
  O  O88  1  0.95770500  0.12964000  0.76918300  1
  O  O89  1  0.95770500  0.87036000  0.73081700  1
  O  O90  1  0.78862150  0.72507250  0.62024450  1
  O  O91  1  0.57435300  0.35129700  0.49316700  1
  O  O92  1  0.74059250  0.99239850  0.06795150  1
  O  O93  1  0.92564700  0.85129700  0.49316700  1
  O  O94  1  0.24059250  0.99239850  0.43204850  1
  O  O95  1  0.21137850  0.77492750  0.62024450  1
  O  O96  1  0.57435300  0.85129700  0.50683300  1
  O  O97  1  0.28862150  0.27492750  0.62024450  1
  O  O98  1  0.75940750  0.00760150  0.56795150  1
  O  O99  1  0.54229500  0.87036000  0.26918300  1
  O  O100  1  0.42564700  0.64870300  0.50683300  1
  O  O101  1  0.42564700  0.14870300  0.49316700  1
  O  O102  1  0.71137850  0.22507250  0.62024450  1
  O  O103  1  0.45770500  0.87036000  0.76918300  1
