# generated using pymatgen
data_MoPb3Cl2O5
_symmetry_space_group_name_H-M   'P 1'
_cell_length_a   5.68677600
_cell_length_b   13.36128400
_cell_length_c   11.21520200
_cell_angle_alpha   90.00000000
_cell_angle_beta   90.00000000
_cell_angle_gamma   90.00000000
_symmetry_Int_Tables_number   1
_chemical_formula_structural   MoPb3Cl2O5
_chemical_formula_sum   'Mo4 Pb12 Cl8 O20'
_cell_volume   852.16053475
_cell_formula_units_Z   4
loop_
 _symmetry_equiv_pos_site_id
 _symmetry_equiv_pos_as_xyz
  1  'x, y, z'
loop_
 _atom_site_type_symbol
 _atom_site_label
 _atom_site_symmetry_multiplicity
 _atom_site_fract_x
 _atom_site_fract_y
 _atom_site_fract_z
 _atom_site_occupancy
  Mo  Mo0  1  0.00000000  0.23416000  0.75000000  1
  Mo  Mo1  1  0.50000000  0.26584000  0.25000000  1
  Mo  Mo2  1  0.50000000  0.73416000  0.75000000  1
  Mo  Mo3  1  0.00000000  0.76584000  0.25000000  1
  Pb  Pb4  1  0.00000000  0.34741600  0.03125600  1
  Pb  Pb5  1  0.50000000  0.15258400  0.53125600  1
  Pb  Pb6  1  0.00000000  0.34741600  0.46874400  1
  Pb  Pb7  1  0.00000000  0.10164600  0.25000000  1
  Pb  Pb8  1  0.50000000  0.15258400  0.96874400  1
  Pb  Pb9  1  0.50000000  0.39835400  0.75000000  1
  Pb  Pb10  1  0.50000000  0.84741600  0.03125600  1
  Pb  Pb11  1  0.00000000  0.65258400  0.53125600  1
  Pb  Pb12  1  0.50000000  0.84741600  0.46874400  1
  Pb  Pb13  1  0.50000000  0.60164600  0.25000000  1
  Pb  Pb14  1  0.00000000  0.65258400  0.96874400  1
  Pb  Pb15  1  0.00000000  0.89835400  0.75000000  1
  Cl  Cl16  1  0.00000000  0.47797200  0.75000000  1
  Cl  Cl17  1  0.00000000  0.00000000  0.00000000  1
  Cl  Cl18  1  0.50000000  0.02202800  0.25000000  1
  Cl  Cl19  1  0.00000000  0.00000000  0.50000000  1
  Cl  Cl20  1  0.50000000  0.97797200  0.75000000  1
  Cl  Cl21  1  0.50000000  0.50000000  0.00000000  1
  Cl  Cl22  1  0.00000000  0.52202800  0.25000000  1
  Cl  Cl23  1  0.50000000  0.50000000  0.50000000  1
  O  O24  1  0.76648000  0.27055200  0.86940900  1
  O  O25  1  0.26648000  0.22944800  0.13059100  1
  O  O26  1  0.73352000  0.22944800  0.36940900  1
  O  O27  1  0.73352000  0.22944800  0.13059100  1
  O  O28  1  0.50000000  0.39485000  0.25000000  1
  O  O29  1  0.26648000  0.22944800  0.36940900  1
  O  O30  1  0.76648000  0.27055200  0.63059100  1
  O  O31  1  0.23352000  0.27055200  0.86940900  1
  O  O32  1  0.00000000  0.10515000  0.75000000  1
  O  O33  1  0.23352000  0.27055200  0.63059100  1
  O  O34  1  0.26648000  0.77055200  0.86940900  1
  O  O35  1  0.76648000  0.72944800  0.13059100  1
  O  O36  1  0.23352000  0.72944800  0.36940900  1
  O  O37  1  0.23352000  0.72944800  0.13059100  1
  O  O38  1  0.00000000  0.89485000  0.25000000  1
  O  O39  1  0.76648000  0.72944800  0.36940900  1
  O  O40  1  0.26648000  0.77055200  0.63059100  1
  O  O41  1  0.73352000  0.77055200  0.86940900  1
  O  O42  1  0.50000000  0.60515000  0.75000000  1
  O  O43  1  0.73352000  0.77055200  0.63059100  1
