# generated using pymatgen
data_Li2FeP2O7
_symmetry_space_group_name_H-M   'P 1'
_cell_length_a   15.54483212
_cell_length_b   5.04084460
_cell_length_c   8.93376291
_cell_angle_alpha   90.00000000
_cell_angle_beta   114.92354488
_cell_angle_gamma   90.00000000
_symmetry_Int_Tables_number   1
_chemical_formula_structural   Li2FeP2O7
_chemical_formula_sum   'Li8 Fe4 P8 O28'
_cell_volume   634.84725124
_cell_formula_units_Z   4
loop_
 _symmetry_equiv_pos_site_id
 _symmetry_equiv_pos_as_xyz
  1  'x, y, z'
loop_
 _atom_site_type_symbol
 _atom_site_label
 _atom_site_symmetry_multiplicity
 _atom_site_fract_x
 _atom_site_fract_y
 _atom_site_fract_z
 _atom_site_occupancy
  Li  Li0  1  0.19038500  0.85754450  0.05238150  1
  Li  Li1  1  0.80961500  0.14245550  0.94761850  1
  Li  Li2  1  0.80961500  0.85754450  0.44761850  1
  Li  Li3  1  0.19038500  0.14245550  0.55238150  1
  Li  Li4  1  0.69038500  0.35754450  0.05238150  1
  Li  Li5  1  0.30961500  0.64245550  0.94761850  1
  Li  Li6  1  0.30961500  0.35754450  0.44761850  1
  Li  Li7  1  0.69038500  0.64245550  0.55238150  1
  Fe  Fe8  1  0.00000000  0.00000000  0.50000000  1
  Fe  Fe9  1  0.00000000  0.00000000  0.00000000  1
  Fe  Fe10  1  0.50000000  0.50000000  0.50000000  1
  Fe  Fe11  1  0.50000000  0.50000000  0.00000000  1
  P  P12  1  0.89708200  0.36520600  0.68434000  1
  P  P13  1  0.89708200  0.63479400  0.18434000  1
  P  P14  1  0.10291800  0.63479400  0.31566000  1
  P  P15  1  0.10291800  0.36520600  0.81566000  1
  P  P16  1  0.39708200  0.86520600  0.68434000  1
  P  P17  1  0.39708200  0.13479400  0.18434000  1
  P  P18  1  0.60291800  0.13479400  0.31566000  1
  P  P19  1  0.60291800  0.86520600  0.81566000  1
  O  O20  1  0.00000000  0.48216400  0.25000000  1
  O  O21  1  0.00000000  0.51783600  0.75000000  1
  O  O22  1  0.10579850  0.22925100  0.66294150  1
  O  O23  1  0.89420150  0.77074900  0.33705850  1
  O  O24  1  0.89420150  0.22925100  0.83705850  1
  O  O25  1  0.10579850  0.77074900  0.16294150  1
  O  O26  1  0.17708600  0.57828550  0.88830750  1
  O  O27  1  0.82291400  0.57828550  0.61169250  1
  O  O28  1  0.17708600  0.42171450  0.38830750  1
  O  O29  1  0.82291400  0.42171450  0.11169250  1
  O  O30  1  0.10188250  0.84321300  0.44143500  1
  O  O31  1  0.89811750  0.15678700  0.55856500  1
  O  O32  1  0.10188250  0.15678700  0.94143500  1
  O  O33  1  0.89811750  0.84321300  0.05856500  1
  O  O34  1  0.50000000  0.98216400  0.25000000  1
  O  O35  1  0.50000000  0.01783600  0.75000000  1
  O  O36  1  0.60579850  0.72925100  0.66294150  1
  O  O37  1  0.39420150  0.27074900  0.33705850  1
  O  O38  1  0.39420150  0.72925100  0.83705850  1
  O  O39  1  0.60579850  0.27074900  0.16294150  1
  O  O40  1  0.67708600  0.07828550  0.88830750  1
  O  O41  1  0.32291400  0.07828550  0.61169250  1
  O  O42  1  0.67708600  0.92171450  0.38830750  1
  O  O43  1  0.32291400  0.92171450  0.11169250  1
  O  O44  1  0.60188250  0.34321300  0.44143500  1
  O  O45  1  0.39811750  0.65678700  0.55856500  1
  O  O46  1  0.60188250  0.65678700  0.94143500  1
  O  O47  1  0.39811750  0.34321300  0.05856500  1
