# generated using pymatgen
data_La3Ge3Cl2
_symmetry_space_group_name_H-M   'P 1'
_cell_length_a   18.20343200
_cell_length_b   4.33109200
_cell_length_c   10.85859871
_cell_angle_alpha   90.00000000
_cell_angle_beta   98.30180738
_cell_angle_gamma   90.00000000
_symmetry_Int_Tables_number   1
_chemical_formula_structural   La3Ge3Cl2
_chemical_formula_sum   'La12 Ge12 Cl8'
_cell_volume   847.12907304
_cell_formula_units_Z   4
loop_
 _symmetry_equiv_pos_site_id
 _symmetry_equiv_pos_as_xyz
  1  'x, y, z'
loop_
 _atom_site_type_symbol
 _atom_site_label
 _atom_site_symmetry_multiplicity
 _atom_site_fract_x
 _atom_site_fract_y
 _atom_site_fract_z
 _atom_site_occupancy
  La  La0  1  0.81626500  0.50000000  0.85194800  1
  La  La1  1  0.96795700  0.50000000  0.16862800  1
  La  La2  1  0.61684000  0.00000000  0.49049900  1
  La  La3  1  0.68373500  0.00000000  0.14805200  1
  La  La4  1  0.53204300  0.00000000  0.83137200  1
  La  La5  1  0.88316000  0.50000000  0.50950100  1
  La  La6  1  0.31626500  0.00000000  0.85194800  1
  La  La7  1  0.46795700  0.00000000  0.16862800  1
  La  La8  1  0.11684000  0.50000000  0.49049900  1
  La  La9  1  0.18373500  0.50000000  0.14805200  1
  La  La10  1  0.03204300  0.50000000  0.83137200  1
  La  La11  1  0.38316000  0.00000000  0.50950100  1
  Ge  Ge12  1  0.52420300  0.50000000  0.61666600  1
  Ge  Ge13  1  0.59599000  0.50000000  0.28160300  1
  Ge  Ge14  1  0.90401000  0.00000000  0.71839700  1
  Ge  Ge15  1  0.57024000  0.50000000  0.04413500  1
  Ge  Ge16  1  0.97579700  0.00000000  0.38333400  1
  Ge  Ge17  1  0.92976000  0.00000000  0.95586500  1
  Ge  Ge18  1  0.02420300  0.00000000  0.61666600  1
  Ge  Ge19  1  0.09599000  0.00000000  0.28160300  1
  Ge  Ge20  1  0.40401000  0.50000000  0.71839700  1
  Ge  Ge21  1  0.07024000  0.00000000  0.04413500  1
  Ge  Ge22  1  0.47579700  0.50000000  0.38333400  1
  Ge  Ge23  1  0.42976000  0.50000000  0.95586500  1
  Cl  Cl24  1  0.72637800  0.50000000  0.60748400  1
  Cl  Cl25  1  0.70125400  0.00000000  0.87358300  1
  Cl  Cl26  1  0.79874600  0.50000000  0.12641700  1
  Cl  Cl27  1  0.77362200  0.00000000  0.39251600  1
  Cl  Cl28  1  0.22637800  0.00000000  0.60748400  1
  Cl  Cl29  1  0.20125400  0.50000000  0.87358300  1
  Cl  Cl30  1  0.29874600  0.00000000  0.12641700  1
  Cl  Cl31  1  0.27362200  0.50000000  0.39251600  1
