# generated using pymatgen
data_Nd12C6I17
_symmetry_space_group_name_H-M   'P 1'
_cell_length_a   20.24472800
_cell_length_b   12.64446000
_cell_length_c   19.35605311
_cell_angle_alpha   90.00000000
_cell_angle_beta   90.88387538
_cell_angle_gamma   90.00000000
_symmetry_Int_Tables_number   1
_chemical_formula_structural   Nd12C6I17
_chemical_formula_sum   'Nd48 C24 I68'
_cell_volume   4954.24363212
_cell_formula_units_Z   4
loop_
 _symmetry_equiv_pos_site_id
 _symmetry_equiv_pos_as_xyz
  1  'x, y, z'
loop_
 _atom_site_type_symbol
 _atom_site_label
 _atom_site_symmetry_multiplicity
 _atom_site_fract_x
 _atom_site_fract_y
 _atom_site_fract_z
 _atom_site_occupancy
  Nd  Nd0  1  0.95177050  0.02854750  0.15227200  1
  Nd  Nd1  1  0.57297100  0.23492100  0.71134700  1
  Nd  Nd2  1  0.49665250  0.79369950  0.02098800  1
  Nd  Nd3  1  0.42702900  0.76507900  0.28865300  1
  Nd  Nd4  1  0.33945050  0.76270650  0.11698300  1
  Nd  Nd5  1  0.66054950  0.76270650  0.38301700  1
  Nd  Nd6  1  0.64113850  0.00060750  0.05017300  1
  Nd  Nd7  1  0.35886150  0.99939250  0.94982700  1
  Nd  Nd8  1  0.33945050  0.23729350  0.61698300  1
  Nd  Nd9  1  0.45896700  0.99280000  0.62759600  1
  Nd  Nd10  1  0.45896700  0.00720000  0.12759600  1
  Nd  Nd11  1  0.95177050  0.97145250  0.65227200  1
  Nd  Nd12  1  0.64113850  0.99939250  0.55017300  1
  Nd  Nd13  1  0.42702900  0.23492100  0.78865300  1
  Nd  Nd14  1  0.66054950  0.23729350  0.88301700  1
  Nd  Nd15  1  0.50334750  0.79369950  0.47901200  1
  Nd  Nd16  1  0.49665250  0.20630050  0.52098800  1
  Nd  Nd17  1  0.04822950  0.97145250  0.84772800  1
  Nd  Nd18  1  0.35886150  0.00060750  0.44982700  1
  Nd  Nd19  1  0.54103300  0.00720000  0.37240400  1
  Nd  Nd20  1  0.04822950  0.02854750  0.34772800  1
  Nd  Nd21  1  0.57297100  0.76507900  0.21134700  1
  Nd  Nd22  1  0.50334750  0.20630050  0.97901200  1
  Nd  Nd23  1  0.54103300  0.99280000  0.87240400  1
  Nd  Nd24  1  0.45177050  0.52854750  0.15227200  1
  Nd  Nd25  1  0.07297100  0.73492100  0.71134700  1
  Nd  Nd26  1  0.99665250  0.29369950  0.02098800  1
  Nd  Nd27  1  0.92702900  0.26507900  0.28865300  1
  Nd  Nd28  1  0.83945050  0.26270650  0.11698300  1
  Nd  Nd29  1  0.16054950  0.26270650  0.38301700  1
  Nd  Nd30  1  0.14113850  0.50060750  0.05017300  1
  Nd  Nd31  1  0.85886150  0.49939250  0.94982700  1
  Nd  Nd32  1  0.83945050  0.73729350  0.61698300  1
  Nd  Nd33  1  0.95896700  0.49280000  0.62759600  1
  Nd  Nd34  1  0.95896700  0.50720000  0.12759600  1
  Nd  Nd35  1  0.45177050  0.47145250  0.65227200  1
  Nd  Nd36  1  0.14113850  0.49939250  0.55017300  1
  Nd  Nd37  1  0.92702900  0.73492100  0.78865300  1
  Nd  Nd38  1  0.16054950  0.73729350  0.88301700  1
  Nd  Nd39  1  0.00334750  0.29369950  0.47901200  1
  Nd  Nd40  1  0.99665250  0.70630050  0.52098800  1
  Nd  Nd41  1  0.54822950  0.47145250  0.84772800  1
  Nd  Nd42  1  0.85886150  0.50060750  0.44982700  1
  Nd  Nd43  1  0.04103300  0.50720000  0.37240400  1
  Nd  Nd44  1  0.54822950  0.52854750  0.34772800  1
  Nd  Nd45  1  0.07297100  0.26507900  0.21134700  1
  Nd  Nd46  1  0.00334750  0.70630050  0.97901200  1
  Nd  Nd47  1  0.04103300  0.49280000  0.87240400  1
  C  C48  1  0.53263900  0.99935000  0.51168100  1
  C  C49  1  0.46736100  0.99935000  0.98831900  1
  C  C50  1  0.45630100  0.28754700  0.65295900  1
  C  C51  1  0.46736100  0.00065000  0.48831900  1
  C  C52  1  0.45701300  0.17682000  0.64982600  1
  C  C53  1  0.54298700  0.17682000  0.85017400  1
  C  C54  1  0.54369900  0.28754700  0.84704100  1
  C  C55  1  0.53263900  0.00065000  0.01168100  1
  C  C56  1  0.54369900  0.71245300  0.34704100  1
  C  C57  1  0.45630100  0.71245300  0.15295900  1
  C  C58  1  0.54298700  0.82318000  0.35017400  1
  C  C59  1  0.45701300  0.82318000  0.14982600  1
  C  C60  1  0.03263900  0.49935000  0.51168100  1
  C  C61  1  0.96736100  0.49935000  0.98831900  1
  C  C62  1  0.95630100  0.78754700  0.65295900  1
  C  C63  1  0.96736100  0.50065000  0.48831900  1
  C  C64  1  0.95701300  0.67682000  0.64982600  1
  C  C65  1  0.04298700  0.67682000  0.85017400  1
  C  C66  1  0.04369900  0.78754700  0.84704100  1
  C  C67  1  0.03263900  0.50065000  0.01168100  1
  C  C68  1  0.04369900  0.21245300  0.34704100  1
  C  C69  1  0.95630100  0.21245300  0.15295900  1
  C  C70  1  0.04298700  0.32318000  0.35017400  1
  C  C71  1  0.95701300  0.32318000  0.14982600  1
  I  I72  1  0.65102650  0.25355450  0.04872000  1
  I  I73  1  0.19624700  0.01636800  0.39892400  1
  I  I74  1  0.64618600  0.75135200  0.06011500  1
  I  I75  1  0.00000000  0.00000000  0.00000000  1
  I  I76  1  0.34897350  0.74644550  0.95128000  1
  I  I77  1  0.45490100  0.73843300  0.63750300  1
  I  I78  1  0.73214450  0.23397150  0.74625700  1
  I  I79  1  0.10273850  0.00929650  0.19690700  1
  I  I80  1  0.34897350  0.25355450  0.45128000  1
  I  I81  1  0.54509900  0.26156700  0.36249700  1
  I  I82  1  0.39898400  0.02484300  0.29201700  1
  I  I83  1  0.26785550  0.76602850  0.25374300  1
  I  I84  1  0.65102650  0.74644550  0.54872000  1
  I  I85  1  0.64618600  0.24864800  0.56011500  1
  I  I86  1  0.39898400  0.97515700  0.79201700  1
  I  I87  1  0.89726150  0.00929650  0.30309300  1
  I  I88  1  0.35381400  0.75135200  0.43988500  1
  I  I89  1  0.73214450  0.76602850  0.24625700  1
  I  I90  1  0.19624700  0.98363200  0.89892400  1
  I  I91  1  0.35381400  0.24864800  0.93988500  1
  I  I92  1  0.45490100  0.26156700  0.13750300  1
  I  I93  1  0.69910800  0.99078800  0.89978800  1
  I  I94  1  0.26785550  0.23397150  0.75374300  1
  I  I95  1  0.80375300  0.98363200  0.60107600  1
  I  I96  1  0.30089200  0.00921200  0.10021200  1
  I  I97  1  0.60101600  0.97515700  0.70798300  1
  I  I98  1  0.80375300  0.01636800  0.10107600  1
  I  I99  1  0.69910800  0.00921200  0.39978800  1
  I  I100  1  0.54509900  0.73843300  0.86249700  1
  I  I101  1  0.30089200  0.99078800  0.60021200  1
  I  I102  1  0.89726150  0.99070350  0.80309300  1
  I  I103  1  0.10273850  0.99070350  0.69690700  1
  I  I104  1  0.60101600  0.02484300  0.20798300  1
  I  I105  1  0.00000000  0.00000000  0.50000000  1
  I  I106  1  0.15102650  0.75355450  0.04872000  1
  I  I107  1  0.69624700  0.51636800  0.39892400  1
  I  I108  1  0.14618600  0.25135200  0.06011500  1
  I  I109  1  0.50000000  0.50000000  0.00000000  1
  I  I110  1  0.84897350  0.24644550  0.95128000  1
  I  I111  1  0.95490100  0.23843300  0.63750300  1
  I  I112  1  0.23214450  0.73397150  0.74625700  1
  I  I113  1  0.60273850  0.50929650  0.19690700  1
  I  I114  1  0.84897350  0.75355450  0.45128000  1
  I  I115  1  0.04509900  0.76156700  0.36249700  1
  I  I116  1  0.89898400  0.52484300  0.29201700  1
  I  I117  1  0.76785550  0.26602850  0.25374300  1
  I  I118  1  0.15102650  0.24644550  0.54872000  1
  I  I119  1  0.14618600  0.74864800  0.56011500  1
  I  I120  1  0.89898400  0.47515700  0.79201700  1
  I  I121  1  0.39726150  0.50929650  0.30309300  1
  I  I122  1  0.85381400  0.25135200  0.43988500  1
  I  I123  1  0.23214450  0.26602850  0.24625700  1
  I  I124  1  0.69624700  0.48363200  0.89892400  1
  I  I125  1  0.85381400  0.74864800  0.93988500  1
  I  I126  1  0.95490100  0.76156700  0.13750300  1
  I  I127  1  0.19910800  0.49078800  0.89978800  1
  I  I128  1  0.76785550  0.73397150  0.75374300  1
  I  I129  1  0.30375300  0.48363200  0.60107600  1
  I  I130  1  0.80089200  0.50921200  0.10021200  1
  I  I131  1  0.10101600  0.47515700  0.70798300  1
  I  I132  1  0.30375300  0.51636800  0.10107600  1
  I  I133  1  0.19910800  0.50921200  0.39978800  1
  I  I134  1  0.04509900  0.23843300  0.86249700  1
  I  I135  1  0.80089200  0.49078800  0.60021200  1
  I  I136  1  0.39726150  0.49070350  0.80309300  1
  I  I137  1  0.60273850  0.49070350  0.69690700  1
  I  I138  1  0.10101600  0.52484300  0.20798300  1
  I  I139  1  0.50000000  0.50000000  0.50000000  1
