# generated using pymatgen
data_Li2U4W4O25
_symmetry_space_group_name_H-M   'P 1'
_cell_length_a   14.13785800
_cell_length_b   6.46393200
_cell_length_c   22.50348338
_cell_angle_alpha   90.00000000
_cell_angle_beta   99.22558039
_cell_angle_gamma   90.00000000
_symmetry_Int_Tables_number   1
_chemical_formula_structural   Li2U4W4O25
_chemical_formula_sum   'Li8 U16 W16 O100'
_cell_volume   2029.90541353
_cell_formula_units_Z   4
loop_
 _symmetry_equiv_pos_site_id
 _symmetry_equiv_pos_as_xyz
  1  'x, y, z'
loop_
 _atom_site_type_symbol
 _atom_site_label
 _atom_site_symmetry_multiplicity
 _atom_site_fract_x
 _atom_site_fract_y
 _atom_site_fract_z
 _atom_site_occupancy
  Li  Li0  1  0.89359500  0.53812300  0.55369200  1
  Li  Li1  1  0.60640500  0.03812300  0.94630800  1
  Li  Li2  1  0.60640500  0.96187700  0.44630800  1
  Li  Li3  1  0.89359500  0.46187700  0.05369200  1
  Li  Li4  1  0.39359500  0.03812300  0.55369200  1
  Li  Li5  1  0.10640500  0.53812300  0.94630800  1
  Li  Li6  1  0.10640500  0.46187700  0.44630800  1
  Li  Li7  1  0.39359500  0.96187700  0.05369200  1
  U  U8  1  0.70785750  0.45370550  0.15485200  1
  U  U9  1  0.79214250  0.95370550  0.34514800  1
  U  U10  1  0.00000000  0.03562400  0.25000000  1
  U  U11  1  0.00000000  0.96437600  0.75000000  1
  U  U12  1  0.00000000  0.00000000  0.00000000  1
  U  U13  1  0.70785750  0.54629450  0.65485200  1
  U  U14  1  0.79214250  0.04629450  0.84514800  1
  U  U15  1  0.00000000  0.00000000  0.50000000  1
  U  U16  1  0.20785750  0.95370550  0.15485200  1
  U  U17  1  0.29214250  0.45370550  0.34514800  1
  U  U18  1  0.50000000  0.53562400  0.25000000  1
  U  U19  1  0.50000000  0.46437600  0.75000000  1
  U  U20  1  0.50000000  0.50000000  0.00000000  1
  U  U21  1  0.20785750  0.04629450  0.65485200  1
  U  U22  1  0.29214250  0.54629450  0.84514800  1
  U  U23  1  0.50000000  0.50000000  0.50000000  1
  W  W24  1  0.91571800  0.49662800  0.30997300  1
  W  W25  1  0.58428200  0.00337200  0.69002700  1
  W  W26  1  0.71841050  0.49399650  0.41021100  1
  W  W27  1  0.58428200  0.99662800  0.19002700  1
  W  W28  1  0.71841050  0.50600350  0.91021100  1
  W  W29  1  0.91571800  0.50337200  0.80997300  1
  W  W30  1  0.78158950  0.99399650  0.08978900  1
  W  W31  1  0.78158950  0.00600350  0.58978900  1
  W  W32  1  0.41571800  0.99662800  0.30997300  1
  W  W33  1  0.08428200  0.50337200  0.69002700  1
  W  W34  1  0.21841050  0.99399650  0.41021100  1
  W  W35  1  0.08428200  0.49662800  0.19002700  1
  W  W36  1  0.21841050  0.00600350  0.91021100  1
  W  W37  1  0.41571800  0.00337200  0.80997300  1
  W  W38  1  0.28158950  0.49399650  0.08978900  1
  W  W39  1  0.28158950  0.50600350  0.58978900  1
  O  O40  1  0.51499700  0.77258400  0.48228600  1
  O  O41  1  0.61110550  0.57317650  0.94407900  1
  O  O42  1  0.80750450  0.57132850  0.34780300  1
  O  O43  1  0.88889450  0.07317650  0.55592100  1
  O  O44  1  0.80750450  0.42867150  0.84780300  1
  O  O45  1  0.88826250  0.04766450  0.91401300  1
  O  O46  1  0.91328300  0.78697300  0.28709100  1
  O  O47  1  0.73057650  0.22350550  0.37607600  1
  O  O48  1  0.60860900  0.70030200  0.19153100  1
  O  O49  1  0.99337350  0.48987250  0.62713500  1
  O  O50  1  0.98500300  0.72741600  0.51771400  1
  O  O51  1  0.98500300  0.27258400  0.01771400  1
  O  O52  1  0.80654050  0.51734350  0.97488800  1
  O  O53  1  0.59236950  0.46879350  0.81797600  1
  O  O54  1  0.69249550  0.07132850  0.15219700  1
  O  O55  1  0.60860900  0.29969800  0.69153100  1
  O  O56  1  0.90763050  0.96879350  0.68202400  1
  O  O57  1  0.58671700  0.71302700  0.71290900  1
  O  O58  1  0.58671700  0.28697300  0.21290900  1
  O  O59  1  0.00000000  0.42621700  0.25000000  1
  O  O60  1  0.61173750  0.54766450  0.58598700  1
  O  O61  1  0.73057650  0.77649450  0.87607600  1
  O  O62  1  0.69345950  0.98265650  0.02511200  1
  O  O63  1  0.69846600  0.21272300  0.90172300  1
  O  O64  1  0.80654050  0.48265650  0.47488800  1
  O  O65  1  0.89139100  0.79969800  0.80846900  1
  O  O66  1  0.70171450  0.96130950  0.27428800  1
  O  O67  1  0.50662650  0.01012750  0.37286500  1
  O  O68  1  0.76942350  0.27649450  0.62392400  1
  O  O69  1  0.69846600  0.78727700  0.40172300  1
  O  O70  1  0.69249550  0.92867150  0.65219700  1
  O  O71  1  0.61173750  0.45233550  0.08598700  1
  O  O72  1  0.61110550  0.42682350  0.44407900  1
  O  O73  1  0.80153400  0.71272300  0.59827700  1
  O  O74  1  0.88826250  0.95233550  0.41401300  1
  O  O75  1  0.51499700  0.22741600  0.98228600  1
  O  O76  1  0.76942350  0.72350550  0.12392400  1
  O  O77  1  0.70171450  0.03869050  0.77428800  1
  O  O78  1  0.79828550  0.53869050  0.72571200  1
  O  O79  1  0.50662650  0.98987250  0.87286500  1
  O  O80  1  0.91328300  0.21302700  0.78709100  1
  O  O81  1  0.90763050  0.03120650  0.18202400  1
  O  O82  1  0.80153400  0.28727700  0.09827700  1
  O  O83  1  0.88889450  0.92682350  0.05592100  1
  O  O84  1  0.00000000  0.57378300  0.75000000  1
  O  O85  1  0.99337350  0.51012750  0.12713500  1
  O  O86  1  0.89139100  0.20030200  0.30846900  1
  O  O87  1  0.59236950  0.53120650  0.31797600  1
  O  O88  1  0.79828550  0.46130950  0.22571200  1
  O  O89  1  0.69345950  0.01734350  0.52511200  1
  O  O90  1  0.01499700  0.27258400  0.48228600  1
  O  O91  1  0.11110550  0.07317650  0.94407900  1
  O  O92  1  0.30750450  0.07132850  0.34780300  1
  O  O93  1  0.38889450  0.57317650  0.55592100  1
  O  O94  1  0.30750450  0.92867150  0.84780300  1
  O  O95  1  0.38826250  0.54766450  0.91401300  1
  O  O96  1  0.41328300  0.28697300  0.28709100  1
  O  O97  1  0.23057650  0.72350550  0.37607600  1
  O  O98  1  0.10860900  0.20030200  0.19153100  1
  O  O99  1  0.49337350  0.98987250  0.62713500  1
  O  O100  1  0.48500300  0.22741600  0.51771400  1
  O  O101  1  0.48500300  0.77258400  0.01771400  1
  O  O102  1  0.30654050  0.01734350  0.97488800  1
  O  O103  1  0.09236950  0.96879350  0.81797600  1
  O  O104  1  0.19249550  0.57132850  0.15219700  1
  O  O105  1  0.10860900  0.79969800  0.69153100  1
  O  O106  1  0.40763050  0.46879350  0.68202400  1
  O  O107  1  0.08671700  0.21302700  0.71290900  1
  O  O108  1  0.08671700  0.78697300  0.21290900  1
  O  O109  1  0.50000000  0.92621700  0.25000000  1
  O  O110  1  0.11173750  0.04766450  0.58598700  1
  O  O111  1  0.23057650  0.27649450  0.87607600  1
  O  O112  1  0.19345950  0.48265650  0.02511200  1
  O  O113  1  0.19846600  0.71272300  0.90172300  1
  O  O114  1  0.30654050  0.98265650  0.47488800  1
  O  O115  1  0.39139100  0.29969800  0.80846900  1
  O  O116  1  0.20171450  0.46130950  0.27428800  1
  O  O117  1  0.00662650  0.51012750  0.37286500  1
  O  O118  1  0.26942350  0.77649450  0.62392400  1
  O  O119  1  0.19846600  0.28727700  0.40172300  1
  O  O120  1  0.19249550  0.42867150  0.65219700  1
  O  O121  1  0.11173750  0.95233550  0.08598700  1
  O  O122  1  0.11110550  0.92682350  0.44407900  1
  O  O123  1  0.30153400  0.21272300  0.59827700  1
  O  O124  1  0.38826250  0.45233550  0.41401300  1
  O  O125  1  0.01499700  0.72741600  0.98228600  1
  O  O126  1  0.26942350  0.22350550  0.12392400  1
  O  O127  1  0.20171450  0.53869050  0.77428800  1
  O  O128  1  0.29828550  0.03869050  0.72571200  1
  O  O129  1  0.00662650  0.48987250  0.87286500  1
  O  O130  1  0.41328300  0.71302700  0.78709100  1
  O  O131  1  0.40763050  0.53120650  0.18202400  1
  O  O132  1  0.30153400  0.78727700  0.09827700  1
  O  O133  1  0.38889450  0.42682350  0.05592100  1
  O  O134  1  0.50000000  0.07378300  0.75000000  1
  O  O135  1  0.49337350  0.01012750  0.12713500  1
  O  O136  1  0.39139100  0.70030200  0.30846900  1
  O  O137  1  0.09236950  0.03120650  0.31797600  1
  O  O138  1  0.29828550  0.96130950  0.22571200  1
  O  O139  1  0.19345950  0.51734350  0.52511200  1
