# generated using pymatgen
data_Li2V2(SO4)3
_symmetry_space_group_name_H-M   'P 1'
_cell_length_a   13.38843200
_cell_length_b   8.80914200
_cell_length_c   8.85351474
_cell_angle_alpha   90.00000000
_cell_angle_beta   116.21295754
_cell_angle_gamma   90.00000000
_symmetry_Int_Tables_number   1
_chemical_formula_structural   Li2V2(SO4)3
_chemical_formula_sum   'Li8 V8 S12 O48'
_cell_volume   936.80288268
_cell_formula_units_Z   4
loop_
 _symmetry_equiv_pos_site_id
 _symmetry_equiv_pos_as_xyz
  1  'x, y, z'
loop_
 _atom_site_type_symbol
 _atom_site_label
 _atom_site_symmetry_multiplicity
 _atom_site_fract_x
 _atom_site_fract_y
 _atom_site_fract_z
 _atom_site_occupancy
  Li  Li0  1  0.72762550  0.59741950  0.54765500  1
  Li  Li1  1  0.72762550  0.40258050  0.04765500  1
  Li  Li2  1  0.27237450  0.59741950  0.95234500  1
  Li  Li3  1  0.27237450  0.40258050  0.45234500  1
  Li  Li4  1  0.22762550  0.09741950  0.54765500  1
  Li  Li5  1  0.22762550  0.90258050  0.04765500  1
  Li  Li6  1  0.77237450  0.09741950  0.95234500  1
  Li  Li7  1  0.77237450  0.90258050  0.45234500  1
  V  V8  1  0.87822800  0.24981300  0.48447500  1
  V  V9  1  0.87822800  0.75018700  0.98447500  1
  V  V10  1  0.12177200  0.75018700  0.51552500  1
  V  V11  1  0.12177200  0.24981300  0.01552500  1
  V  V12  1  0.37822800  0.74981300  0.48447500  1
  V  V13  1  0.37822800  0.25018700  0.98447500  1
  V  V14  1  0.62177200  0.25018700  0.51552500  1
  V  V15  1  0.62177200  0.74981300  0.01552500  1
  S  S16  1  0.00000000  0.93735100  0.75000000  1
  S  S17  1  0.85274550  0.60463250  0.32035000  1
  S  S18  1  0.14725450  0.39536750  0.67965000  1
  S  S19  1  0.85274550  0.39536750  0.82035000  1
  S  S20  1  0.14725450  0.60463250  0.17965000  1
  S  S21  1  0.00000000  0.06264900  0.25000000  1
  S  S22  1  0.50000000  0.43735100  0.75000000  1
  S  S23  1  0.35274550  0.10463250  0.32035000  1
  S  S24  1  0.64725450  0.89536750  0.67965000  1
  S  S25  1  0.35274550  0.89536750  0.82035000  1
  S  S26  1  0.64725450  0.10463250  0.17965000  1
  S  S27  1  0.50000000  0.56264900  0.25000000  1
  O  O28  1  0.58757350  0.46569250  0.38250600  1
  O  O29  1  0.19097250  0.68609950  0.07589200  1
  O  O30  1  0.94367500  0.15803900  0.32454600  1
  O  O31  1  0.02795950  0.37380850  0.61937100  1
  O  O32  1  0.19097250  0.31390050  0.57589200  1
  O  O33  1  0.17822400  0.55935800  0.69201000  1
  O  O34  1  0.94367500  0.84196100  0.82454600  1
  O  O35  1  0.20600450  0.66105850  0.36202300  1
  O  O36  1  0.80902750  0.31390050  0.92410800  1
  O  O37  1  0.82177600  0.55935800  0.80799000  1
  O  O38  1  0.41242650  0.53430750  0.61749400  1
  O  O39  1  0.20600450  0.33894150  0.86202300  1
  O  O40  1  0.80902750  0.68609950  0.42410800  1
  O  O41  1  0.05632500  0.84196100  0.67545400  1
  O  O42  1  0.79399550  0.33894150  0.63797700  1
  O  O43  1  0.97204050  0.62619150  0.38062900  1
  O  O44  1  0.17822400  0.44064200  0.19201000  1
  O  O45  1  0.97204050  0.37380850  0.88062900  1
  O  O46  1  0.79399550  0.66105850  0.13797700  1
  O  O47  1  0.82177600  0.44064200  0.30799000  1
  O  O48  1  0.05632500  0.15803900  0.17545400  1
  O  O49  1  0.41242650  0.46569250  0.11749400  1
  O  O50  1  0.58757350  0.53430750  0.88250600  1
  O  O51  1  0.02795950  0.62619150  0.11937100  1
  O  O52  1  0.08757350  0.96569250  0.38250600  1
  O  O53  1  0.69097250  0.18609950  0.07589200  1
  O  O54  1  0.44367500  0.65803900  0.32454600  1
  O  O55  1  0.52795950  0.87380850  0.61937100  1
  O  O56  1  0.69097250  0.81390050  0.57589200  1
  O  O57  1  0.67822400  0.05935800  0.69201000  1
  O  O58  1  0.44367500  0.34196100  0.82454600  1
  O  O59  1  0.70600450  0.16105850  0.36202300  1
  O  O60  1  0.30902750  0.81390050  0.92410800  1
  O  O61  1  0.32177600  0.05935800  0.80799000  1
  O  O62  1  0.91242650  0.03430750  0.61749400  1
  O  O63  1  0.70600450  0.83894150  0.86202300  1
  O  O64  1  0.30902750  0.18609950  0.42410800  1
  O  O65  1  0.55632500  0.34196100  0.67545400  1
  O  O66  1  0.29399550  0.83894150  0.63797700  1
  O  O67  1  0.47204050  0.12619150  0.38062900  1
  O  O68  1  0.67822400  0.94064200  0.19201000  1
  O  O69  1  0.47204050  0.87380850  0.88062900  1
  O  O70  1  0.29399550  0.16105850  0.13797700  1
  O  O71  1  0.32177600  0.94064200  0.30799000  1
  O  O72  1  0.55632500  0.65803900  0.17545400  1
  O  O73  1  0.91242650  0.96569250  0.11749400  1
  O  O74  1  0.08757350  0.03430750  0.88250600  1
  O  O75  1  0.52795950  0.12619150  0.11937100  1
