# generated using pymatgen
data_Na2Te4MoO12
_symmetry_space_group_name_H-M   'P 1'
_cell_length_a   17.53157600
_cell_length_b   5.94990000
_cell_length_c   11.47201945
_cell_angle_alpha   90.00000000
_cell_angle_beta   105.22223305
_cell_angle_gamma   90.00000000
_symmetry_Int_Tables_number   1
_chemical_formula_structural   Na2Te4MoO12
_chemical_formula_sum   'Na8 Te16 Mo4 O48'
_cell_volume   1154.67407381
_cell_formula_units_Z   4
loop_
 _symmetry_equiv_pos_site_id
 _symmetry_equiv_pos_as_xyz
  1  'x, y, z'
loop_
 _atom_site_type_symbol
 _atom_site_label
 _atom_site_symmetry_multiplicity
 _atom_site_fract_x
 _atom_site_fract_y
 _atom_site_fract_z
 _atom_site_occupancy
  Na  Na0  1  0.78979500  0.22701700  0.73605200  1
  Na  Na1  1  0.71020500  0.72701700  0.76394800  1
  Na  Na2  1  0.71020500  0.27298300  0.26394800  1
  Na  Na3  1  0.78979500  0.77298300  0.23605200  1
  Na  Na4  1  0.28979500  0.72701700  0.73605200  1
  Na  Na5  1  0.21020500  0.22701700  0.76394800  1
  Na  Na6  1  0.21020500  0.77298300  0.26394800  1
  Na  Na7  1  0.28979500  0.27298300  0.23605200  1
  Te  Te8  1  0.59467700  0.27489300  0.59638700  1
  Te  Te9  1  0.90532300  0.77489300  0.90361300  1
  Te  Te10  1  0.90532300  0.22510700  0.40361300  1
  Te  Te11  1  0.59467700  0.72510700  0.09638700  1
  Te  Te12  1  0.65655800  0.17269500  0.93344900  1
  Te  Te13  1  0.84344200  0.67269500  0.56655100  1
  Te  Te14  1  0.84344200  0.32730500  0.06655100  1
  Te  Te15  1  0.65655800  0.82730500  0.43344900  1
  Te  Te16  1  0.09467700  0.77489300  0.59638700  1
  Te  Te17  1  0.40532300  0.27489300  0.90361300  1
  Te  Te18  1  0.40532300  0.72510700  0.40361300  1
  Te  Te19  1  0.09467700  0.22510700  0.09638700  1
  Te  Te20  1  0.15655800  0.67269500  0.93344900  1
  Te  Te21  1  0.34344200  0.17269500  0.56655100  1
  Te  Te22  1  0.34344200  0.82730500  0.06655100  1
  Te  Te23  1  0.15655800  0.32730500  0.43344900  1
  Mo  Mo24  1  0.00000000  0.33800300  0.75000000  1
  Mo  Mo25  1  0.00000000  0.66199700  0.25000000  1
  Mo  Mo26  1  0.50000000  0.83800300  0.75000000  1
  Mo  Mo27  1  0.50000000  0.16199700  0.25000000  1
  O  O28  1  0.88891550  0.39762650  0.66196000  1
  O  O29  1  0.61108450  0.89762650  0.83804000  1
  O  O30  1  0.61108450  0.10237350  0.33804000  1
  O  O31  1  0.88891550  0.60237350  0.16196000  1
  O  O32  1  0.75897600  0.07507100  0.92906000  1
  O  O33  1  0.74102400  0.57507100  0.57094000  1
  O  O34  1  0.74102400  0.42492900  0.07094000  1
  O  O35  1  0.75897600  0.92492900  0.42906000  1
  O  O36  1  0.66235550  0.01119750  0.58934300  1
  O  O37  1  0.83764450  0.51119750  0.91065700  1
  O  O38  1  0.83764450  0.48880250  0.41065700  1
  O  O39  1  0.66235550  0.98880250  0.08934300  1
  O  O40  1  0.65914950  0.34546050  0.75298500  1
  O  O41  1  0.84085050  0.84546050  0.74701500  1
  O  O42  1  0.84085050  0.15453950  0.24701500  1
  O  O43  1  0.65914950  0.65453950  0.25298500  1
  O  O44  1  0.51074150  0.12311750  0.63406300  1
  O  O45  1  0.98925850  0.62311750  0.86593700  1
  O  O46  1  0.98925850  0.37688250  0.36593700  1
  O  O47  1  0.51074150  0.87688250  0.13406300  1
  O  O48  1  0.97657800  0.15137500  0.85626800  1
  O  O49  1  0.52342200  0.65137500  0.64373200  1
  O  O50  1  0.52342200  0.34862500  0.14373200  1
  O  O51  1  0.97657800  0.84862500  0.35626800  1
  O  O52  1  0.38891550  0.89762650  0.66196000  1
  O  O53  1  0.11108450  0.39762650  0.83804000  1
  O  O54  1  0.11108450  0.60237350  0.33804000  1
  O  O55  1  0.38891550  0.10237350  0.16196000  1
  O  O56  1  0.25897600  0.57507100  0.92906000  1
  O  O57  1  0.24102400  0.07507100  0.57094000  1
  O  O58  1  0.24102400  0.92492900  0.07094000  1
  O  O59  1  0.25897600  0.42492900  0.42906000  1
  O  O60  1  0.16235550  0.51119750  0.58934300  1
  O  O61  1  0.33764450  0.01119750  0.91065700  1
  O  O62  1  0.33764450  0.98880250  0.41065700  1
  O  O63  1  0.16235550  0.48880250  0.08934300  1
  O  O64  1  0.15914950  0.84546050  0.75298500  1
  O  O65  1  0.34085050  0.34546050  0.74701500  1
  O  O66  1  0.34085050  0.65453950  0.24701500  1
  O  O67  1  0.15914950  0.15453950  0.25298500  1
  O  O68  1  0.01074150  0.62311750  0.63406300  1
  O  O69  1  0.48925850  0.12311750  0.86593700  1
  O  O70  1  0.48925850  0.87688250  0.36593700  1
  O  O71  1  0.01074150  0.37688250  0.13406300  1
  O  O72  1  0.47657800  0.65137500  0.85626800  1
  O  O73  1  0.02342200  0.15137500  0.64373200  1
  O  O74  1  0.02342200  0.84862500  0.14373200  1
  O  O75  1  0.47657800  0.34862500  0.35626800  1
