# generated using pymatgen
data_Er5(CoTe)2
_symmetry_space_group_name_H-M   'P 1'
_cell_length_a   3.91027600
_cell_length_b   14.93760400
_cell_length_c   14.94901500
_cell_angle_alpha   90.00000000
_cell_angle_beta   90.00000000
_cell_angle_gamma   90.00000000
_symmetry_Int_Tables_number   1
_chemical_formula_structural   Er5(CoTe)2
_chemical_formula_sum   'Er20 Co8 Te8'
_cell_volume   873.17427456
_cell_formula_units_Z   4
loop_
 _symmetry_equiv_pos_site_id
 _symmetry_equiv_pos_as_xyz
  1  'x, y, z'
loop_
 _atom_site_type_symbol
 _atom_site_label
 _atom_site_symmetry_multiplicity
 _atom_site_fract_x
 _atom_site_fract_y
 _atom_site_fract_z
 _atom_site_occupancy
  Er  Er0  1  0.00000000  0.39349100  0.75000000  1
  Er  Er1  1  0.00000000  0.25877500  0.13122200  1
  Er  Er2  1  0.00000000  0.03846200  0.62659500  1
  Er  Er3  1  0.50000000  0.46153800  0.37340500  1
  Er  Er4  1  0.50000000  0.10650900  0.25000000  1
  Er  Er5  1  0.00000000  0.03846200  0.87340500  1
  Er  Er6  1  0.50000000  0.46153800  0.12659500  1
  Er  Er7  1  0.50000000  0.24122500  0.63122200  1
  Er  Er8  1  0.50000000  0.24122500  0.86877800  1
  Er  Er9  1  0.00000000  0.25877500  0.36877800  1
  Er  Er10  1  0.50000000  0.89349100  0.75000000  1
  Er  Er11  1  0.50000000  0.75877500  0.13122200  1
  Er  Er12  1  0.50000000  0.53846200  0.62659500  1
  Er  Er13  1  0.00000000  0.96153800  0.37340500  1
  Er  Er14  1  0.00000000  0.60650900  0.25000000  1
  Er  Er15  1  0.50000000  0.53846200  0.87340500  1
  Er  Er16  1  0.00000000  0.96153800  0.12659500  1
  Er  Er17  1  0.00000000  0.74122500  0.63122200  1
  Er  Er18  1  0.00000000  0.74122500  0.86877800  1
  Er  Er19  1  0.50000000  0.75877500  0.36877800  1
  Co  Co20  1  0.50000000  0.08773200  0.75000000  1
  Co  Co21  1  0.00000000  0.41226800  0.25000000  1
  Co  Co22  1  0.00000000  0.18049500  0.75000000  1
  Co  Co23  1  0.50000000  0.31950500  0.25000000  1
  Co  Co24  1  0.00000000  0.58773200  0.75000000  1
  Co  Co25  1  0.50000000  0.91226800  0.25000000  1
  Co  Co26  1  0.50000000  0.68049500  0.75000000  1
  Co  Co27  1  0.00000000  0.81950500  0.25000000  1
  Te  Te28  1  0.00000000  0.38213300  0.53797500  1
  Te  Te29  1  0.00000000  0.38213300  0.96202500  1
  Te  Te30  1  0.50000000  0.11786700  0.03797500  1
  Te  Te31  1  0.50000000  0.11786700  0.46202500  1
  Te  Te32  1  0.50000000  0.88213300  0.53797500  1
  Te  Te33  1  0.50000000  0.88213300  0.96202500  1
  Te  Te34  1  0.00000000  0.61786700  0.03797500  1
  Te  Te35  1  0.00000000  0.61786700  0.46202500  1
