# generated using pymatgen
data_NiRhF6
_symmetry_space_group_name_H-M   'P 1'
_cell_length_a   5.10444564
_cell_length_b   5.10444564
_cell_length_c   13.65113828
_cell_angle_alpha   90.00000000
_cell_angle_beta   90.00000000
_cell_angle_gamma   120.00000000
_symmetry_Int_Tables_number   1
_chemical_formula_structural   NiRhF6
_chemical_formula_sum   'Ni3 Rh3 F18'
_cell_volume   308.03258704
_cell_formula_units_Z   3
loop_
 _symmetry_equiv_pos_site_id
 _symmetry_equiv_pos_as_xyz
  1  'x, y, z'
loop_
 _atom_site_type_symbol
 _atom_site_label
 _atom_site_symmetry_multiplicity
 _atom_site_fract_x
 _atom_site_fract_y
 _atom_site_fract_z
 _atom_site_occupancy
  Ni  Ni0  1  0.33333333  0.66666667  0.16666667  1
  Ni  Ni1  1  1.00000000  0.00000000  0.50000000  1
  Ni  Ni2  1  0.66666667  0.33333333  0.83333333  1
  Rh  Rh3  1  0.00000000  0.00000000  0.00000000  1
  Rh  Rh4  1  0.66666667  0.33333333  0.33333333  1
  Rh  Rh5  1  0.33333333  0.66666667  0.66666667  1
  F  F6  1  0.29825633  0.97305867  0.08243867  1
  F  F7  1  0.02694133  0.32519767  0.08243867  1
  F  F8  1  0.99186433  0.63158967  0.25089467  1
  F  F9  1  0.63972533  0.00813567  0.25089467  1
  F  F10  1  0.36841033  0.36027467  0.25089467  1
  F  F11  1  0.67480233  0.70174367  0.08243867  1
  F  F12  1  0.96492300  0.30639200  0.41577200  1
  F  F13  1  0.69360800  0.65853100  0.41577200  1
  F  F14  1  0.65853100  0.96492300  0.58422800  1
  F  F15  1  0.30639200  0.34146900  0.58422800  1
  F  F16  1  0.03507700  0.69360800  0.58422800  1
  F  F17  1  0.34146900  0.03507700  0.41577200  1
  F  F18  1  0.63158967  0.63972533  0.74910533  1
  F  F19  1  0.36027467  0.99186433  0.74910533  1
  F  F20  1  0.32519767  0.29825633  0.91756133  1
  F  F21  1  0.97305867  0.67480233  0.91756133  1
  F  F22  1  0.70174367  0.02694133  0.91756133  1
  F  F23  1  0.00813567  0.36841033  0.74910533  1
