# generated using pymatgen
data_Ti4FeBi2
_symmetry_space_group_name_H-M   'P 1'
_cell_length_a   10.56537400
_cell_length_b   10.56537400
_cell_length_c   4.96685800
_cell_angle_alpha   90.00000000
_cell_angle_beta   90.00000000
_cell_angle_gamma   90.00000000
_symmetry_Int_Tables_number   1
_chemical_formula_structural   Ti4FeBi2
_chemical_formula_sum   'Ti16 Fe4 Bi8'
_cell_volume   554.43609253
_cell_formula_units_Z   4
loop_
 _symmetry_equiv_pos_site_id
 _symmetry_equiv_pos_as_xyz
  1  'x, y, z'
loop_
 _atom_site_type_symbol
 _atom_site_label
 _atom_site_symmetry_multiplicity
 _atom_site_fract_x
 _atom_site_fract_y
 _atom_site_fract_z
 _atom_site_occupancy
  Ti  Ti0  1  0.57971400  0.69087600  0.50000000  1
  Ti  Ti1  1  0.42028600  0.69087600  0.00000000  1
  Ti  Ti2  1  0.80912400  0.07971400  0.00000000  1
  Ti  Ti3  1  0.80912400  0.92028600  0.50000000  1
  Ti  Ti4  1  0.19087600  0.92028600  0.00000000  1
  Ti  Ti5  1  0.57971400  0.30912400  0.00000000  1
  Ti  Ti6  1  0.42028600  0.30912400  0.50000000  1
  Ti  Ti7  1  0.19087600  0.07971400  0.50000000  1
  Ti  Ti8  1  0.07971400  0.19087600  0.00000000  1
  Ti  Ti9  1  0.92028600  0.19087600  0.50000000  1
  Ti  Ti10  1  0.30912400  0.57971400  0.50000000  1
  Ti  Ti11  1  0.30912400  0.42028600  0.00000000  1
  Ti  Ti12  1  0.69087600  0.42028600  0.50000000  1
  Ti  Ti13  1  0.07971400  0.80912400  0.50000000  1
  Ti  Ti14  1  0.92028600  0.80912400  0.00000000  1
  Ti  Ti15  1  0.69087600  0.57971400  0.00000000  1
  Fe  Fe16  1  0.00000000  0.00000000  0.25000000  1
  Fe  Fe17  1  0.00000000  0.00000000  0.75000000  1
  Fe  Fe18  1  0.50000000  0.50000000  0.75000000  1
  Fe  Fe19  1  0.50000000  0.50000000  0.25000000  1
  Bi  Bi20  1  0.36097400  0.86097400  0.50000000  1
  Bi  Bi21  1  0.63902600  0.86097400  0.00000000  1
  Bi  Bi22  1  0.63902600  0.13902600  0.50000000  1
  Bi  Bi23  1  0.36097400  0.13902600  0.00000000  1
  Bi  Bi24  1  0.86097400  0.36097400  0.00000000  1
  Bi  Bi25  1  0.13902600  0.36097400  0.50000000  1
  Bi  Bi26  1  0.13902600  0.63902600  0.00000000  1
  Bi  Bi27  1  0.86097400  0.63902600  0.50000000  1
