# generated using pymatgen
data_In7Pd3
_symmetry_space_group_name_H-M   'P 1'
_cell_length_a   9.62078800
_cell_length_b   9.62078800
_cell_length_c   9.62078800
_cell_angle_alpha   90.00000000
_cell_angle_beta   90.00000000
_cell_angle_gamma   90.00000000
_symmetry_Int_Tables_number   1
_chemical_formula_structural   In7Pd3
_chemical_formula_sum   'In28 Pd12'
_cell_volume   890.49592088
_cell_formula_units_Z   4
loop_
 _symmetry_equiv_pos_site_id
 _symmetry_equiv_pos_as_xyz
  1  'x, y, z'
loop_
 _atom_site_type_symbol
 _atom_site_label
 _atom_site_symmetry_multiplicity
 _atom_site_fract_x
 _atom_site_fract_y
 _atom_site_fract_z
 _atom_site_occupancy
  In  In0  1  0.50000000  0.00000000  0.25000000  1
  In  In1  1  0.16257000  0.16257000  0.83743000  1
  In  In2  1  0.33743000  0.33743000  0.66257000  1
  In  In3  1  0.25000000  0.00000000  0.50000000  1
  In  In4  1  0.50000000  0.25000000  0.00000000  1
  In  In5  1  0.66257000  0.33743000  0.33743000  1
  In  In6  1  0.16257000  0.83743000  0.16257000  1
  In  In7  1  0.16257000  0.16257000  0.16257000  1
  In  In8  1  0.00000000  0.25000000  0.50000000  1
  In  In9  1  0.83743000  0.16257000  0.16257000  1
  In  In10  1  0.33743000  0.66257000  0.33743000  1
  In  In11  1  0.25000000  0.50000000  0.00000000  1
  In  In12  1  0.33743000  0.33743000  0.33743000  1
  In  In13  1  0.00000000  0.50000000  0.25000000  1
  In  In14  1  0.00000000  0.50000000  0.75000000  1
  In  In15  1  0.66257000  0.66257000  0.33743000  1
  In  In16  1  0.83743000  0.83743000  0.16257000  1
  In  In17  1  0.75000000  0.50000000  0.00000000  1
  In  In18  1  0.00000000  0.75000000  0.50000000  1
  In  In19  1  0.16257000  0.83743000  0.83743000  1
  In  In20  1  0.66257000  0.33743000  0.66257000  1
  In  In21  1  0.66257000  0.66257000  0.66257000  1
  In  In22  1  0.50000000  0.75000000  0.00000000  1
  In  In23  1  0.33743000  0.66257000  0.66257000  1
  In  In24  1  0.83743000  0.16257000  0.83743000  1
  In  In25  1  0.75000000  0.00000000  0.50000000  1
  In  In26  1  0.83743000  0.83743000  0.83743000  1
  In  In27  1  0.50000000  0.00000000  0.75000000  1
  Pd  Pd28  1  0.00000000  0.00000000  0.65255400  1
  Pd  Pd29  1  0.00000000  0.65255400  0.00000000  1
  Pd  Pd30  1  0.00000000  0.00000000  0.34744600  1
  Pd  Pd31  1  0.65255400  0.00000000  0.00000000  1
  Pd  Pd32  1  0.34744600  0.00000000  0.00000000  1
  Pd  Pd33  1  0.00000000  0.34744600  0.00000000  1
  Pd  Pd34  1  0.50000000  0.50000000  0.15255400  1
  Pd  Pd35  1  0.50000000  0.15255400  0.50000000  1
  Pd  Pd36  1  0.50000000  0.50000000  0.84744600  1
  Pd  Pd37  1  0.15255400  0.50000000  0.50000000  1
  Pd  Pd38  1  0.84744600  0.50000000  0.50000000  1
  Pd  Pd39  1  0.50000000  0.84744600  0.50000000  1
