# generated using pymatgen
data_La3SiPd5
_symmetry_space_group_name_H-M   'P 1'
_cell_length_a   7.55319200
_cell_length_b   7.70713000
_cell_length_c   13.24128600
_cell_angle_alpha   90.00000000
_cell_angle_beta   90.00000000
_cell_angle_gamma   90.00000000
_symmetry_Int_Tables_number   1
_chemical_formula_structural   La3SiPd5
_chemical_formula_sum   'La12 Si4 Pd20'
_cell_volume   770.82071088
_cell_formula_units_Z   4
loop_
 _symmetry_equiv_pos_site_id
 _symmetry_equiv_pos_as_xyz
  1  'x, y, z'
loop_
 _atom_site_type_symbol
 _atom_site_label
 _atom_site_symmetry_multiplicity
 _atom_site_fract_x
 _atom_site_fract_y
 _atom_site_fract_z
 _atom_site_occupancy
  La  La0  1  0.50000000  0.72998200  0.45116300  1
  La  La1  1  0.50000000  0.72998200  0.04883700  1
  La  La2  1  0.00000000  0.77001800  0.04883700  1
  La  La3  1  0.50000000  0.36399300  0.25000000  1
  La  La4  1  0.00000000  0.77001800  0.45116300  1
  La  La5  1  0.00000000  0.13600700  0.25000000  1
  La  La6  1  0.00000000  0.22998200  0.95116300  1
  La  La7  1  0.00000000  0.22998200  0.54883700  1
  La  La8  1  0.50000000  0.27001800  0.54883700  1
  La  La9  1  0.00000000  0.86399300  0.75000000  1
  La  La10  1  0.50000000  0.27001800  0.95116300  1
  La  La11  1  0.50000000  0.63600700  0.75000000  1
  Si  Si12  1  0.00000000  0.53981300  0.25000000  1
  Si  Si13  1  0.50000000  0.96018700  0.25000000  1
  Si  Si14  1  0.50000000  0.03981300  0.75000000  1
  Si  Si15  1  0.00000000  0.46018700  0.75000000  1
  Pd  Pd16  1  0.30192450  0.06275850  0.10881050  1
  Pd  Pd17  1  0.30192450  0.06275850  0.39118950  1
  Pd  Pd18  1  0.80192450  0.43724150  0.10881050  1
  Pd  Pd19  1  0.69807550  0.06275850  0.10881050  1
  Pd  Pd20  1  0.19807550  0.43724150  0.39118950  1
  Pd  Pd21  1  0.19807550  0.43724150  0.10881050  1
  Pd  Pd22  1  0.69807550  0.06275850  0.39118950  1
  Pd  Pd23  1  0.80192450  0.43724150  0.39118950  1
  Pd  Pd24  1  0.75000000  0.75000000  0.25000000  1
  Pd  Pd25  1  0.25000000  0.75000000  0.25000000  1
  Pd  Pd26  1  0.80192450  0.56275850  0.60881050  1
  Pd  Pd27  1  0.80192450  0.56275850  0.89118950  1
  Pd  Pd28  1  0.30192450  0.93724150  0.60881050  1
  Pd  Pd29  1  0.19807550  0.56275850  0.60881050  1
  Pd  Pd30  1  0.69807550  0.93724150  0.89118950  1
  Pd  Pd31  1  0.69807550  0.93724150  0.60881050  1
  Pd  Pd32  1  0.19807550  0.56275850  0.89118950  1
  Pd  Pd33  1  0.30192450  0.93724150  0.89118950  1
  Pd  Pd34  1  0.25000000  0.25000000  0.75000000  1
  Pd  Pd35  1  0.75000000  0.25000000  0.75000000  1
