# generated using pymatgen
data_V6O13
_symmetry_space_group_name_H-M   'P 1'
_cell_length_a   3.76531200
_cell_length_b   12.02098459
_cell_length_c   20.10087118
_cell_angle_alpha   90.00000000
_cell_angle_beta   90.00000000
_cell_angle_gamma   90.00000000
_symmetry_Int_Tables_number   1
_chemical_formula_structural   V6O13
_chemical_formula_sum   'V24 O52'
_cell_volume   909.82085808
_cell_formula_units_Z   4
loop_
 _symmetry_equiv_pos_site_id
 _symmetry_equiv_pos_as_xyz
  1  'x, y, z'
loop_
 _atom_site_type_symbol
 _atom_site_label
 _atom_site_symmetry_multiplicity
 _atom_site_fract_x
 _atom_site_fract_y
 _atom_site_fract_z
 _atom_site_occupancy
  V  V0  1  0.00000000  0.64780400  0.68299300  1
  V  V1  1  0.00000000  0.64780400  0.31700700  1
  V  V2  1  0.00000000  0.64936300  0.50000000  1
  V  V3  1  0.50000000  0.85063700  0.50000000  1
  V  V4  1  0.50000000  0.85219600  0.31700700  1
  V  V5  1  0.50000000  0.85219600  0.68299300  1
  V  V6  1  0.00000000  0.14780400  0.18299300  1
  V  V7  1  0.00000000  0.14780400  0.81700700  1
  V  V8  1  0.00000000  0.14936300  0.00000000  1
  V  V9  1  0.50000000  0.35063700  0.00000000  1
  V  V10  1  0.50000000  0.35219600  0.81700700  1
  V  V11  1  0.50000000  0.35219600  0.18299300  1
  V  V12  1  0.50000000  0.64780400  0.18299300  1
  V  V13  1  0.50000000  0.64780400  0.81700700  1
  V  V14  1  0.50000000  0.64936300  0.00000000  1
  V  V15  1  0.00000000  0.85063700  0.00000000  1
  V  V16  1  0.00000000  0.85219600  0.81700700  1
  V  V17  1  0.00000000  0.85219600  0.18299300  1
  V  V18  1  0.50000000  0.14780400  0.68299300  1
  V  V19  1  0.50000000  0.14780400  0.31700700  1
  V  V20  1  0.50000000  0.14936300  0.50000000  1
  V  V21  1  0.00000000  0.35063700  0.50000000  1
  V  V22  1  0.00000000  0.35219600  0.31700700  1
  V  V23  1  0.00000000  0.35219600  0.68299300  1
  O  O24  1  0.00000000  0.65212150  0.40081050  1
  O  O25  1  0.00000000  0.65212150  0.59918950  1
  O  O26  1  0.00000000  0.82025300  0.50000000  1
  O  O27  1  0.00000000  0.82247100  0.29777700  1
  O  O28  1  0.50000000  0.67974700  0.50000000  1
  O  O29  1  0.50000000  0.67752900  0.29777700  1
  O  O30  1  0.50000000  0.67752900  0.70222300  1
  O  O31  1  0.50000000  0.00000000  0.30231400  1
  O  O32  1  0.00000000  0.82247100  0.70222300  1
  O  O33  1  0.50000000  0.00000000  0.50000000  1
  O  O34  1  0.50000000  0.84787850  0.59918950  1
  O  O35  1  0.50000000  0.00000000  0.69768600  1
  O  O36  1  0.50000000  0.84787850  0.40081050  1
  O  O37  1  0.00000000  0.15212150  0.90081050  1
  O  O38  1  0.00000000  0.15212150  0.09918950  1
  O  O39  1  0.00000000  0.32025300  0.00000000  1
  O  O40  1  0.00000000  0.32247100  0.79777700  1
  O  O41  1  0.50000000  0.17974700  0.00000000  1
  O  O42  1  0.50000000  0.17752900  0.79777700  1
  O  O43  1  0.50000000  0.17752900  0.20222300  1
  O  O44  1  0.50000000  0.50000000  0.80231400  1
  O  O45  1  0.00000000  0.32247100  0.20222300  1
  O  O46  1  0.50000000  0.50000000  0.00000000  1
  O  O47  1  0.50000000  0.34787850  0.09918950  1
  O  O48  1  0.50000000  0.50000000  0.19768600  1
  O  O49  1  0.50000000  0.34787850  0.90081050  1
  O  O50  1  0.50000000  0.65212150  0.90081050  1
  O  O51  1  0.50000000  0.65212150  0.09918950  1
  O  O52  1  0.50000000  0.82025300  0.00000000  1
  O  O53  1  0.50000000  0.82247100  0.79777700  1
  O  O54  1  0.00000000  0.67974700  0.00000000  1
  O  O55  1  0.00000000  0.67752900  0.79777700  1
  O  O56  1  0.00000000  0.67752900  0.20222300  1
  O  O57  1  0.00000000  0.00000000  0.80231400  1
  O  O58  1  0.50000000  0.82247100  0.20222300  1
  O  O59  1  0.00000000  0.00000000  0.00000000  1
  O  O60  1  0.00000000  0.84787850  0.09918950  1
  O  O61  1  0.00000000  0.00000000  0.19768600  1
  O  O62  1  0.00000000  0.84787850  0.90081050  1
  O  O63  1  0.50000000  0.15212150  0.40081050  1
  O  O64  1  0.50000000  0.15212150  0.59918950  1
  O  O65  1  0.50000000  0.32025300  0.50000000  1
  O  O66  1  0.50000000  0.32247100  0.29777700  1
  O  O67  1  0.00000000  0.17974700  0.50000000  1
  O  O68  1  0.00000000  0.17752900  0.29777700  1
  O  O69  1  0.00000000  0.17752900  0.70222300  1
  O  O70  1  0.00000000  0.50000000  0.30231400  1
  O  O71  1  0.50000000  0.32247100  0.70222300  1
  O  O72  1  0.00000000  0.50000000  0.50000000  1
  O  O73  1  0.00000000  0.34787850  0.59918950  1
  O  O74  1  0.00000000  0.50000000  0.69768600  1
  O  O75  1  0.00000000  0.34787850  0.40081050  1
