# generated using pymatgen
data_Ni4(PO4)3
_symmetry_space_group_name_H-M   'P 1'
_cell_length_a   6.60803800
_cell_length_b   6.60803800
_cell_length_c   18.36957200
_cell_angle_alpha   90.00000000
_cell_angle_beta   90.00000000
_cell_angle_gamma   90.00000000
_symmetry_Int_Tables_number   1
_chemical_formula_structural   Ni4(PO4)3
_chemical_formula_sum   'Ni16 P12 O48'
_cell_volume   802.12878415
_cell_formula_units_Z   4
loop_
 _symmetry_equiv_pos_site_id
 _symmetry_equiv_pos_as_xyz
  1  'x, y, z'
loop_
 _atom_site_type_symbol
 _atom_site_label
 _atom_site_symmetry_multiplicity
 _atom_site_fract_x
 _atom_site_fract_y
 _atom_site_fract_z
 _atom_site_occupancy
  Ni  Ni0  1  0.25321000  0.75000000  0.12500000  1
  Ni  Ni1  1  0.25000000  0.24679000  0.37500000  1
  Ni  Ni2  1  0.00000000  0.00000000  0.22699800  1
  Ni  Ni3  1  0.75000000  0.75321000  0.37500000  1
  Ni  Ni4  1  0.50000000  0.50000000  0.27300200  1
  Ni  Ni5  1  0.74679000  0.25000000  0.12500000  1
  Ni  Ni6  1  0.00000000  0.50000000  0.02300200  1
  Ni  Ni7  1  0.00000000  0.50000000  0.47699800  1
  Ni  Ni8  1  0.75321000  0.25000000  0.62500000  1
  Ni  Ni9  1  0.75000000  0.74679000  0.87500000  1
  Ni  Ni10  1  0.50000000  0.50000000  0.72699800  1
  Ni  Ni11  1  0.25000000  0.25321000  0.87500000  1
  Ni  Ni12  1  0.00000000  0.00000000  0.77300200  1
  Ni  Ni13  1  0.24679000  0.75000000  0.62500000  1
  Ni  Ni14  1  0.50000000  0.00000000  0.52300200  1
  Ni  Ni15  1  0.50000000  0.00000000  0.97699800  1
  P  P16  1  0.75000000  0.15006100  0.37500000  1
  P  P17  1  0.34993900  0.25000000  0.12500000  1
  P  P18  1  0.00000000  0.00000000  0.00000000  1
  P  P19  1  0.25000000  0.84993900  0.37500000  1
  P  P20  1  0.00000000  0.50000000  0.25000000  1
  P  P21  1  0.65006100  0.75000000  0.12500000  1
  P  P22  1  0.25000000  0.65006100  0.87500000  1
  P  P23  1  0.84993900  0.75000000  0.62500000  1
  P  P24  1  0.50000000  0.50000000  0.50000000  1
  P  P25  1  0.75000000  0.34993900  0.87500000  1
  P  P26  1  0.50000000  0.00000000  0.75000000  1
  P  P27  1  0.15006100  0.25000000  0.62500000  1
  O  O28  1  0.30542450  0.44308150  0.45708950  1
  O  O29  1  0.50153450  0.20506250  0.06120850  1
  O  O30  1  0.80542450  0.55691850  0.29291050  1
  O  O31  1  0.49846550  0.70506250  0.18879150  1
  O  O32  1  0.50153450  0.29493750  0.18879150  1
  O  O33  1  0.77551450  0.93924650  0.14592550  1
  O  O34  1  0.49846550  0.79493750  0.06120850  1
  O  O35  1  0.05691850  0.80542450  0.04291050  1
  O  O36  1  0.79493750  0.99846550  0.31120850  1
  O  O37  1  0.29493750  0.00153450  0.43879150  1
  O  O38  1  0.19457550  0.44308150  0.29291050  1
  O  O39  1  0.43924650  0.72448550  0.35407450  1
  O  O40  1  0.22448550  0.06075350  0.14592550  1
  O  O41  1  0.70506250  0.99846550  0.43879150  1
  O  O42  1  0.94308150  0.19457550  0.04291050  1
  O  O43  1  0.93924650  0.27551450  0.39592550  1
  O  O44  1  0.69457550  0.55691850  0.45708950  1
  O  O45  1  0.22448550  0.43924650  0.10407450  1
  O  O46  1  0.94308150  0.30542450  0.20708950  1
  O  O47  1  0.06075350  0.72448550  0.39592550  1
  O  O48  1  0.77551450  0.56075350  0.10407450  1
  O  O49  1  0.20506250  0.00153450  0.31120850  1
  O  O50  1  0.56075350  0.27551450  0.35407450  1
  O  O51  1  0.05691850  0.69457550  0.20708950  1
  O  O52  1  0.80542450  0.94308150  0.95708950  1
  O  O53  1  0.00153450  0.70506250  0.56120850  1
  O  O54  1  0.30542450  0.05691850  0.79291050  1
  O  O55  1  0.99846550  0.20506250  0.68879150  1
  O  O56  1  0.00153450  0.79493750  0.68879150  1
  O  O57  1  0.27551450  0.43924650  0.64592550  1
  O  O58  1  0.99846550  0.29493750  0.56120850  1
  O  O59  1  0.55691850  0.30542450  0.54291050  1
  O  O60  1  0.29493750  0.49846550  0.81120850  1
  O  O61  1  0.79493750  0.50153450  0.93879150  1
  O  O62  1  0.69457550  0.94308150  0.79291050  1
  O  O63  1  0.93924650  0.22448550  0.85407450  1
  O  O64  1  0.72448550  0.56075350  0.64592550  1
  O  O65  1  0.20506250  0.49846550  0.93879150  1
  O  O66  1  0.44308150  0.69457550  0.54291050  1
  O  O67  1  0.43924650  0.77551450  0.89592550  1
  O  O68  1  0.19457550  0.05691850  0.95708950  1
  O  O69  1  0.72448550  0.93924650  0.60407450  1
  O  O70  1  0.44308150  0.80542450  0.70708950  1
  O  O71  1  0.56075350  0.22448550  0.89592550  1
  O  O72  1  0.27551450  0.06075350  0.60407450  1
  O  O73  1  0.70506250  0.50153450  0.81120850  1
  O  O74  1  0.06075350  0.77551450  0.85407450  1
  O  O75  1  0.55691850  0.19457550  0.70708950  1
