# generated using pymatgen
data_V2Ga8Cu3
_symmetry_space_group_name_H-M   'P 1'
_cell_length_a   11.83384800
_cell_length_b   11.83384800
_cell_length_c   11.83384800
_cell_angle_alpha   90.00000000
_cell_angle_beta   90.00000000
_cell_angle_gamma   90.00000000
_symmetry_Int_Tables_number   1
_chemical_formula_structural   V2Ga8Cu3
_chemical_formula_sum   'V16 Ga64 Cu24'
_cell_volume   1657.21158266
_cell_formula_units_Z   8
loop_
 _symmetry_equiv_pos_site_id
 _symmetry_equiv_pos_as_xyz
  1  'x, y, z'
loop_
 _atom_site_type_symbol
 _atom_site_label
 _atom_site_symmetry_multiplicity
 _atom_site_fract_x
 _atom_site_fract_y
 _atom_site_fract_z
 _atom_site_occupancy
  V  V0  1  0.01210650  0.01210650  0.01210650  1
  V  V1  1  0.76210650  0.23789350  0.73789350  1
  V  V2  1  0.48789350  0.01210650  0.98789350  1
  V  V3  1  0.26210650  0.26210650  0.26210650  1
  V  V4  1  0.73789350  0.76210650  0.23789350  1
  V  V5  1  0.98789350  0.48789350  0.01210650  1
  V  V6  1  0.01210650  0.98789350  0.48789350  1
  V  V7  1  0.23789350  0.73789350  0.76210650  1
  V  V8  1  0.51210650  0.51210650  0.51210650  1
  V  V9  1  0.26210650  0.73789350  0.23789350  1
  V  V10  1  0.98789350  0.51210650  0.48789350  1
  V  V11  1  0.76210650  0.76210650  0.76210650  1
  V  V12  1  0.23789350  0.26210650  0.73789350  1
  V  V13  1  0.48789350  0.98789350  0.51210650  1
  V  V14  1  0.51210650  0.48789350  0.98789350  1
  V  V15  1  0.73789350  0.23789350  0.26210650  1
  Ga  Ga16  1  0.88016600  0.12596900  0.38380800  1
  Ga  Ga17  1  0.88670000  0.11330000  0.61330000  1
  Ga  Ga18  1  0.13016600  0.36619200  0.12403100  1
  Ga  Ga19  1  0.13380800  0.87596900  0.63016600  1
  Ga  Ga20  1  0.63380800  0.62403100  0.36983400  1
  Ga  Ga21  1  0.62403100  0.36983400  0.63380800  1
  Ga  Ga22  1  0.36619200  0.87596900  0.36983400  1
  Ga  Ga23  1  0.61330000  0.88670000  0.11330000  1
  Ga  Ga24  1  0.11619200  0.11983400  0.62596900  1
  Ga  Ga25  1  0.37403100  0.38380800  0.11983400  1
  Ga  Ga26  1  0.87596900  0.63016600  0.13380800  1
  Ga  Ga27  1  0.86330000  0.36330000  0.13670000  1
  Ga  Ga28  1  0.63016600  0.13380800  0.87596900  1
  Ga  Ga29  1  0.87596900  0.36983400  0.36619200  1
  Ga  Ga30  1  0.13670000  0.86330000  0.36330000  1
  Ga  Ga31  1  0.12596900  0.38380800  0.88016600  1
  Ga  Ga32  1  0.11330000  0.61330000  0.88670000  1
  Ga  Ga33  1  0.61619200  0.38016600  0.37403100  1
  Ga  Ga34  1  0.37403100  0.61619200  0.38016600  1
  Ga  Ga35  1  0.12403100  0.13016600  0.36619200  1
  Ga  Ga36  1  0.36619200  0.12403100  0.13016600  1
  Ga  Ga37  1  0.11983400  0.37403100  0.38380800  1
  Ga  Ga38  1  0.38670000  0.38670000  0.38670000  1
  Ga  Ga39  1  0.36983400  0.36619200  0.87596900  1
  Ga  Ga40  1  0.38380800  0.88016600  0.12596900  1
  Ga  Ga41  1  0.11983400  0.62596900  0.11619200  1
  Ga  Ga42  1  0.13670000  0.13670000  0.13670000  1
  Ga  Ga43  1  0.36330000  0.13670000  0.86330000  1
  Ga  Ga44  1  0.38016600  0.37403100  0.61619200  1
  Ga  Ga45  1  0.36983400  0.63380800  0.62403100  1
  Ga  Ga46  1  0.38380800  0.11983400  0.37403100  1
  Ga  Ga47  1  0.62596900  0.11619200  0.11983400  1
  Ga  Ga48  1  0.38016600  0.62596900  0.88380800  1
  Ga  Ga49  1  0.38670000  0.61330000  0.11330000  1
  Ga  Ga50  1  0.63016600  0.86619200  0.62403100  1
  Ga  Ga51  1  0.63380800  0.37596900  0.13016600  1
  Ga  Ga52  1  0.13380800  0.12403100  0.86983400  1
  Ga  Ga53  1  0.12403100  0.86983400  0.13380800  1
  Ga  Ga54  1  0.86619200  0.37596900  0.86983400  1
  Ga  Ga55  1  0.11330000  0.38670000  0.61330000  1
  Ga  Ga56  1  0.61619200  0.61983400  0.12596900  1
  Ga  Ga57  1  0.87403100  0.88380800  0.61983400  1
  Ga  Ga58  1  0.37596900  0.13016600  0.63380800  1
  Ga  Ga59  1  0.36330000  0.86330000  0.63670000  1
  Ga  Ga60  1  0.13016600  0.63380800  0.37596900  1
  Ga  Ga61  1  0.37596900  0.86983400  0.86619200  1
  Ga  Ga62  1  0.63670000  0.36330000  0.86330000  1
  Ga  Ga63  1  0.62596900  0.88380800  0.38016600  1
  Ga  Ga64  1  0.61330000  0.11330000  0.38670000  1
  Ga  Ga65  1  0.11619200  0.88016600  0.87403100  1
  Ga  Ga66  1  0.87403100  0.11619200  0.88016600  1
  Ga  Ga67  1  0.62403100  0.63016600  0.86619200  1
  Ga  Ga68  1  0.86619200  0.62403100  0.63016600  1
  Ga  Ga69  1  0.61983400  0.87403100  0.88380800  1
  Ga  Ga70  1  0.88670000  0.88670000  0.88670000  1
  Ga  Ga71  1  0.86983400  0.86619200  0.37596900  1
  Ga  Ga72  1  0.88380800  0.38016600  0.62596900  1
  Ga  Ga73  1  0.61983400  0.12596900  0.61619200  1
  Ga  Ga74  1  0.63670000  0.63670000  0.63670000  1
  Ga  Ga75  1  0.86330000  0.63670000  0.36330000  1
  Ga  Ga76  1  0.88016600  0.87403100  0.11619200  1
  Ga  Ga77  1  0.86983400  0.13380800  0.12403100  1
  Ga  Ga78  1  0.88380800  0.61983400  0.87403100  1
  Ga  Ga79  1  0.12596900  0.61619200  0.61983400  1
  Cu  Cu80  1  0.25000000  0.24523700  0.50000000  1
  Cu  Cu81  1  0.00476300  0.50000000  0.25000000  1
  Cu  Cu82  1  0.75000000  0.25476300  0.50000000  1
  Cu  Cu83  1  0.24523700  0.50000000  0.25000000  1
  Cu  Cu84  1  0.50000000  0.75000000  0.25476300  1
  Cu  Cu85  1  0.50000000  0.25000000  0.24523700  1
  Cu  Cu86  1  0.25476300  0.50000000  0.75000000  1
  Cu  Cu87  1  0.49523700  0.50000000  0.75000000  1
  Cu  Cu88  1  0.50000000  0.75000000  0.49523700  1
  Cu  Cu89  1  0.50000000  0.25000000  0.00476300  1
  Cu  Cu90  1  0.75000000  0.49523700  0.50000000  1
  Cu  Cu91  1  0.25000000  0.00476300  0.50000000  1
  Cu  Cu92  1  0.75000000  0.74523700  0.00000000  1
  Cu  Cu93  1  0.50476300  0.00000000  0.75000000  1
  Cu  Cu94  1  0.25000000  0.75476300  0.00000000  1
  Cu  Cu95  1  0.74523700  0.00000000  0.75000000  1
  Cu  Cu96  1  0.00000000  0.25000000  0.75476300  1
  Cu  Cu97  1  0.00000000  0.75000000  0.74523700  1
  Cu  Cu98  1  0.75476300  0.00000000  0.25000000  1
  Cu  Cu99  1  0.99523700  0.00000000  0.25000000  1
  Cu  Cu100  1  0.00000000  0.25000000  0.99523700  1
  Cu  Cu101  1  0.00000000  0.75000000  0.50476300  1
  Cu  Cu102  1  0.25000000  0.99523700  0.00000000  1
  Cu  Cu103  1  0.75000000  0.50476300  0.00000000  1
