# generated using pymatgen
data_Y4CdRu
_symmetry_space_group_name_H-M   'P 1'
_cell_length_a   13.66866600
_cell_length_b   13.66866600
_cell_length_c   13.66866600
_cell_angle_alpha   90.00000000
_cell_angle_beta   90.00000000
_cell_angle_gamma   90.00000000
_symmetry_Int_Tables_number   1
_chemical_formula_structural   Y4CdRu
_chemical_formula_sum   'Y64 Cd16 Ru16'
_cell_volume   2553.75008664
_cell_formula_units_Z   16
loop_
 _symmetry_equiv_pos_site_id
 _symmetry_equiv_pos_as_xyz
  1  'x, y, z'
loop_
 _atom_site_type_symbol
 _atom_site_label
 _atom_site_symmetry_multiplicity
 _atom_site_fract_x
 _atom_site_fract_y
 _atom_site_fract_z
 _atom_site_occupancy
  Y  Y0  1  0.25000000  0.06104700  0.75000000  1
  Y  Y1  1  0.25000000  0.43895300  0.75000000  1
  Y  Y2  1  0.06104700  0.25000000  0.75000000  1
  Y  Y3  1  0.34711400  0.15288600  0.34711400  1
  Y  Y4  1  0.31054800  0.00000000  0.00000000  1
  Y  Y5  1  0.43895300  0.25000000  0.75000000  1
  Y  Y6  1  0.68945200  0.00000000  0.00000000  1
  Y  Y7  1  0.50000000  0.18945200  0.00000000  1
  Y  Y8  1  0.15288600  0.15288600  0.15288600  1
  Y  Y9  1  0.00000000  0.31054800  0.00000000  1
  Y  Y10  1  0.34711400  0.34711400  0.15288600  1
  Y  Y11  1  0.25000000  0.25000000  0.56104700  1
  Y  Y12  1  0.15288600  0.34711400  0.34711400  1
  Y  Y13  1  0.25000000  0.25000000  0.93895300  1
  Y  Y14  1  0.50000000  0.00000000  0.81054800  1
  Y  Y15  1  0.50000000  0.00000000  0.18945200  1
  Y  Y16  1  0.25000000  0.56104700  0.25000000  1
  Y  Y17  1  0.25000000  0.93895300  0.25000000  1
  Y  Y18  1  0.06104700  0.75000000  0.25000000  1
  Y  Y19  1  0.34711400  0.65288600  0.84711400  1
  Y  Y20  1  0.31054800  0.50000000  0.50000000  1
  Y  Y21  1  0.43895300  0.75000000  0.25000000  1
  Y  Y22  1  0.68945200  0.50000000  0.50000000  1
  Y  Y23  1  0.50000000  0.68945200  0.50000000  1
  Y  Y24  1  0.15288600  0.65288600  0.65288600  1
  Y  Y25  1  0.00000000  0.81054800  0.50000000  1
  Y  Y26  1  0.34711400  0.84711400  0.65288600  1
  Y  Y27  1  0.25000000  0.75000000  0.06104700  1
  Y  Y28  1  0.15288600  0.84711400  0.84711400  1
  Y  Y29  1  0.25000000  0.75000000  0.43895300  1
  Y  Y30  1  0.50000000  0.50000000  0.31054800  1
  Y  Y31  1  0.50000000  0.50000000  0.68945200  1
  Y  Y32  1  0.75000000  0.06104700  0.25000000  1
  Y  Y33  1  0.75000000  0.43895300  0.25000000  1
  Y  Y34  1  0.56104700  0.25000000  0.25000000  1
  Y  Y35  1  0.84711400  0.15288600  0.84711400  1
  Y  Y36  1  0.81054800  0.00000000  0.50000000  1
  Y  Y37  1  0.93895300  0.25000000  0.25000000  1
  Y  Y38  1  0.18945200  0.00000000  0.50000000  1
  Y  Y39  1  0.00000000  0.18945200  0.50000000  1
  Y  Y40  1  0.65288600  0.15288600  0.65288600  1
  Y  Y41  1  0.50000000  0.31054800  0.50000000  1
  Y  Y42  1  0.84711400  0.34711400  0.65288600  1
  Y  Y43  1  0.75000000  0.25000000  0.06104700  1
  Y  Y44  1  0.65288600  0.34711400  0.84711400  1
  Y  Y45  1  0.75000000  0.25000000  0.43895300  1
  Y  Y46  1  0.00000000  0.00000000  0.31054800  1
  Y  Y47  1  0.00000000  0.00000000  0.68945200  1
  Y  Y48  1  0.75000000  0.56104700  0.75000000  1
  Y  Y49  1  0.75000000  0.93895300  0.75000000  1
  Y  Y50  1  0.56104700  0.75000000  0.75000000  1
  Y  Y51  1  0.84711400  0.65288600  0.34711400  1
  Y  Y52  1  0.81054800  0.50000000  0.00000000  1
  Y  Y53  1  0.93895300  0.75000000  0.75000000  1
  Y  Y54  1  0.18945200  0.50000000  0.00000000  1
  Y  Y55  1  0.00000000  0.68945200  0.00000000  1
  Y  Y56  1  0.65288600  0.65288600  0.15288600  1
  Y  Y57  1  0.50000000  0.81054800  0.00000000  1
  Y  Y58  1  0.84711400  0.84711400  0.15288600  1
  Y  Y59  1  0.75000000  0.75000000  0.56104700  1
  Y  Y60  1  0.65288600  0.84711400  0.34711400  1
  Y  Y61  1  0.75000000  0.75000000  0.93895300  1
  Y  Y62  1  0.00000000  0.50000000  0.81054800  1
  Y  Y63  1  0.00000000  0.50000000  0.18945200  1
  Cd  Cd64  1  0.42001200  0.07998800  0.57998800  1
  Cd  Cd65  1  0.42001200  0.42001200  0.92001200  1
  Cd  Cd66  1  0.07998800  0.07998800  0.92001200  1
  Cd  Cd67  1  0.07998800  0.42001200  0.57998800  1
  Cd  Cd68  1  0.42001200  0.57998800  0.07998800  1
  Cd  Cd69  1  0.42001200  0.92001200  0.42001200  1
  Cd  Cd70  1  0.07998800  0.57998800  0.42001200  1
  Cd  Cd71  1  0.07998800  0.92001200  0.07998800  1
  Cd  Cd72  1  0.92001200  0.07998800  0.07998800  1
  Cd  Cd73  1  0.92001200  0.42001200  0.42001200  1
  Cd  Cd74  1  0.57998800  0.07998800  0.42001200  1
  Cd  Cd75  1  0.57998800  0.42001200  0.07998800  1
  Cd  Cd76  1  0.92001200  0.57998800  0.57998800  1
  Cd  Cd77  1  0.92001200  0.92001200  0.92001200  1
  Cd  Cd78  1  0.57998800  0.57998800  0.92001200  1
  Cd  Cd79  1  0.57998800  0.92001200  0.57998800  1
  Ru  Ru80  1  0.36031867  0.13968133  0.13968133  1
  Ru  Ru81  1  0.13968133  0.36031867  0.13968133  1
  Ru  Ru82  1  0.86031867  0.36031867  0.86031867  1
  Ru  Ru83  1  0.63968133  0.13968133  0.86031867  1
  Ru  Ru84  1  0.36031867  0.63968133  0.63968133  1
  Ru  Ru85  1  0.13968133  0.86031867  0.63968133  1
  Ru  Ru86  1  0.86031867  0.86031867  0.36031867  1
  Ru  Ru87  1  0.63968133  0.63968133  0.36031867  1
  Ru  Ru88  1  0.86031867  0.13968133  0.63968133  1
  Ru  Ru89  1  0.63968133  0.36031867  0.63968133  1
  Ru  Ru90  1  0.36031867  0.36031867  0.36031867  1
  Ru  Ru91  1  0.13968133  0.13968133  0.36031867  1
  Ru  Ru92  1  0.86031867  0.63968133  0.13968133  1
  Ru  Ru93  1  0.63968133  0.86031867  0.13968133  1
  Ru  Ru94  1  0.36031867  0.86031867  0.86031867  1
  Ru  Ru95  1  0.13968133  0.63968133  0.86031867  1
