# generated using pymatgen
data_LiYb(PO3)4
_symmetry_space_group_name_H-M   'P 1'
_cell_length_a   16.63677800
_cell_length_b   7.17583000
_cell_length_c   9.86966035
_cell_angle_alpha   90.00000000
_cell_angle_beta   126.27056617
_cell_angle_gamma   90.00000000
_symmetry_Int_Tables_number   1
_chemical_formula_structural   LiYb(PO3)4
_chemical_formula_sum   'Li4 Yb4 P16 O48'
_cell_volume   949.95660217
_cell_formula_units_Z   4
loop_
 _symmetry_equiv_pos_site_id
 _symmetry_equiv_pos_as_xyz
  1  'x, y, z'
loop_
 _atom_site_type_symbol
 _atom_site_label
 _atom_site_symmetry_multiplicity
 _atom_site_fract_x
 _atom_site_fract_y
 _atom_site_fract_z
 _atom_site_occupancy
  Li  Li0  1  0.00000000  0.70521300  0.75000000  1
  Li  Li1  1  0.00000000  0.29478700  0.25000000  1
  Li  Li2  1  0.50000000  0.20521300  0.75000000  1
  Li  Li3  1  0.50000000  0.79478700  0.25000000  1
  Yb  Yb4  1  0.00000000  0.79462400  0.25000000  1
  Yb  Yb5  1  0.00000000  0.20537600  0.75000000  1
  Yb  Yb6  1  0.50000000  0.29462400  0.25000000  1
  Yb  Yb7  1  0.50000000  0.70537600  0.75000000  1
  P  P8  1  0.36135450  0.94771850  0.88459800  1
  P  P9  1  0.64543250  0.65061850  0.19269200  1
  P  P10  1  0.85456750  0.15061850  0.30730800  1
  P  P11  1  0.14543250  0.84938150  0.69269200  1
  P  P12  1  0.35456750  0.34938150  0.80730800  1
  P  P13  1  0.13864550  0.44771850  0.61540200  1
  P  P14  1  0.86135450  0.55228150  0.38459800  1
  P  P15  1  0.63864550  0.05228150  0.11540200  1
  P  P16  1  0.86135450  0.44771850  0.88459800  1
  P  P17  1  0.14543250  0.15061850  0.19269200  1
  P  P18  1  0.35456750  0.65061850  0.30730800  1
  P  P19  1  0.64543250  0.34938150  0.69269200  1
  P  P20  1  0.85456750  0.84938150  0.80730800  1
  P  P21  1  0.63864550  0.94771850  0.61540200  1
  P  P22  1  0.36135450  0.05228150  0.38459800  1
  P  P23  1  0.13864550  0.55228150  0.11540200  1
  O  O24  1  0.12329550  0.89122650  0.52488300  1
  O  O25  1  0.34186000  0.12790800  0.77169300  1
  O  O26  1  0.74675250  0.07960150  0.15368700  1
  O  O27  1  0.15814000  0.62790800  0.72830700  1
  O  O28  1  0.93150500  0.50898200  0.56962500  1
  O  O29  1  0.65814000  0.87209200  0.22830700  1
  O  O30  1  0.11384000  0.29056100  0.68479400  1
  O  O31  1  0.88616000  0.70943900  0.31520600  1
  O  O32  1  0.24675250  0.42039850  0.65368700  1
  O  O33  1  0.07158950  0.91242150  0.72448900  1
  O  O34  1  0.06849500  0.49101800  0.43037500  1
  O  O35  1  0.84186000  0.37209200  0.27169300  1
  O  O36  1  0.75324750  0.57960150  0.34631300  1
  O  O37  1  0.62329550  0.60877350  0.02488300  1
  O  O38  1  0.92841050  0.91242150  0.77551100  1
  O  O39  1  0.25324750  0.92039850  0.84631300  1
  O  O40  1  0.93150500  0.49101800  0.06962500  1
  O  O41  1  0.61384000  0.20943900  0.18479400  1
  O  O42  1  0.92841050  0.08757850  0.27551100  1
  O  O43  1  0.87670450  0.10877350  0.47511700  1
  O  O44  1  0.38616000  0.79056100  0.81520600  1
  O  O45  1  0.07158950  0.08757850  0.22448900  1
  O  O46  1  0.37670450  0.39122650  0.97511700  1
  O  O47  1  0.06849500  0.50898200  0.93037500  1
  O  O48  1  0.62329550  0.39122650  0.52488300  1
  O  O49  1  0.84186000  0.62790800  0.77169300  1
  O  O50  1  0.24675250  0.57960150  0.15368700  1
  O  O51  1  0.65814000  0.12790800  0.72830700  1
  O  O52  1  0.43150500  0.00898200  0.56962500  1
  O  O53  1  0.15814000  0.37209200  0.22830700  1
  O  O54  1  0.61384000  0.79056100  0.68479400  1
  O  O55  1  0.38616000  0.20943900  0.31520600  1
  O  O56  1  0.74675250  0.92039850  0.65368700  1
  O  O57  1  0.57158950  0.41242150  0.72448900  1
  O  O58  1  0.56849500  0.99101800  0.43037500  1
  O  O59  1  0.34186000  0.87209200  0.27169300  1
  O  O60  1  0.25324750  0.07960150  0.34631300  1
  O  O61  1  0.12329550  0.10877350  0.02488300  1
  O  O62  1  0.42841050  0.41242150  0.77551100  1
  O  O63  1  0.75324750  0.42039850  0.84631300  1
  O  O64  1  0.43150500  0.99101800  0.06962500  1
  O  O65  1  0.11384000  0.70943900  0.18479400  1
  O  O66  1  0.42841050  0.58757850  0.27551100  1
  O  O67  1  0.37670450  0.60877350  0.47511700  1
  O  O68  1  0.88616000  0.29056100  0.81520600  1
  O  O69  1  0.57158950  0.58757850  0.22448900  1
  O  O70  1  0.87670450  0.89122650  0.97511700  1
  O  O71  1  0.56849500  0.00898200  0.93037500  1
