# generated using pymatgen
data_Ca2NiOsO6
_symmetry_space_group_name_H-M   'P 1'
_cell_length_a   5.40784820
_cell_length_b   5.61523934
_cell_length_c   9.39366489
_cell_angle_alpha   90.00000000
_cell_angle_beta   124.85286651
_cell_angle_gamma   90.00000000
_symmetry_Int_Tables_number   1
_chemical_formula_structural   Ca2NiOsO6
_chemical_formula_sum   'Ca4 Ni2 Os2 O12'
_cell_volume   234.08367288
_cell_formula_units_Z   2
loop_
 _symmetry_equiv_pos_site_id
 _symmetry_equiv_pos_as_xyz
  1  'x, y, z'
loop_
 _atom_site_type_symbol
 _atom_site_label
 _atom_site_symmetry_multiplicity
 _atom_site_fract_x
 _atom_site_fract_y
 _atom_site_fract_z
 _atom_site_occupancy
  Ca  Ca0  1  0.26606100  0.05885800  0.25136300  1
  Ca  Ca1  1  0.73393900  0.55885800  0.24863700  1
  Ca  Ca2  1  0.73393900  0.94114200  0.74863700  1
  Ca  Ca3  1  0.26606100  0.44114200  0.75136300  1
  Ni  Ni4  1  0.50000000  0.00000000  0.00000000  1
  Ni  Ni5  1  0.50000000  0.50000000  0.50000000  1
  Os  Os6  1  0.00000000  0.00000000  0.50000000  1
  Os  Os7  1  0.00000000  0.50000000  0.00000000  1
  O  O8  1  0.76241200  0.28869200  0.44871500  1
  O  O9  1  0.23758800  0.78869200  0.05128500  1
  O  O10  1  0.23758800  0.71130800  0.55128500  1
  O  O11  1  0.76241200  0.21130800  0.94871500  1
  O  O12  1  0.33986400  0.19233800  0.54822800  1
  O  O13  1  0.66013600  0.69233800  0.95177200  1
  O  O14  1  0.66013600  0.80766200  0.45177200  1
  O  O15  1  0.33986400  0.30766200  0.04822800  1
  O  O16  1  0.14573500  0.46952000  0.24139700  1
  O  O17  1  0.85426500  0.96952000  0.25860300  1
  O  O18  1  0.14573500  0.03048000  0.74139700  1
  O  O19  1  0.85426500  0.53048000  0.75860300  1
