# generated using pymatgen
data_Ba5Ru2ClO9
_symmetry_space_group_name_H-M   'P 1'
_cell_length_a   6.11876000
_cell_length_b   10.76171600
_cell_length_c   18.32687000
_cell_angle_alpha   90.00000000
_cell_angle_beta   90.00000000
_cell_angle_gamma   90.00000000
_symmetry_Int_Tables_number   1
_chemical_formula_structural   Ba5Ru2ClO9
_chemical_formula_sum   'Ba20 Ru8 Cl4 O36'
_cell_volume   1206.79428564
_cell_formula_units_Z   4
loop_
 _symmetry_equiv_pos_site_id
 _symmetry_equiv_pos_as_xyz
  1  'x, y, z'
loop_
 _atom_site_type_symbol
 _atom_site_label
 _atom_site_symmetry_multiplicity
 _atom_site_fract_x
 _atom_site_fract_y
 _atom_site_fract_z
 _atom_site_occupancy
  Ba  Ba0  1  0.50000000  0.34186900  0.98160100  1
  Ba  Ba1  1  0.00000000  0.15813100  0.48160100  1
  Ba  Ba2  1  0.00000000  0.16791700  0.25359800  1
  Ba  Ba3  1  0.50000000  0.33208300  0.75359800  1
  Ba  Ba4  1  0.50000000  0.00970500  0.65641500  1
  Ba  Ba5  1  0.00000000  0.49029500  0.15641500  1
  Ba  Ba6  1  0.50000000  0.00730800  0.35121600  1
  Ba  Ba7  1  0.00000000  0.17067500  0.02634300  1
  Ba  Ba8  1  0.00000000  0.49269200  0.85121600  1
  Ba  Ba9  1  0.50000000  0.32932500  0.52634300  1
  Ba  Ba10  1  0.00000000  0.84186900  0.98160100  1
  Ba  Ba11  1  0.50000000  0.65813100  0.48160100  1
  Ba  Ba12  1  0.50000000  0.66791700  0.25359800  1
  Ba  Ba13  1  0.00000000  0.83208300  0.75359800  1
  Ba  Ba14  1  0.00000000  0.50970500  0.65641500  1
  Ba  Ba15  1  0.50000000  0.99029500  0.15641500  1
  Ba  Ba16  1  0.00000000  0.50730800  0.35121600  1
  Ba  Ba17  1  0.50000000  0.67067500  0.02634300  1
  Ba  Ba18  1  0.50000000  0.99269200  0.85121600  1
  Ba  Ba19  1  0.00000000  0.82932500  0.52634300  1
  Ru  Ru20  1  0.50000000  0.32619900  0.32901900  1
  Ru  Ru21  1  0.50000000  0.33883100  0.17885000  1
  Ru  Ru22  1  0.00000000  0.17380100  0.82901900  1
  Ru  Ru23  1  0.00000000  0.16116900  0.67885000  1
  Ru  Ru24  1  0.00000000  0.82619900  0.32901900  1
  Ru  Ru25  1  0.00000000  0.83883100  0.17885000  1
  Ru  Ru26  1  0.50000000  0.67380100  0.82901900  1
  Ru  Ru27  1  0.50000000  0.66116900  0.67885000  1
  Cl  Cl28  1  0.50000000  0.04263600  0.00396500  1
  Cl  Cl29  1  0.00000000  0.45736400  0.50396500  1
  Cl  Cl30  1  0.00000000  0.54263600  0.00396500  1
  Cl  Cl31  1  0.50000000  0.95736400  0.50396500  1
  O  O32  1  0.26408000  0.27390900  0.11875500  1
  O  O33  1  0.50000000  0.49680600  0.12401600  1
  O  O34  1  0.00000000  0.31696300  0.74942400  1
  O  O35  1  0.27381750  0.40677150  0.25610700  1
  O  O36  1  0.76408000  0.22609100  0.61875500  1
  O  O37  1  0.73592000  0.27390900  0.11875500  1
  O  O38  1  0.72579400  0.23958100  0.38542900  1
  O  O39  1  0.50000000  0.47263800  0.39077000  1
  O  O40  1  0.22579400  0.26041900  0.88542900  1
  O  O41  1  0.72618250  0.40677150  0.25610700  1
  O  O42  1  0.22618250  0.09322850  0.75610700  1
  O  O43  1  0.77381750  0.09322850  0.75610700  1
  O  O44  1  0.00000000  0.00319400  0.62401600  1
  O  O45  1  0.50000000  0.18303700  0.24942400  1
  O  O46  1  0.27420600  0.23958100  0.38542900  1
  O  O47  1  0.77420600  0.26041900  0.88542900  1
  O  O48  1  0.23592000  0.22609100  0.61875500  1
  O  O49  1  0.00000000  0.02736200  0.89077000  1
  O  O50  1  0.76408000  0.77390900  0.11875500  1
  O  O51  1  0.00000000  0.99680600  0.12401600  1
  O  O52  1  0.50000000  0.81696300  0.74942400  1
  O  O53  1  0.77381750  0.90677150  0.25610700  1
  O  O54  1  0.26408000  0.72609100  0.61875500  1
  O  O55  1  0.23592000  0.77390900  0.11875500  1
  O  O56  1  0.22579400  0.73958100  0.38542900  1
  O  O57  1  0.00000000  0.97263800  0.39077000  1
  O  O58  1  0.72579400  0.76041900  0.88542900  1
  O  O59  1  0.22618250  0.90677150  0.25610700  1
  O  O60  1  0.72618250  0.59322850  0.75610700  1
  O  O61  1  0.27381750  0.59322850  0.75610700  1
  O  O62  1  0.50000000  0.50319400  0.62401600  1
  O  O63  1  0.00000000  0.68303700  0.24942400  1
  O  O64  1  0.77420600  0.73958100  0.38542900  1
  O  O65  1  0.27420600  0.76041900  0.88542900  1
  O  O66  1  0.73592000  0.72609100  0.61875500  1
  O  O67  1  0.50000000  0.52736200  0.89077000  1
