# generated using pymatgen
data_CoSeO4
_symmetry_space_group_name_H-M   'P 1'
_cell_length_a   5.51431230
_cell_length_b   8.28245422
_cell_length_c   6.68647429
_cell_angle_alpha   90.00000000
_cell_angle_beta   90.00000000
_cell_angle_gamma   90.00000000
_symmetry_Int_Tables_number   1
_chemical_formula_structural   CoSeO4
_chemical_formula_sum   'Co4 Se4 O16'
_cell_volume   305.38491534
_cell_formula_units_Z   4
loop_
 _symmetry_equiv_pos_site_id
 _symmetry_equiv_pos_as_xyz
  1  'x, y, z'
loop_
 _atom_site_type_symbol
 _atom_site_label
 _atom_site_symmetry_multiplicity
 _atom_site_fract_x
 _atom_site_fract_y
 _atom_site_fract_z
 _atom_site_occupancy
  Co  Co0  1  0.00000000  0.00000000  0.50000000  1
  Co  Co1  1  0.00000000  0.00000000  0.00000000  1
  Co  Co2  1  0.50000000  0.50000000  0.50000000  1
  Co  Co3  1  0.50000000  0.50000000  0.00000000  1
  Se  Se4  1  0.50000000  0.84850600  0.25000000  1
  Se  Se5  1  0.50000000  0.15149400  0.75000000  1
  Se  Se6  1  0.00000000  0.34850600  0.25000000  1
  Se  Se7  1  0.00000000  0.65149400  0.75000000  1
  O  O8  1  0.50000000  0.74127950  0.46039200  1
  O  O9  1  0.50000000  0.25872050  0.53960800  1
  O  O10  1  0.50000000  0.74127950  0.03960800  1
  O  O11  1  0.50000000  0.25872050  0.96039200  1
  O  O12  1  0.25023550  0.03006650  0.75000000  1
  O  O13  1  0.74976450  0.96993350  0.25000000  1
  O  O14  1  0.74976450  0.03006650  0.75000000  1
  O  O15  1  0.25023550  0.96993350  0.25000000  1
  O  O16  1  0.00000000  0.24127950  0.46039200  1
  O  O17  1  0.00000000  0.75872050  0.53960800  1
  O  O18  1  0.00000000  0.24127950  0.03960800  1
  O  O19  1  0.00000000  0.75872050  0.96039200  1
  O  O20  1  0.75023550  0.53006650  0.75000000  1
  O  O21  1  0.24976450  0.46993350  0.25000000  1
  O  O22  1  0.24976450  0.53006650  0.75000000  1
  O  O23  1  0.75023550  0.46993350  0.25000000  1
