# generated using pymatgen
data_Rb2Mo2O7
_symmetry_space_group_name_H-M   'P 1'
_cell_length_a   10.49832800
_cell_length_b   13.14933200
_cell_length_c   12.18651800
_cell_angle_alpha   90.00000000
_cell_angle_beta   90.00000000
_cell_angle_gamma   90.00000000
_symmetry_Int_Tables_number   1
_chemical_formula_structural   Rb2Mo2O7
_chemical_formula_sum   'Rb16 Mo16 O56'
_cell_volume   1682.30006769
_cell_formula_units_Z   8
loop_
 _symmetry_equiv_pos_site_id
 _symmetry_equiv_pos_as_xyz
  1  'x, y, z'
loop_
 _atom_site_type_symbol
 _atom_site_label
 _atom_site_symmetry_multiplicity
 _atom_site_fract_x
 _atom_site_fract_y
 _atom_site_fract_z
 _atom_site_occupancy
  Rb  Rb0  1  0.49321150  0.78635750  0.25000000  1
  Rb  Rb1  1  0.49321150  0.21364250  0.75000000  1
  Rb  Rb2  1  0.48024900  0.24587500  0.25000000  1
  Rb  Rb3  1  0.99550300  0.00000000  0.00000000  1
  Rb  Rb4  1  0.48024900  0.75412500  0.75000000  1
  Rb  Rb5  1  0.23778800  0.01477500  0.25000000  1
  Rb  Rb6  1  0.99550300  0.00000000  0.50000000  1
  Rb  Rb7  1  0.23778800  0.98522500  0.75000000  1
  Rb  Rb8  1  0.99321150  0.28635750  0.25000000  1
  Rb  Rb9  1  0.99321150  0.71364250  0.75000000  1
  Rb  Rb10  1  0.98024900  0.74587500  0.25000000  1
  Rb  Rb11  1  0.49550300  0.50000000  0.00000000  1
  Rb  Rb12  1  0.98024900  0.25412500  0.75000000  1
  Rb  Rb13  1  0.73778800  0.51477500  0.25000000  1
  Rb  Rb14  1  0.49550300  0.50000000  0.50000000  1
  Rb  Rb15  1  0.73778800  0.48522500  0.75000000  1
  Mo  Mo16  1  0.72829000  0.24691600  0.48839300  1
  Mo  Mo17  1  0.78671850  0.02917650  0.25000000  1
  Mo  Mo18  1  0.72829000  0.75308400  0.51160700  1
  Mo  Mo19  1  0.56378600  0.00000000  0.50000000  1
  Mo  Mo20  1  0.56378600  0.00000000  0.00000000  1
  Mo  Mo21  1  0.72829000  0.24691600  0.01160700  1
  Mo  Mo22  1  0.72829000  0.75308400  0.98839300  1
  Mo  Mo23  1  0.78671850  0.97082350  0.75000000  1
  Mo  Mo24  1  0.22829000  0.74691600  0.48839300  1
  Mo  Mo25  1  0.28671850  0.52917650  0.25000000  1
  Mo  Mo26  1  0.22829000  0.25308400  0.51160700  1
  Mo  Mo27  1  0.06378600  0.50000000  0.50000000  1
  Mo  Mo28  1  0.06378600  0.50000000  0.00000000  1
  Mo  Mo29  1  0.22829000  0.74691600  0.01160700  1
  Mo  Mo30  1  0.22829000  0.25308400  0.98839300  1
  Mo  Mo31  1  0.28671850  0.47082350  0.75000000  1
  O  O32  1  0.72746700  0.02891600  0.62393200  1
  O  O33  1  0.38652200  0.70552000  0.03453500  1
  O  O34  1  0.22051600  0.79421100  0.62440400  1
  O  O35  1  0.45947700  0.01805000  0.88975100  1
  O  O36  1  0.45947700  0.98195000  0.11024900  1
  O  O37  1  0.38652200  0.29448000  0.96546500  1
  O  O38  1  0.74437750  0.84080350  0.75000000  1
  O  O39  1  0.60565700  0.85806200  0.96843800  1
  O  O40  1  0.72746700  0.97108400  0.12393200  1
  O  O41  1  0.18612250  0.84870950  0.39970400  1
  O  O42  1  0.22051600  0.20578900  0.37559600  1
  O  O43  1  0.18612250  0.15129050  0.89970400  1
  O  O44  1  0.60565700  0.14193800  0.46843800  1
  O  O45  1  0.95667350  0.98365350  0.75000000  1
  O  O46  1  0.45947700  0.98195000  0.38975100  1
  O  O47  1  0.60565700  0.14193800  0.03156200  1
  O  O48  1  0.38652200  0.70552000  0.46546500  1
  O  O49  1  0.18612250  0.84870950  0.10029600  1
  O  O50  1  0.60565700  0.85806200  0.53156200  1
  O  O51  1  0.22051600  0.79421100  0.87559600  1
  O  O52  1  0.18612250  0.15129050  0.60029600  1
  O  O53  1  0.38652200  0.29448000  0.53453500  1
  O  O54  1  0.45947700  0.01805000  0.61024900  1
  O  O55  1  0.22051600  0.20578900  0.12440400  1
  O  O56  1  0.72746700  0.02891600  0.87606800  1
  O  O57  1  0.72746700  0.97108400  0.37606800  1
  O  O58  1  0.95667350  0.01634650  0.25000000  1
  O  O59  1  0.74437750  0.15919650  0.25000000  1
  O  O60  1  0.22746700  0.52891600  0.62393200  1
  O  O61  1  0.88652200  0.20552000  0.03453500  1
  O  O62  1  0.72051600  0.29421100  0.62440400  1
  O  O63  1  0.95947700  0.51805000  0.88975100  1
  O  O64  1  0.95947700  0.48195000  0.11024900  1
  O  O65  1  0.88652200  0.79448000  0.96546500  1
  O  O66  1  0.24437750  0.34080350  0.75000000  1
  O  O67  1  0.10565700  0.35806200  0.96843800  1
  O  O68  1  0.22746700  0.47108400  0.12393200  1
  O  O69  1  0.68612250  0.34870950  0.39970400  1
  O  O70  1  0.72051600  0.70578900  0.37559600  1
  O  O71  1  0.68612250  0.65129050  0.89970400  1
  O  O72  1  0.10565700  0.64193800  0.46843800  1
  O  O73  1  0.45667350  0.48365350  0.75000000  1
  O  O74  1  0.95947700  0.48195000  0.38975100  1
  O  O75  1  0.10565700  0.64193800  0.03156200  1
  O  O76  1  0.88652200  0.20552000  0.46546500  1
  O  O77  1  0.68612250  0.34870950  0.10029600  1
  O  O78  1  0.10565700  0.35806200  0.53156200  1
  O  O79  1  0.72051600  0.29421100  0.87559600  1
  O  O80  1  0.68612250  0.65129050  0.60029600  1
  O  O81  1  0.88652200  0.79448000  0.53453500  1
  O  O82  1  0.95947700  0.51805000  0.61024900  1
  O  O83  1  0.72051600  0.70578900  0.12440400  1
  O  O84  1  0.22746700  0.52891600  0.87606800  1
  O  O85  1  0.22746700  0.47108400  0.37606800  1
  O  O86  1  0.45667350  0.51634650  0.25000000  1
  O  O87  1  0.24437750  0.65919650  0.25000000  1
