# generated using pymatgen
data_V3S4
_symmetry_space_group_name_H-M   'P 1'
_cell_length_a   12.22360000
_cell_length_b   3.05472200
_cell_length_c   7.02473499
_cell_angle_alpha   90.00000000
_cell_angle_beta   123.37778324
_cell_angle_gamma   90.00000000
_symmetry_Int_Tables_number   1
_chemical_formula_structural   V3S4
_chemical_formula_sum   'V6 S8'
_cell_volume   219.03781579
_cell_formula_units_Z   2
loop_
 _symmetry_equiv_pos_site_id
 _symmetry_equiv_pos_as_xyz
  1  'x, y, z'
loop_
 _atom_site_type_symbol
 _atom_site_label
 _atom_site_symmetry_multiplicity
 _atom_site_fract_x
 _atom_site_fract_y
 _atom_site_fract_z
 _atom_site_occupancy
  V  V0  1  0.08997900  0.00000000  0.45971700  1
  V  V1  1  0.00000000  0.00000000  0.00000000  1
  V  V2  1  0.91002100  0.00000000  0.54028300  1
  V  V3  1  0.58997900  0.50000000  0.45971700  1
  V  V4  1  0.50000000  0.50000000  0.00000000  1
  V  V5  1  0.41002100  0.50000000  0.54028300  1
  S  S6  1  0.66124500  0.00000000  0.27672500  1
  S  S7  1  0.90761400  0.50000000  0.25570600  1
  S  S8  1  0.33875500  0.00000000  0.72327500  1
  S  S9  1  0.09238600  0.50000000  0.74429400  1
  S  S10  1  0.16124500  0.50000000  0.27672500  1
  S  S11  1  0.40761400  0.00000000  0.25570600  1
  S  S12  1  0.83875500  0.50000000  0.72327500  1
  S  S13  1  0.59238600  0.00000000  0.74429400  1
