# generated using pymatgen
data_La4Al5Br2
_symmetry_space_group_name_H-M   'P 1'
_cell_length_a   16.24111400
_cell_length_b   17.32065600
_cell_length_c   4.36389300
_cell_angle_alpha   90.00000000
_cell_angle_beta   90.00000000
_cell_angle_gamma   90.00000000
_symmetry_Int_Tables_number   1
_chemical_formula_structural   La4Al5Br2
_chemical_formula_sum   'La16 Al20 Br8'
_cell_volume   1227.59255129
_cell_formula_units_Z   4
loop_
 _symmetry_equiv_pos_site_id
 _symmetry_equiv_pos_as_xyz
  1  'x, y, z'
loop_
 _atom_site_type_symbol
 _atom_site_label
 _atom_site_symmetry_multiplicity
 _atom_site_fract_x
 _atom_site_fract_y
 _atom_site_fract_z
 _atom_site_occupancy
  La  La0  1  0.73494900  0.00000000  0.00000000  1
  La  La1  1  0.35859900  0.31829300  0.50000000  1
  La  La2  1  0.50000000  0.13628800  0.00000000  1
  La  La3  1  0.64140100  0.68170700  0.50000000  1
  La  La4  1  0.26505100  0.00000000  0.00000000  1
  La  La5  1  0.50000000  0.86371200  0.00000000  1
  La  La6  1  0.35859900  0.68170700  0.50000000  1
  La  La7  1  0.64140100  0.31829300  0.50000000  1
  La  La8  1  0.23494900  0.50000000  0.00000000  1
  La  La9  1  0.85859900  0.81829300  0.50000000  1
  La  La10  1  0.00000000  0.63628800  0.00000000  1
  La  La11  1  0.14140100  0.18170700  0.50000000  1
  La  La12  1  0.76505100  0.50000000  0.00000000  1
  La  La13  1  0.00000000  0.36371200  0.00000000  1
  La  La14  1  0.85859900  0.18170700  0.50000000  1
  La  La15  1  0.14140100  0.81829300  0.50000000  1
  Al  Al16  1  0.57915800  0.00000000  0.50000000  1
  Al  Al17  1  0.42084200  0.00000000  0.50000000  1
  Al  Al18  1  0.34790600  0.13181200  0.50000000  1
  Al  Al19  1  0.65209400  0.86818800  0.50000000  1
  Al  Al20  1  0.71326700  0.18470600  0.00000000  1
  Al  Al21  1  0.65209400  0.13181200  0.50000000  1
  Al  Al22  1  0.28673300  0.81529400  0.00000000  1
  Al  Al23  1  0.28673300  0.18470600  0.00000000  1
  Al  Al24  1  0.34790600  0.86818800  0.50000000  1
  Al  Al25  1  0.71326700  0.81529400  0.00000000  1
  Al  Al26  1  0.07915800  0.50000000  0.50000000  1
  Al  Al27  1  0.92084200  0.50000000  0.50000000  1
  Al  Al28  1  0.84790600  0.63181200  0.50000000  1
  Al  Al29  1  0.15209400  0.36818800  0.50000000  1
  Al  Al30  1  0.21326700  0.68470600  0.00000000  1
  Al  Al31  1  0.15209400  0.63181200  0.50000000  1
  Al  Al32  1  0.78673300  0.31529400  0.00000000  1
  Al  Al33  1  0.78673300  0.68470600  0.00000000  1
  Al  Al34  1  0.84790600  0.36818800  0.50000000  1
  Al  Al35  1  0.21326700  0.31529400  0.00000000  1
  Br  Br36  1  0.87736600  0.00000000  0.50000000  1
  Br  Br37  1  0.50000000  0.32773400  0.00000000  1
  Br  Br38  1  0.12263400  0.00000000  0.50000000  1
  Br  Br39  1  0.50000000  0.67226600  0.00000000  1
  Br  Br40  1  0.37736600  0.50000000  0.50000000  1
  Br  Br41  1  0.00000000  0.82773400  0.00000000  1
  Br  Br42  1  0.62263400  0.50000000  0.50000000  1
  Br  Br43  1  0.00000000  0.17226600  0.00000000  1
