# generated using pymatgen
data_Dy10Si17
_symmetry_space_group_name_H-M   'P 1'
_cell_length_a   6.70557800
_cell_length_b   8.27162800
_cell_length_c   19.22197400
_cell_angle_alpha   90.00000000
_cell_angle_beta   90.00000000
_cell_angle_gamma   90.00000000
_symmetry_Int_Tables_number   1
_chemical_formula_structural   Dy10Si17
_chemical_formula_sum   'Dy20 Si34'
_cell_volume   1066.16690834
_cell_formula_units_Z   2
loop_
 _symmetry_equiv_pos_site_id
 _symmetry_equiv_pos_as_xyz
  1  'x, y, z'
loop_
 _atom_site_type_symbol
 _atom_site_label
 _atom_site_symmetry_multiplicity
 _atom_site_fract_x
 _atom_site_fract_y
 _atom_site_fract_z
 _atom_site_occupancy
  Dy  Dy0  1  0.23937100  0.75540600  0.00000000  1
  Dy  Dy1  1  0.73686400  0.75192400  0.30022700  1
  Dy  Dy2  1  0.23246800  0.24774000  0.39961900  1
  Dy  Dy3  1  0.73686400  0.24807600  0.30022700  1
  Dy  Dy4  1  0.73246800  0.25226000  0.10038100  1
  Dy  Dy5  1  0.23246800  0.75226000  0.39961900  1
  Dy  Dy6  1  0.23937100  0.24459400  0.00000000  1
  Dy  Dy7  1  0.23686400  0.74807600  0.19977300  1
  Dy  Dy8  1  0.23686400  0.25192400  0.19977300  1
  Dy  Dy9  1  0.73246800  0.74774000  0.10038100  1
  Dy  Dy10  1  0.73937100  0.25540600  0.50000000  1
  Dy  Dy11  1  0.23686400  0.25192400  0.80022700  1
  Dy  Dy12  1  0.73246800  0.74774000  0.89961900  1
  Dy  Dy13  1  0.23686400  0.74807600  0.80022700  1
  Dy  Dy14  1  0.23246800  0.75226000  0.60038100  1
  Dy  Dy15  1  0.73246800  0.25226000  0.89961900  1
  Dy  Dy16  1  0.73937100  0.74459400  0.50000000  1
  Dy  Dy17  1  0.73686400  0.24807600  0.69977300  1
  Dy  Dy18  1  0.73686400  0.75192400  0.69977300  1
  Dy  Dy19  1  0.23246800  0.24774000  0.60038100  1
  Si  Si20  1  0.04513900  0.00000000  0.28562200  1
  Si  Si21  1  0.12105950  0.50000000  0.30092050  1
  Si  Si22  1  0.91934500  0.00000000  0.00000000  1
  Si  Si23  1  0.40403200  0.00000000  0.30049000  1
  Si  Si24  1  0.62105950  0.00000000  0.19907950  1
  Si  Si25  1  0.39101100  0.00000000  0.10423500  1
  Si  Si26  1  0.04514800  0.50000000  0.08285600  1
  Si  Si27  1  0.89101100  0.50000000  0.39576500  1
  Si  Si28  1  0.90403200  0.50000000  0.19951000  1
  Si  Si29  1  0.54514800  0.00000000  0.41714400  1
  Si  Si30  1  0.56935000  0.00000000  0.00000000  1
  Si  Si31  1  0.03585250  0.00000000  0.12036050  1
  Si  Si32  1  0.39932700  0.50000000  0.10017100  1
  Si  Si33  1  0.53585250  0.50000000  0.37963950  1
  Si  Si34  1  0.54513900  0.50000000  0.21437800  1
  Si  Si35  1  0.61059700  0.50000000  0.00000000  1
  Si  Si36  1  0.89932700  0.00000000  0.39982900  1
  Si  Si37  1  0.54513900  0.50000000  0.78562200  1
  Si  Si38  1  0.62105950  0.00000000  0.80092050  1
  Si  Si39  1  0.41934500  0.50000000  0.50000000  1
  Si  Si40  1  0.90403200  0.50000000  0.80049000  1
  Si  Si41  1  0.12105950  0.50000000  0.69907950  1
  Si  Si42  1  0.89101100  0.50000000  0.60423500  1
  Si  Si43  1  0.54514800  0.00000000  0.58285600  1
  Si  Si44  1  0.39101100  0.00000000  0.89576500  1
  Si  Si45  1  0.40403200  0.00000000  0.69951000  1
  Si  Si46  1  0.04514800  0.50000000  0.91714400  1
  Si  Si47  1  0.06935000  0.50000000  0.50000000  1
  Si  Si48  1  0.53585250  0.50000000  0.62036050  1
  Si  Si49  1  0.89932700  0.00000000  0.60017100  1
  Si  Si50  1  0.03585250  0.00000000  0.87963950  1
  Si  Si51  1  0.04513900  0.00000000  0.71437800  1
  Si  Si52  1  0.11059700  0.00000000  0.50000000  1
  Si  Si53  1  0.39932700  0.50000000  0.89982900  1
