# generated using pymatgen
data_LaRh3
_symmetry_space_group_name_H-M   'P 1'
_cell_length_a   5.38004951
_cell_length_b   5.38004951
_cell_length_c   26.87932268
_cell_angle_alpha   90.00000000
_cell_angle_beta   90.00000000
_cell_angle_gamma   120.00000000
_symmetry_Int_Tables_number   1
_chemical_formula_structural   LaRh3
_chemical_formula_sum   'La9 Rh27'
_cell_volume   673.78524615
_cell_formula_units_Z   9
loop_
 _symmetry_equiv_pos_site_id
 _symmetry_equiv_pos_as_xyz
  1  'x, y, z'
loop_
 _atom_site_type_symbol
 _atom_site_label
 _atom_site_symmetry_multiplicity
 _atom_site_fract_x
 _atom_site_fract_y
 _atom_site_fract_z
 _atom_site_occupancy
  La  La0  1  0.00000000  0.00000000  0.13850100  1
  La  La1  1  0.00000000  0.00000000  0.00000000  1
  La  La2  1  0.66666667  0.33333333  0.19483233  1
  La  La3  1  0.66666667  0.33333333  0.47183433  1
  La  La4  1  0.66666667  0.33333333  0.33333333  1
  La  La5  1  0.33333333  0.66666667  0.52816567  1
  La  La6  1  0.33333333  0.66666667  0.80516767  1
  La  La7  1  0.33333333  0.66666667  0.66666667  1
  La  La8  1  0.00000000  0.00000000  0.86149900  1
  Rh  Rh9  1  0.16735200  0.33470400  0.25210200  1
  Rh  Rh10  1  0.16735200  0.83264800  0.25210200  1
  Rh  Rh11  1  0.00137067  0.50068533  0.08123133  1
  Rh  Rh12  1  0.49931467  0.99862933  0.08123133  1
  Rh  Rh13  1  0.66529600  0.83264800  0.25210200  1
  Rh  Rh14  1  0.49931467  0.50068533  0.08123133  1
  Rh  Rh15  1  0.00000000  0.00000000  0.33238200  1
  Rh  Rh16  1  0.66666667  0.33333333  0.00095133  1
  Rh  Rh17  1  0.33333333  0.66666667  0.16666667  1
  Rh  Rh18  1  0.83401867  0.66803733  0.58543533  1
  Rh  Rh19  1  0.83401867  0.16598133  0.58543533  1
  Rh  Rh20  1  0.66803733  0.83401867  0.41456467  1
  Rh  Rh21  1  0.16598133  0.33196267  0.41456467  1
  Rh  Rh22  1  0.33196267  0.16598133  0.58543533  1
  Rh  Rh23  1  0.16598133  0.83401867  0.41456467  1
  Rh  Rh24  1  0.66666667  0.33333333  0.66571533  1
  Rh  Rh25  1  0.33333333  0.66666667  0.33428467  1
  Rh  Rh26  1  1.00000000  1.00000000  0.50000000  1
  Rh  Rh27  1  0.50068533  0.00137067  0.91876867  1
  Rh  Rh28  1  0.50068533  0.49931467  0.91876867  1
  Rh  Rh29  1  0.33470400  0.16735200  0.74789800  1
  Rh  Rh30  1  0.83264800  0.66529600  0.74789800  1
  Rh  Rh31  1  0.99862933  0.49931467  0.91876867  1
  Rh  Rh32  1  0.83264800  0.16735200  0.74789800  1
  Rh  Rh33  1  0.33333333  0.66666667  0.99904867  1
  Rh  Rh34  1  0.00000000  0.00000000  0.66761800  1
  Rh  Rh35  1  0.66666667  0.33333333  0.83333333  1
