# generated using pymatgen
data_Tl(MoO3)3
_symmetry_space_group_name_H-M   'P 1'
_cell_length_a   15.41161000
_cell_length_b   7.85105600
_cell_length_c   6.57871766
_cell_angle_alpha   90.00000000
_cell_angle_beta   92.77521160
_cell_angle_gamma   90.00000000
_symmetry_Int_Tables_number   1
_chemical_formula_structural   Tl(MoO3)3
_chemical_formula_sum   'Tl4 Mo12 O36'
_cell_volume   795.07424387
_cell_formula_units_Z   4
loop_
 _symmetry_equiv_pos_site_id
 _symmetry_equiv_pos_as_xyz
  1  'x, y, z'
loop_
 _atom_site_type_symbol
 _atom_site_label
 _atom_site_symmetry_multiplicity
 _atom_site_fract_x
 _atom_site_fract_y
 _atom_site_fract_z
 _atom_site_occupancy
  Tl  Tl0  1  0.69849800  0.00000000  0.82294800  1
  Tl  Tl1  1  0.80150200  0.50000000  0.17705200  1
  Tl  Tl2  1  0.19849800  0.50000000  0.82294800  1
  Tl  Tl3  1  0.30150200  0.00000000  0.17705200  1
  Mo  Mo4  1  0.88296700  0.00000000  0.36195800  1
  Mo  Mo5  1  0.61703300  0.50000000  0.63804200  1
  Mo  Mo6  1  0.94425300  0.25984600  0.73162200  1
  Mo  Mo7  1  0.55574700  0.75984600  0.26837800  1
  Mo  Mo8  1  0.55574700  0.24015400  0.26837800  1
  Mo  Mo9  1  0.94425300  0.74015400  0.73162200  1
  Mo  Mo10  1  0.38296700  0.50000000  0.36195800  1
  Mo  Mo11  1  0.11703300  0.00000000  0.63804200  1
  Mo  Mo12  1  0.44425300  0.75984600  0.73162200  1
  Mo  Mo13  1  0.05574700  0.25984600  0.26837800  1
  Mo  Mo14  1  0.05574700  0.74015400  0.26837800  1
  Mo  Mo15  1  0.44425300  0.24015400  0.73162200  1
  O  O16  1  0.00000000  0.25167900  0.00000000  1
  O  O17  1  0.00000000  0.74832100  0.00000000  1
  O  O18  1  0.78533200  0.00000000  0.48375100  1
  O  O19  1  0.71466800  0.50000000  0.51624900  1
  O  O20  1  0.85224200  0.00000000  0.10550800  1
  O  O21  1  0.64775800  0.50000000  0.89449200  1
  O  O22  1  0.96332000  0.50000000  0.70408500  1
  O  O23  1  0.53668000  0.00000000  0.29591500  1
  O  O24  1  0.96463800  0.00000000  0.69334500  1
  O  O25  1  0.53536200  0.50000000  0.30665500  1
  O  O26  1  0.83660050  0.26045550  0.78889600  1
  O  O27  1  0.66339950  0.76045550  0.21110400  1
  O  O28  1  0.66339950  0.23954450  0.21110400  1
  O  O29  1  0.83660050  0.73954450  0.78889600  1
  O  O30  1  0.92086800  0.23612100  0.41347300  1
  O  O31  1  0.57913200  0.73612100  0.58652700  1
  O  O32  1  0.57913200  0.26387900  0.58652700  1
  O  O33  1  0.92086800  0.76387900  0.41347300  1
  O  O34  1  0.50000000  0.75167900  0.00000000  1
  O  O35  1  0.50000000  0.24832100  0.00000000  1
  O  O36  1  0.28533200  0.50000000  0.48375100  1
  O  O37  1  0.21466800  0.00000000  0.51624900  1
  O  O38  1  0.35224200  0.50000000  0.10550800  1
  O  O39  1  0.14775800  0.00000000  0.89449200  1
  O  O40  1  0.46332000  0.00000000  0.70408500  1
  O  O41  1  0.03668000  0.50000000  0.29591500  1
  O  O42  1  0.46463800  0.50000000  0.69334500  1
  O  O43  1  0.03536200  0.00000000  0.30665500  1
  O  O44  1  0.33660050  0.76045550  0.78889600  1
  O  O45  1  0.16339950  0.26045550  0.21110400  1
  O  O46  1  0.16339950  0.73954450  0.21110400  1
  O  O47  1  0.33660050  0.23954450  0.78889600  1
  O  O48  1  0.42086800  0.73612100  0.41347300  1
  O  O49  1  0.07913200  0.23612100  0.58652700  1
  O  O50  1  0.07913200  0.76387900  0.58652700  1
  O  O51  1  0.42086800  0.26387900  0.41347300  1
