# generated using pymatgen
data_P3Pd7
_symmetry_space_group_name_H-M   'P 1'
_cell_length_a   12.10033137
_cell_length_b   12.10033137
_cell_length_c   7.16793341
_cell_angle_alpha   90.00000000
_cell_angle_beta   90.00000000
_cell_angle_gamma   120.00000000
_symmetry_Int_Tables_number   1
_chemical_formula_structural   P3Pd7
_chemical_formula_sum   'P18 Pd42'
_cell_volume   908.90631550
_cell_formula_units_Z   6
loop_
 _symmetry_equiv_pos_site_id
 _symmetry_equiv_pos_as_xyz
  1  'x, y, z'
loop_
 _atom_site_type_symbol
 _atom_site_label
 _atom_site_symmetry_multiplicity
 _atom_site_fract_x
 _atom_site_fract_y
 _atom_site_fract_z
 _atom_site_occupancy
  P  P0  1  0.51784633  0.85887867  0.35879367  1
  P  P1  1  0.80778800  0.99230100  0.69212700  1
  P  P2  1  0.67436567  0.14882033  0.02546033  1
  P  P3  1  0.98813200  0.18222100  0.25942200  1
  P  P4  1  0.15111233  0.47257767  0.92608867  1
  P  P5  1  0.86075567  0.34520133  0.59275533  1
  P  P6  1  0.18451300  0.19221200  0.69212700  1
  P  P7  1  0.47445467  0.32563433  0.02546033  1
  P  P8  1  0.34103233  0.48215367  0.35879367  1
  P  P9  1  0.65479867  0.51555433  0.59275533  1
  P  P10  1  0.81777900  0.80591100  0.25942200  1
  P  P11  1  0.52742233  0.67853467  0.92608867  1
  P  P12  1  0.85117967  0.52554533  0.02546033  1
  P  P13  1  0.14112133  0.65896767  0.35879367  1
  P  P14  1  0.00769900  0.81548700  0.69212700  1
  P  P15  1  0.32146533  0.84888767  0.92608867  1
  P  P16  1  0.48444567  0.13924433  0.59275533  1
  P  P17  1  0.19408900  0.01186800  0.25942200  1
  Pd  Pd18  1  0.83144933  0.09533067  0.98727267  1
  Pd  Pd19  1  0.57133600  0.06945200  0.32060600  1
  Pd  Pd20  1  0.59721467  0.83521733  0.65393933  1
  Pd  Pd21  1  0.09351367  0.25906433  0.96128133  1
  Pd  Pd22  1  0.07426900  0.50111600  0.62794800  1
  Pd  Pd23  1  0.83221733  0.23981967  0.29461467  1
  Pd  Pd24  1  0.96707367  0.20654733  0.59533533  1
  Pd  Pd25  1  0.12678600  0.42719300  0.26200200  1
  Pd  Pd26  1  0.90614033  0.36625967  0.92866867  1
  Pd  Pd27  1  0.53645767  0.89779133  0.02246433  1
  Pd  Pd28  1  0.76887533  0.97199967  0.35579767  1
  Pd  Pd29  1  0.69466700  0.13020900  0.68913100  1
  Pd  Pd30  1  0.00000000  0.00000000  0.77537400  1
  Pd  Pd31  1  0.00000000  0.00000000  0.17191900  1
  Pd  Pd32  1  0.49811600  0.42866400  0.32060600  1
  Pd  Pd33  1  0.23800267  0.40278533  0.65393933  1
  Pd  Pd34  1  0.26388133  0.16855067  0.98727267  1
  Pd  Pd35  1  0.76018033  0.59239767  0.29461467  1
  Pd  Pd36  1  0.74093567  0.83444933  0.96128133  1
  Pd  Pd37  1  0.49888400  0.57315300  0.62794800  1
  Pd  Pd38  1  0.63374033  0.53988067  0.92866867  1
  Pd  Pd39  1  0.79345267  0.76052633  0.59533533  1
  Pd  Pd40  1  0.57280700  0.69959300  0.26200200  1
  Pd  Pd41  1  0.20312433  0.23112467  0.35579767  1
  Pd  Pd42  1  0.43554200  0.30533300  0.68913100  1
  Pd  Pd43  1  0.36133367  0.46354233  0.02246433  1
  Pd  Pd44  1  0.66666667  0.33333333  0.10870733  1
  Pd  Pd45  1  0.66666667  0.33333333  0.50525233  1
  Pd  Pd46  1  0.16478267  0.76199733  0.65393933  1
  Pd  Pd47  1  0.90466933  0.73611867  0.98727267  1
  Pd  Pd48  1  0.93054800  0.50188400  0.32060600  1
  Pd  Pd49  1  0.42684700  0.92573100  0.62794800  1
  Pd  Pd50  1  0.40760233  0.16778267  0.29461467  1
  Pd  Pd51  1  0.16555067  0.90648633  0.96128133  1
  Pd  Pd52  1  0.30040700  0.87321400  0.26200200  1
  Pd  Pd53  1  0.46011933  0.09385967  0.92866867  1
  Pd  Pd54  1  0.23947367  0.03292633  0.59533533  1
  Pd  Pd55  1  0.86979100  0.56445800  0.68913100  1
  Pd  Pd56  1  0.10220867  0.63866633  0.02246433  1
  Pd  Pd57  1  0.02800033  0.79687567  0.35579767  1
  Pd  Pd58  1  0.33333333  0.66666667  0.44204067  1
  Pd  Pd59  1  0.33333333  0.66666667  0.83858567  1
