# generated using pymatgen
data_Yb2(Ni5B3)3
_symmetry_space_group_name_H-M   'P 1'
_cell_length_a   11.54362000
_cell_length_b   15.75899200
_cell_length_c   11.19306100
_cell_angle_alpha   90.00000000
_cell_angle_beta   90.00000000
_cell_angle_gamma   90.00000000
_symmetry_Int_Tables_number   1
_chemical_formula_structural   Yb2(Ni5B3)3
_chemical_formula_sum   'Yb16 Ni120 B72'
_cell_volume   2036.19481675
_cell_formula_units_Z   8
loop_
 _symmetry_equiv_pos_site_id
 _symmetry_equiv_pos_as_xyz
  1  'x, y, z'
loop_
 _atom_site_type_symbol
 _atom_site_label
 _atom_site_symmetry_multiplicity
 _atom_site_fract_x
 _atom_site_fract_y
 _atom_site_fract_z
 _atom_site_occupancy
  Yb  Yb0  1  0.26112800  0.00000000  0.45988000  1
  Yb  Yb1  1  0.73887200  0.00000000  0.54012000  1
  Yb  Yb2  1  0.44451700  0.25000000  0.25000000  1
  Yb  Yb3  1  0.44451700  0.75000000  0.25000000  1
  Yb  Yb4  1  0.55548300  0.75000000  0.75000000  1
  Yb  Yb5  1  0.76112800  0.00000000  0.04012000  1
  Yb  Yb6  1  0.55548300  0.25000000  0.75000000  1
  Yb  Yb7  1  0.23887200  0.00000000  0.95988000  1
  Yb  Yb8  1  0.76112800  0.50000000  0.45988000  1
  Yb  Yb9  1  0.23887200  0.50000000  0.54012000  1
  Yb  Yb10  1  0.94451700  0.75000000  0.25000000  1
  Yb  Yb11  1  0.94451700  0.25000000  0.25000000  1
  Yb  Yb12  1  0.05548300  0.25000000  0.75000000  1
  Yb  Yb13  1  0.26112800  0.50000000  0.04012000  1
  Yb  Yb14  1  0.05548300  0.75000000  0.75000000  1
  Yb  Yb15  1  0.73887200  0.50000000  0.95988000  1
  Ni  Ni16  1  0.41107300  0.59590100  0.66026700  1
  Ni  Ni17  1  0.39927350  0.76364250  0.97107000  1
  Ni  Ni18  1  0.31745900  0.75000000  0.75000000  1
  Ni  Ni19  1  0.39927350  0.23635750  0.97107000  1
  Ni  Ni20  1  0.08950050  0.92035150  0.80676300  1
  Ni  Ni21  1  0.63664950  0.89409950  0.90299100  1
  Ni  Ni22  1  0.58950050  0.92035150  0.69323700  1
  Ni  Ni23  1  0.22284750  0.16919650  0.91490600  1
  Ni  Ni24  1  0.58892700  0.90409900  0.16026700  1
  Ni  Ni25  1  0.38752150  0.88387350  0.61687500  1
  Ni  Ni26  1  0.61247850  0.88387350  0.38312500  1
  Ni  Ni27  1  0.58950050  0.07964850  0.69323700  1
  Ni  Ni28  1  0.63664950  0.10590050  0.90299100  1
  Ni  Ni29  1  0.41107300  0.90409900  0.83973300  1
  Ni  Ni30  1  0.60072650  0.76364250  0.02893000  1
  Ni  Ni31  1  0.77715250  0.83080350  0.08509400  1
  Ni  Ni32  1  0.41049950  0.07964850  0.30676300  1
  Ni  Ni33  1  0.58892700  0.09590100  0.16026700  1
  Ni  Ni34  1  0.61247850  0.61612650  0.11687500  1
  Ni  Ni35  1  0.72284750  0.83080350  0.58509400  1
  Ni  Ni36  1  0.86335050  0.89409950  0.40299100  1
  Ni  Ni37  1  0.58892700  0.59590100  0.33973300  1
  Ni  Ni38  1  0.27715250  0.83080350  0.41490600  1
  Ni  Ni39  1  0.36335050  0.10590050  0.09700900  1
  Ni  Ni40  1  0.91049950  0.07964850  0.19323700  1
  Ni  Ni41  1  0.00000000  0.00000000  0.50000000  1
  Ni  Ni42  1  0.41049950  0.92035150  0.30676300  1
  Ni  Ni43  1  0.41107300  0.09590100  0.83973300  1
  Ni  Ni44  1  0.27715250  0.16919650  0.41490600  1
  Ni  Ni45  1  0.68254100  0.25000000  0.25000000  1
  Ni  Ni46  1  0.23526200  0.00000000  0.21297400  1
  Ni  Ni47  1  0.50000000  0.00000000  0.50000000  1
  Ni  Ni48  1  0.60072650  0.73635750  0.47107000  1
  Ni  Ni49  1  0.08950050  0.07964850  0.80676300  1
  Ni  Ni50  1  0.77715250  0.16919650  0.08509400  1
  Ni  Ni51  1  0.38752150  0.11612650  0.61687500  1
  Ni  Ni52  1  0.86335050  0.10590050  0.40299100  1
  Ni  Ni53  1  0.38752150  0.61612650  0.88312500  1
  Ni  Ni54  1  0.73526200  0.00000000  0.28702600  1
  Ni  Ni55  1  0.60072650  0.23635750  0.02893000  1
  Ni  Ni56  1  0.76473800  0.00000000  0.78702600  1
  Ni  Ni57  1  0.91049950  0.92035150  0.19323700  1
  Ni  Ni58  1  0.50000000  0.00000000  0.00000000  1
  Ni  Ni59  1  0.61247850  0.38387350  0.11687500  1
  Ni  Ni60  1  0.22284750  0.83080350  0.91490600  1
  Ni  Ni61  1  0.61247850  0.11612650  0.38312500  1
  Ni  Ni62  1  0.31745900  0.25000000  0.75000000  1
  Ni  Ni63  1  0.13664950  0.89409950  0.59700900  1
  Ni  Ni64  1  0.41107300  0.40409900  0.66026700  1
  Ni  Ni65  1  0.58892700  0.40409900  0.33973300  1
  Ni  Ni66  1  0.13664950  0.10590050  0.59700900  1
  Ni  Ni67  1  0.72284750  0.16919650  0.58509400  1
  Ni  Ni68  1  0.00000000  0.00000000  0.00000000  1
  Ni  Ni69  1  0.36335050  0.89409950  0.09700900  1
  Ni  Ni70  1  0.68254100  0.75000000  0.25000000  1
  Ni  Ni71  1  0.60072650  0.26364250  0.47107000  1
  Ni  Ni72  1  0.39927350  0.26364250  0.52893000  1
  Ni  Ni73  1  0.26473800  0.00000000  0.71297400  1
  Ni  Ni74  1  0.38752150  0.38387350  0.88312500  1
  Ni  Ni75  1  0.39927350  0.73635750  0.52893000  1
  Ni  Ni76  1  0.91107300  0.09590100  0.66026700  1
  Ni  Ni77  1  0.89927350  0.26364250  0.97107000  1
  Ni  Ni78  1  0.81745900  0.25000000  0.75000000  1
  Ni  Ni79  1  0.89927350  0.73635750  0.97107000  1
  Ni  Ni80  1  0.58950050  0.42035150  0.80676300  1
  Ni  Ni81  1  0.13664950  0.39409950  0.90299100  1
  Ni  Ni82  1  0.08950050  0.42035150  0.69323700  1
  Ni  Ni83  1  0.72284750  0.66919650  0.91490600  1
  Ni  Ni84  1  0.08892700  0.40409900  0.16026700  1
  Ni  Ni85  1  0.88752150  0.38387350  0.61687500  1
  Ni  Ni86  1  0.11247850  0.38387350  0.38312500  1
  Ni  Ni87  1  0.08950050  0.57964850  0.69323700  1
  Ni  Ni88  1  0.13664950  0.60590050  0.90299100  1
  Ni  Ni89  1  0.91107300  0.40409900  0.83973300  1
  Ni  Ni90  1  0.10072650  0.26364250  0.02893000  1
  Ni  Ni91  1  0.27715250  0.33080350  0.08509400  1
  Ni  Ni92  1  0.91049950  0.57964850  0.30676300  1
  Ni  Ni93  1  0.08892700  0.59590100  0.16026700  1
  Ni  Ni94  1  0.11247850  0.11612650  0.11687500  1
  Ni  Ni95  1  0.22284750  0.33080350  0.58509400  1
  Ni  Ni96  1  0.36335050  0.39409950  0.40299100  1
  Ni  Ni97  1  0.08892700  0.09590100  0.33973300  1
  Ni  Ni98  1  0.77715250  0.33080350  0.41490600  1
  Ni  Ni99  1  0.86335050  0.60590050  0.09700900  1
  Ni  Ni100  1  0.41049950  0.57964850  0.19323700  1
  Ni  Ni101  1  0.50000000  0.50000000  0.50000000  1
  Ni  Ni102  1  0.91049950  0.42035150  0.30676300  1
  Ni  Ni103  1  0.91107300  0.59590100  0.83973300  1
  Ni  Ni104  1  0.77715250  0.66919650  0.41490600  1
  Ni  Ni105  1  0.18254100  0.75000000  0.25000000  1
  Ni  Ni106  1  0.73526200  0.50000000  0.21297400  1
  Ni  Ni107  1  0.00000000  0.50000000  0.50000000  1
  Ni  Ni108  1  0.10072650  0.23635750  0.47107000  1
  Ni  Ni109  1  0.58950050  0.57964850  0.80676300  1
  Ni  Ni110  1  0.27715250  0.66919650  0.08509400  1
  Ni  Ni111  1  0.88752150  0.61612650  0.61687500  1
  Ni  Ni112  1  0.36335050  0.60590050  0.40299100  1
  Ni  Ni113  1  0.88752150  0.11612650  0.88312500  1
  Ni  Ni114  1  0.23526200  0.50000000  0.28702600  1
  Ni  Ni115  1  0.10072650  0.73635750  0.02893000  1
  Ni  Ni116  1  0.26473800  0.50000000  0.78702600  1
  Ni  Ni117  1  0.41049950  0.42035150  0.19323700  1
  Ni  Ni118  1  0.00000000  0.50000000  0.00000000  1
  Ni  Ni119  1  0.11247850  0.88387350  0.11687500  1
  Ni  Ni120  1  0.72284750  0.33080350  0.91490600  1
  Ni  Ni121  1  0.11247850  0.61612650  0.38312500  1
  Ni  Ni122  1  0.81745900  0.75000000  0.75000000  1
  Ni  Ni123  1  0.63664950  0.39409950  0.59700900  1
  Ni  Ni124  1  0.91107300  0.90409900  0.66026700  1
  Ni  Ni125  1  0.08892700  0.90409900  0.33973300  1
  Ni  Ni126  1  0.63664950  0.60590050  0.59700900  1
  Ni  Ni127  1  0.22284750  0.66919650  0.58509400  1
  Ni  Ni128  1  0.50000000  0.50000000  0.00000000  1
  Ni  Ni129  1  0.86335050  0.39409950  0.09700900  1
  Ni  Ni130  1  0.18254100  0.25000000  0.25000000  1
  Ni  Ni131  1  0.10072650  0.76364250  0.47107000  1
  Ni  Ni132  1  0.89927350  0.76364250  0.52893000  1
  Ni  Ni133  1  0.76473800  0.50000000  0.71297400  1
  Ni  Ni134  1  0.88752150  0.88387350  0.88312500  1
  Ni  Ni135  1  0.89927350  0.23635750  0.52893000  1
  B  B136  1  0.44604650  0.35172150  0.05126200  1
  B  B137  1  0.50000000  0.36556100  0.50000000  1
  B  B138  1  0.24937400  0.20090400  0.59857100  1
  B  B139  1  0.74932950  0.12904350  0.75601100  1
  B  B140  1  0.75067050  0.87095650  0.25601100  1
  B  B141  1  0.25067050  0.12904350  0.24398900  1
  B  B142  1  0.24932950  0.12904350  0.74398900  1
  B  B143  1  0.24937400  0.79909600  0.59857100  1
  B  B144  1  0.55395350  0.35172150  0.94873800  1
  B  B145  1  0.54368900  0.00000000  0.82725000  1
  B  B146  1  0.50000000  0.63443900  0.50000000  1
  B  B147  1  0.25062600  0.20090400  0.09857100  1
  B  B148  1  0.50000000  0.13443900  0.00000000  1
  B  B149  1  0.24932950  0.87095650  0.74398900  1
  B  B150  1  0.55787300  0.00000000  0.30089900  1
  B  B151  1  0.74937400  0.20090400  0.90142900  1
  B  B152  1  0.55395350  0.85172150  0.55126200  1
  B  B153  1  0.25067050  0.87095650  0.24398900  1
  B  B154  1  0.75062600  0.79909600  0.40142900  1
  B  B155  1  0.44212700  0.00000000  0.69910100  1
  B  B156  1  0.55395350  0.14827850  0.55126200  1
  B  B157  1  0.75062600  0.20090400  0.40142900  1
  B  B158  1  0.74932950  0.87095650  0.75601100  1
  B  B159  1  0.44604650  0.14827850  0.44873800  1
  B  B160  1  0.05787300  0.00000000  0.19910100  1
  B  B161  1  0.45631100  0.00000000  0.17275000  1
  B  B162  1  0.55395350  0.64827850  0.94873800  1
  B  B163  1  0.95631100  0.00000000  0.32725000  1
  B  B164  1  0.50000000  0.86556100  0.00000000  1
  B  B165  1  0.25062600  0.79909600  0.09857100  1
  B  B166  1  0.94212700  0.00000000  0.80089900  1
  B  B167  1  0.44604650  0.85172150  0.44873800  1
  B  B168  1  0.75067050  0.12904350  0.25601100  1
  B  B169  1  0.74937400  0.79909600  0.90142900  1
  B  B170  1  0.04368900  0.00000000  0.67275000  1
  B  B171  1  0.44604650  0.64827850  0.05126200  1
  B  B172  1  0.94604650  0.85172150  0.05126200  1
  B  B173  1  0.00000000  0.86556100  0.50000000  1
  B  B174  1  0.74937400  0.70090400  0.59857100  1
  B  B175  1  0.24932950  0.62904350  0.75601100  1
  B  B176  1  0.25067050  0.37095650  0.25601100  1
  B  B177  1  0.75067050  0.62904350  0.24398900  1
  B  B178  1  0.74932950  0.62904350  0.74398900  1
  B  B179  1  0.74937400  0.29909600  0.59857100  1
  B  B180  1  0.05395350  0.85172150  0.94873800  1
  B  B181  1  0.04368900  0.50000000  0.82725000  1
  B  B182  1  0.00000000  0.13443900  0.50000000  1
  B  B183  1  0.75062600  0.70090400  0.09857100  1
  B  B184  1  0.00000000  0.63443900  0.00000000  1
  B  B185  1  0.74932950  0.37095650  0.74398900  1
  B  B186  1  0.05787300  0.50000000  0.30089900  1
  B  B187  1  0.24937400  0.70090400  0.90142900  1
  B  B188  1  0.05395350  0.35172150  0.55126200  1
  B  B189  1  0.75067050  0.37095650  0.24398900  1
  B  B190  1  0.25062600  0.29909600  0.40142900  1
  B  B191  1  0.94212700  0.50000000  0.69910100  1
  B  B192  1  0.05395350  0.64827850  0.55126200  1
  B  B193  1  0.25062600  0.70090400  0.40142900  1
  B  B194  1  0.24932950  0.37095650  0.75601100  1
  B  B195  1  0.94604650  0.64827850  0.44873800  1
  B  B196  1  0.55787300  0.50000000  0.19910100  1
  B  B197  1  0.95631100  0.50000000  0.17275000  1
  B  B198  1  0.05395350  0.14827850  0.94873800  1
  B  B199  1  0.45631100  0.50000000  0.32725000  1
  B  B200  1  0.00000000  0.36556100  0.00000000  1
  B  B201  1  0.75062600  0.29909600  0.09857100  1
  B  B202  1  0.44212700  0.50000000  0.80089900  1
  B  B203  1  0.94604650  0.35172150  0.44873800  1
  B  B204  1  0.25067050  0.62904350  0.25601100  1
  B  B205  1  0.24937400  0.29909600  0.90142900  1
  B  B206  1  0.54368900  0.50000000  0.67275000  1
  B  B207  1  0.94604650  0.14827850  0.05126200  1
