# generated using pymatgen
data_Cr2(Bi2O5)3
_symmetry_space_group_name_H-M   'P 1'
_cell_length_a   12.76543800
_cell_length_b   20.20424800
_cell_length_c   5.99156800
_cell_angle_alpha   90.00000000
_cell_angle_beta   90.00000000
_cell_angle_gamma   90.00000000
_symmetry_Int_Tables_number   1
_chemical_formula_structural   Cr2(Bi2O5)3
_chemical_formula_sum   'Cr8 Bi24 O60'
_cell_volume   1545.32170274
_cell_formula_units_Z   4
loop_
 _symmetry_equiv_pos_site_id
 _symmetry_equiv_pos_as_xyz
  1  'x, y, z'
loop_
 _atom_site_type_symbol
 _atom_site_label
 _atom_site_symmetry_multiplicity
 _atom_site_fract_x
 _atom_site_fract_y
 _atom_site_fract_z
 _atom_site_occupancy
  Cr  Cr0  1  0.37184900  0.16274300  0.14600100  1
  Cr  Cr1  1  0.62815100  0.83725700  0.14600100  1
  Cr  Cr2  1  0.62815100  0.16274300  0.64600100  1
  Cr  Cr3  1  0.37184900  0.83725700  0.64600100  1
  Cr  Cr4  1  0.87184900  0.66274300  0.14600100  1
  Cr  Cr5  1  0.12815100  0.33725700  0.14600100  1
  Cr  Cr6  1  0.12815100  0.66274300  0.64600100  1
  Cr  Cr7  1  0.87184900  0.33725700  0.64600100  1
  Bi  Bi8  1  0.31661050  0.06863850  0.67541000  1
  Bi  Bi9  1  0.68338950  0.93136150  0.67541000  1
  Bi  Bi10  1  0.68338950  0.06863850  0.17541000  1
  Bi  Bi11  1  0.31661050  0.93136150  0.17541000  1
  Bi  Bi12  1  0.59605550  0.70180150  0.66984200  1
  Bi  Bi13  1  0.40394450  0.29819850  0.66984200  1
  Bi  Bi14  1  0.40394450  0.70180150  0.16984200  1
  Bi  Bi15  1  0.59605550  0.29819850  0.16984200  1
  Bi  Bi16  1  0.10863200  0.06256300  0.27603400  1
  Bi  Bi17  1  0.89136800  0.93743700  0.27603400  1
  Bi  Bi18  1  0.89136800  0.06256300  0.77603400  1
  Bi  Bi19  1  0.10863200  0.93743700  0.77603400  1
  Bi  Bi20  1  0.81661050  0.56863850  0.67541000  1
  Bi  Bi21  1  0.18338950  0.43136150  0.67541000  1
  Bi  Bi22  1  0.18338950  0.56863850  0.17541000  1
  Bi  Bi23  1  0.81661050  0.43136150  0.17541000  1
  Bi  Bi24  1  0.09605550  0.20180150  0.66984200  1
  Bi  Bi25  1  0.90394450  0.79819850  0.66984200  1
  Bi  Bi26  1  0.90394450  0.20180150  0.16984200  1
  Bi  Bi27  1  0.09605550  0.79819850  0.16984200  1
  Bi  Bi28  1  0.60863200  0.56256300  0.27603400  1
  Bi  Bi29  1  0.39136800  0.43743700  0.27603400  1
  Bi  Bi30  1  0.39136800  0.56256300  0.77603400  1
  Bi  Bi31  1  0.60863200  0.43743700  0.77603400  1
  O  O32  1  0.44897550  0.22705850  0.07729800  1
  O  O33  1  0.55102450  0.77294150  0.07729800  1
  O  O34  1  0.55102450  0.22705850  0.57729800  1
  O  O35  1  0.44897550  0.77294150  0.57729800  1
  O  O36  1  0.43821200  0.09324000  0.14003200  1
  O  O37  1  0.56178800  0.90676000  0.14003200  1
  O  O38  1  0.56178800  0.09324000  0.64003200  1
  O  O39  1  0.43821200  0.90676000  0.64003200  1
  O  O40  1  0.27670850  0.15675950  0.94921700  1
  O  O41  1  0.72329150  0.84324050  0.94921700  1
  O  O42  1  0.72329150  0.15675950  0.44921700  1
  O  O43  1  0.27670850  0.84324050  0.44921700  1
  O  O44  1  0.31971350  0.17302150  0.39913000  1
  O  O45  1  0.68028650  0.82697850  0.39913000  1
  O  O46  1  0.68028650  0.17302150  0.89913000  1
  O  O47  1  0.31971350  0.82697850  0.89913000  1
  O  O48  1  0.25199550  0.99784150  0.90997300  1
  O  O49  1  0.74800450  0.00215850  0.90997300  1
  O  O50  1  0.74800450  0.99784150  0.40997300  1
  O  O51  1  0.25199550  0.00215850  0.40997300  1
  O  O52  1  0.51284550  0.34413250  0.88980200  1
  O  O53  1  0.48715450  0.65586750  0.88980200  1
  O  O54  1  0.48715450  0.34413250  0.38980200  1
  O  O55  1  0.51284550  0.65586750  0.38980200  1
  O  O56  1  0.84397000  0.90183100  0.61986400  1
  O  O57  1  0.15603000  0.09816900  0.61986400  1
  O  O58  1  0.15603000  0.90183100  0.11986400  1
  O  O59  1  0.84397000  0.09816900  0.11986400  1
  O  O60  1  0.00000000  0.00000000  0.95969200  1
  O  O61  1  0.00000000  0.00000000  0.45969200  1
  O  O62  1  0.94897550  0.72705850  0.07729800  1
  O  O63  1  0.05102450  0.27294150  0.07729800  1
  O  O64  1  0.05102450  0.72705850  0.57729800  1
  O  O65  1  0.94897550  0.27294150  0.57729800  1
  O  O66  1  0.93821200  0.59324000  0.14003200  1
  O  O67  1  0.06178800  0.40676000  0.14003200  1
  O  O68  1  0.06178800  0.59324000  0.64003200  1
  O  O69  1  0.93821200  0.40676000  0.64003200  1
  O  O70  1  0.77670850  0.65675950  0.94921700  1
  O  O71  1  0.22329150  0.34324050  0.94921700  1
  O  O72  1  0.22329150  0.65675950  0.44921700  1
  O  O73  1  0.77670850  0.34324050  0.44921700  1
  O  O74  1  0.81971350  0.67302150  0.39913000  1
  O  O75  1  0.18028650  0.32697850  0.39913000  1
  O  O76  1  0.18028650  0.67302150  0.89913000  1
  O  O77  1  0.81971350  0.32697850  0.89913000  1
  O  O78  1  0.75199550  0.49784150  0.90997300  1
  O  O79  1  0.24800450  0.50215850  0.90997300  1
  O  O80  1  0.24800450  0.49784150  0.40997300  1
  O  O81  1  0.75199550  0.50215850  0.40997300  1
  O  O82  1  0.01284550  0.84413250  0.88980200  1
  O  O83  1  0.98715450  0.15586750  0.88980200  1
  O  O84  1  0.98715450  0.84413250  0.38980200  1
  O  O85  1  0.01284550  0.15586750  0.38980200  1
  O  O86  1  0.34397000  0.40183100  0.61986400  1
  O  O87  1  0.65603000  0.59816900  0.61986400  1
  O  O88  1  0.65603000  0.40183100  0.11986400  1
  O  O89  1  0.34397000  0.59816900  0.11986400  1
  O  O90  1  0.50000000  0.50000000  0.95969200  1
  O  O91  1  0.50000000  0.50000000  0.45969200  1
