# generated using pymatgen
data_Ba7MnFe6F34
_symmetry_space_group_name_H-M   'P 1'
_cell_length_a   17.33518600
_cell_length_b   11.59204400
_cell_length_c   7.84667806
_cell_angle_alpha   90.00000000
_cell_angle_beta   102.18727300
_cell_angle_gamma   90.00000000
_symmetry_Int_Tables_number   1
_chemical_formula_structural   Ba7MnFe6F34
_chemical_formula_sum   'Ba14 Mn2 Fe12 F68'
_cell_volume   1541.25537622
_cell_formula_units_Z   2
loop_
 _symmetry_equiv_pos_site_id
 _symmetry_equiv_pos_as_xyz
  1  'x, y, z'
loop_
 _atom_site_type_symbol
 _atom_site_label
 _atom_site_symmetry_multiplicity
 _atom_site_fract_x
 _atom_site_fract_y
 _atom_site_fract_z
 _atom_site_occupancy
  Ba  Ba0  1  0.64247150  0.19757850  0.29628100  1
  Ba  Ba1  1  0.35752850  0.19757850  0.70371900  1
  Ba  Ba2  1  0.35752850  0.80242150  0.70371900  1
  Ba  Ba3  1  0.64247150  0.80242150  0.29628100  1
  Ba  Ba4  1  0.73763600  0.00000000  0.87498800  1
  Ba  Ba5  1  0.26236400  0.00000000  0.12501200  1
  Ba  Ba6  1  0.00000000  0.00000000  0.00000000  1
  Ba  Ba7  1  0.14247150  0.69757850  0.29628100  1
  Ba  Ba8  1  0.85752850  0.69757850  0.70371900  1
  Ba  Ba9  1  0.85752850  0.30242150  0.70371900  1
  Ba  Ba10  1  0.14247150  0.30242150  0.29628100  1
  Ba  Ba11  1  0.23763600  0.50000000  0.87498800  1
  Ba  Ba12  1  0.76236400  0.50000000  0.12501200  1
  Ba  Ba13  1  0.50000000  0.50000000  0.00000000  1
  Mn  Mn14  1  0.50000000  0.00000000  0.50000000  1
  Mn  Mn15  1  0.00000000  0.50000000  0.50000000  1
  Fe  Fe16  1  0.39043250  0.25657550  0.20070700  1
  Fe  Fe17  1  0.39043250  0.74342450  0.20070700  1
  Fe  Fe18  1  0.60956750  0.74342450  0.79929300  1
  Fe  Fe19  1  0.82814400  0.00000000  0.45997400  1
  Fe  Fe20  1  0.17185600  0.00000000  0.54002600  1
  Fe  Fe21  1  0.60956750  0.25657550  0.79929300  1
  Fe  Fe22  1  0.89043250  0.75657550  0.20070700  1
  Fe  Fe23  1  0.89043250  0.24342450  0.20070700  1
  Fe  Fe24  1  0.10956750  0.24342450  0.79929300  1
  Fe  Fe25  1  0.32814400  0.50000000  0.45997400  1
  Fe  Fe26  1  0.67185600  0.50000000  0.54002600  1
  Fe  Fe27  1  0.10956750  0.75657550  0.79929300  1
  F  F28  1  0.56835100  0.00000000  0.31381200  1
  F  F29  1  0.43164900  0.00000000  0.68618800  1
  F  F30  1  0.89157000  0.00000000  0.69407700  1
  F  F31  1  0.10843000  0.00000000  0.30592300  1
  F  F32  1  0.74858400  0.00000000  0.24016500  1
  F  F33  1  0.25141600  0.00000000  0.75983500  1
  F  F34  1  0.23560050  0.88211850  0.45493600  1
  F  F35  1  0.76439950  0.88211850  0.54506400  1
  F  F36  1  0.76439950  0.11788150  0.54506400  1
  F  F37  1  0.23560050  0.11788150  0.45493600  1
  F  F38  1  0.60763700  0.37809900  0.61660200  1
  F  F39  1  0.39236300  0.37809900  0.38339800  1
  F  F40  1  0.39236300  0.62190100  0.38339800  1
  F  F41  1  0.60763700  0.62190100  0.61660200  1
  F  F42  1  0.37896900  0.13148500  0.03319400  1
  F  F43  1  0.62103100  0.13148500  0.96680600  1
  F  F44  1  0.62103100  0.86851500  0.96680600  1
  F  F45  1  0.37896900  0.86851500  0.03319400  1
  F  F46  1  0.13290700  0.13097200  0.99387000  1
  F  F47  1  0.86709300  0.13097200  0.00613000  1
  F  F48  1  0.86709300  0.86902800  0.00613000  1
  F  F49  1  0.13290700  0.86902800  0.99387000  1
  F  F50  1  0.27906500  0.23767000  0.19630700  1
  F  F51  1  0.72093500  0.23767000  0.80369300  1
  F  F52  1  0.72093500  0.76233000  0.80369300  1
  F  F53  1  0.27906500  0.76233000  0.19630700  1
  F  F54  1  0.50023800  0.71051600  0.79715400  1
  F  F55  1  0.49976200  0.71051600  0.20284600  1
  F  F56  1  0.49976200  0.28948400  0.20284600  1
  F  F57  1  0.50023800  0.28948400  0.79715400  1
  F  F58  1  0.41421600  0.13865400  0.38919000  1
  F  F59  1  0.58578400  0.13865400  0.61081000  1
  F  F60  1  0.58578400  0.86134600  0.61081000  1
  F  F61  1  0.41421600  0.86134600  0.38919000  1
  F  F62  1  0.06835100  0.50000000  0.31381200  1
  F  F63  1  0.93164900  0.50000000  0.68618800  1
  F  F64  1  0.39157000  0.50000000  0.69407700  1
  F  F65  1  0.60843000  0.50000000  0.30592300  1
  F  F66  1  0.24858400  0.50000000  0.24016500  1
  F  F67  1  0.75141600  0.50000000  0.75983500  1
  F  F68  1  0.73560050  0.38211850  0.45493600  1
  F  F69  1  0.26439950  0.38211850  0.54506400  1
  F  F70  1  0.26439950  0.61788150  0.54506400  1
  F  F71  1  0.73560050  0.61788150  0.45493600  1
  F  F72  1  0.10763700  0.87809900  0.61660200  1
  F  F73  1  0.89236300  0.87809900  0.38339800  1
  F  F74  1  0.89236300  0.12190100  0.38339800  1
  F  F75  1  0.10763700  0.12190100  0.61660200  1
  F  F76  1  0.87896900  0.63148500  0.03319400  1
  F  F77  1  0.12103100  0.63148500  0.96680600  1
  F  F78  1  0.12103100  0.36851500  0.96680600  1
  F  F79  1  0.87896900  0.36851500  0.03319400  1
  F  F80  1  0.63290700  0.63097200  0.99387000  1
  F  F81  1  0.36709300  0.63097200  0.00613000  1
  F  F82  1  0.36709300  0.36902800  0.00613000  1
  F  F83  1  0.63290700  0.36902800  0.99387000  1
  F  F84  1  0.77906500  0.73767000  0.19630700  1
  F  F85  1  0.22093500  0.73767000  0.80369300  1
  F  F86  1  0.22093500  0.26233000  0.80369300  1
  F  F87  1  0.77906500  0.26233000  0.19630700  1
  F  F88  1  0.00023800  0.21051600  0.79715400  1
  F  F89  1  0.99976200  0.21051600  0.20284600  1
  F  F90  1  0.99976200  0.78948400  0.20284600  1
  F  F91  1  0.00023800  0.78948400  0.79715400  1
  F  F92  1  0.91421600  0.63865400  0.38919000  1
  F  F93  1  0.08578400  0.63865400  0.61081000  1
  F  F94  1  0.08578400  0.36134600  0.61081000  1
  F  F95  1  0.91421600  0.36134600  0.38919000  1
