# generated using pymatgen
data_Sr2Fe2O5
_symmetry_space_group_name_H-M   'P 1'
_cell_length_a   5.60166200
_cell_length_b   5.77829600
_cell_length_c   15.73028800
_cell_angle_alpha   90.00000000
_cell_angle_beta   90.00000000
_cell_angle_gamma   90.00000000
_symmetry_Int_Tables_number   1
_chemical_formula_structural   Sr2Fe2O5
_chemical_formula_sum   'Sr8 Fe8 O20'
_cell_volume   509.15892354
_cell_formula_units_Z   4
loop_
 _symmetry_equiv_pos_site_id
 _symmetry_equiv_pos_as_xyz
  1  'x, y, z'
loop_
 _atom_site_type_symbol
 _atom_site_label
 _atom_site_symmetry_multiplicity
 _atom_site_fract_x
 _atom_site_fract_y
 _atom_site_fract_z
 _atom_site_occupancy
  Sr  Sr0  1  0.99589200  0.51965300  0.60843000  1
  Sr  Sr1  1  0.49589200  0.98034700  0.89157000  1
  Sr  Sr2  1  0.49589200  0.98034700  0.60843000  1
  Sr  Sr3  1  0.99589200  0.51965300  0.89157000  1
  Sr  Sr4  1  0.49589200  0.01965300  0.10843000  1
  Sr  Sr5  1  0.99589200  0.48034700  0.39157000  1
  Sr  Sr6  1  0.99589200  0.48034700  0.10843000  1
  Sr  Sr7  1  0.49589200  0.01965300  0.39157000  1
  Fe  Fe8  1  0.00097400  0.00000000  0.00000000  1
  Fe  Fe9  1  0.50097400  0.50000000  0.00000000  1
  Fe  Fe10  1  0.45665100  0.42808300  0.75000000  1
  Fe  Fe11  1  0.95665100  0.07191700  0.75000000  1
  Fe  Fe12  1  0.50097400  0.50000000  0.50000000  1
  Fe  Fe13  1  0.00097400  0.00000000  0.50000000  1
  Fe  Fe14  1  0.95665100  0.92808300  0.25000000  1
  Fe  Fe15  1  0.45665100  0.57191700  0.25000000  1
  O  O16  1  0.24960900  0.25260900  0.99194500  1
  O  O17  1  0.74960900  0.24739100  0.50805500  1
  O  O18  1  0.74960900  0.24739100  0.99194500  1
  O  O19  1  0.24960900  0.25260900  0.50805500  1
  O  O20  1  0.51591850  0.54896750  0.64021350  1
  O  O21  1  0.01591850  0.95103250  0.85978650  1
  O  O22  1  0.01591850  0.95103250  0.64021350  1
  O  O23  1  0.51591850  0.54896750  0.85978650  1
  O  O24  1  0.11271550  0.37109650  0.75000000  1
  O  O25  1  0.61271550  0.12890350  0.75000000  1
  O  O26  1  0.74960900  0.75260900  0.49194500  1
  O  O27  1  0.24960900  0.74739100  0.00805500  1
  O  O28  1  0.24960900  0.74739100  0.49194500  1
  O  O29  1  0.74960900  0.75260900  0.00805500  1
  O  O30  1  0.01591850  0.04896750  0.14021350  1
  O  O31  1  0.51591850  0.45103250  0.35978650  1
  O  O32  1  0.51591850  0.45103250  0.14021350  1
  O  O33  1  0.01591850  0.04896750  0.35978650  1
  O  O34  1  0.61271550  0.87109650  0.25000000  1
  O  O35  1  0.11271550  0.62890350  0.25000000  1
