# generated using pymatgen
data_Pr3Pt4
_symmetry_space_group_name_H-M   'P 1'
_cell_length_a   13.83476018
_cell_length_b   13.83476018
_cell_length_c   5.84080322
_cell_angle_alpha   90.00000000
_cell_angle_beta   90.00000000
_cell_angle_gamma   120.00000000
_symmetry_Int_Tables_number   1
_chemical_formula_structural   Pr3Pt4
_chemical_formula_sum   'Pr18 Pt24'
_cell_volume   968.15853227
_cell_formula_units_Z   6
loop_
 _symmetry_equiv_pos_site_id
 _symmetry_equiv_pos_as_xyz
  1  'x, y, z'
loop_
 _atom_site_type_symbol
 _atom_site_label
 _atom_site_symmetry_multiplicity
 _atom_site_fract_x
 _atom_site_fract_y
 _atom_site_fract_z
 _atom_site_occupancy
  Pr  Pr0  1  0.16735800  0.95773400  0.23877800  1
  Pr  Pr1  1  0.37559933  0.87629067  0.90544467  1
  Pr  Pr2  1  0.29106733  0.45704267  0.42788867  1
  Pr  Pr3  1  0.49930867  0.37559933  0.09455533  1
  Pr  Pr4  1  0.45704267  0.16597533  0.57211133  1
  Pr  Pr5  1  0.20962400  0.16735800  0.76122200  1
  Pr  Pr6  1  0.83402467  0.29106733  0.57211133  1
  Pr  Pr7  1  0.04226600  0.20962400  0.23877800  1
  Pr  Pr8  1  0.95773400  0.79037600  0.76122200  1
  Pr  Pr9  1  0.16597533  0.70893267  0.42788867  1
  Pr  Pr10  1  0.12370933  0.49930867  0.90544467  1
  Pr  Pr11  1  0.87629067  0.50069133  0.09455533  1
  Pr  Pr12  1  0.50069133  0.62440067  0.90544467  1
  Pr  Pr13  1  0.70893267  0.54295733  0.57211133  1
  Pr  Pr14  1  0.62440067  0.12370933  0.09455533  1
  Pr  Pr15  1  0.83264200  0.04226600  0.76122200  1
  Pr  Pr16  1  0.79037600  0.83264200  0.23877800  1
  Pr  Pr17  1  0.54295733  0.83402467  0.42788867  1
  Pt  Pt18  1  0.39096367  0.11342233  0.05610633  1
  Pt  Pt19  1  0.38912533  0.94236967  0.38943967  1
  Pt  Pt20  1  0.21991100  0.94420800  0.72277300  1
  Pt  Pt21  1  0.00000000  0.00000000  0.50000000  1
  Pt  Pt22  1  0.44675567  0.38912533  0.61056033  1
  Pt  Pt23  1  0.27570300  0.21991100  0.27722700  1
  Pt  Pt24  1  0.27754133  0.39096367  0.94389367  1
  Pt  Pt25  1  0.00000000  0.00000000  0.00000000  1
  Pt  Pt26  1  0.05763033  0.44675567  0.38943967  1
  Pt  Pt27  1  0.05579200  0.27570300  0.72277300  1
  Pt  Pt28  1  0.88657767  0.27754133  0.05610633  1
  Pt  Pt29  1  0.66666667  0.33333333  0.83333333  1
  Pt  Pt30  1  0.11342233  0.72245867  0.94389367  1
  Pt  Pt31  1  0.94236967  0.55324433  0.61056033  1
  Pt  Pt32  1  0.94420800  0.72429700  0.27722700  1
  Pt  Pt33  1  0.66666667  0.33333333  0.33333333  1
  Pt  Pt34  1  0.72429700  0.78008900  0.72277300  1
  Pt  Pt35  1  0.72245867  0.60903633  0.05610633  1
  Pt  Pt36  1  0.55324433  0.61087467  0.38943967  1
  Pt  Pt37  1  0.33333333  0.66666667  0.16666667  1
  Pt  Pt38  1  0.78008900  0.05579200  0.27722700  1
  Pt  Pt39  1  0.60903633  0.88657767  0.94389367  1
  Pt  Pt40  1  0.61087467  0.05763033  0.61056033  1
  Pt  Pt41  1  0.33333333  0.66666667  0.66666667  1
