# generated using pymatgen
data_Fe3O4
_symmetry_space_group_name_H-M   'P 1'
_cell_length_a   3.01278002
_cell_length_b   10.05688600
_cell_length_c   10.46110310
_cell_angle_alpha   90.00000000
_cell_angle_beta   90.00000000
_cell_angle_gamma   90.00000000
_symmetry_Int_Tables_number   1
_chemical_formula_structural   Fe3O4
_chemical_formula_sum   'Fe12 O16'
_cell_volume   316.96289986
_cell_formula_units_Z   4
loop_
 _symmetry_equiv_pos_site_id
 _symmetry_equiv_pos_as_xyz
  1  'x, y, z'
loop_
 _atom_site_type_symbol
 _atom_site_label
 _atom_site_symmetry_multiplicity
 _atom_site_fract_x
 _atom_site_fract_y
 _atom_site_fract_z
 _atom_site_occupancy
  Fe  Fe0  1  0.27563150  0.37657700  0.25000000  1
  Fe  Fe1  1  0.27563150  0.12342300  0.75000000  1
  Fe  Fe2  1  0.72436850  0.87657700  0.25000000  1
  Fe  Fe3  1  0.72436850  0.62342300  0.75000000  1
  Fe  Fe4  1  0.24284150  0.12047500  0.07249250  1
  Fe  Fe5  1  0.75715850  0.62047500  0.42750750  1
  Fe  Fe6  1  0.24284150  0.37952500  0.92750750  1
  Fe  Fe7  1  0.75715850  0.87952500  0.57249250  1
  Fe  Fe8  1  0.75715850  0.87952500  0.92750750  1
  Fe  Fe9  1  0.75715850  0.62047500  0.07249250  1
  Fe  Fe10  1  0.24284150  0.37952500  0.57249250  1
  Fe  Fe11  1  0.24284150  0.12047500  0.42750750  1
  O  O12  1  0.24933250  0.18573600  0.25000000  1
  O  O13  1  0.24933250  0.31426400  0.75000000  1
  O  O14  1  0.75066750  0.68573600  0.25000000  1
  O  O15  1  0.75066750  0.81426400  0.75000000  1
  O  O16  1  0.24924750  0.48675600  0.10120050  1
  O  O17  1  0.24924750  0.01324400  0.89879950  1
  O  O18  1  0.75075250  0.98675600  0.39879950  1
  O  O19  1  0.75075250  0.51324400  0.60120050  1
  O  O20  1  0.75075250  0.51324400  0.89879950  1
  O  O21  1  0.75075250  0.98675600  0.10120050  1
  O  O22  1  0.24924750  0.01324400  0.60120050  1
  O  O23  1  0.24924750  0.48675600  0.39879950  1
  O  O24  1  0.74644750  0.25000000  0.00000000  1
  O  O25  1  0.25355250  0.75000000  0.50000000  1
  O  O26  1  0.25355250  0.75000000  0.00000000  1
  O  O27  1  0.74644750  0.25000000  0.50000000  1
