# generated using pymatgen
data_La(AsRu)2
_symmetry_space_group_name_H-M   'P 1'
_cell_length_a   4.22939000
_cell_length_b   4.22939000
_cell_length_c   10.64428400
_cell_angle_alpha   90.00000000
_cell_angle_beta   90.00000000
_cell_angle_gamma   90.00000000
_symmetry_Int_Tables_number   1
_chemical_formula_structural   La(AsRu)2
_chemical_formula_sum   'La2 As4 Ru4'
_cell_volume   190.40218225
_cell_formula_units_Z   2
loop_
 _symmetry_equiv_pos_site_id
 _symmetry_equiv_pos_as_xyz
  1  'x, y, z'
loop_
 _atom_site_type_symbol
 _atom_site_label
 _atom_site_symmetry_multiplicity
 _atom_site_fract_x
 _atom_site_fract_y
 _atom_site_fract_z
 _atom_site_occupancy
  La  La0  1  0.00000000  0.00000000  0.00000000  1
  La  La1  1  0.50000000  0.50000000  0.50000000  1
  As  As2  1  0.00000000  0.00000000  0.36642300  1
  As  As3  1  0.50000000  0.50000000  0.13357700  1
  As  As4  1  0.50000000  0.50000000  0.86642300  1
  As  As5  1  0.00000000  0.00000000  0.63357700  1
  Ru  Ru6  1  0.00000000  0.50000000  0.25000000  1
  Ru  Ru7  1  0.50000000  0.00000000  0.25000000  1
  Ru  Ru8  1  0.50000000  0.00000000  0.75000000  1
  Ru  Ru9  1  0.00000000  0.50000000  0.75000000  1
