# generated using pymatgen
data_LiNiPO4
_symmetry_space_group_name_H-M   'P 1'
_cell_length_a   4.91855200
_cell_length_b   7.01701709
_cell_length_c   9.94973314
_cell_angle_alpha   90.00000000
_cell_angle_beta   90.00000000
_cell_angle_gamma   90.00000000
_symmetry_Int_Tables_number   1
_chemical_formula_structural   LiNiPO4
_chemical_formula_sum   'Li4 Ni4 P4 O16'
_cell_volume   343.40074618
_cell_formula_units_Z   4
loop_
 _symmetry_equiv_pos_site_id
 _symmetry_equiv_pos_as_xyz
  1  'x, y, z'
loop_
 _atom_site_type_symbol
 _atom_site_label
 _atom_site_symmetry_multiplicity
 _atom_site_fract_x
 _atom_site_fract_y
 _atom_site_fract_z
 _atom_site_occupancy
  Li  Li0  1  0.30426800  0.28682500  0.65279250  1
  Li  Li1  1  0.69573200  0.78682500  0.34720750  1
  Li  Li2  1  0.80426800  0.78682500  0.84720750  1
  Li  Li3  1  0.19573200  0.28682500  0.15279250  1
  Ni  Ni4  1  0.29834400  0.78752400  0.64833350  1
  Ni  Ni5  1  0.79834400  0.28752400  0.85166650  1
  Ni  Ni6  1  0.20165600  0.78752400  0.14833350  1
  Ni  Ni7  1  0.70165600  0.28752400  0.35166650  1
  P  P8  1  0.30971500  0.03662800  0.90330250  1
  P  P9  1  0.19028500  0.03662800  0.40330250  1
  P  P10  1  0.69028500  0.53662800  0.09669750  1
  P  P11  1  0.80971500  0.53662800  0.59669750  1
  O  O12  1  0.76343900  0.53643100  0.94476650  1
  O  O13  1  0.73656100  0.53643100  0.44476650  1
  O  O14  1  0.37682300  0.53726900  0.11872750  1
  O  O15  1  0.69474300  0.35258300  0.66323950  1
  O  O16  1  0.26343900  0.03643100  0.55523350  1
  O  O17  1  0.30525700  0.85258300  0.33676050  1
  O  O18  1  0.30872400  0.22090600  0.33890350  1
  O  O19  1  0.80525700  0.35258300  0.16323950  1
  O  O20  1  0.19474300  0.85258300  0.83676050  1
  O  O21  1  0.69127600  0.72090600  0.66109650  1
  O  O22  1  0.12317700  0.53726900  0.61872750  1
  O  O23  1  0.87682300  0.03726900  0.38127250  1
  O  O24  1  0.62317700  0.03726900  0.88127250  1
  O  O25  1  0.80872400  0.72090600  0.16109650  1
  O  O26  1  0.19127600  0.22090600  0.83890350  1
  O  O27  1  0.23656100  0.03643100  0.05523350  1
