# generated using pymatgen
data_K2Nb4Fe2O13
_symmetry_space_group_name_H-M   'P 1'
_cell_length_a   16.39330600
_cell_length_b   3.96146200
_cell_length_c   9.63593106
_cell_angle_alpha   90.00000000
_cell_angle_beta   100.26183301
_cell_angle_gamma   90.00000000
_symmetry_Int_Tables_number   1
_chemical_formula_structural   K2Nb4Fe2O13
_chemical_formula_sum   'K4 Nb8 Fe4 O26'
_cell_volume   615.76153415
_cell_formula_units_Z   2
loop_
 _symmetry_equiv_pos_site_id
 _symmetry_equiv_pos_as_xyz
  1  'x, y, z'
loop_
 _atom_site_type_symbol
 _atom_site_label
 _atom_site_symmetry_multiplicity
 _atom_site_fract_x
 _atom_site_fract_y
 _atom_site_fract_z
 _atom_site_occupancy
  K  K0  1  0.55123000  0.00000000  0.25067300  1
  K  K1  1  0.94877000  0.50000000  0.74932700  1
  K  K2  1  0.05123000  0.50000000  0.25067300  1
  K  K3  1  0.44877000  0.00000000  0.74932700  1
  Nb  Nb4  1  0.83610800  0.00000000  0.06393200  1
  Nb  Nb5  1  0.88092600  0.00000000  0.41525200  1
  Nb  Nb6  1  0.66389200  0.50000000  0.93606800  1
  Nb  Nb7  1  0.61907400  0.50000000  0.58474800  1
  Nb  Nb8  1  0.33610800  0.50000000  0.06393200  1
  Nb  Nb9  1  0.38092600  0.50000000  0.41525200  1
  Nb  Nb10  1  0.16389200  0.00000000  0.93606800  1
  Nb  Nb11  1  0.11907400  0.00000000  0.58474800  1
  Fe  Fe12  1  0.76314200  0.00000000  0.72500100  1
  Fe  Fe13  1  0.73685800  0.50000000  0.27499900  1
  Fe  Fe14  1  0.26314200  0.50000000  0.72500100  1
  Fe  Fe15  1  0.23685800  0.00000000  0.27499900  1
  O  O16  1  0.62448600  0.00000000  0.61350400  1
  O  O17  1  0.87551400  0.50000000  0.38649600  1
  O  O18  1  0.00000000  0.00000000  0.50000000  1
  O  O19  1  0.69992800  0.00000000  0.93833000  1
  O  O20  1  0.80007200  0.50000000  0.06167000  1
  O  O21  1  0.66372000  0.50000000  0.42253100  1
  O  O22  1  0.83628000  0.00000000  0.57746900  1
  O  O23  1  0.56794800  0.50000000  0.80311700  1
  O  O24  1  0.77713200  0.00000000  0.25694800  1
  O  O25  1  0.72286800  0.50000000  0.74305200  1
  O  O26  1  0.93205200  0.00000000  0.19688300  1
  O  O27  1  0.63071900  0.50000000  0.10979700  1
  O  O28  1  0.86928100  0.00000000  0.89020300  1
  O  O29  1  0.12448600  0.50000000  0.61350400  1
  O  O30  1  0.37551400  0.00000000  0.38649600  1
  O  O31  1  0.50000000  0.50000000  0.50000000  1
  O  O32  1  0.19992800  0.50000000  0.93833000  1
  O  O33  1  0.30007200  0.00000000  0.06167000  1
  O  O34  1  0.16372000  0.00000000  0.42253100  1
  O  O35  1  0.33628000  0.50000000  0.57746900  1
  O  O36  1  0.06794800  0.00000000  0.80311700  1
  O  O37  1  0.27713200  0.50000000  0.25694800  1
  O  O38  1  0.22286800  0.00000000  0.74305200  1
  O  O39  1  0.43205200  0.50000000  0.19688300  1
  O  O40  1  0.13071900  0.00000000  0.10979700  1
  O  O41  1  0.36928100  0.50000000  0.89020300  1
