# generated using pymatgen
data_Na5MoNO4
_symmetry_space_group_name_H-M   'P 1'
_cell_length_a   5.84576400
_cell_length_b   9.95614200
_cell_length_c   10.84058700
_cell_angle_alpha   90.00000000
_cell_angle_beta   90.00000000
_cell_angle_gamma   90.00000000
_symmetry_Int_Tables_number   1
_chemical_formula_structural   Na5MoNO4
_chemical_formula_sum   'Na20 Mo4 N4 O16'
_cell_volume   630.93578441
_cell_formula_units_Z   4
loop_
 _symmetry_equiv_pos_site_id
 _symmetry_equiv_pos_as_xyz
  1  'x, y, z'
loop_
 _atom_site_type_symbol
 _atom_site_label
 _atom_site_symmetry_multiplicity
 _atom_site_fract_x
 _atom_site_fract_y
 _atom_site_fract_z
 _atom_site_occupancy
  Na  Na0  1  0.50000000  0.69090900  0.50000000  1
  Na  Na1  1  0.50000000  0.69090900  0.00000000  1
  Na  Na2  1  0.35722700  0.18823500  0.75000000  1
  Na  Na3  1  0.35722700  0.81176500  0.75000000  1
  Na  Na4  1  0.50000000  0.00000000  0.00000000  1
  Na  Na5  1  0.50000000  0.30909100  0.50000000  1
  Na  Na6  1  0.50000000  0.30909100  0.00000000  1
  Na  Na7  1  0.50000000  0.00000000  0.50000000  1
  Na  Na8  1  0.64277300  0.81176500  0.25000000  1
  Na  Na9  1  0.64277300  0.18823500  0.25000000  1
  Na  Na10  1  0.00000000  0.19090900  0.50000000  1
  Na  Na11  1  0.00000000  0.19090900  0.00000000  1
  Na  Na12  1  0.85722700  0.68823500  0.75000000  1
  Na  Na13  1  0.85722700  0.31176500  0.75000000  1
  Na  Na14  1  0.00000000  0.50000000  0.00000000  1
  Na  Na15  1  0.00000000  0.80909100  0.50000000  1
  Na  Na16  1  0.00000000  0.80909100  0.00000000  1
  Na  Na17  1  0.00000000  0.50000000  0.50000000  1
  Na  Na18  1  0.14277300  0.31176500  0.25000000  1
  Na  Na19  1  0.14277300  0.68823500  0.25000000  1
  Mo  Mo20  1  0.20758900  0.00000000  0.25000000  1
  Mo  Mo21  1  0.79241100  0.00000000  0.75000000  1
  Mo  Mo22  1  0.70758900  0.50000000  0.25000000  1
  Mo  Mo23  1  0.29241100  0.50000000  0.75000000  1
  N  N24  1  0.90664200  0.00000000  0.25000000  1
  N  N25  1  0.09335800  0.00000000  0.75000000  1
  N  N26  1  0.40664200  0.50000000  0.25000000  1
  N  N27  1  0.59335800  0.50000000  0.75000000  1
  O  O28  1  0.69692500  0.13767300  0.62712500  1
  O  O29  1  0.69692500  0.86232700  0.62712500  1
  O  O30  1  0.30307500  0.86232700  0.37287500  1
  O  O31  1  0.30307500  0.13767300  0.37287500  1
  O  O32  1  0.30307500  0.13767300  0.12712500  1
  O  O33  1  0.30307500  0.86232700  0.12712500  1
  O  O34  1  0.69692500  0.86232700  0.87287500  1
  O  O35  1  0.69692500  0.13767300  0.87287500  1
  O  O36  1  0.19692500  0.63767300  0.62712500  1
  O  O37  1  0.19692500  0.36232700  0.62712500  1
  O  O38  1  0.80307500  0.36232700  0.37287500  1
  O  O39  1  0.80307500  0.63767300  0.37287500  1
  O  O40  1  0.80307500  0.63767300  0.12712500  1
  O  O41  1  0.80307500  0.36232700  0.12712500  1
  O  O42  1  0.19692500  0.36232700  0.87287500  1
  O  O43  1  0.19692500  0.63767300  0.87287500  1
