# generated using pymatgen
data_NiB4O7
_symmetry_space_group_name_H-M   'P 1'
_cell_length_a   6.43876755
_cell_length_b   10.92632083
_cell_length_c   5.21839400
_cell_angle_alpha   90.00000000
_cell_angle_beta   90.00000000
_cell_angle_gamma   90.00000000
_symmetry_Int_Tables_number   1
_chemical_formula_structural   NiB4O7
_chemical_formula_sum   'Ni4 B16 O28'
_cell_volume   367.12466364
_cell_formula_units_Z   4
loop_
 _symmetry_equiv_pos_site_id
 _symmetry_equiv_pos_as_xyz
  1  'x, y, z'
loop_
 _atom_site_type_symbol
 _atom_site_label
 _atom_site_symmetry_multiplicity
 _atom_site_fract_x
 _atom_site_fract_y
 _atom_site_fract_z
 _atom_site_occupancy
  Ni  Ni0  1  0.74622800  0.00000000  0.25000000  1
  Ni  Ni1  1  0.25377200  0.00000000  0.75000000  1
  Ni  Ni2  1  0.24622800  0.50000000  0.25000000  1
  Ni  Ni3  1  0.75377200  0.50000000  0.75000000  1
  B  B4  1  0.81326600  0.88393000  0.75000000  1
  B  B5  1  0.18673400  0.88393000  0.25000000  1
  B  B6  1  0.81326600  0.11607000  0.75000000  1
  B  B7  1  0.18673400  0.11607000  0.25000000  1
  B  B8  1  0.50000000  0.79818200  0.00000000  1
  B  B9  1  0.50000000  0.79818200  0.50000000  1
  B  B10  1  0.50000000  0.20181800  0.00000000  1
  B  B11  1  0.50000000  0.20181800  0.50000000  1
  B  B12  1  0.31326600  0.38393000  0.75000000  1
  B  B13  1  0.68673400  0.38393000  0.25000000  1
  B  B14  1  0.31326600  0.61607000  0.75000000  1
  B  B15  1  0.68673400  0.61607000  0.25000000  1
  B  B16  1  0.00000000  0.29818200  0.00000000  1
  B  B17  1  0.00000000  0.29818200  0.50000000  1
  B  B18  1  0.00000000  0.70181800  0.00000000  1
  B  B19  1  0.00000000  0.70181800  0.50000000  1
  O  O20  1  0.07024100  0.00000000  0.25000000  1
  O  O21  1  0.92975900  0.00000000  0.75000000  1
  O  O22  1  0.47649100  0.27822600  0.75000000  1
  O  O23  1  0.47649100  0.72177400  0.75000000  1
  O  O24  1  0.52350900  0.27822600  0.25000000  1
  O  O25  1  0.52350900  0.72177400  0.25000000  1
  O  O26  1  0.68493800  0.87323100  0.97692600  1
  O  O27  1  0.68493800  0.12676900  0.52307400  1
  O  O28  1  0.31506200  0.12676900  0.02307400  1
  O  O29  1  0.68493800  0.12676900  0.97692600  1
  O  O30  1  0.31506200  0.12676900  0.47692600  1
  O  O31  1  0.31506200  0.87323100  0.02307400  1
  O  O32  1  0.31506200  0.87323100  0.47692600  1
  O  O33  1  0.68493800  0.87323100  0.52307400  1
  O  O34  1  0.57024100  0.50000000  0.25000000  1
  O  O35  1  0.42975900  0.50000000  0.75000000  1
  O  O36  1  0.97649100  0.77822600  0.75000000  1
  O  O37  1  0.97649100  0.22177400  0.75000000  1
  O  O38  1  0.02350900  0.77822600  0.25000000  1
  O  O39  1  0.02350900  0.22177400  0.25000000  1
  O  O40  1  0.18493800  0.37323100  0.97692600  1
  O  O41  1  0.18493800  0.62676900  0.52307400  1
  O  O42  1  0.81506200  0.62676900  0.02307400  1
  O  O43  1  0.18493800  0.62676900  0.97692600  1
  O  O44  1  0.81506200  0.62676900  0.47692600  1
  O  O45  1  0.81506200  0.37323100  0.02307400  1
  O  O46  1  0.81506200  0.37323100  0.47692600  1
  O  O47  1  0.18493800  0.37323100  0.52307400  1
