# generated using pymatgen
data_Zr7P4
_symmetry_space_group_name_H-M   'P 1'
_cell_length_a   15.92683200
_cell_length_b   3.62934800
_cell_length_c   14.82302078
_cell_angle_alpha   90.00000000
_cell_angle_beta   104.89285351
_cell_angle_gamma   90.00000000
_symmetry_Int_Tables_number   1
_chemical_formula_structural   Zr7P4
_chemical_formula_sum   'Zr28 P16'
_cell_volume   828.04761403
_cell_formula_units_Z   4
loop_
 _symmetry_equiv_pos_site_id
 _symmetry_equiv_pos_as_xyz
  1  'x, y, z'
loop_
 _atom_site_type_symbol
 _atom_site_label
 _atom_site_symmetry_multiplicity
 _atom_site_fract_x
 _atom_site_fract_y
 _atom_site_fract_z
 _atom_site_occupancy
  Zr  Zr0  1  0.84017700  0.50000000  0.02945100  1
  Zr  Zr1  1  0.99559300  0.00000000  0.33246800  1
  Zr  Zr2  1  0.67588100  0.50000000  0.54140200  1
  Zr  Zr3  1  0.82411900  0.00000000  0.45859800  1
  Zr  Zr4  1  0.56816100  0.00000000  0.16878700  1
  Zr  Zr5  1  0.00000000  0.00000000  0.00000000  1
  Zr  Zr6  1  0.93183900  0.50000000  0.83121300  1
  Zr  Zr7  1  0.79492900  0.00000000  0.20302400  1
  Zr  Zr8  1  0.50440700  0.50000000  0.66753200  1
  Zr  Zr9  1  0.80396500  0.00000000  0.68926500  1
  Zr  Zr10  1  0.70507100  0.50000000  0.79697600  1
  Zr  Zr11  1  0.69603500  0.50000000  0.31073500  1
  Zr  Zr12  1  0.65982300  0.00000000  0.97054900  1
  Zr  Zr13  1  0.00000000  0.50000000  0.50000000  1
  Zr  Zr14  1  0.34017700  0.00000000  0.02945100  1
  Zr  Zr15  1  0.49559300  0.50000000  0.33246800  1
  Zr  Zr16  1  0.17588100  0.00000000  0.54140200  1
  Zr  Zr17  1  0.32411900  0.50000000  0.45859800  1
  Zr  Zr18  1  0.06816100  0.50000000  0.16878700  1
  Zr  Zr19  1  0.50000000  0.50000000  0.00000000  1
  Zr  Zr20  1  0.43183900  0.00000000  0.83121300  1
  Zr  Zr21  1  0.29492900  0.50000000  0.20302400  1
  Zr  Zr22  1  0.00440700  0.00000000  0.66753200  1
  Zr  Zr23  1  0.30396500  0.50000000  0.68926500  1
  Zr  Zr24  1  0.20507100  0.00000000  0.79697600  1
  Zr  Zr25  1  0.19603500  0.00000000  0.31073500  1
  Zr  Zr26  1  0.15982300  0.50000000  0.97054900  1
  Zr  Zr27  1  0.50000000  0.00000000  0.50000000  1
  P  P28  1  0.62528000  0.00000000  0.39809400  1
  P  P29  1  0.93696900  0.00000000  0.14752200  1
  P  P30  1  0.87472000  0.50000000  0.60190600  1
  P  P31  1  0.86960600  0.50000000  0.34035300  1
  P  P32  1  0.56303100  0.50000000  0.85247800  1
  P  P33  1  0.82342300  0.00000000  0.88799400  1
  P  P34  1  0.63039400  0.00000000  0.65964700  1
  P  P35  1  0.67657700  0.50000000  0.11200600  1
  P  P36  1  0.12528000  0.50000000  0.39809400  1
  P  P37  1  0.43696900  0.50000000  0.14752200  1
  P  P38  1  0.37472000  0.00000000  0.60190600  1
  P  P39  1  0.36960600  0.00000000  0.34035300  1
  P  P40  1  0.06303100  0.00000000  0.85247800  1
  P  P41  1  0.32342300  0.50000000  0.88799400  1
  P  P42  1  0.13039400  0.50000000  0.65964700  1
  P  P43  1  0.17657700  0.00000000  0.11200600  1
