# generated using pymatgen
data_Cs2NaMnF6
_symmetry_space_group_name_H-M   'P 1'
_cell_length_a   6.37534578
_cell_length_b   6.37534578
_cell_length_c   31.25246288
_cell_angle_alpha   90.00000000
_cell_angle_beta   90.00000000
_cell_angle_gamma   120.00000000
_symmetry_Int_Tables_number   1
_chemical_formula_structural   Cs2NaMnF6
_chemical_formula_sum   'Cs12 Na6 Mn6 F36'
_cell_volume   1100.07518531
_cell_formula_units_Z   6
loop_
 _symmetry_equiv_pos_site_id
 _symmetry_equiv_pos_as_xyz
  1  'x, y, z'
loop_
 _atom_site_type_symbol
 _atom_site_label
 _atom_site_symmetry_multiplicity
 _atom_site_fract_x
 _atom_site_fract_y
 _atom_site_fract_z
 _atom_site_occupancy
  Cs  Cs0  1  0.00000000  0.00000000  0.12681200  1
  Cs  Cs1  1  0.66666667  0.33333333  0.20652133  1
  Cs  Cs2  1  0.00000000  0.00000000  0.28442200  1
  Cs  Cs3  1  0.66666667  0.33333333  0.04891133  1
  Cs  Cs4  1  0.66666667  0.33333333  0.46014533  1
  Cs  Cs5  1  0.33333333  0.66666667  0.53985467  1
  Cs  Cs6  1  0.66666667  0.33333333  0.61775533  1
  Cs  Cs7  1  0.33333333  0.66666667  0.38224467  1
  Cs  Cs8  1  0.33333333  0.66666667  0.79347867  1
  Cs  Cs9  1  0.00000000  0.00000000  0.87318800  1
  Cs  Cs10  1  0.33333333  0.66666667  0.95108867  1
  Cs  Cs11  1  0.00000000  0.00000000  0.71557800  1
  Na  Na12  1  0.33333333  0.66666667  0.26305467  1
  Na  Na13  1  0.33333333  0.66666667  0.07027867  1
  Na  Na14  1  0.00000000  0.00000000  0.59638800  1
  Na  Na15  1  0.00000000  0.00000000  0.40361200  1
  Na  Na16  1  0.66666667  0.33333333  0.92972133  1
  Na  Na17  1  0.66666667  0.33333333  0.73694533  1
  Mn  Mn18  1  0.33333333  0.66666667  0.16666667  1
  Mn  Mn19  1  0.00000000  0.00000000  0.00000000  1
  Mn  Mn20  1  1.00000000  1.00000000  0.50000000  1
  Mn  Mn21  1  0.66666667  0.33333333  0.33333333  1
  Mn  Mn22  1  0.66666667  0.33333333  0.83333333  1
  Mn  Mn23  1  0.33333333  0.66666667  0.66666667  1
  F  F24  1  0.15000300  0.30000600  0.03673600  1
  F  F25  1  0.69999400  0.84999700  0.03673600  1
  F  F26  1  0.15000300  0.84999700  0.03673600  1
  F  F27  1  0.51666367  0.48333633  0.29659733  1
  F  F28  1  0.51666367  0.03332733  0.29659733  1
  F  F29  1  0.96667267  0.48333633  0.29659733  1
  F  F30  1  0.19127633  0.38255267  0.20427167  1
  F  F31  1  0.61744733  0.80872367  0.20427167  1
  F  F32  1  0.04921933  0.52460967  0.12906167  1
  F  F33  1  0.47539033  0.95078067  0.12906167  1
  F  F34  1  0.47539033  0.52460967  0.12906167  1
  F  F35  1  0.19127633  0.80872367  0.20427167  1
  F  F36  1  0.81666967  0.63333933  0.37006933  1
  F  F37  1  0.36666067  0.18333033  0.37006933  1
  F  F38  1  0.81666967  0.18333033  0.37006933  1
  F  F39  1  0.18333033  0.81666967  0.62993067  1
  F  F40  1  0.18333033  0.36666067  0.62993067  1
  F  F41  1  0.63333933  0.81666967  0.62993067  1
  F  F42  1  0.85794300  0.71588600  0.53760500  1
  F  F43  1  0.28411400  0.14205700  0.53760500  1
  F  F44  1  0.71588600  0.85794300  0.46239500  1
  F  F45  1  0.14205700  0.28411400  0.46239500  1
  F  F46  1  0.14205700  0.85794300  0.46239500  1
  F  F47  1  0.85794300  0.14205700  0.53760500  1
  F  F48  1  0.48333633  0.96667267  0.70340267  1
  F  F49  1  0.03332733  0.51666367  0.70340267  1
  F  F50  1  0.48333633  0.51666367  0.70340267  1
  F  F51  1  0.84999700  0.15000300  0.96326400  1
  F  F52  1  0.84999700  0.69999400  0.96326400  1
  F  F53  1  0.30000600  0.15000300  0.96326400  1
  F  F54  1  0.52460967  0.04921933  0.87093833  1
  F  F55  1  0.95078067  0.47539033  0.87093833  1
  F  F56  1  0.38255267  0.19127633  0.79572833  1
  F  F57  1  0.80872367  0.61744733  0.79572833  1
  F  F58  1  0.80872367  0.19127633  0.79572833  1
  F  F59  1  0.52460967  0.47539033  0.87093833  1
