# generated using pymatgen
data_Yb5Au3
_symmetry_space_group_name_H-M   'P 1'
_cell_length_a   7.75487600
_cell_length_b   7.75487600
_cell_length_c   14.40204800
_cell_angle_alpha   90.00000000
_cell_angle_beta   90.00000000
_cell_angle_gamma   90.00000000
_symmetry_Int_Tables_number   1
_chemical_formula_structural   Yb5Au3
_chemical_formula_sum   'Yb20 Au12'
_cell_volume   866.11182840
_cell_formula_units_Z   4
loop_
 _symmetry_equiv_pos_site_id
 _symmetry_equiv_pos_as_xyz
  1  'x, y, z'
loop_
 _atom_site_type_symbol
 _atom_site_label
 _atom_site_symmetry_multiplicity
 _atom_site_fract_x
 _atom_site_fract_y
 _atom_site_fract_z
 _atom_site_occupancy
  Yb  Yb0  1  0.66858150  0.16858150  0.35679000  1
  Yb  Yb1  1  0.33141850  0.16858150  0.14321000  1
  Yb  Yb2  1  0.83141850  0.33141850  0.14321000  1
  Yb  Yb3  1  0.83141850  0.66858150  0.35679000  1
  Yb  Yb4  1  0.33141850  0.83141850  0.35679000  1
  Yb  Yb5  1  0.16858150  0.33141850  0.35679000  1
  Yb  Yb6  1  0.50000000  0.50000000  0.00000000  1
  Yb  Yb7  1  0.66858150  0.83141850  0.14321000  1
  Yb  Yb8  1  0.16858150  0.66858150  0.14321000  1
  Yb  Yb9  1  0.00000000  0.00000000  0.00000000  1
  Yb  Yb10  1  0.16858150  0.66858150  0.85679000  1
  Yb  Yb11  1  0.83141850  0.66858150  0.64321000  1
  Yb  Yb12  1  0.33141850  0.83141850  0.64321000  1
  Yb  Yb13  1  0.33141850  0.16858150  0.85679000  1
  Yb  Yb14  1  0.83141850  0.33141850  0.85679000  1
  Yb  Yb15  1  0.66858150  0.83141850  0.85679000  1
  Yb  Yb16  1  0.00000000  0.00000000  0.50000000  1
  Yb  Yb17  1  0.16858150  0.33141850  0.64321000  1
  Yb  Yb18  1  0.66858150  0.16858150  0.64321000  1
  Yb  Yb19  1  0.50000000  0.50000000  0.50000000  1
  Au  Au20  1  0.86708950  0.63291050  0.00000000  1
  Au  Au21  1  0.00000000  0.00000000  0.25000000  1
  Au  Au22  1  0.13291050  0.36708950  0.00000000  1
  Au  Au23  1  0.63291050  0.13291050  0.00000000  1
  Au  Au24  1  0.86708950  0.36708950  0.50000000  1
  Au  Au25  1  0.50000000  0.50000000  0.25000000  1
  Au  Au26  1  0.36708950  0.13291050  0.50000000  1
  Au  Au27  1  0.50000000  0.50000000  0.75000000  1
  Au  Au28  1  0.63291050  0.86708950  0.50000000  1
  Au  Au29  1  0.13291050  0.63291050  0.50000000  1
  Au  Au30  1  0.36708950  0.86708950  0.00000000  1
  Au  Au31  1  0.00000000  0.00000000  0.75000000  1
