# generated using pymatgen
data_Nd2Fe23B3
_symmetry_space_group_name_H-M   'P 1'
_cell_length_a   14.07602000
_cell_length_b   14.07602000
_cell_length_c   14.07602000
_cell_angle_alpha   90.00000000
_cell_angle_beta   90.00000000
_cell_angle_gamma   90.00000000
_symmetry_Int_Tables_number   1
_chemical_formula_structural   Nd2Fe23B3
_chemical_formula_sum   'Nd16 Fe184 B24'
_cell_volume   2788.94291902
_cell_formula_units_Z   8
loop_
 _symmetry_equiv_pos_site_id
 _symmetry_equiv_pos_as_xyz
  1  'x, y, z'
loop_
 _atom_site_type_symbol
 _atom_site_label
 _atom_site_symmetry_multiplicity
 _atom_site_fract_x
 _atom_site_fract_y
 _atom_site_fract_z
 _atom_site_occupancy
  Nd  Nd0  1  0.44245200  0.05754800  0.94245200  1
  Nd  Nd1  1  0.30754800  0.30754800  0.30754800  1
  Nd  Nd2  1  0.69245200  0.80754800  0.19245200  1
  Nd  Nd3  1  0.19245200  0.69245200  0.80754800  1
  Nd  Nd4  1  0.80754800  0.19245200  0.69245200  1
  Nd  Nd5  1  0.94245200  0.44245200  0.05754800  1
  Nd  Nd6  1  0.05754800  0.94245200  0.44245200  1
  Nd  Nd7  1  0.05754800  0.05754800  0.05754800  1
  Nd  Nd8  1  0.94245200  0.55754800  0.44245200  1
  Nd  Nd9  1  0.80754800  0.80754800  0.80754800  1
  Nd  Nd10  1  0.19245200  0.30754800  0.69245200  1
  Nd  Nd11  1  0.69245200  0.19245200  0.30754800  1
  Nd  Nd12  1  0.30754800  0.69245200  0.19245200  1
  Nd  Nd13  1  0.44245200  0.94245200  0.55754800  1
  Nd  Nd14  1  0.55754800  0.44245200  0.94245200  1
  Nd  Nd15  1  0.55754800  0.55754800  0.55754800  1
  Fe  Fe16  1  0.31713350  0.12707950  0.62168050  1
  Fe  Fe17  1  0.12831950  0.12292050  0.56713350  1
  Fe  Fe18  1  0.25000000  0.58010500  0.00000000  1
  Fe  Fe19  1  0.81857100  0.31857100  0.18142900  1
  Fe  Fe20  1  0.43286650  0.37168050  0.12292050  1
  Fe  Fe21  1  0.90986200  0.76703300  0.18629000  1
  Fe  Fe22  1  0.18142900  0.81857100  0.31857100  1
  Fe  Fe23  1  0.43286650  0.62831950  0.37707950  1
  Fe  Fe24  1  0.73296700  0.18629000  0.09013800  1
  Fe  Fe25  1  0.22684050  0.96450250  0.60275050  1
  Fe  Fe26  1  0.18629000  0.90986200  0.76703300  1
  Fe  Fe27  1  0.50000000  0.25000000  0.83010500  1
  Fe  Fe28  1  0.83010500  0.50000000  0.25000000  1
  Fe  Fe29  1  0.93142900  0.06857100  0.56857100  1
  Fe  Fe30  1  0.28549750  0.52315950  0.35275050  1
  Fe  Fe31  1  0.96450250  0.60275050  0.22684050  1
  Fe  Fe32  1  0.52315950  0.35275050  0.28549750  1
  Fe  Fe33  1  0.10275050  0.27315950  0.03549750  1
  Fe  Fe34  1  0.12707950  0.62168050  0.31713350  1
  Fe  Fe35  1  0.65986200  0.06371000  0.98296700  1
  Fe  Fe36  1  0.00000000  0.25000000  0.58010500  1
  Fe  Fe37  1  0.18142900  0.18142900  0.18142900  1
  Fe  Fe38  1  0.12292050  0.43286650  0.37168050  1
  Fe  Fe39  1  0.98296700  0.34013800  0.43629000  1
  Fe  Fe40  1  0.01703300  0.84013800  0.06371000  1
  Fe  Fe41  1  0.47684050  0.14724950  0.28549750  1
  Fe  Fe42  1  0.06857100  0.56857100  0.93142900  1
  Fe  Fe43  1  0.12292050  0.56713350  0.12831950  1
  Fe  Fe44  1  0.87168050  0.37707950  0.56713350  1
  Fe  Fe45  1  0.16989500  0.00000000  0.25000000  1
  Fe  Fe46  1  0.39724950  0.72684050  0.53549750  1
  Fe  Fe47  1  0.37168050  0.12292050  0.43286650  1
  Fe  Fe48  1  0.37292050  0.37831950  0.81713350  1
  Fe  Fe49  1  0.56713350  0.87168050  0.37707950  1
  Fe  Fe50  1  0.60275050  0.22684050  0.96450250  1
  Fe  Fe51  1  0.84013800  0.06371000  0.01703300  1
  Fe  Fe52  1  0.43142900  0.43142900  0.43142900  1
  Fe  Fe53  1  0.23296700  0.31371000  0.90986200  1
  Fe  Fe54  1  0.27315950  0.96450250  0.39724950  1
  Fe  Fe55  1  0.43629000  0.98296700  0.34013800  1
  Fe  Fe56  1  0.56713350  0.12831950  0.12292050  1
  Fe  Fe57  1  0.14724950  0.71450250  0.02315950  1
  Fe  Fe58  1  0.43629000  0.01703300  0.15986200  1
  Fe  Fe59  1  0.62168050  0.68286650  0.37292050  1
  Fe  Fe60  1  0.85275050  0.21450250  0.47684050  1
  Fe  Fe61  1  0.37707950  0.56713350  0.87168050  1
  Fe  Fe62  1  0.81713350  0.37292050  0.37831950  1
  Fe  Fe63  1  0.15986200  0.43629000  0.01703300  1
  Fe  Fe64  1  0.31857100  0.18142900  0.81857100  1
  Fe  Fe65  1  0.76703300  0.18629000  0.90986200  1
  Fe  Fe66  1  0.25000000  0.16989500  0.00000000  1
  Fe  Fe67  1  0.41989500  0.50000000  0.25000000  1
  Fe  Fe68  1  0.06371000  0.01703300  0.84013800  1
  Fe  Fe69  1  0.35275050  0.28549750  0.52315950  1
  Fe  Fe70  1  0.58010500  0.00000000  0.25000000  1
  Fe  Fe71  1  0.53549750  0.39724950  0.72684050  1
  Fe  Fe72  1  0.50000000  0.25000000  0.41989500  1
  Fe  Fe73  1  0.37831950  0.18286650  0.12707950  1
  Fe  Fe74  1  0.90986200  0.23296700  0.31371000  1
  Fe  Fe75  1  0.31371000  0.90986200  0.23296700  1
  Fe  Fe76  1  0.18286650  0.12707950  0.37831950  1
  Fe  Fe77  1  0.28549750  0.47684050  0.14724950  1
  Fe  Fe78  1  0.12707950  0.37831950  0.18286650  1
  Fe  Fe79  1  0.01703300  0.15986200  0.43629000  1
  Fe  Fe80  1  0.09013800  0.26703300  0.31371000  1
  Fe  Fe81  1  0.37707950  0.43286650  0.62831950  1
  Fe  Fe82  1  0.37831950  0.81713350  0.37292050  1
  Fe  Fe83  1  0.25000000  0.83010500  0.50000000  1
  Fe  Fe84  1  0.39724950  0.27315950  0.96450250  1
  Fe  Fe85  1  0.09013800  0.73296700  0.18629000  1
  Fe  Fe86  1  0.27315950  0.03549750  0.10275050  1
  Fe  Fe87  1  0.62831950  0.37707950  0.43286650  1
  Fe  Fe88  1  0.25000000  0.41989500  0.50000000  1
  Fe  Fe89  1  0.68286650  0.37292050  0.62168050  1
  Fe  Fe90  1  0.26703300  0.31371000  0.09013800  1
  Fe  Fe91  1  0.03549750  0.10275050  0.27315950  1
  Fe  Fe92  1  0.71450250  0.02315950  0.14724950  1
  Fe  Fe93  1  0.18629000  0.09013800  0.73296700  1
  Fe  Fe94  1  0.62168050  0.31713350  0.12707950  1
  Fe  Fe95  1  0.56857100  0.93142900  0.06857100  1
  Fe  Fe96  1  0.47684050  0.85275050  0.21450250  1
  Fe  Fe97  1  0.02315950  0.14724950  0.71450250  1
  Fe  Fe98  1  0.06371000  0.98296700  0.65986200  1
  Fe  Fe99  1  0.14724950  0.28549750  0.47684050  1
  Fe  Fe100  1  0.96450250  0.39724950  0.27315950  1
  Fe  Fe101  1  0.31371000  0.09013800  0.26703300  1
  Fe  Fe102  1  0.34013800  0.43629000  0.98296700  1
  Fe  Fe103  1  0.37292050  0.62168050  0.68286650  1
  Fe  Fe104  1  0.72684050  0.53549750  0.39724950  1
  Fe  Fe105  1  0.21450250  0.47684050  0.85275050  1
  Fe  Fe106  1  0.98296700  0.65986200  0.06371000  1
  Fe  Fe107  1  0.00000000  0.25000000  0.16989500  1
  Fe  Fe108  1  0.81713350  0.62707950  0.12168050  1
  Fe  Fe109  1  0.62831950  0.62292050  0.06713350  1
  Fe  Fe110  1  0.75000000  0.08010500  0.50000000  1
  Fe  Fe111  1  0.31857100  0.81857100  0.68142900  1
  Fe  Fe112  1  0.93286650  0.87168050  0.62292050  1
  Fe  Fe113  1  0.40986200  0.26703300  0.68629000  1
  Fe  Fe114  1  0.68142900  0.31857100  0.81857100  1
  Fe  Fe115  1  0.93286650  0.12831950  0.87707950  1
  Fe  Fe116  1  0.23296700  0.68629000  0.59013800  1
  Fe  Fe117  1  0.72684050  0.46450250  0.10275050  1
  Fe  Fe118  1  0.68629000  0.40986200  0.26703300  1
  Fe  Fe119  1  0.00000000  0.75000000  0.33010500  1
  Fe  Fe120  1  0.33010500  0.00000000  0.75000000  1
  Fe  Fe121  1  0.43142900  0.56857100  0.06857100  1
  Fe  Fe122  1  0.78549750  0.02315950  0.85275050  1
  Fe  Fe123  1  0.46450250  0.10275050  0.72684050  1
  Fe  Fe124  1  0.02315950  0.85275050  0.78549750  1
  Fe  Fe125  1  0.60275050  0.77315950  0.53549750  1
  Fe  Fe126  1  0.62707950  0.12168050  0.81713350  1
  Fe  Fe127  1  0.15986200  0.56371000  0.48296700  1
  Fe  Fe128  1  0.50000000  0.75000000  0.08010500  1
  Fe  Fe129  1  0.68142900  0.68142900  0.68142900  1
  Fe  Fe130  1  0.62292050  0.93286650  0.87168050  1
  Fe  Fe131  1  0.48296700  0.84013800  0.93629000  1
  Fe  Fe132  1  0.51703300  0.34013800  0.56371000  1
  Fe  Fe133  1  0.97684050  0.64724950  0.78549750  1
  Fe  Fe134  1  0.56857100  0.06857100  0.43142900  1
  Fe  Fe135  1  0.62292050  0.06713350  0.62831950  1
  Fe  Fe136  1  0.37168050  0.87707950  0.06713350  1
  Fe  Fe137  1  0.66989500  0.50000000  0.75000000  1
  Fe  Fe138  1  0.89724950  0.22684050  0.03549750  1
  Fe  Fe139  1  0.87168050  0.62292050  0.93286650  1
  Fe  Fe140  1  0.87292050  0.87831950  0.31713350  1
  Fe  Fe141  1  0.06713350  0.37168050  0.87707950  1
  Fe  Fe142  1  0.10275050  0.72684050  0.46450250  1
  Fe  Fe143  1  0.34013800  0.56371000  0.51703300  1
  Fe  Fe144  1  0.93142900  0.93142900  0.93142900  1
  Fe  Fe145  1  0.73296700  0.81371000  0.40986200  1
  Fe  Fe146  1  0.77315950  0.46450250  0.89724950  1
  Fe  Fe147  1  0.93629000  0.48296700  0.84013800  1
  Fe  Fe148  1  0.06713350  0.62831950  0.62292050  1
  Fe  Fe149  1  0.64724950  0.21450250  0.52315950  1
  Fe  Fe150  1  0.93629000  0.51703300  0.65986200  1
  Fe  Fe151  1  0.12168050  0.18286650  0.87292050  1
  Fe  Fe152  1  0.35275050  0.71450250  0.97684050  1
  Fe  Fe153  1  0.87707950  0.06713350  0.37168050  1
  Fe  Fe154  1  0.31713350  0.87292050  0.87831950  1
  Fe  Fe155  1  0.65986200  0.93629000  0.51703300  1
  Fe  Fe156  1  0.81857100  0.68142900  0.31857100  1
  Fe  Fe157  1  0.26703300  0.68629000  0.40986200  1
  Fe  Fe158  1  0.75000000  0.66989500  0.50000000  1
  Fe  Fe159  1  0.91989500  0.00000000  0.75000000  1
  Fe  Fe160  1  0.56371000  0.51703300  0.34013800  1
  Fe  Fe161  1  0.85275050  0.78549750  0.02315950  1
  Fe  Fe162  1  0.08010500  0.50000000  0.75000000  1
  Fe  Fe163  1  0.03549750  0.89724950  0.22684050  1
  Fe  Fe164  1  0.00000000  0.75000000  0.91989500  1
  Fe  Fe165  1  0.87831950  0.68286650  0.62707950  1
  Fe  Fe166  1  0.40986200  0.73296700  0.81371000  1
  Fe  Fe167  1  0.81371000  0.40986200  0.73296700  1
  Fe  Fe168  1  0.68286650  0.62707950  0.87831950  1
  Fe  Fe169  1  0.78549750  0.97684050  0.64724950  1
  Fe  Fe170  1  0.62707950  0.87831950  0.68286650  1
  Fe  Fe171  1  0.51703300  0.65986200  0.93629000  1
  Fe  Fe172  1  0.59013800  0.76703300  0.81371000  1
  Fe  Fe173  1  0.87707950  0.93286650  0.12831950  1
  Fe  Fe174  1  0.87831950  0.31713350  0.87292050  1
  Fe  Fe175  1  0.75000000  0.33010500  0.00000000  1
  Fe  Fe176  1  0.89724950  0.77315950  0.46450250  1
  Fe  Fe177  1  0.59013800  0.23296700  0.68629000  1
  Fe  Fe178  1  0.77315950  0.53549750  0.60275050  1
  Fe  Fe179  1  0.12831950  0.87707950  0.93286650  1
  Fe  Fe180  1  0.75000000  0.91989500  0.00000000  1
  Fe  Fe181  1  0.18286650  0.87292050  0.12168050  1
  Fe  Fe182  1  0.76703300  0.81371000  0.59013800  1
  Fe  Fe183  1  0.53549750  0.60275050  0.77315950  1
  Fe  Fe184  1  0.21450250  0.52315950  0.64724950  1
  Fe  Fe185  1  0.68629000  0.59013800  0.23296700  1
  Fe  Fe186  1  0.12168050  0.81713350  0.62707950  1
  Fe  Fe187  1  0.06857100  0.43142900  0.56857100  1
  Fe  Fe188  1  0.97684050  0.35275050  0.71450250  1
  Fe  Fe189  1  0.52315950  0.64724950  0.21450250  1
  Fe  Fe190  1  0.56371000  0.48296700  0.15986200  1
  Fe  Fe191  1  0.64724950  0.78549750  0.97684050  1
  Fe  Fe192  1  0.46450250  0.89724950  0.77315950  1
  Fe  Fe193  1  0.81371000  0.59013800  0.76703300  1
  Fe  Fe194  1  0.84013800  0.93629000  0.48296700  1
  Fe  Fe195  1  0.87292050  0.12168050  0.18286650  1
  Fe  Fe196  1  0.22684050  0.03549750  0.89724950  1
  Fe  Fe197  1  0.71450250  0.97684050  0.35275050  1
  Fe  Fe198  1  0.48296700  0.15986200  0.56371000  1
  Fe  Fe199  1  0.50000000  0.75000000  0.66989500  1
  B  B200  1  0.75000000  0.43695900  0.50000000  1
  B  B201  1  0.75000000  0.31304100  0.50000000  1
  B  B202  1  0.25000000  0.06304100  0.50000000  1
  B  B203  1  0.50000000  0.25000000  0.06304100  1
  B  B204  1  0.25000000  0.18695900  0.50000000  1
  B  B205  1  0.18695900  0.50000000  0.25000000  1
  B  B206  1  0.06304100  0.50000000  0.25000000  1
  B  B207  1  0.50000000  0.75000000  0.31304100  1
  B  B208  1  0.50000000  0.75000000  0.43695900  1
  B  B209  1  0.50000000  0.25000000  0.18695900  1
  B  B210  1  0.43695900  0.50000000  0.75000000  1
  B  B211  1  0.31304100  0.50000000  0.75000000  1
  B  B212  1  0.25000000  0.93695900  0.00000000  1
  B  B213  1  0.25000000  0.81304100  0.00000000  1
  B  B214  1  0.75000000  0.56304100  0.00000000  1
  B  B215  1  0.00000000  0.75000000  0.56304100  1
  B  B216  1  0.75000000  0.68695900  0.00000000  1
  B  B217  1  0.68695900  0.00000000  0.75000000  1
  B  B218  1  0.56304100  0.00000000  0.75000000  1
  B  B219  1  0.00000000  0.25000000  0.81304100  1
  B  B220  1  0.00000000  0.25000000  0.93695900  1
  B  B221  1  0.00000000  0.75000000  0.68695900  1
  B  B222  1  0.93695900  0.00000000  0.25000000  1
  B  B223  1  0.81304100  0.00000000  0.25000000  1
