# generated using pymatgen
data_Mn3(CuO4)2
_symmetry_space_group_name_H-M   'P 1'
_cell_length_a   9.67205000
_cell_length_b   5.75718400
_cell_length_c   5.02954559
_cell_angle_alpha   90.00000000
_cell_angle_beta   99.86550342
_cell_angle_gamma   90.00000000
_symmetry_Int_Tables_number   1
_chemical_formula_structural   Mn3(CuO4)2
_chemical_formula_sum   'Mn6 Cu4 O16'
_cell_volume   275.92266543
_cell_formula_units_Z   2
loop_
 _symmetry_equiv_pos_site_id
 _symmetry_equiv_pos_as_xyz
  1  'x, y, z'
loop_
 _atom_site_type_symbol
 _atom_site_label
 _atom_site_symmetry_multiplicity
 _atom_site_fract_x
 _atom_site_fract_y
 _atom_site_fract_z
 _atom_site_occupancy
  Mn  Mn0  1  0.00000000  0.00000000  0.00000000  1
  Mn  Mn1  1  0.50000000  0.75620900  0.50000000  1
  Mn  Mn2  1  0.50000000  0.24379100  0.50000000  1
  Mn  Mn3  1  0.50000000  0.50000000  0.00000000  1
  Mn  Mn4  1  0.00000000  0.25620900  0.50000000  1
  Mn  Mn5  1  0.00000000  0.74379100  0.50000000  1
  Cu  Cu6  1  0.28928500  0.00000000  0.92526900  1
  Cu  Cu7  1  0.71071500  0.00000000  0.07473100  1
  Cu  Cu8  1  0.78928500  0.50000000  0.92526900  1
  Cu  Cu9  1  0.21071500  0.50000000  0.07473100  1
  O  O10  1  0.89939700  0.00000000  0.64012000  1
  O  O11  1  0.10060300  0.00000000  0.35988000  1
  O  O12  1  0.60701800  0.00000000  0.38779900  1
  O  O13  1  0.39298200  0.00000000  0.61220100  1
  O  O14  1  0.62007200  0.27114300  0.86141900  1
  O  O15  1  0.62007200  0.72885700  0.86141900  1
  O  O16  1  0.37992800  0.27114300  0.13858100  1
  O  O17  1  0.37992800  0.72885700  0.13858100  1
  O  O18  1  0.39939700  0.50000000  0.64012000  1
  O  O19  1  0.60060300  0.50000000  0.35988000  1
  O  O20  1  0.10701800  0.50000000  0.38779900  1
  O  O21  1  0.89298200  0.50000000  0.61220100  1
  O  O22  1  0.12007200  0.77114300  0.86141900  1
  O  O23  1  0.12007200  0.22885700  0.86141900  1
  O  O24  1  0.87992800  0.77114300  0.13858100  1
  O  O25  1  0.87992800  0.22885700  0.13858100  1
