# generated using pymatgen
data_Lu7Te
_symmetry_space_group_name_H-M   'P 1'
_cell_length_a   3.74232400
_cell_length_b   12.27248800
_cell_length_c   19.97480300
_cell_angle_alpha   90.00000000
_cell_angle_beta   90.00000000
_cell_angle_gamma   90.00000000
_symmetry_Int_Tables_number   1
_chemical_formula_structural   Lu7Te
_chemical_formula_sum   'Lu28 Te4'
_cell_volume   917.39528924
_cell_formula_units_Z   4
loop_
 _symmetry_equiv_pos_site_id
 _symmetry_equiv_pos_as_xyz
  1  'x, y, z'
loop_
 _atom_site_type_symbol
 _atom_site_label
 _atom_site_symmetry_multiplicity
 _atom_site_fract_x
 _atom_site_fract_y
 _atom_site_fract_z
 _atom_site_occupancy
  Lu  Lu0  1  0.00000000  0.01994200  0.39084500  1
  Lu  Lu1  1  0.50000000  0.48005800  0.60915500  1
  Lu  Lu2  1  0.50000000  0.48005800  0.89084500  1
  Lu  Lu3  1  0.00000000  0.01994200  0.10915500  1
  Lu  Lu4  1  0.00000000  0.24496400  0.85545700  1
  Lu  Lu5  1  0.50000000  0.25503600  0.14454300  1
  Lu  Lu6  1  0.50000000  0.25503600  0.35545700  1
  Lu  Lu7  1  0.00000000  0.24496400  0.64454300  1
  Lu  Lu8  1  0.00000000  0.35759700  0.48754600  1
  Lu  Lu9  1  0.50000000  0.14240300  0.51245400  1
  Lu  Lu10  1  0.50000000  0.14240300  0.98754600  1
  Lu  Lu11  1  0.00000000  0.35759700  0.01245400  1
  Lu  Lu12  1  0.00000000  0.43733700  0.25000000  1
  Lu  Lu13  1  0.50000000  0.06266300  0.75000000  1
  Lu  Lu14  1  0.50000000  0.51994200  0.39084500  1
  Lu  Lu15  1  0.00000000  0.98005800  0.60915500  1
  Lu  Lu16  1  0.00000000  0.98005800  0.89084500  1
  Lu  Lu17  1  0.50000000  0.51994200  0.10915500  1
  Lu  Lu18  1  0.50000000  0.74496400  0.85545700  1
  Lu  Lu19  1  0.00000000  0.75503600  0.14454300  1
  Lu  Lu20  1  0.00000000  0.75503600  0.35545700  1
  Lu  Lu21  1  0.50000000  0.74496400  0.64454300  1
  Lu  Lu22  1  0.50000000  0.85759700  0.48754600  1
  Lu  Lu23  1  0.00000000  0.64240300  0.51245400  1
  Lu  Lu24  1  0.00000000  0.64240300  0.98754600  1
  Lu  Lu25  1  0.50000000  0.85759700  0.01245400  1
  Lu  Lu26  1  0.50000000  0.93733700  0.25000000  1
  Lu  Lu27  1  0.00000000  0.56266300  0.75000000  1
  Te  Te28  1  0.00000000  0.14864800  0.25000000  1
  Te  Te29  1  0.50000000  0.35135200  0.75000000  1
  Te  Te30  1  0.50000000  0.64864800  0.25000000  1
  Te  Te31  1  0.00000000  0.85135200  0.75000000  1
