# generated using pymatgen
data_CoF3
_symmetry_space_group_name_H-M   'P 1'
_cell_length_a   5.21093218
_cell_length_b   5.21093218
_cell_length_c   13.02063632
_cell_angle_alpha   90.00000000
_cell_angle_beta   90.00000000
_cell_angle_gamma   120.00000000
_symmetry_Int_Tables_number   1
_chemical_formula_structural   CoF3
_chemical_formula_sum   'Co6 F18'
_cell_volume   306.19188917
_cell_formula_units_Z   6
loop_
 _symmetry_equiv_pos_site_id
 _symmetry_equiv_pos_as_xyz
  1  'x, y, z'
loop_
 _atom_site_type_symbol
 _atom_site_label
 _atom_site_symmetry_multiplicity
 _atom_site_fract_x
 _atom_site_fract_y
 _atom_site_fract_z
 _atom_site_occupancy
  Co  Co0  1  0.00000000  0.00000000  0.00000000  1
  Co  Co1  1  0.33333333  0.66666667  0.16666667  1
  Co  Co2  1  0.66666667  0.33333333  0.33333333  1
  Co  Co3  1  0.00000000  0.00000000  0.50000000  1
  Co  Co4  1  0.33333333  0.66666667  0.66666667  1
  Co  Co5  1  0.66666667  0.33333333  0.83333333  1
  F  F6  1  0.60559000  0.60559000  0.25000000  1
  F  F7  1  0.00000000  0.39441000  0.25000000  1
  F  F8  1  0.39441000  0.00000000  0.25000000  1
  F  F9  1  0.06107667  0.72774333  0.08333333  1
  F  F10  1  0.66666667  0.93892333  0.08333333  1
  F  F11  1  0.27225667  0.33333333  0.08333333  1
  F  F12  1  0.27225667  0.93892333  0.58333333  1
  F  F13  1  0.66666667  0.72774333  0.58333333  1
  F  F14  1  0.06107667  0.33333333  0.58333333  1
  F  F15  1  0.72774333  0.06107667  0.41666667  1
  F  F16  1  0.33333333  0.27225667  0.41666667  1
  F  F17  1  0.93892333  0.66666667  0.41666667  1
  F  F18  1  0.93892333  0.27225667  0.91666667  1
  F  F19  1  0.33333333  0.06107667  0.91666667  1
  F  F20  1  0.72774333  0.66666667  0.91666667  1
  F  F21  1  0.39441000  0.39441000  0.75000000  1
  F  F22  1  0.00000000  0.60559000  0.75000000  1
  F  F23  1  0.60559000  0.00000000  0.75000000  1
