# generated using pymatgen
data_LiMg4V3O12
_symmetry_space_group_name_H-M   'P 1'
_cell_length_a   6.95806200
_cell_length_b   6.95806200
_cell_length_c   19.16871600
_cell_angle_alpha   90.00000000
_cell_angle_beta   90.00000000
_cell_angle_gamma   90.00000000
_symmetry_Int_Tables_number   1
_chemical_formula_structural   LiMg4V3O12
_chemical_formula_sum   'Li4 Mg16 V12 O48'
_cell_volume   928.04623130
_cell_formula_units_Z   4
loop_
 _symmetry_equiv_pos_site_id
 _symmetry_equiv_pos_as_xyz
  1  'x, y, z'
loop_
 _atom_site_type_symbol
 _atom_site_label
 _atom_site_symmetry_multiplicity
 _atom_site_fract_x
 _atom_site_fract_y
 _atom_site_fract_z
 _atom_site_occupancy
  Li  Li0  1  0.50000000  0.00000000  0.25000000  1
  Li  Li1  1  0.50000000  0.50000000  0.00000000  1
  Li  Li2  1  0.00000000  0.50000000  0.75000000  1
  Li  Li3  1  0.00000000  0.00000000  0.50000000  1
  Mg  Mg4  1  0.00000000  0.50000000  0.47524700  1
  Mg  Mg5  1  0.00000000  0.50000000  0.02475300  1
  Mg  Mg6  1  0.24227900  0.25000000  0.12500000  1
  Mg  Mg7  1  0.25000000  0.74227900  0.37500000  1
  Mg  Mg8  1  0.50000000  0.50000000  0.27475300  1
  Mg  Mg9  1  0.00000000  0.00000000  0.22524700  1
  Mg  Mg10  1  0.75772100  0.75000000  0.12500000  1
  Mg  Mg11  1  0.75000000  0.25772100  0.37500000  1
  Mg  Mg12  1  0.50000000  0.00000000  0.97524700  1
  Mg  Mg13  1  0.50000000  0.00000000  0.52475300  1
  Mg  Mg14  1  0.74227900  0.75000000  0.62500000  1
  Mg  Mg15  1  0.75000000  0.24227900  0.87500000  1
  Mg  Mg16  1  0.00000000  0.00000000  0.77475300  1
  Mg  Mg17  1  0.50000000  0.50000000  0.72524700  1
  Mg  Mg18  1  0.25772100  0.25000000  0.62500000  1
  Mg  Mg19  1  0.25000000  0.75772100  0.87500000  1
  V  V20  1  0.64981800  0.25000000  0.12500000  1
  V  V21  1  0.25000000  0.14981800  0.37500000  1
  V  V22  1  0.75000000  0.85018200  0.37500000  1
  V  V23  1  0.00000000  0.50000000  0.25000000  1
  V  V24  1  0.35018200  0.75000000  0.12500000  1
  V  V25  1  0.00000000  0.00000000  0.00000000  1
  V  V26  1  0.14981800  0.75000000  0.62500000  1
  V  V27  1  0.75000000  0.64981800  0.87500000  1
  V  V28  1  0.25000000  0.35018200  0.87500000  1
  V  V29  1  0.50000000  0.00000000  0.75000000  1
  V  V30  1  0.85018200  0.25000000  0.62500000  1
  V  V31  1  0.50000000  0.50000000  0.50000000  1
  O  O32  1  0.05334100  0.28951700  0.20449900  1
  O  O33  1  0.51100450  0.71137650  0.19423350  1
  O  O34  1  0.94665900  0.78951700  0.04550100  1
  O  O35  1  0.28862350  0.98899550  0.44423350  1
  O  O36  1  0.21048300  0.55334100  0.29550100  1
  O  O37  1  0.94665900  0.71048300  0.20449900  1
  O  O38  1  0.22778200  0.54091200  0.10116500  1
  O  O39  1  0.05334100  0.21048300  0.04550100  1
  O  O40  1  0.95908800  0.72778200  0.39883500  1
  O  O41  1  0.51100450  0.78862350  0.05576650  1
  O  O42  1  0.77221800  0.04091200  0.14883500  1
  O  O43  1  0.71048300  0.44665900  0.45449900  1
  O  O44  1  0.78951700  0.44665900  0.29550100  1
  O  O45  1  0.45908800  0.27221800  0.35116500  1
  O  O46  1  0.48899550  0.28862350  0.19423350  1
  O  O47  1  0.54091200  0.72778200  0.35116500  1
  O  O48  1  0.78862350  0.01100450  0.30576650  1
  O  O49  1  0.77221800  0.45908800  0.10116500  1
  O  O50  1  0.71137650  0.01100450  0.44423350  1
  O  O51  1  0.21137650  0.98899550  0.30576650  1
  O  O52  1  0.04091200  0.27221800  0.39883500  1
  O  O53  1  0.48899550  0.21137650  0.05576650  1
  O  O54  1  0.28951700  0.55334100  0.45449900  1
  O  O55  1  0.22778200  0.95908800  0.14883500  1
  O  O56  1  0.55334100  0.78951700  0.70449900  1
  O  O57  1  0.01100450  0.21137650  0.69423350  1
  O  O58  1  0.44665900  0.28951700  0.54550100  1
  O  O59  1  0.78862350  0.48899550  0.94423350  1
  O  O60  1  0.71048300  0.05334100  0.79550100  1
  O  O61  1  0.44665900  0.21048300  0.70449900  1
  O  O62  1  0.72778200  0.04091200  0.60116500  1
  O  O63  1  0.55334100  0.71048300  0.54550100  1
  O  O64  1  0.45908800  0.22778200  0.89883500  1
  O  O65  1  0.01100450  0.28862350  0.55576650  1
  O  O66  1  0.27221800  0.54091200  0.64883500  1
  O  O67  1  0.21048300  0.94665900  0.95449900  1
  O  O68  1  0.28951700  0.94665900  0.79550100  1
  O  O69  1  0.95908800  0.77221800  0.85116500  1
  O  O70  1  0.98899550  0.78862350  0.69423350  1
  O  O71  1  0.04091200  0.22778200  0.85116500  1
  O  O72  1  0.28862350  0.51100450  0.80576650  1
  O  O73  1  0.27221800  0.95908800  0.60116500  1
  O  O74  1  0.21137650  0.51100450  0.94423350  1
  O  O75  1  0.71137650  0.48899550  0.80576650  1
  O  O76  1  0.54091200  0.77221800  0.89883500  1
  O  O77  1  0.98899550  0.71137650  0.55576650  1
  O  O78  1  0.78951700  0.05334100  0.95449900  1
  O  O79  1  0.72778200  0.45908800  0.64883500  1
