# generated using pymatgen
data_K2CoF4
_symmetry_space_group_name_H-M   'P 1'
_cell_length_a   4.12522600
_cell_length_b   4.12522600
_cell_length_c   13.21805800
_cell_angle_alpha   90.00000000
_cell_angle_beta   90.00000000
_cell_angle_gamma   90.00000000
_symmetry_Int_Tables_number   1
_chemical_formula_structural   K2CoF4
_chemical_formula_sum   'K4 Co2 F8'
_cell_volume   224.93816390
_cell_formula_units_Z   2
loop_
 _symmetry_equiv_pos_site_id
 _symmetry_equiv_pos_as_xyz
  1  'x, y, z'
loop_
 _atom_site_type_symbol
 _atom_site_label
 _atom_site_symmetry_multiplicity
 _atom_site_fract_x
 _atom_site_fract_y
 _atom_site_fract_z
 _atom_site_occupancy
  K  K0  1  0.00000000  0.00000000  0.35524400  1
  K  K1  1  0.50000000  0.50000000  0.14475600  1
  K  K2  1  0.50000000  0.50000000  0.85524400  1
  K  K3  1  0.00000000  0.00000000  0.64475600  1
  Co  Co4  1  0.00000000  0.00000000  0.00000000  1
  Co  Co5  1  0.50000000  0.50000000  0.50000000  1
  F  F6  1  0.50000000  0.00000000  0.00000000  1
  F  F7  1  0.00000000  0.50000000  0.00000000  1
  F  F8  1  0.50000000  0.50000000  0.34583600  1
  F  F9  1  0.00000000  0.00000000  0.15416400  1
  F  F10  1  0.00000000  0.50000000  0.50000000  1
  F  F11  1  0.50000000  0.00000000  0.50000000  1
  F  F12  1  0.00000000  0.00000000  0.84583600  1
  F  F13  1  0.50000000  0.50000000  0.65416400  1
