# generated using pymatgen
data_Ba2Mn2Bi2O
_symmetry_space_group_name_H-M   'P 1'
_cell_length_a   4.89514561
_cell_length_b   4.89514561
_cell_length_c   20.48241000
_cell_angle_alpha   90.00000000
_cell_angle_beta   90.00000000
_cell_angle_gamma   120.00000000
_symmetry_Int_Tables_number   1
_chemical_formula_structural   Ba2Mn2Bi2O
_chemical_formula_sum   'Ba4 Mn4 Bi4 O2'
_cell_volume   425.05283403
_cell_formula_units_Z   2
loop_
 _symmetry_equiv_pos_site_id
 _symmetry_equiv_pos_as_xyz
  1  'x, y, z'
loop_
 _atom_site_type_symbol
 _atom_site_label
 _atom_site_symmetry_multiplicity
 _atom_site_fract_x
 _atom_site_fract_y
 _atom_site_fract_z
 _atom_site_occupancy
  Ba  Ba0  1  0.00000000  0.00000000  0.75000000  1
  Ba  Ba1  1  0.00000000  0.00000000  0.25000000  1
  Ba  Ba2  1  0.00000000  0.00000000  0.50000000  1
  Ba  Ba3  1  0.00000000  0.00000000  0.00000000  1
  Mn  Mn4  1  0.33333333  0.66666667  0.84887600  1
  Mn  Mn5  1  0.66666667  0.33333333  0.34887600  1
  Mn  Mn6  1  0.66666667  0.33333333  0.15112400  1
  Mn  Mn7  1  0.33333333  0.66666667  0.65112400  1
  Bi  Bi8  1  0.66666667  0.33333333  0.88893100  1
  Bi  Bi9  1  0.66666667  0.33333333  0.61106900  1
  Bi  Bi10  1  0.33333333  0.66666667  0.38893100  1
  Bi  Bi11  1  0.33333333  0.66666667  0.11106900  1
  O  O12  1  0.66666667  0.33333333  0.25000000  1
  O  O13  1  0.33333333  0.66666667  0.75000000  1
