# generated using pymatgen
data_Fe(SbO3)2
_symmetry_space_group_name_H-M   'P 1'
_cell_length_a   4.75334600
_cell_length_b   4.75334600
_cell_length_c   9.48425000
_cell_angle_alpha   90.00000000
_cell_angle_beta   90.00000000
_cell_angle_gamma   90.00000000
_symmetry_Int_Tables_number   1
_chemical_formula_structural   Fe(SbO3)2
_chemical_formula_sum   'Fe2 Sb4 O12'
_cell_volume   214.28997266
_cell_formula_units_Z   2
loop_
 _symmetry_equiv_pos_site_id
 _symmetry_equiv_pos_as_xyz
  1  'x, y, z'
loop_
 _atom_site_type_symbol
 _atom_site_label
 _atom_site_symmetry_multiplicity
 _atom_site_fract_x
 _atom_site_fract_y
 _atom_site_fract_z
 _atom_site_occupancy
  Fe  Fe0  1  0.00000000  0.00000000  0.00000000  1
  Fe  Fe1  1  0.50000000  0.50000000  0.50000000  1
  Sb  Sb2  1  0.00000000  0.00000000  0.33210800  1
  Sb  Sb3  1  0.50000000  0.50000000  0.83210800  1
  Sb  Sb4  1  0.50000000  0.50000000  0.16789200  1
  Sb  Sb5  1  0.00000000  0.00000000  0.66789200  1
  O  O6  1  0.31215000  0.31215000  0.00000000  1
  O  O7  1  0.18785000  0.81215000  0.50000000  1
  O  O8  1  0.81215000  0.18785000  0.50000000  1
  O  O9  1  0.68785000  0.68785000  0.00000000  1
  O  O10  1  0.30079800  0.30079800  0.32637000  1
  O  O11  1  0.19920200  0.80079800  0.82637000  1
  O  O12  1  0.80079800  0.19920200  0.82637000  1
  O  O13  1  0.80079800  0.19920200  0.17363000  1
  O  O14  1  0.19920200  0.80079800  0.17363000  1
  O  O15  1  0.69920200  0.69920200  0.32637000  1
  O  O16  1  0.30079800  0.30079800  0.67363000  1
  O  O17  1  0.69920200  0.69920200  0.67363000  1
