# generated using pymatgen
data_TiMnH12(OF)6
_symmetry_space_group_name_H-M   'P 1'
_cell_length_a   9.87199051
_cell_length_b   9.87199051
_cell_length_c   10.14067830
_cell_angle_alpha   90.00000000
_cell_angle_beta   90.00000000
_cell_angle_gamma   120.00000000
_symmetry_Int_Tables_number   1
_chemical_formula_structural   TiMnH12(OF)6
_chemical_formula_sum   'Ti3 Mn3 H36 O18 F18'
_cell_volume   855.86860547
_cell_formula_units_Z   3
loop_
 _symmetry_equiv_pos_site_id
 _symmetry_equiv_pos_as_xyz
  1  'x, y, z'
loop_
 _atom_site_type_symbol
 _atom_site_label
 _atom_site_symmetry_multiplicity
 _atom_site_fract_x
 _atom_site_fract_y
 _atom_site_fract_z
 _atom_site_occupancy
  Ti  Ti0  1  0.00000000  0.00000000  0.50000000  1
  Ti  Ti1  1  0.66666667  0.33333333  0.83333333  1
  Ti  Ti2  1  0.33333333  0.66666667  0.16666667  1
  Mn  Mn3  1  0.33333333  0.66666667  0.66666667  1
  Mn  Mn4  1  1.00000000  0.00000000  0.00000000  1
  Mn  Mn5  1  0.66666667  0.33333333  0.33333333  1
  H  H6  1  0.74760067  0.63190633  0.43767108  1
  H  H7  1  0.36809367  0.11569433  0.43767108  1
  H  H8  1  0.88430567  0.25239933  0.43767108  1
  H  H9  1  0.25239933  0.36809367  0.56232892  1
  H  H10  1  0.63190633  0.88430567  0.56232892  1
  H  H11  1  0.11569433  0.74760067  0.56232892  1
  H  H12  1  0.99083892  0.17583008  0.21880408  1
  H  H13  1  0.82416992  0.81500883  0.21880408  1
  H  H14  1  0.18499117  0.00916108  0.21880408  1
  H  H15  1  0.00916108  0.82416992  0.78119592  1
  H  H16  1  0.17583008  0.18499117  0.78119592  1
  H  H17  1  0.81500883  0.99083892  0.78119592  1
  H  H18  1  0.41426733  0.96523967  0.77100442  1
  H  H19  1  0.03476033  0.44902767  0.77100442  1
  H  H20  1  0.55097233  0.58573267  0.77100442  1
  H  H21  1  0.91906600  0.70142700  0.89566225  1
  H  H22  1  0.29857300  0.21763900  0.89566225  1
  H  H23  1  0.78236100  0.08093400  0.89566225  1
  H  H24  1  0.65750558  0.50916342  0.55213742  1
  H  H25  1  0.49083658  0.14834217  0.55213742  1
  H  H26  1  0.85165783  0.34249442  0.55213742  1
  H  H27  1  0.67582775  0.15750325  0.11452925  1
  H  H28  1  0.84249675  0.51832450  0.11452925  1
  H  H29  1  0.48167550  0.32417225  0.11452925  1
  H  H30  1  0.08093400  0.29857300  0.10433775  1
  H  H31  1  0.70142700  0.78236100  0.10433775  1
  H  H32  1  0.21763900  0.91906600  0.10433775  1
  H  H33  1  0.58573267  0.03476033  0.22899558  1
  H  H34  1  0.96523967  0.55097233  0.22899558  1
  H  H35  1  0.44902767  0.41426733  0.22899558  1
  H  H36  1  0.32417225  0.84249675  0.88547075  1
  H  H37  1  0.15750325  0.48167550  0.88547075  1
  H  H38  1  0.51832450  0.67582775  0.88547075  1
  H  H39  1  0.34249442  0.49083658  0.44786258  1
  H  H40  1  0.50916342  0.85165783  0.44786258  1
  H  H41  1  0.14834217  0.65750558  0.44786258  1
  O  O42  1  0.67600867  0.52054283  0.45651108  1
  O  O43  1  0.47945717  0.15546583  0.45651108  1
  O  O44  1  0.84453417  0.32399133  0.45651108  1
  O  O45  1  0.32399133  0.47945717  0.54348892  1
  O  O46  1  0.52054283  0.84453417  0.54348892  1
  O  O47  1  0.15546583  0.67600867  0.54348892  1
  O  O48  1  0.34267533  0.85387617  0.78984442  1
  O  O49  1  0.14612383  0.48879917  0.78984442  1
  O  O50  1  0.51120083  0.65732467  0.78984442  1
  O  O51  1  0.99065800  0.81279050  0.87682225  1
  O  O52  1  0.18720950  0.17786750  0.87682225  1
  O  O53  1  0.82213250  0.00934200  0.87682225  1
  O  O54  1  0.00934200  0.18720950  0.12317775  1
  O  O55  1  0.81279050  0.82213250  0.12317775  1
  O  O56  1  0.17786750  0.99065800  0.12317775  1
  O  O57  1  0.65732467  0.14612383  0.21015558  1
  O  O58  1  0.85387617  0.51120083  0.21015558  1
  O  O59  1  0.48879917  0.34267533  0.21015558  1
  F  F60  1  0.86214492  0.82935383  0.39206208  1
  F  F61  1  0.17064617  0.03279108  0.39206208  1
  F  F62  1  0.96720892  0.13785508  0.39206208  1
  F  F63  1  0.13785508  0.17064617  0.60793792  1
  F  F64  1  0.82935383  0.96720892  0.60793792  1
  F  F65  1  0.03279108  0.86214492  0.60793792  1
  F  F66  1  0.52881158  0.16268717  0.72539542  1
  F  F67  1  0.83731283  0.36612442  0.72539542  1
  F  F68  1  0.63387558  0.47118842  0.72539542  1
  F  F69  1  0.80452175  0.50397950  0.94127125  1
  F  F70  1  0.49602050  0.30054225  0.94127125  1
  F  F71  1  0.69945775  0.19547825  0.94127125  1
  F  F72  1  0.19547825  0.49602050  0.05872875  1
  F  F73  1  0.50397950  0.69945775  0.05872875  1
  F  F74  1  0.30054225  0.80452175  0.05872875  1
  F  F75  1  0.47118842  0.83731283  0.27460458  1
  F  F76  1  0.16268717  0.63387558  0.27460458  1
  F  F77  1  0.36612442  0.52881158  0.27460458  1
