# generated using pymatgen
data_Ba3WCl2O5
_symmetry_space_group_name_H-M   'P 1'
_cell_length_a   5.91836400
_cell_length_b   14.02960200
_cell_length_c   11.71430400
_cell_angle_alpha   90.00000000
_cell_angle_beta   90.00000000
_cell_angle_gamma   90.00000000
_symmetry_Int_Tables_number   1
_chemical_formula_structural   Ba3WCl2O5
_chemical_formula_sum   'Ba12 W4 Cl8 O20'
_cell_volume   972.66550341
_cell_formula_units_Z   4
loop_
 _symmetry_equiv_pos_site_id
 _symmetry_equiv_pos_as_xyz
  1  'x, y, z'
loop_
 _atom_site_type_symbol
 _atom_site_label
 _atom_site_symmetry_multiplicity
 _atom_site_fract_x
 _atom_site_fract_y
 _atom_site_fract_z
 _atom_site_occupancy
  Ba  Ba0  1  0.50000000  0.15389600  0.45561500  1
  Ba  Ba1  1  0.00000000  0.34610400  0.95561500  1
  Ba  Ba2  1  0.50000000  0.15389600  0.04438500  1
  Ba  Ba3  1  0.50000000  0.40866000  0.25000000  1
  Ba  Ba4  1  0.00000000  0.34610400  0.54438500  1
  Ba  Ba5  1  0.00000000  0.09134000  0.75000000  1
  Ba  Ba6  1  0.00000000  0.65389600  0.45561500  1
  Ba  Ba7  1  0.50000000  0.84610400  0.95561500  1
  Ba  Ba8  1  0.00000000  0.65389600  0.04438500  1
  Ba  Ba9  1  0.00000000  0.90866000  0.25000000  1
  Ba  Ba10  1  0.50000000  0.84610400  0.54438500  1
  Ba  Ba11  1  0.50000000  0.59134000  0.75000000  1
  W  W12  1  0.50000000  0.25378200  0.75000000  1
  W  W13  1  0.00000000  0.24621800  0.25000000  1
  W  W14  1  0.00000000  0.75378200  0.75000000  1
  W  W15  1  0.50000000  0.74621800  0.25000000  1
  Cl  Cl16  1  0.00000000  0.49557800  0.25000000  1
  Cl  Cl17  1  0.00000000  0.00000000  0.50000000  1
  Cl  Cl18  1  0.00000000  0.00000000  0.00000000  1
  Cl  Cl19  1  0.50000000  0.00442200  0.75000000  1
  Cl  Cl20  1  0.50000000  0.99557800  0.25000000  1
  Cl  Cl21  1  0.50000000  0.50000000  0.50000000  1
  Cl  Cl22  1  0.50000000  0.50000000  0.00000000  1
  Cl  Cl23  1  0.00000000  0.50442200  0.75000000  1
  O  O24  1  0.72397550  0.21940450  0.63636300  1
  O  O25  1  0.00000000  0.11902100  0.25000000  1
  O  O26  1  0.22397550  0.28059550  0.13636300  1
  O  O27  1  0.77602450  0.28059550  0.36363700  1
  O  O28  1  0.50000000  0.38097900  0.75000000  1
  O  O29  1  0.77602450  0.28059550  0.13636300  1
  O  O30  1  0.22397550  0.28059550  0.36363700  1
  O  O31  1  0.27602450  0.21940450  0.63636300  1
  O  O32  1  0.72397550  0.21940450  0.86363700  1
  O  O33  1  0.27602450  0.21940450  0.86363700  1
  O  O34  1  0.22397550  0.71940450  0.63636300  1
  O  O35  1  0.50000000  0.61902100  0.25000000  1
  O  O36  1  0.72397550  0.78059550  0.13636300  1
  O  O37  1  0.27602450  0.78059550  0.36363700  1
  O  O38  1  0.00000000  0.88097900  0.75000000  1
  O  O39  1  0.27602450  0.78059550  0.13636300  1
  O  O40  1  0.72397550  0.78059550  0.36363700  1
  O  O41  1  0.77602450  0.71940450  0.63636300  1
  O  O42  1  0.22397550  0.71940450  0.86363700  1
  O  O43  1  0.77602450  0.71940450  0.86363700  1
