# generated using pymatgen
data_Rb3MnO3
_symmetry_space_group_name_H-M   'P 1'
_cell_length_a   7.04606859
_cell_length_b   12.04601179
_cell_length_c   7.18210683
_cell_angle_alpha   90.00000000
_cell_angle_beta   98.83952648
_cell_angle_gamma   90.00000000
_symmetry_Int_Tables_number   1
_chemical_formula_structural   Rb3MnO3
_chemical_formula_sum   'Rb12 Mn4 O12'
_cell_volume   602.35545347
_cell_formula_units_Z   4
loop_
 _symmetry_equiv_pos_site_id
 _symmetry_equiv_pos_as_xyz
  1  'x, y, z'
loop_
 _atom_site_type_symbol
 _atom_site_label
 _atom_site_symmetry_multiplicity
 _atom_site_fract_x
 _atom_site_fract_y
 _atom_site_fract_z
 _atom_site_occupancy
  Rb  Rb0  1  0.49291050  0.27211500  0.92232350  1
  Rb  Rb1  1  0.50708950  0.72788500  0.07767650  1
  Rb  Rb2  1  0.49291050  0.22788500  0.42232350  1
  Rb  Rb3  1  0.50708950  0.77211500  0.57767650  1
  Rb  Rb4  1  0.96875350  0.71047000  0.49446850  1
  Rb  Rb5  1  0.96875350  0.78953000  0.99446850  1
  Rb  Rb6  1  0.03124650  0.28953000  0.50553150  1
  Rb  Rb7  1  0.03124650  0.21047000  0.00553150  1
  Rb  Rb8  1  0.15684650  0.98978200  0.35861050  1
  Rb  Rb9  1  0.15684650  0.51021800  0.85861050  1
  Rb  Rb10  1  0.84315350  0.48978200  0.14138950  1
  Rb  Rb11  1  0.84315350  0.01021800  0.64138950  1
  Mn  Mn12  1  0.65663250  0.00367000  0.15471650  1
  Mn  Mn13  1  0.34336750  0.50367000  0.34528350  1
  Mn  Mn14  1  0.34336750  0.99633000  0.84528350  1
  Mn  Mn15  1  0.65663250  0.49633000  0.65471650  1
  O  O16  1  0.22986550  0.38312700  0.19900450  1
  O  O17  1  0.77013450  0.88312700  0.30099550  1
  O  O18  1  0.77013450  0.61687300  0.80099550  1
  O  O19  1  0.22986550  0.11687300  0.69900450  1
  O  O20  1  0.60404650  0.93039900  0.90474950  1
  O  O21  1  0.39595350  0.43039900  0.59525050  1
  O  O22  1  0.60404650  0.56960100  0.40474950  1
  O  O23  1  0.39595350  0.06960100  0.09525050  1
  O  O24  1  0.19965150  0.62494800  0.22935950  1
  O  O25  1  0.80034850  0.37505200  0.77064050  1
  O  O26  1  0.80034850  0.12494800  0.27064050  1
  O  O27  1  0.19965150  0.87505200  0.72935950  1
