# generated using pymatgen
data_NaVCdO4
_symmetry_space_group_name_H-M   'P 1'
_cell_length_a   6.21659600
_cell_length_b   9.51506000
_cell_length_c   6.87477300
_cell_angle_alpha   90.00000000
_cell_angle_beta   90.00000000
_cell_angle_gamma   90.00000000
_symmetry_Int_Tables_number   1
_chemical_formula_structural   NaVCdO4
_chemical_formula_sum   'Na4 V4 Cd4 O16'
_cell_volume   406.65164972
_cell_formula_units_Z   4
loop_
 _symmetry_equiv_pos_site_id
 _symmetry_equiv_pos_as_xyz
  1  'x, y, z'
loop_
 _atom_site_type_symbol
 _atom_site_label
 _atom_site_symmetry_multiplicity
 _atom_site_fract_x
 _atom_site_fract_y
 _atom_site_fract_z
 _atom_site_occupancy
  Na  Na0  1  0.50000000  0.00000000  0.50000000  1
  Na  Na1  1  0.50000000  0.00000000  0.00000000  1
  Na  Na2  1  0.00000000  0.50000000  0.50000000  1
  Na  Na3  1  0.00000000  0.50000000  0.00000000  1
  V  V4  1  0.50000000  0.63984100  0.25000000  1
  V  V5  1  0.50000000  0.36015900  0.75000000  1
  V  V6  1  0.00000000  0.13984100  0.25000000  1
  V  V7  1  0.00000000  0.86015900  0.75000000  1
  Cd  Cd8  1  0.50000000  0.32455200  0.25000000  1
  Cd  Cd9  1  0.50000000  0.67544800  0.75000000  1
  Cd  Cd10  1  0.00000000  0.82455200  0.25000000  1
  Cd  Cd11  1  0.00000000  0.17544800  0.75000000  1
  O  O12  1  0.77599850  0.97071650  0.75000000  1
  O  O13  1  0.22400150  0.97071650  0.75000000  1
  O  O14  1  0.50000000  0.25129300  0.95573900  1
  O  O15  1  0.50000000  0.25129300  0.54426100  1
  O  O16  1  0.50000000  0.74870700  0.04426100  1
  O  O17  1  0.50000000  0.74870700  0.45573900  1
  O  O18  1  0.22400150  0.02928350  0.25000000  1
  O  O19  1  0.77599850  0.02928350  0.25000000  1
  O  O20  1  0.27599850  0.47071650  0.75000000  1
  O  O21  1  0.72400150  0.47071650  0.75000000  1
  O  O22  1  0.00000000  0.75129300  0.95573900  1
  O  O23  1  0.00000000  0.75129300  0.54426100  1
  O  O24  1  0.00000000  0.24870700  0.04426100  1
  O  O25  1  0.00000000  0.24870700  0.45573900  1
  O  O26  1  0.72400150  0.52928350  0.25000000  1
  O  O27  1  0.27599850  0.52928350  0.25000000  1
