# generated using pymatgen
data_Ca2Fe9O13
_symmetry_space_group_name_H-M   'P 1'
_cell_length_a   10.32741600
_cell_length_b   3.06092600
_cell_length_c   17.03359918
_cell_angle_alpha   90.00000000
_cell_angle_beta   98.79034565
_cell_angle_gamma   90.00000000
_symmetry_Int_Tables_number   1
_chemical_formula_structural   Ca2Fe9O13
_chemical_formula_sum   'Ca4 Fe18 O26'
_cell_volume   532.13223734
_cell_formula_units_Z   2
loop_
 _symmetry_equiv_pos_site_id
 _symmetry_equiv_pos_as_xyz
  1  'x, y, z'
loop_
 _atom_site_type_symbol
 _atom_site_label
 _atom_site_symmetry_multiplicity
 _atom_site_fract_x
 _atom_site_fract_y
 _atom_site_fract_z
 _atom_site_occupancy
  Ca  Ca0  1  0.78652800  0.00000000  0.77177500  1
  Ca  Ca1  1  0.71347200  0.50000000  0.22822500  1
  Ca  Ca2  1  0.28652800  0.50000000  0.77177500  1
  Ca  Ca3  1  0.21347200  0.00000000  0.22822500  1
  Fe  Fe4  1  0.00000000  0.50000000  0.50000000  1
  Fe  Fe5  1  0.85471300  0.50000000  0.95958000  1
  Fe  Fe6  1  0.64528700  0.00000000  0.04042000  1
  Fe  Fe7  1  0.74815900  0.50000000  0.58200100  1
  Fe  Fe8  1  0.75184100  0.00000000  0.41799900  1
  Fe  Fe9  1  0.56534900  0.50000000  0.87793300  1
  Fe  Fe10  1  0.93465100  0.00000000  0.12206700  1
  Fe  Fe11  1  0.50725700  0.50000000  0.66803000  1
  Fe  Fe12  1  0.99274300  0.00000000  0.33197000  1
  Fe  Fe13  1  0.50000000  0.00000000  0.50000000  1
  Fe  Fe14  1  0.35471300  0.00000000  0.95958000  1
  Fe  Fe15  1  0.14528700  0.50000000  0.04042000  1
  Fe  Fe16  1  0.24815900  0.00000000  0.58200100  1
  Fe  Fe17  1  0.25184100  0.50000000  0.41799900  1
  Fe  Fe18  1  0.06534900  0.00000000  0.87793300  1
  Fe  Fe19  1  0.43465100  0.50000000  0.12206700  1
  Fe  Fe20  1  0.00725700  0.00000000  0.66803000  1
  Fe  Fe21  1  0.49274300  0.50000000  0.33197000  1
  O  O22  1  0.00000000  0.00000000  0.00000000  1
  O  O23  1  0.61960900  0.50000000  0.77220900  1
  O  O24  1  0.88039100  0.00000000  0.22779100  1
  O  O25  1  0.69466300  0.00000000  0.92317100  1
  O  O26  1  0.80533700  0.50000000  0.07682900  1
  O  O27  1  0.92971200  0.50000000  0.85510100  1
  O  O28  1  0.57028800  0.00000000  0.14489900  1
  O  O29  1  0.87476100  0.50000000  0.68304800  1
  O  O30  1  0.62523900  0.00000000  0.31695200  1
  O  O31  1  0.60725700  0.00000000  0.61046800  1
  O  O32  1  0.89274300  0.50000000  0.38953200  1
  O  O33  1  0.88024100  0.00000000  0.53137800  1
  O  O34  1  0.61975900  0.50000000  0.46862200  1
  O  O35  1  0.50000000  0.50000000  0.00000000  1
  O  O36  1  0.11960900  0.00000000  0.77220900  1
  O  O37  1  0.38039100  0.50000000  0.22779100  1
  O  O38  1  0.19466300  0.50000000  0.92317100  1
  O  O39  1  0.30533700  0.00000000  0.07682900  1
  O  O40  1  0.42971200  0.00000000  0.85510100  1
  O  O41  1  0.07028800  0.50000000  0.14489900  1
  O  O42  1  0.37476100  0.00000000  0.68304800  1
  O  O43  1  0.12523900  0.50000000  0.31695200  1
  O  O44  1  0.10725700  0.50000000  0.61046800  1
  O  O45  1  0.39274300  0.00000000  0.38953200  1
  O  O46  1  0.38024100  0.50000000  0.53137800  1
  O  O47  1  0.11975900  0.00000000  0.46862200  1
