# generated using pymatgen
data_Dy3ReO7
_symmetry_space_group_name_H-M   'P 1'
_cell_length_a   7.46679000
_cell_length_b   10.50626400
_cell_length_c   7.43879500
_cell_angle_alpha   90.00000000
_cell_angle_beta   90.00000000
_cell_angle_gamma   90.00000000
_symmetry_Int_Tables_number   1
_chemical_formula_structural   Dy3ReO7
_chemical_formula_sum   'Dy12 Re4 O28'
_cell_volume   583.55908836
_cell_formula_units_Z   4
loop_
 _symmetry_equiv_pos_site_id
 _symmetry_equiv_pos_as_xyz
  1  'x, y, z'
loop_
 _atom_site_type_symbol
 _atom_site_label
 _atom_site_symmetry_multiplicity
 _atom_site_fract_x
 _atom_site_fract_y
 _atom_site_fract_z
 _atom_site_occupancy
  Dy  Dy0  1  0.73319150  0.73334650  0.75000000  1
  Dy  Dy1  1  0.50000000  0.00000000  0.00000000  1
  Dy  Dy2  1  0.26680850  0.26665350  0.25000000  1
  Dy  Dy3  1  0.73319150  0.26665350  0.25000000  1
  Dy  Dy4  1  0.26680850  0.73334650  0.75000000  1
  Dy  Dy5  1  0.50000000  0.00000000  0.50000000  1
  Dy  Dy6  1  0.23319150  0.23334650  0.75000000  1
  Dy  Dy7  1  0.00000000  0.50000000  0.00000000  1
  Dy  Dy8  1  0.76680850  0.76665350  0.25000000  1
  Dy  Dy9  1  0.23319150  0.76665350  0.25000000  1
  Dy  Dy10  1  0.76680850  0.23334650  0.75000000  1
  Dy  Dy11  1  0.00000000  0.50000000  0.50000000  1
  Re  Re12  1  0.00000000  0.00000000  0.00000000  1
  Re  Re13  1  0.00000000  0.00000000  0.50000000  1
  Re  Re14  1  0.50000000  0.50000000  0.00000000  1
  Re  Re15  1  0.50000000  0.50000000  0.50000000  1
  O  O16  1  0.19673700  0.12405500  0.47102000  1
  O  O17  1  0.50000000  0.56832300  0.75000000  1
  O  O18  1  0.19673700  0.12405500  0.02898000  1
  O  O19  1  0.80326300  0.87594500  0.52898000  1
  O  O20  1  0.50000000  0.86328200  0.75000000  1
  O  O21  1  0.80326300  0.12405500  0.47102000  1
  O  O22  1  0.19673700  0.87594500  0.52898000  1
  O  O23  1  0.19673700  0.87594500  0.97102000  1
  O  O24  1  0.80326300  0.12405500  0.02898000  1
  O  O25  1  0.80326300  0.87594500  0.97102000  1
  O  O26  1  0.50000000  0.86913400  0.25000000  1
  O  O27  1  0.50000000  0.13671800  0.25000000  1
  O  O28  1  0.50000000  0.13086600  0.75000000  1
  O  O29  1  0.50000000  0.43167700  0.25000000  1
  O  O30  1  0.69673700  0.62405500  0.47102000  1
  O  O31  1  0.00000000  0.06832300  0.75000000  1
  O  O32  1  0.69673700  0.62405500  0.02898000  1
  O  O33  1  0.30326300  0.37594500  0.52898000  1
  O  O34  1  0.00000000  0.36328200  0.75000000  1
  O  O35  1  0.30326300  0.62405500  0.47102000  1
  O  O36  1  0.69673700  0.37594500  0.52898000  1
  O  O37  1  0.69673700  0.37594500  0.97102000  1
  O  O38  1  0.30326300  0.62405500  0.02898000  1
  O  O39  1  0.30326300  0.37594500  0.97102000  1
  O  O40  1  0.00000000  0.36913400  0.25000000  1
  O  O41  1  0.00000000  0.63671800  0.25000000  1
  O  O42  1  0.00000000  0.63086600  0.75000000  1
  O  O43  1  0.00000000  0.93167700  0.25000000  1
