# generated using pymatgen
data_Na2HoMoPO8
_symmetry_space_group_name_H-M   'P 1'
_cell_length_a   6.93205000
_cell_length_b   12.18821800
_cell_length_c   18.18335800
_cell_angle_alpha   90.00000000
_cell_angle_beta   90.00000000
_cell_angle_gamma   90.00000000
_symmetry_Int_Tables_number   1
_chemical_formula_structural   Na2HoMoPO8
_chemical_formula_sum   'Na16 Ho8 Mo8 P8 O64'
_cell_volume   1536.29985434
_cell_formula_units_Z   8
loop_
 _symmetry_equiv_pos_site_id
 _symmetry_equiv_pos_as_xyz
  1  'x, y, z'
loop_
 _atom_site_type_symbol
 _atom_site_label
 _atom_site_symmetry_multiplicity
 _atom_site_fract_x
 _atom_site_fract_y
 _atom_site_fract_z
 _atom_site_occupancy
  Na  Na0  1  0.98912050  0.44375350  0.34685450  1
  Na  Na1  1  0.48912050  0.55624650  0.34685450  1
  Na  Na2  1  0.01087950  0.44375350  0.84685450  1
  Na  Na3  1  0.01087950  0.55624650  0.65314550  1
  Na  Na4  1  0.48912050  0.44375350  0.15314550  1
  Na  Na5  1  0.51087950  0.55624650  0.84685450  1
  Na  Na6  1  0.51087950  0.44375350  0.65314550  1
  Na  Na7  1  0.98912050  0.55624650  0.15314550  1
  Na  Na8  1  0.48912050  0.94375350  0.84685450  1
  Na  Na9  1  0.98912050  0.05624650  0.84685450  1
  Na  Na10  1  0.51087950  0.94375350  0.34685450  1
  Na  Na11  1  0.51087950  0.05624650  0.15314550  1
  Na  Na12  1  0.98912050  0.94375350  0.65314550  1
  Na  Na13  1  0.01087950  0.05624650  0.34685450  1
  Na  Na14  1  0.01087950  0.94375350  0.15314550  1
  Na  Na15  1  0.48912050  0.05624650  0.65314550  1
  Ho  Ho16  1  0.25000000  0.67798600  0.00000000  1
  Ho  Ho17  1  0.75000000  0.32201400  0.00000000  1
  Ho  Ho18  1  0.25000000  0.17798600  0.00000000  1
  Ho  Ho19  1  0.75000000  0.82201400  0.00000000  1
  Ho  Ho20  1  0.75000000  0.17798600  0.50000000  1
  Ho  Ho21  1  0.25000000  0.82201400  0.50000000  1
  Ho  Ho22  1  0.75000000  0.67798600  0.50000000  1
  Ho  Ho23  1  0.25000000  0.32201400  0.50000000  1
  Mo  Mo24  1  0.00000000  0.25000000  0.17785500  1
  Mo  Mo25  1  0.50000000  0.75000000  0.17785500  1
  Mo  Mo26  1  0.00000000  0.75000000  0.82214500  1
  Mo  Mo27  1  0.50000000  0.25000000  0.82214500  1
  Mo  Mo28  1  0.50000000  0.75000000  0.67785500  1
  Mo  Mo29  1  0.00000000  0.25000000  0.67785500  1
  Mo  Mo30  1  0.50000000  0.25000000  0.32214500  1
  Mo  Mo31  1  0.00000000  0.75000000  0.32214500  1
  P  P32  1  0.25000000  0.93092800  0.00000000  1
  P  P33  1  0.75000000  0.06907200  0.00000000  1
  P  P34  1  0.75000000  0.56907200  0.00000000  1
  P  P35  1  0.25000000  0.43092800  0.00000000  1
  P  P36  1  0.75000000  0.43092800  0.50000000  1
  P  P37  1  0.25000000  0.56907200  0.50000000  1
  P  P38  1  0.25000000  0.06907200  0.50000000  1
  P  P39  1  0.75000000  0.93092800  0.50000000  1
  O  O40  1  0.73718000  0.49304700  0.06803600  1
  O  O41  1  0.28988600  0.22509500  0.87927700  1
  O  O42  1  0.45780000  0.63013300  0.73183200  1
  O  O43  1  0.07510650  0.85136150  0.00803350  1
  O  O44  1  0.23718000  0.50695300  0.06803600  1
  O  O45  1  0.76282000  0.50695300  0.56803600  1
  O  O46  1  0.54220000  0.36986700  0.26816800  1
  O  O47  1  0.23718000  0.49304700  0.43196400  1
  O  O48  1  0.26282000  0.50695300  0.93196400  1
  O  O49  1  0.78988600  0.27490500  0.12072300  1
  O  O50  1  0.57510650  0.64863850  0.99196650  1
  O  O51  1  0.42489350  0.85136150  0.99196650  1
  O  O52  1  0.95780000  0.36986700  0.73183200  1
  O  O53  1  0.28988600  0.72509500  0.12072300  1
  O  O54  1  0.57510650  0.14863850  0.00803350  1
  O  O55  1  0.45780000  0.36986700  0.76816800  1
  O  O56  1  0.54220000  0.63013300  0.23183200  1
  O  O57  1  0.73718000  0.50695300  0.43196400  1
  O  O58  1  0.92489350  0.64863850  0.00803350  1
  O  O59  1  0.04220000  0.63013300  0.26816800  1
  O  O60  1  0.76282000  0.49304700  0.93196400  1
  O  O61  1  0.78988600  0.77490500  0.87927700  1
  O  O62  1  0.42489350  0.35136150  0.00803350  1
  O  O63  1  0.07510650  0.35136150  0.99196650  1
  O  O64  1  0.21011400  0.72509500  0.87927700  1
  O  O65  1  0.71011400  0.77490500  0.12072300  1
  O  O66  1  0.26282000  0.49304700  0.56803600  1
  O  O67  1  0.71011400  0.27490500  0.87927700  1
  O  O68  1  0.04220000  0.36986700  0.23183200  1
  O  O69  1  0.21011400  0.22509500  0.12072300  1
  O  O70  1  0.92489350  0.14863850  0.99196650  1
  O  O71  1  0.95780000  0.63013300  0.76816800  1
  O  O72  1  0.23718000  0.99304700  0.56803600  1
  O  O73  1  0.78988600  0.72509500  0.37927700  1
  O  O74  1  0.95780000  0.13013300  0.23183200  1
  O  O75  1  0.57510650  0.35136150  0.50803350  1
  O  O76  1  0.73718000  0.00695300  0.56803600  1
  O  O77  1  0.26282000  0.00695300  0.06803600  1
  O  O78  1  0.04220000  0.86986700  0.76816800  1
  O  O79  1  0.73718000  0.99304700  0.93196400  1
  O  O80  1  0.76282000  0.00695300  0.43196400  1
  O  O81  1  0.28988600  0.77490500  0.62072300  1
  O  O82  1  0.07510650  0.14863850  0.49196650  1
  O  O83  1  0.92489350  0.35136150  0.49196650  1
  O  O84  1  0.45780000  0.86986700  0.23183200  1
  O  O85  1  0.78988600  0.22509500  0.62072300  1
  O  O86  1  0.07510650  0.64863850  0.50803350  1
  O  O87  1  0.95780000  0.86986700  0.26816800  1
  O  O88  1  0.04220000  0.13013300  0.73183200  1
  O  O89  1  0.23718000  0.00695300  0.93196400  1
  O  O90  1  0.42489350  0.14863850  0.50803350  1
  O  O91  1  0.54220000  0.13013300  0.76816800  1
  O  O92  1  0.26282000  0.99304700  0.43196400  1
  O  O93  1  0.28988600  0.27490500  0.37927700  1
  O  O94  1  0.92489350  0.85136150  0.50803350  1
  O  O95  1  0.57510650  0.85136150  0.49196650  1
  O  O96  1  0.71011400  0.22509500  0.37927700  1
  O  O97  1  0.21011400  0.27490500  0.62072300  1
  O  O98  1  0.76282000  0.99304700  0.06803600  1
  O  O99  1  0.21011400  0.77490500  0.37927700  1
  O  O100  1  0.54220000  0.86986700  0.73183200  1
  O  O101  1  0.71011400  0.72509500  0.62072300  1
  O  O102  1  0.42489350  0.64863850  0.49196650  1
  O  O103  1  0.45780000  0.13013300  0.26816800  1
