# generated using pymatgen
data_Nd4Os6O19
_symmetry_space_group_name_H-M   'P 1'
_cell_length_a   9.10001000
_cell_length_b   9.10001000
_cell_length_c   9.10001000
_cell_angle_alpha   90.00000000
_cell_angle_beta   90.00000000
_cell_angle_gamma   90.00000000
_symmetry_Int_Tables_number   1
_chemical_formula_structural   Nd4Os6O19
_chemical_formula_sum   'Nd8 Os12 O38'
_cell_volume   753.57348430
_cell_formula_units_Z   2
loop_
 _symmetry_equiv_pos_site_id
 _symmetry_equiv_pos_as_xyz
  1  'x, y, z'
loop_
 _atom_site_type_symbol
 _atom_site_label
 _atom_site_symmetry_multiplicity
 _atom_site_fract_x
 _atom_site_fract_y
 _atom_site_fract_z
 _atom_site_occupancy
  Nd  Nd0  1  0.15400850  0.15400850  0.84599150  1
  Nd  Nd1  1  0.15400850  0.84599150  0.15400850  1
  Nd  Nd2  1  0.34599150  0.34599150  0.34599150  1
  Nd  Nd3  1  0.84599150  0.15400850  0.15400850  1
  Nd  Nd4  1  0.65400850  0.65400850  0.34599150  1
  Nd  Nd5  1  0.65400850  0.34599150  0.65400850  1
  Nd  Nd6  1  0.84599150  0.84599150  0.84599150  1
  Nd  Nd7  1  0.34599150  0.65400850  0.65400850  1
  Os  Os8  1  0.50000000  0.36232900  0.00000000  1
  Os  Os9  1  0.00000000  0.50000000  0.36232900  1
  Os  Os10  1  0.13767100  0.50000000  0.00000000  1
  Os  Os11  1  0.50000000  0.00000000  0.13767100  1
  Os  Os12  1  0.36232900  0.00000000  0.50000000  1
  Os  Os13  1  0.00000000  0.13767100  0.50000000  1
  Os  Os14  1  0.00000000  0.86232900  0.50000000  1
  Os  Os15  1  0.50000000  0.00000000  0.86232900  1
  Os  Os16  1  0.63767100  0.00000000  0.50000000  1
  Os  Os17  1  0.00000000  0.50000000  0.63767100  1
  Os  Os18  1  0.86232900  0.50000000  0.00000000  1
  Os  Os19  1  0.50000000  0.63767100  0.00000000  1
  O  O20  1  0.00000000  0.32162200  0.00000000  1
  O  O21  1  0.00000000  0.00000000  0.32162200  1
  O  O22  1  0.67837800  0.00000000  0.00000000  1
  O  O23  1  0.00000000  0.00000000  0.67837800  1
  O  O24  1  0.32162200  0.00000000  0.00000000  1
  O  O25  1  0.00000000  0.67837800  0.00000000  1
  O  O26  1  0.00000000  0.00000000  0.00000000  1
  O  O27  1  0.28287200  0.34133600  0.00607500  1
  O  O28  1  0.49392500  0.21712800  0.84133600  1
  O  O29  1  0.15866400  0.50607500  0.21712800  1
  O  O30  1  0.50607500  0.21712800  0.15866400  1
  O  O31  1  0.65866400  0.99392500  0.28287200  1
  O  O32  1  0.00607500  0.28287200  0.34133600  1
  O  O33  1  0.34133600  0.00607500  0.28287200  1
  O  O34  1  0.84133600  0.49392500  0.21712800  1
  O  O35  1  0.99392500  0.28287200  0.65866400  1
  O  O36  1  0.21712800  0.15866400  0.50607500  1
  O  O37  1  0.28287200  0.65866400  0.99392500  1
  O  O38  1  0.21712800  0.84133600  0.49392500  1
  O  O39  1  0.50000000  0.82162200  0.50000000  1
  O  O40  1  0.50000000  0.50000000  0.82162200  1
  O  O41  1  0.17837800  0.50000000  0.50000000  1
  O  O42  1  0.50000000  0.50000000  0.17837800  1
  O  O43  1  0.82162200  0.50000000  0.50000000  1
  O  O44  1  0.50000000  0.17837800  0.50000000  1
  O  O45  1  0.50000000  0.50000000  0.50000000  1
  O  O46  1  0.78287200  0.84133600  0.50607500  1
  O  O47  1  0.99392500  0.71712800  0.34133600  1
  O  O48  1  0.65866400  0.00607500  0.71712800  1
  O  O49  1  0.00607500  0.71712800  0.65866400  1
  O  O50  1  0.15866400  0.49392500  0.78287200  1
  O  O51  1  0.50607500  0.78287200  0.84133600  1
  O  O52  1  0.84133600  0.50607500  0.78287200  1
  O  O53  1  0.34133600  0.99392500  0.71712800  1
  O  O54  1  0.49392500  0.78287200  0.15866400  1
  O  O55  1  0.71712800  0.65866400  0.00607500  1
  O  O56  1  0.78287200  0.15866400  0.49392500  1
  O  O57  1  0.71712800  0.34133600  0.99392500  1
