# generated using pymatgen
data_Sr4RhO6
_symmetry_space_group_name_H-M   'P 1'
_cell_length_a   9.82636355
_cell_length_b   9.82636355
_cell_length_c   11.95266855
_cell_angle_alpha   90.00000000
_cell_angle_beta   90.00000000
_cell_angle_gamma   120.00000000
_symmetry_Int_Tables_number   1
_chemical_formula_structural   Sr4RhO6
_chemical_formula_sum   'Sr24 Rh6 O36'
_cell_volume   999.49623935
_cell_formula_units_Z   6
loop_
 _symmetry_equiv_pos_site_id
 _symmetry_equiv_pos_as_xyz
  1  'x, y, z'
loop_
 _atom_site_type_symbol
 _atom_site_label
 _atom_site_symmetry_multiplicity
 _atom_site_fract_x
 _atom_site_fract_y
 _atom_site_fract_z
 _atom_site_occupancy
  Sr  Sr0  1  0.03368167  0.70034833  0.58333333  1
  Sr  Sr1  1  0.96631833  0.29965167  0.41666667  1
  Sr  Sr2  1  0.29965167  0.33333333  0.58333333  1
  Sr  Sr3  1  0.66666667  0.96631833  0.58333333  1
  Sr  Sr4  1  0.00000000  0.00000000  0.75000000  1
  Sr  Sr5  1  0.33333333  0.03368167  0.41666667  1
  Sr  Sr6  1  0.00000000  0.00000000  0.25000000  1
  Sr  Sr7  1  0.70034833  0.66666667  0.41666667  1
  Sr  Sr8  1  0.70034833  0.03368167  0.91666667  1
  Sr  Sr9  1  0.63298500  0.63298500  0.75000000  1
  Sr  Sr10  1  0.96631833  0.66666667  0.91666667  1
  Sr  Sr11  1  0.33333333  0.29965167  0.91666667  1
  Sr  Sr12  1  0.66666667  0.33333333  0.08333333  1
  Sr  Sr13  1  1.00000000  0.36701500  0.75000000  1
  Sr  Sr14  1  0.66666667  0.33333333  0.58333333  1
  Sr  Sr15  1  0.36701500  0.00000000  0.75000000  1
  Sr  Sr16  1  0.36701500  0.36701500  0.25000000  1
  Sr  Sr17  1  0.29965167  0.96631833  0.08333333  1
  Sr  Sr18  1  0.63298500  1.00000000  0.25000000  1
  Sr  Sr19  1  0.00000000  0.63298500  0.25000000  1
  Sr  Sr20  1  0.33333333  0.66666667  0.41666667  1
  Sr  Sr21  1  0.66666667  0.70034833  0.08333333  1
  Sr  Sr22  1  0.33333333  0.66666667  0.91666667  1
  Sr  Sr23  1  0.03368167  0.33333333  0.08333333  1
  Rh  Rh24  1  0.00000000  0.00000000  0.00000000  1
  Rh  Rh25  1  0.00000000  0.00000000  0.50000000  1
  Rh  Rh26  1  0.66666667  0.33333333  0.33333333  1
  Rh  Rh27  1  0.66666667  0.33333333  0.83333333  1
  Rh  Rh28  1  0.33333333  0.66666667  0.66666667  1
  Rh  Rh29  1  0.33333333  0.66666667  0.16666667  1
  O  O30  1  0.97154700  0.15718700  0.59975800  1
  O  O31  1  0.18564000  0.02845300  0.59975800  1
  O  O32  1  0.85230667  0.49052033  0.43309133  1
  O  O33  1  0.02845300  0.84281300  0.40024200  1
  O  O34  1  0.15718700  0.18564000  0.40024200  1
  O  O35  1  0.14769333  0.50947967  0.56690867  1
  O  O36  1  0.84281300  0.81436000  0.59975800  1
  O  O37  1  0.36178633  0.85230667  0.56690867  1
  O  O38  1  0.50947967  0.36178633  0.43309133  1
  O  O39  1  0.49052033  0.63821367  0.56690867  1
  O  O40  1  0.81436000  0.97154700  0.40024200  1
  O  O41  1  0.63821367  0.14769333  0.43309133  1
  O  O42  1  0.63821367  0.49052033  0.93309133  1
  O  O43  1  0.85230667  0.36178633  0.93309133  1
  O  O44  1  0.51897333  0.82385367  0.76642467  1
  O  O45  1  0.69511967  0.17614633  0.73357533  1
  O  O46  1  0.82385367  0.51897333  0.73357533  1
  O  O47  1  0.81436000  0.84281300  0.90024200  1
  O  O48  1  0.50947967  0.14769333  0.93309133  1
  O  O49  1  0.02845300  0.18564000  0.90024200  1
  O  O50  1  0.17614633  0.69511967  0.76642467  1
  O  O51  1  0.15718700  0.97154700  0.90024200  1
  O  O52  1  0.48102667  0.30488033  0.73357533  1
  O  O53  1  0.30488033  0.48102667  0.76642467  1
  O  O54  1  0.30488033  0.82385367  0.26642467  1
  O  O55  1  0.51897333  0.69511967  0.26642467  1
  O  O56  1  0.18564000  0.15718700  0.09975800  1
  O  O57  1  0.36178633  0.50947967  0.06690867  1
  O  O58  1  0.49052033  0.85230667  0.06690867  1
  O  O59  1  0.48102667  0.17614633  0.23357533  1
  O  O60  1  0.17614633  0.48102667  0.26642467  1
  O  O61  1  0.69511967  0.51897333  0.23357533  1
  O  O62  1  0.84281300  0.02845300  0.09975800  1
  O  O63  1  0.82385367  0.30488033  0.23357533  1
  O  O64  1  0.14769333  0.63821367  0.06690867  1
  O  O65  1  0.97154700  0.81436000  0.09975800  1
