# generated using pymatgen
data_Sr10Al4Si6O
_symmetry_space_group_name_H-M   'P 1'
_cell_length_a   4.83682800
_cell_length_b   13.35854000
_cell_length_c   18.49829200
_cell_angle_alpha   90.00000000
_cell_angle_beta   90.00000000
_cell_angle_gamma   90.00000000
_symmetry_Int_Tables_number   1
_chemical_formula_structural   Sr10Al4Si6O
_chemical_formula_sum   'Sr20 Al8 Si12 O2'
_cell_volume   1195.22940682
_cell_formula_units_Z   2
loop_
 _symmetry_equiv_pos_site_id
 _symmetry_equiv_pos_as_xyz
  1  'x, y, z'
loop_
 _atom_site_type_symbol
 _atom_site_label
 _atom_site_symmetry_multiplicity
 _atom_site_fract_x
 _atom_site_fract_y
 _atom_site_fract_z
 _atom_site_occupancy
  Sr  Sr0  1  0.50000000  0.50000000  0.34364800  1
  Sr  Sr1  1  0.00000000  0.18713700  0.00000000  1
  Sr  Sr2  1  0.00000000  0.66302050  0.80683550  1
  Sr  Sr3  1  0.00000000  0.66302050  0.19316450  1
  Sr  Sr4  1  0.00000000  0.81286300  0.00000000  1
  Sr  Sr5  1  0.50000000  0.00000000  0.00000000  1
  Sr  Sr6  1  0.50000000  0.50000000  0.65635200  1
  Sr  Sr7  1  0.00000000  0.33697950  0.19316450  1
  Sr  Sr8  1  0.00000000  0.50000000  0.00000000  1
  Sr  Sr9  1  0.00000000  0.33697950  0.80683550  1
  Sr  Sr10  1  0.00000000  0.00000000  0.84364800  1
  Sr  Sr11  1  0.50000000  0.68713700  0.50000000  1
  Sr  Sr12  1  0.50000000  0.16302050  0.30683550  1
  Sr  Sr13  1  0.50000000  0.16302050  0.69316450  1
  Sr  Sr14  1  0.50000000  0.31286300  0.50000000  1
  Sr  Sr15  1  0.00000000  0.50000000  0.50000000  1
  Sr  Sr16  1  0.00000000  0.00000000  0.15635200  1
  Sr  Sr17  1  0.50000000  0.83697950  0.69316450  1
  Sr  Sr18  1  0.50000000  0.00000000  0.50000000  1
  Sr  Sr19  1  0.50000000  0.83697950  0.30683550  1
  Al  Al20  1  0.50000000  0.34255200  0.07062400  1
  Al  Al21  1  0.50000000  0.34255200  0.92937600  1
  Al  Al22  1  0.50000000  0.65744800  0.92937600  1
  Al  Al23  1  0.50000000  0.65744800  0.07062400  1
  Al  Al24  1  0.00000000  0.84255200  0.57062400  1
  Al  Al25  1  0.00000000  0.84255200  0.42937600  1
  Al  Al26  1  0.00000000  0.15744800  0.42937600  1
  Al  Al27  1  0.00000000  0.15744800  0.57062400  1
  Si  Si28  1  0.50000000  0.82180100  0.86821800  1
  Si  Si29  1  0.50000000  0.50000000  0.14561700  1
  Si  Si30  1  0.50000000  0.17819900  0.13178200  1
  Si  Si31  1  0.50000000  0.50000000  0.85438300  1
  Si  Si32  1  0.50000000  0.17819900  0.86821800  1
  Si  Si33  1  0.50000000  0.82180100  0.13178200  1
  Si  Si34  1  0.00000000  0.32180100  0.36821800  1
  Si  Si35  1  0.00000000  0.00000000  0.64561700  1
  Si  Si36  1  0.00000000  0.67819900  0.63178200  1
  Si  Si37  1  0.00000000  0.00000000  0.35438300  1
  Si  Si38  1  0.00000000  0.67819900  0.36821800  1
  Si  Si39  1  0.00000000  0.32180100  0.63178200  1
  O  O40  1  0.00000000  0.00000000  0.00000000  1
  O  O41  1  0.50000000  0.50000000  0.50000000  1
