# generated using pymatgen
data_CrO3
_symmetry_space_group_name_H-M   'P 1'
_cell_length_a   5.05228805
_cell_length_b   9.40092709
_cell_length_c   5.83135000
_cell_angle_alpha   90.00000000
_cell_angle_beta   90.00000000
_cell_angle_gamma   90.00000000
_symmetry_Int_Tables_number   1
_chemical_formula_structural   CrO3
_chemical_formula_sum   'Cr4 O12'
_cell_volume   276.96691672
_cell_formula_units_Z   4
loop_
 _symmetry_equiv_pos_site_id
 _symmetry_equiv_pos_as_xyz
  1  'x, y, z'
loop_
 _atom_site_type_symbol
 _atom_site_label
 _atom_site_symmetry_multiplicity
 _atom_site_fract_x
 _atom_site_fract_y
 _atom_site_fract_z
 _atom_site_occupancy
  Cr  Cr0  1  0.49176700  0.08856300  0.75000000  1
  Cr  Cr1  1  0.99176700  0.41143700  0.25000000  1
  Cr  Cr2  1  0.99176700  0.58856300  0.75000000  1
  Cr  Cr3  1  0.49176700  0.91143700  0.25000000  1
  O  O4  1  0.30634050  0.40649550  0.25000000  1
  O  O5  1  0.88077950  0.25275350  0.25000000  1
  O  O6  1  0.38077950  0.24724650  0.75000000  1
  O  O7  1  0.80634050  0.09350450  0.75000000  1
  O  O8  1  0.38015750  0.00000000  0.00000000  1
  O  O9  1  0.38015750  0.00000000  0.50000000  1
  O  O10  1  0.80634050  0.90649550  0.25000000  1
  O  O11  1  0.38077950  0.75275350  0.25000000  1
  O  O12  1  0.88077950  0.74724650  0.75000000  1
  O  O13  1  0.30634050  0.59350450  0.75000000  1
  O  O14  1  0.88015750  0.50000000  0.00000000  1
  O  O15  1  0.88015750  0.50000000  0.50000000  1
