# generated using pymatgen
data_Sr2LaGaCu2O7
_symmetry_space_group_name_H-M   'P 1'
_cell_length_a   5.49388000
_cell_length_b   5.62793000
_cell_length_c   23.32073600
_cell_angle_alpha   90.00000000
_cell_angle_beta   90.00000000
_cell_angle_gamma   90.00000000
_symmetry_Int_Tables_number   1
_chemical_formula_structural   Sr2LaGaCu2O7
_chemical_formula_sum   'Sr8 La4 Ga4 Cu8 O28'
_cell_volume   721.05784915
_cell_formula_units_Z   4
loop_
 _symmetry_equiv_pos_site_id
 _symmetry_equiv_pos_as_xyz
  1  'x, y, z'
loop_
 _atom_site_type_symbol
 _atom_site_label
 _atom_site_symmetry_multiplicity
 _atom_site_fract_x
 _atom_site_fract_y
 _atom_site_fract_z
 _atom_site_occupancy
  Sr  Sr0  1  0.00051300  0.52023900  0.65347200  1
  Sr  Sr1  1  0.50051300  0.97976100  0.84652800  1
  Sr  Sr2  1  0.50051300  0.97976100  0.65347200  1
  Sr  Sr3  1  0.00051300  0.52023900  0.84652800  1
  Sr  Sr4  1  0.50051300  0.02023900  0.15347200  1
  Sr  Sr5  1  0.00051300  0.47976100  0.34652800  1
  Sr  Sr6  1  0.00051300  0.47976100  0.15347200  1
  Sr  Sr7  1  0.50051300  0.02023900  0.34652800  1
  La  La8  1  0.49796200  0.00000000  0.00000000  1
  La  La9  1  0.99796200  0.50000000  0.00000000  1
  La  La10  1  0.99796200  0.50000000  0.50000000  1
  La  La11  1  0.49796200  0.00000000  0.50000000  1
  Ga  Ga12  1  0.52939250  0.42973250  0.75000000  1
  Ga  Ga13  1  0.02939250  0.07026750  0.75000000  1
  Ga  Ga14  1  0.02939250  0.92973250  0.25000000  1
  Ga  Ga15  1  0.52939250  0.57026750  0.25000000  1
  Cu  Cu16  1  0.49722200  0.49855000  0.57724600  1
  Cu  Cu17  1  0.99722200  0.00145000  0.92275400  1
  Cu  Cu18  1  0.99722200  0.00145000  0.57724600  1
  Cu  Cu19  1  0.49722200  0.49855000  0.92275400  1
  Cu  Cu20  1  0.99722200  0.99855000  0.07724600  1
  Cu  Cu21  1  0.49722200  0.50145000  0.42275400  1
  Cu  Cu22  1  0.49722200  0.50145000  0.07724600  1
  Cu  Cu23  1  0.99722200  0.99855000  0.42275400  1
  O  O24  1  0.37527050  0.12457450  0.75000000  1
  O  O25  1  0.87527050  0.37542550  0.75000000  1
  O  O26  1  0.24771150  0.24947850  0.57004450  1
  O  O27  1  0.74771150  0.25052150  0.92995550  1
  O  O28  1  0.74771150  0.25052150  0.57004450  1
  O  O29  1  0.24771150  0.24947850  0.92995550  1
  O  O30  1  0.74808950  0.74813550  0.56691450  1
  O  O31  1  0.24808950  0.75186450  0.93308550  1
  O  O32  1  0.24808950  0.75186450  0.56691450  1
  O  O33  1  0.74808950  0.74813550  0.93308550  1
  O  O34  1  0.96392650  0.94858850  0.67812050  1
  O  O35  1  0.46392650  0.55141150  0.82187950  1
  O  O36  1  0.46392650  0.55141150  0.67812050  1
  O  O37  1  0.96392650  0.94858850  0.82187950  1
  O  O38  1  0.87527050  0.62457450  0.25000000  1
  O  O39  1  0.37527050  0.87542550  0.25000000  1
  O  O40  1  0.74771150  0.74947850  0.07004450  1
  O  O41  1  0.24771150  0.75052150  0.42995550  1
  O  O42  1  0.24771150  0.75052150  0.07004450  1
  O  O43  1  0.74771150  0.74947850  0.42995550  1
  O  O44  1  0.24808950  0.24813550  0.06691450  1
  O  O45  1  0.74808950  0.25186450  0.43308550  1
  O  O46  1  0.74808950  0.25186450  0.06691450  1
  O  O47  1  0.24808950  0.24813550  0.43308550  1
  O  O48  1  0.46392650  0.44858850  0.17812050  1
  O  O49  1  0.96392650  0.05141150  0.32187950  1
  O  O50  1  0.96392650  0.05141150  0.17812050  1
  O  O51  1  0.46392650  0.44858850  0.32187950  1
