# generated using pymatgen
data_Sr2YGaCu2O7
_symmetry_space_group_name_H-M   'P 1'
_cell_length_a   5.42112200
_cell_length_b   5.52988200
_cell_length_c   23.22587000
_cell_angle_alpha   90.00000000
_cell_angle_beta   90.00000000
_cell_angle_gamma   90.00000000
_symmetry_Int_Tables_number   1
_chemical_formula_structural   Sr2YGaCu2O7
_chemical_formula_sum   'Sr8 Y4 Ga4 Cu8 O28'
_cell_volume   696.26896238
_cell_formula_units_Z   4
loop_
 _symmetry_equiv_pos_site_id
 _symmetry_equiv_pos_as_xyz
  1  'x, y, z'
loop_
 _atom_site_type_symbol
 _atom_site_label
 _atom_site_symmetry_multiplicity
 _atom_site_fract_x
 _atom_site_fract_y
 _atom_site_fract_z
 _atom_site_occupancy
  Sr  Sr0  1  0.00351700  0.01816300  0.84870100  1
  Sr  Sr1  1  0.50351700  0.48183700  0.65129900  1
  Sr  Sr2  1  0.50351700  0.48183700  0.84870100  1
  Sr  Sr3  1  0.00351700  0.01816300  0.65129900  1
  Sr  Sr4  1  0.50351700  0.51816300  0.34870100  1
  Sr  Sr5  1  0.00351700  0.98183700  0.15129900  1
  Sr  Sr6  1  0.00351700  0.98183700  0.34870100  1
  Sr  Sr7  1  0.50351700  0.51816300  0.15129900  1
  Y  Y8  1  0.50003200  0.50000000  0.00000000  1
  Y  Y9  1  0.00003200  0.00000000  0.00000000  1
  Y  Y10  1  0.00003200  0.00000000  0.50000000  1
  Y  Y11  1  0.50003200  0.50000000  0.50000000  1
  Ga  Ga12  1  0.03961900  0.56955100  0.75000000  1
  Ga  Ga13  1  0.53961900  0.93044900  0.75000000  1
  Ga  Ga14  1  0.53961900  0.06955100  0.25000000  1
  Ga  Ga15  1  0.03961900  0.43044900  0.25000000  1
  Cu  Cu16  1  0.00004700  0.50090200  0.57114100  1
  Cu  Cu17  1  0.00004700  0.50090200  0.92885900  1
  Cu  Cu18  1  0.50004700  0.99909800  0.57114100  1
  Cu  Cu19  1  0.50004700  0.99909800  0.92885900  1
  Cu  Cu20  1  0.50004700  0.00090200  0.07114100  1
  Cu  Cu21  1  0.50004700  0.00090200  0.42885900  1
  Cu  Cu22  1  0.00004700  0.49909800  0.07114100  1
  Cu  Cu23  1  0.00004700  0.49909800  0.42885900  1
  O  O24  1  0.25144950  0.25133350  0.93857550  1
  O  O25  1  0.39259800  0.61566900  0.75000000  1
  O  O26  1  0.75144950  0.24866650  0.93857550  1
  O  O27  1  0.47422500  0.04455000  0.67692200  1
  O  O28  1  0.75003600  0.74916800  0.56389400  1
  O  O29  1  0.25003600  0.75083200  0.56389400  1
  O  O30  1  0.89259800  0.88433100  0.75000000  1
  O  O31  1  0.25144950  0.25133350  0.56142450  1
  O  O32  1  0.75144950  0.24866650  0.56142450  1
  O  O33  1  0.97422500  0.45545000  0.67692200  1
  O  O34  1  0.97422500  0.45545000  0.82307800  1
  O  O35  1  0.47422500  0.04455000  0.82307800  1
  O  O36  1  0.25003600  0.75083200  0.93610600  1
  O  O37  1  0.75003600  0.74916800  0.93610600  1
  O  O38  1  0.75144950  0.75133350  0.43857550  1
  O  O39  1  0.89259800  0.11566900  0.25000000  1
  O  O40  1  0.25144950  0.74866650  0.43857550  1
  O  O41  1  0.97422500  0.54455000  0.17692200  1
  O  O42  1  0.25003600  0.24916800  0.06389400  1
  O  O43  1  0.75003600  0.25083200  0.06389400  1
  O  O44  1  0.39259800  0.38433100  0.25000000  1
  O  O45  1  0.75144950  0.75133350  0.06142450  1
  O  O46  1  0.25144950  0.74866650  0.06142450  1
  O  O47  1  0.47422500  0.95545000  0.17692200  1
  O  O48  1  0.47422500  0.95545000  0.32307800  1
  O  O49  1  0.97422500  0.54455000  0.32307800  1
  O  O50  1  0.75003600  0.25083200  0.43610600  1
  O  O51  1  0.25003600  0.24916800  0.43610600  1
