# generated using pymatgen
data_Y3Ni4B4C3
_symmetry_space_group_name_H-M   'P 1'
_cell_length_a   3.58137000
_cell_length_b   3.58137000
_cell_length_c   25.35529600
_cell_angle_alpha   90.00000000
_cell_angle_beta   90.00000000
_cell_angle_gamma   90.00000000
_symmetry_Int_Tables_number   1
_chemical_formula_structural   Y3Ni4B4C3
_chemical_formula_sum   'Y6 Ni8 B8 C6'
_cell_volume   325.21237841
_cell_formula_units_Z   2
loop_
 _symmetry_equiv_pos_site_id
 _symmetry_equiv_pos_as_xyz
  1  'x, y, z'
loop_
 _atom_site_type_symbol
 _atom_site_label
 _atom_site_symmetry_multiplicity
 _atom_site_fract_x
 _atom_site_fract_y
 _atom_site_fract_z
 _atom_site_occupancy
  Y  Y0  1  0.50000000  0.50000000  0.20071600  1
  Y  Y1  1  0.00000000  0.00000000  0.29928400  1
  Y  Y2  1  0.00000000  0.00000000  0.00000000  1
  Y  Y3  1  0.00000000  0.00000000  0.70071600  1
  Y  Y4  1  0.50000000  0.50000000  0.79928400  1
  Y  Y5  1  0.50000000  0.50000000  0.50000000  1
  Ni  Ni6  1  0.50000000  0.00000000  0.39928100  1
  Ni  Ni7  1  0.00000000  0.50000000  0.10071900  1
  Ni  Ni8  1  0.50000000  0.00000000  0.10071900  1
  Ni  Ni9  1  0.00000000  0.50000000  0.39928100  1
  Ni  Ni10  1  0.00000000  0.50000000  0.89928100  1
  Ni  Ni11  1  0.50000000  0.00000000  0.60071900  1
  Ni  Ni12  1  0.00000000  0.50000000  0.60071900  1
  Ni  Ni13  1  0.50000000  0.00000000  0.89928100  1
  B  B14  1  0.50000000  0.50000000  0.35564100  1
  B  B15  1  0.50000000  0.50000000  0.05907500  1
  B  B16  1  0.00000000  0.00000000  0.14435900  1
  B  B17  1  0.00000000  0.00000000  0.44092500  1
  B  B18  1  0.00000000  0.00000000  0.85564100  1
  B  B19  1  0.00000000  0.00000000  0.55907500  1
  B  B20  1  0.50000000  0.50000000  0.64435900  1
  B  B21  1  0.50000000  0.50000000  0.94092500  1
  C  C22  1  0.50000000  0.50000000  0.29655400  1
  C  C23  1  0.00000000  0.00000000  0.20344600  1
  C  C24  1  0.50000000  0.50000000  0.00000000  1
  C  C25  1  0.00000000  0.00000000  0.79655400  1
  C  C26  1  0.50000000  0.50000000  0.70344600  1
  C  C27  1  0.00000000  0.00000000  0.50000000  1
