# generated using pymatgen
data_Yb5Ag3
_symmetry_space_group_name_H-M   'P 1'
_cell_length_a   7.89701800
_cell_length_b   7.89701800
_cell_length_c   14.73256400
_cell_angle_alpha   90.00000000
_cell_angle_beta   90.00000000
_cell_angle_gamma   90.00000000
_symmetry_Int_Tables_number   1
_chemical_formula_structural   Yb5Ag3
_chemical_formula_sum   'Yb20 Ag12'
_cell_volume   918.76531665
_cell_formula_units_Z   4
loop_
 _symmetry_equiv_pos_site_id
 _symmetry_equiv_pos_as_xyz
  1  'x, y, z'
loop_
 _atom_site_type_symbol
 _atom_site_label
 _atom_site_symmetry_multiplicity
 _atom_site_fract_x
 _atom_site_fract_y
 _atom_site_fract_z
 _atom_site_occupancy
  Yb  Yb0  1  0.83266300  0.66733700  0.14482500  1
  Yb  Yb1  1  0.83266300  0.33266300  0.35517500  1
  Yb  Yb2  1  0.33266300  0.16733700  0.35517500  1
  Yb  Yb3  1  0.16733700  0.66733700  0.35517500  1
  Yb  Yb4  1  0.00000000  0.00000000  0.00000000  1
  Yb  Yb5  1  0.16733700  0.33266300  0.14482500  1
  Yb  Yb6  1  0.66733700  0.16733700  0.14482500  1
  Yb  Yb7  1  0.66733700  0.83266300  0.35517500  1
  Yb  Yb8  1  0.33266300  0.83266300  0.14482500  1
  Yb  Yb9  1  0.50000000  0.50000000  0.00000000  1
  Yb  Yb10  1  0.33266300  0.16733700  0.64482500  1
  Yb  Yb11  1  0.33266300  0.83266300  0.85517500  1
  Yb  Yb12  1  0.83266300  0.66733700  0.85517500  1
  Yb  Yb13  1  0.66733700  0.16733700  0.85517500  1
  Yb  Yb14  1  0.50000000  0.50000000  0.50000000  1
  Yb  Yb15  1  0.66733700  0.83266300  0.64482500  1
  Yb  Yb16  1  0.16733700  0.66733700  0.64482500  1
  Yb  Yb17  1  0.16733700  0.33266300  0.85517500  1
  Yb  Yb18  1  0.83266300  0.33266300  0.64482500  1
  Yb  Yb19  1  0.00000000  0.00000000  0.50000000  1
  Ag  Ag20  1  0.37053700  0.12946300  0.00000000  1
  Ag  Ag21  1  0.00000000  0.00000000  0.25000000  1
  Ag  Ag22  1  0.62946300  0.87053700  0.00000000  1
  Ag  Ag23  1  0.50000000  0.50000000  0.25000000  1
  Ag  Ag24  1  0.12946300  0.62946300  0.00000000  1
  Ag  Ag25  1  0.87053700  0.37053700  0.00000000  1
  Ag  Ag26  1  0.87053700  0.62946300  0.50000000  1
  Ag  Ag27  1  0.50000000  0.50000000  0.75000000  1
  Ag  Ag28  1  0.12946300  0.37053700  0.50000000  1
  Ag  Ag29  1  0.00000000  0.00000000  0.75000000  1
  Ag  Ag30  1  0.62946300  0.12946300  0.50000000  1
  Ag  Ag31  1  0.37053700  0.87053700  0.50000000  1
