# generated using pymatgen
data_GdNi
_symmetry_space_group_name_H-M   'P 1'
_cell_length_a   3.76782800
_cell_length_b   10.42305600
_cell_length_c   4.23883500
_cell_angle_alpha   90.00000000
_cell_angle_beta   90.00000000
_cell_angle_gamma   90.00000000
_symmetry_Int_Tables_number   1
_chemical_formula_structural   GdNi
_chemical_formula_sum   'Gd4 Ni4'
_cell_volume   166.46872450
_cell_formula_units_Z   4
loop_
 _symmetry_equiv_pos_site_id
 _symmetry_equiv_pos_as_xyz
  1  'x, y, z'
loop_
 _atom_site_type_symbol
 _atom_site_label
 _atom_site_symmetry_multiplicity
 _atom_site_fract_x
 _atom_site_fract_y
 _atom_site_fract_z
 _atom_site_occupancy
  Gd  Gd0  1  0.50000000  0.63917900  0.25000000  1
  Gd  Gd1  1  0.00000000  0.86082100  0.75000000  1
  Gd  Gd2  1  0.00000000  0.13917900  0.25000000  1
  Gd  Gd3  1  0.50000000  0.36082100  0.75000000  1
  Ni  Ni4  1  0.00000000  0.57226000  0.75000000  1
  Ni  Ni5  1  0.50000000  0.92774000  0.25000000  1
  Ni  Ni6  1  0.50000000  0.07226000  0.75000000  1
  Ni  Ni7  1  0.00000000  0.42774000  0.25000000  1
