# generated using pymatgen
data_Mg8BPt4
_symmetry_space_group_name_H-M   'P 1'
_cell_length_a   12.33405200
_cell_length_b   12.33405200
_cell_length_c   12.33405200
_cell_angle_alpha   90.00000000
_cell_angle_beta   90.00000000
_cell_angle_gamma   90.00000000
_symmetry_Int_Tables_number   1
_chemical_formula_structural   Mg8BPt4
_chemical_formula_sum   'Mg64 B8 Pt32'
_cell_volume   1876.36500770
_cell_formula_units_Z   8
loop_
 _symmetry_equiv_pos_site_id
 _symmetry_equiv_pos_as_xyz
  1  'x, y, z'
loop_
 _atom_site_type_symbol
 _atom_site_label
 _atom_site_symmetry_multiplicity
 _atom_site_fract_x
 _atom_site_fract_y
 _atom_site_fract_z
 _atom_site_occupancy
  Mg  Mg0  1  0.05014600  0.75000000  0.25000000  1
  Mg  Mg1  1  0.25000000  0.75000000  0.44985400  1
  Mg  Mg2  1  0.80014600  0.00000000  0.50000000  1
  Mg  Mg3  1  0.37500000  0.12500000  0.37500000  1
  Mg  Mg4  1  0.50000000  0.69985400  0.50000000  1
  Mg  Mg5  1  0.00000000  0.00000000  0.30014600  1
  Mg  Mg6  1  0.19985400  0.00000000  0.50000000  1
  Mg  Mg7  1  0.25000000  0.55014600  0.25000000  1
  Mg  Mg8  1  0.87500000  0.87500000  0.12500000  1
  Mg  Mg9  1  0.25000000  0.94985400  0.25000000  1
  Mg  Mg10  1  0.25000000  0.75000000  0.05014600  1
  Mg  Mg11  1  0.50000000  0.30014600  0.50000000  1
  Mg  Mg12  1  0.12500000  0.12500000  0.12500000  1
  Mg  Mg13  1  0.50000000  0.00000000  0.19985400  1
  Mg  Mg14  1  0.62500000  0.87500000  0.37500000  1
  Mg  Mg15  1  0.44985400  0.75000000  0.25000000  1
  Mg  Mg16  1  0.05014600  0.25000000  0.75000000  1
  Mg  Mg17  1  0.25000000  0.25000000  0.94985400  1
  Mg  Mg18  1  0.80014600  0.50000000  0.00000000  1
  Mg  Mg19  1  0.37500000  0.62500000  0.87500000  1
  Mg  Mg20  1  0.50000000  0.19985400  0.00000000  1
  Mg  Mg21  1  0.00000000  0.50000000  0.80014600  1
  Mg  Mg22  1  0.19985400  0.50000000  0.00000000  1
  Mg  Mg23  1  0.25000000  0.05014600  0.75000000  1
  Mg  Mg24  1  0.87500000  0.37500000  0.62500000  1
  Mg  Mg25  1  0.25000000  0.44985400  0.75000000  1
  Mg  Mg26  1  0.25000000  0.25000000  0.55014600  1
  Mg  Mg27  1  0.50000000  0.80014600  0.00000000  1
  Mg  Mg28  1  0.12500000  0.62500000  0.62500000  1
  Mg  Mg29  1  0.50000000  0.50000000  0.69985400  1
  Mg  Mg30  1  0.62500000  0.37500000  0.87500000  1
  Mg  Mg31  1  0.44985400  0.25000000  0.75000000  1
  Mg  Mg32  1  0.55014600  0.75000000  0.75000000  1
  Mg  Mg33  1  0.75000000  0.75000000  0.94985400  1
  Mg  Mg34  1  0.30014600  0.00000000  0.00000000  1
  Mg  Mg35  1  0.87500000  0.12500000  0.87500000  1
  Mg  Mg36  1  0.00000000  0.69985400  0.00000000  1
  Mg  Mg37  1  0.50000000  0.00000000  0.80014600  1
  Mg  Mg38  1  0.69985400  0.00000000  0.00000000  1
  Mg  Mg39  1  0.75000000  0.55014600  0.75000000  1
  Mg  Mg40  1  0.37500000  0.87500000  0.62500000  1
  Mg  Mg41  1  0.75000000  0.94985400  0.75000000  1
  Mg  Mg42  1  0.75000000  0.75000000  0.55014600  1
  Mg  Mg43  1  0.00000000  0.30014600  0.00000000  1
  Mg  Mg44  1  0.62500000  0.12500000  0.62500000  1
  Mg  Mg45  1  0.00000000  0.00000000  0.69985400  1
  Mg  Mg46  1  0.12500000  0.87500000  0.87500000  1
  Mg  Mg47  1  0.94985400  0.75000000  0.75000000  1
  Mg  Mg48  1  0.55014600  0.25000000  0.25000000  1
  Mg  Mg49  1  0.75000000  0.25000000  0.44985400  1
  Mg  Mg50  1  0.30014600  0.50000000  0.50000000  1
  Mg  Mg51  1  0.87500000  0.62500000  0.37500000  1
  Mg  Mg52  1  0.00000000  0.19985400  0.50000000  1
  Mg  Mg53  1  0.50000000  0.50000000  0.30014600  1
  Mg  Mg54  1  0.69985400  0.50000000  0.50000000  1
  Mg  Mg55  1  0.75000000  0.05014600  0.25000000  1
  Mg  Mg56  1  0.37500000  0.37500000  0.12500000  1
  Mg  Mg57  1  0.75000000  0.44985400  0.25000000  1
  Mg  Mg58  1  0.75000000  0.25000000  0.05014600  1
  Mg  Mg59  1  0.00000000  0.80014600  0.50000000  1
  Mg  Mg60  1  0.62500000  0.62500000  0.12500000  1
  Mg  Mg61  1  0.00000000  0.50000000  0.19985400  1
  Mg  Mg62  1  0.12500000  0.37500000  0.37500000  1
  Mg  Mg63  1  0.94985400  0.25000000  0.25000000  1
  B  B64  1  0.25000000  0.25000000  0.25000000  1
  B  B65  1  0.50000000  0.00000000  0.50000000  1
  B  B66  1  0.25000000  0.75000000  0.75000000  1
  B  B67  1  0.50000000  0.50000000  0.00000000  1
  B  B68  1  0.75000000  0.25000000  0.75000000  1
  B  B69  1  0.00000000  0.00000000  0.00000000  1
  B  B70  1  0.75000000  0.75000000  0.25000000  1
  B  B71  1  0.00000000  0.50000000  0.50000000  1
  Pt  Pt72  1  0.09925500  0.90074500  0.09925500  1
  Pt  Pt73  1  0.40074500  0.90074500  0.40074500  1
  Pt  Pt74  1  0.90074500  0.09925500  0.09925500  1
  Pt  Pt75  1  0.34925500  0.15074500  0.15074500  1
  Pt  Pt76  1  0.15074500  0.34925500  0.15074500  1
  Pt  Pt77  1  0.15074500  0.15074500  0.34925500  1
  Pt  Pt78  1  0.34925500  0.34925500  0.34925500  1
  Pt  Pt79  1  0.59925500  0.09925500  0.40074500  1
  Pt  Pt80  1  0.09925500  0.40074500  0.59925500  1
  Pt  Pt81  1  0.40074500  0.40074500  0.90074500  1
  Pt  Pt82  1  0.90074500  0.59925500  0.59925500  1
  Pt  Pt83  1  0.34925500  0.65074500  0.65074500  1
  Pt  Pt84  1  0.15074500  0.84925500  0.65074500  1
  Pt  Pt85  1  0.15074500  0.65074500  0.84925500  1
  Pt  Pt86  1  0.34925500  0.84925500  0.84925500  1
  Pt  Pt87  1  0.59925500  0.59925500  0.90074500  1
  Pt  Pt88  1  0.59925500  0.90074500  0.59925500  1
  Pt  Pt89  1  0.90074500  0.90074500  0.90074500  1
  Pt  Pt90  1  0.40074500  0.09925500  0.59925500  1
  Pt  Pt91  1  0.84925500  0.15074500  0.65074500  1
  Pt  Pt92  1  0.65074500  0.34925500  0.65074500  1
  Pt  Pt93  1  0.65074500  0.15074500  0.84925500  1
  Pt  Pt94  1  0.84925500  0.34925500  0.84925500  1
  Pt  Pt95  1  0.09925500  0.09925500  0.90074500  1
  Pt  Pt96  1  0.59925500  0.40074500  0.09925500  1
  Pt  Pt97  1  0.90074500  0.40074500  0.40074500  1
  Pt  Pt98  1  0.40074500  0.59925500  0.09925500  1
  Pt  Pt99  1  0.84925500  0.65074500  0.15074500  1
  Pt  Pt100  1  0.65074500  0.84925500  0.15074500  1
  Pt  Pt101  1  0.65074500  0.65074500  0.34925500  1
  Pt  Pt102  1  0.84925500  0.84925500  0.34925500  1
  Pt  Pt103  1  0.09925500  0.59925500  0.40074500  1
