# generated using pymatgen
data_Mo(SeCl6)2
_symmetry_space_group_name_H-M   'P 1'
_cell_length_a   12.43979000
_cell_length_b   13.01838000
_cell_length_c   22.37910600
_cell_angle_alpha   90.00000000
_cell_angle_beta   90.00000000
_cell_angle_gamma   90.00000000
_symmetry_Int_Tables_number   1
_chemical_formula_structural   Mo(SeCl6)2
_chemical_formula_sum   'Mo8 Se16 Cl96'
_cell_volume   3624.20476091
_cell_formula_units_Z   8
loop_
 _symmetry_equiv_pos_site_id
 _symmetry_equiv_pos_as_xyz
  1  'x, y, z'
loop_
 _atom_site_type_symbol
 _atom_site_label
 _atom_site_symmetry_multiplicity
 _atom_site_fract_x
 _atom_site_fract_y
 _atom_site_fract_z
 _atom_site_occupancy
  Mo  Mo0  1  0.25000000  0.25000000  0.37635700  1
  Mo  Mo1  1  0.50000000  0.50000000  0.12635700  1
  Mo  Mo2  1  0.25000000  0.75000000  0.87635700  1
  Mo  Mo3  1  0.50000000  0.00000000  0.62635700  1
  Mo  Mo4  1  0.75000000  0.25000000  0.87635700  1
  Mo  Mo5  1  0.00000000  0.50000000  0.62635700  1
  Mo  Mo6  1  0.75000000  0.75000000  0.37635700  1
  Mo  Mo7  1  0.00000000  0.00000000  0.12635700  1
  Se  Se8  1  0.24512150  0.52217250  0.29445800  1
  Se  Se9  1  0.99512150  0.72782750  0.04445800  1
  Se  Se10  1  0.75487850  0.47782750  0.29445800  1
  Se  Se11  1  0.00487850  0.27217250  0.04445800  1
  Se  Se12  1  0.24512150  0.02217250  0.79445800  1
  Se  Se13  1  0.99512150  0.22782750  0.54445800  1
  Se  Se14  1  0.75487850  0.97782750  0.79445800  1
  Se  Se15  1  0.00487850  0.77217250  0.54445800  1
  Se  Se16  1  0.74512150  0.52217250  0.79445800  1
  Se  Se17  1  0.49512150  0.72782750  0.54445800  1
  Se  Se18  1  0.25487850  0.47782750  0.79445800  1
  Se  Se19  1  0.50487850  0.27217250  0.54445800  1
  Se  Se20  1  0.74512150  0.02217250  0.29445800  1
  Se  Se21  1  0.49512150  0.22782750  0.04445800  1
  Se  Se22  1  0.25487850  0.97782750  0.29445800  1
  Se  Se23  1  0.50487850  0.77217250  0.04445800  1
  Cl  Cl24  1  0.36321600  0.17602500  0.44903400  1
  Cl  Cl25  1  0.14199700  0.32605650  0.29934550  1
  Cl  Cl26  1  0.35800300  0.17394350  0.29934550  1
  Cl  Cl27  1  0.39096600  0.65490500  0.12322500  1
  Cl  Cl28  1  0.86005050  0.41618950  0.22183700  1
  Cl  Cl29  1  0.38678400  0.42602500  0.19903400  1
  Cl  Cl30  1  0.89338150  0.67423250  0.11826900  1
  Cl  Cl31  1  0.36612300  0.64567350  0.29917750  1
  Cl  Cl32  1  0.35661850  0.92423250  0.36826900  1
  Cl  Cl33  1  0.61005050  0.33381050  0.47183700  1
  Cl  Cl34  1  0.10661850  0.32576750  0.11826900  1
  Cl  Cl35  1  0.35903400  0.40490500  0.37322500  1
  Cl  Cl36  1  0.38994950  0.66618950  0.47183700  1
  Cl  Cl37  1  0.61321600  0.57397500  0.19903400  1
  Cl  Cl38  1  0.11612300  0.60432650  0.04917750  1
  Cl  Cl39  1  0.13994950  0.58381050  0.22183700  1
  Cl  Cl40  1  0.10800300  0.07605650  0.04934550  1
  Cl  Cl41  1  0.63387700  0.35432650  0.29917750  1
  Cl  Cl42  1  0.39199700  0.42394350  0.04934550  1
  Cl  Cl43  1  0.13678400  0.32397500  0.44903400  1
  Cl  Cl44  1  0.14338150  0.57576750  0.36826900  1
  Cl  Cl45  1  0.64096600  0.59509500  0.37322500  1
  Cl  Cl46  1  0.88387700  0.39567350  0.04917750  1
  Cl  Cl47  1  0.10903400  0.84509500  0.12322500  1
  Cl  Cl48  1  0.36321600  0.67602500  0.94903400  1
  Cl  Cl49  1  0.14199700  0.82605650  0.79934550  1
  Cl  Cl50  1  0.35800300  0.67394350  0.79934550  1
  Cl  Cl51  1  0.39096600  0.15490500  0.62322500  1
  Cl  Cl52  1  0.86005050  0.91618950  0.72183700  1
  Cl  Cl53  1  0.38678400  0.92602500  0.69903400  1
  Cl  Cl54  1  0.89338150  0.17423250  0.61826900  1
  Cl  Cl55  1  0.36612300  0.14567350  0.79917750  1
  Cl  Cl56  1  0.35661850  0.42423250  0.86826900  1
  Cl  Cl57  1  0.61005050  0.83381050  0.97183700  1
  Cl  Cl58  1  0.10661850  0.82576750  0.61826900  1
  Cl  Cl59  1  0.35903400  0.90490500  0.87322500  1
  Cl  Cl60  1  0.38994950  0.16618950  0.97183700  1
  Cl  Cl61  1  0.61321600  0.07397500  0.69903400  1
  Cl  Cl62  1  0.11612300  0.10432650  0.54917750  1
  Cl  Cl63  1  0.13994950  0.08381050  0.72183700  1
  Cl  Cl64  1  0.10800300  0.57605650  0.54934550  1
  Cl  Cl65  1  0.63387700  0.85432650  0.79917750  1
  Cl  Cl66  1  0.39199700  0.92394350  0.54934550  1
  Cl  Cl67  1  0.13678400  0.82397500  0.94903400  1
  Cl  Cl68  1  0.14338150  0.07576750  0.86826900  1
  Cl  Cl69  1  0.64096600  0.09509500  0.87322500  1
  Cl  Cl70  1  0.88387700  0.89567350  0.54917750  1
  Cl  Cl71  1  0.10903400  0.34509500  0.62322500  1
  Cl  Cl72  1  0.86321600  0.17602500  0.94903400  1
  Cl  Cl73  1  0.64199700  0.32605650  0.79934550  1
  Cl  Cl74  1  0.85800300  0.17394350  0.79934550  1
  Cl  Cl75  1  0.89096600  0.65490500  0.62322500  1
  Cl  Cl76  1  0.36005050  0.41618950  0.72183700  1
  Cl  Cl77  1  0.88678400  0.42602500  0.69903400  1
  Cl  Cl78  1  0.39338150  0.67423250  0.61826900  1
  Cl  Cl79  1  0.86612300  0.64567350  0.79917750  1
  Cl  Cl80  1  0.85661850  0.92423250  0.86826900  1
  Cl  Cl81  1  0.11005050  0.33381050  0.97183700  1
  Cl  Cl82  1  0.60661850  0.32576750  0.61826900  1
  Cl  Cl83  1  0.85903400  0.40490500  0.87322500  1
  Cl  Cl84  1  0.88994950  0.66618950  0.97183700  1
  Cl  Cl85  1  0.11321600  0.57397500  0.69903400  1
  Cl  Cl86  1  0.61612300  0.60432650  0.54917750  1
  Cl  Cl87  1  0.63994950  0.58381050  0.72183700  1
  Cl  Cl88  1  0.60800300  0.07605650  0.54934550  1
  Cl  Cl89  1  0.13387700  0.35432650  0.79917750  1
  Cl  Cl90  1  0.89199700  0.42394350  0.54934550  1
  Cl  Cl91  1  0.63678400  0.32397500  0.94903400  1
  Cl  Cl92  1  0.64338150  0.57576750  0.86826900  1
  Cl  Cl93  1  0.14096600  0.59509500  0.87322500  1
  Cl  Cl94  1  0.38387700  0.39567350  0.54917750  1
  Cl  Cl95  1  0.60903400  0.84509500  0.62322500  1
  Cl  Cl96  1  0.86321600  0.67602500  0.44903400  1
  Cl  Cl97  1  0.64199700  0.82605650  0.29934550  1
  Cl  Cl98  1  0.85800300  0.67394350  0.29934550  1
  Cl  Cl99  1  0.89096600  0.15490500  0.12322500  1
  Cl  Cl100  1  0.36005050  0.91618950  0.22183700  1
  Cl  Cl101  1  0.88678400  0.92602500  0.19903400  1
  Cl  Cl102  1  0.39338150  0.17423250  0.11826900  1
  Cl  Cl103  1  0.86612300  0.14567350  0.29917750  1
  Cl  Cl104  1  0.85661850  0.42423250  0.36826900  1
  Cl  Cl105  1  0.11005050  0.83381050  0.47183700  1
  Cl  Cl106  1  0.60661850  0.82576750  0.11826900  1
  Cl  Cl107  1  0.85903400  0.90490500  0.37322500  1
  Cl  Cl108  1  0.88994950  0.16618950  0.47183700  1
  Cl  Cl109  1  0.11321600  0.07397500  0.19903400  1
  Cl  Cl110  1  0.61612300  0.10432650  0.04917750  1
  Cl  Cl111  1  0.63994950  0.08381050  0.22183700  1
  Cl  Cl112  1  0.60800300  0.57605650  0.04934550  1
  Cl  Cl113  1  0.13387700  0.85432650  0.29917750  1
  Cl  Cl114  1  0.89199700  0.92394350  0.04934550  1
  Cl  Cl115  1  0.63678400  0.82397500  0.44903400  1
  Cl  Cl116  1  0.64338150  0.07576750  0.36826900  1
  Cl  Cl117  1  0.14096600  0.09509500  0.37322500  1
  Cl  Cl118  1  0.38387700  0.89567350  0.04917750  1
  Cl  Cl119  1  0.60903400  0.34509500  0.12322500  1
