# generated using pymatgen
data_Ca2FeWO6
_symmetry_space_group_name_H-M   'P 1'
_cell_length_a   5.63567400
_cell_length_b   5.78647800
_cell_length_c   7.84708600
_cell_angle_alpha   90.00000000
_cell_angle_beta   90.00000000
_cell_angle_gamma   90.00000000
_symmetry_Int_Tables_number   1
_chemical_formula_structural   Ca2FeWO6
_chemical_formula_sum   'Ca4 Fe2 W2 O12'
_cell_volume   255.89899580
_cell_formula_units_Z   2
loop_
 _symmetry_equiv_pos_site_id
 _symmetry_equiv_pos_as_xyz
  1  'x, y, z'
loop_
 _atom_site_type_symbol
 _atom_site_label
 _atom_site_symmetry_multiplicity
 _atom_site_fract_x
 _atom_site_fract_y
 _atom_site_fract_z
 _atom_site_occupancy
  Ca  Ca0  1  0.50000000  0.95854700  0.24960300  1
  Ca  Ca1  1  0.00000000  0.45854700  0.25039700  1
  Ca  Ca2  1  0.00000000  0.45854700  0.74960300  1
  Ca  Ca3  1  0.50000000  0.95854700  0.75039700  1
  Fe  Fe4  1  0.50000000  0.51754700  0.00000000  1
  Fe  Fe5  1  0.00000000  0.01754700  0.50000000  1
  W  W6  1  0.00000000  0.02350000  0.00000000  1
  W  W7  1  0.50000000  0.52350000  0.50000000  1
  O  O8  1  0.50000000  0.53695700  0.25377000  1
  O  O9  1  0.50000000  0.53695700  0.74623000  1
  O  O10  1  0.25258650  0.80032850  0.00000000  1
  O  O11  1  0.74741350  0.80032850  0.00000000  1
  O  O12  1  0.23070100  0.27764400  0.00000000  1
  O  O13  1  0.26929900  0.77764400  0.50000000  1
  O  O14  1  0.00000000  0.03695700  0.75377000  1
  O  O15  1  0.00000000  0.03695700  0.24623000  1
  O  O16  1  0.75258650  0.30032850  0.50000000  1
  O  O17  1  0.24741350  0.30032850  0.50000000  1
  O  O18  1  0.73070100  0.77764400  0.50000000  1
  O  O19  1  0.76929900  0.27764400  0.00000000  1
