# generated using pymatgen
data_U8CrS17
_symmetry_space_group_name_H-M   'P 1'
_cell_length_a   13.17276600
_cell_length_b   8.32339600
_cell_length_c   10.34114472
_cell_angle_alpha   90.00000000
_cell_angle_beta   101.47906000
_cell_angle_gamma   90.00000000
_symmetry_Int_Tables_number   1
_chemical_formula_structural   U8CrS17
_chemical_formula_sum   'U16 Cr2 S34'
_cell_volume   1111.14598022
_cell_formula_units_Z   2
loop_
 _symmetry_equiv_pos_site_id
 _symmetry_equiv_pos_as_xyz
  1  'x, y, z'
loop_
 _atom_site_type_symbol
 _atom_site_label
 _atom_site_symmetry_multiplicity
 _atom_site_fract_x
 _atom_site_fract_y
 _atom_site_fract_z
 _atom_site_occupancy
  U  U0  1  0.43962850  0.74227250  0.29885700  1
  U  U1  1  0.56037150  0.74227250  0.70114300  1
  U  U2  1  0.56037150  0.25772750  0.70114300  1
  U  U3  1  0.43962850  0.25772750  0.29885700  1
  U  U4  1  0.79588000  0.00000000  0.54412500  1
  U  U5  1  0.20412000  0.00000000  0.45587500  1
  U  U6  1  0.31776300  0.00000000  0.98265500  1
  U  U7  1  0.68223700  0.00000000  0.01734500  1
  U  U8  1  0.93962850  0.24227250  0.29885700  1
  U  U9  1  0.06037150  0.24227250  0.70114300  1
  U  U10  1  0.06037150  0.75772750  0.70114300  1
  U  U11  1  0.93962850  0.75772750  0.29885700  1
  U  U12  1  0.29588000  0.50000000  0.54412500  1
  U  U13  1  0.70412000  0.50000000  0.45587500  1
  U  U14  1  0.81776300  0.50000000  0.98265500  1
  U  U15  1  0.18223700  0.50000000  0.01734500  1
  Cr  Cr16  1  0.00000000  0.00000000  0.00000000  1
  Cr  Cr17  1  0.50000000  0.50000000  0.00000000  1
  S  S18  1  0.37341050  0.80612950  0.53506300  1
  S  S19  1  0.62658950  0.80612950  0.46493700  1
  S  S20  1  0.62658950  0.19387050  0.46493700  1
  S  S21  1  0.37341050  0.19387050  0.53506300  1
  S  S22  1  0.36700700  0.68874900  0.02909500  1
  S  S23  1  0.63299300  0.68874900  0.97090500  1
  S  S24  1  0.63299300  0.31125100  0.97090500  1
  S  S25  1  0.36700700  0.31125100  0.02909500  1
  S  S26  1  0.78740500  0.00000000  0.27880900  1
  S  S27  1  0.21259500  0.00000000  0.72119100  1
  S  S28  1  0.94274900  0.00000000  0.77263200  1
  S  S29  1  0.05725100  0.00000000  0.22736800  1
  S  S30  1  0.69925700  0.00000000  0.75631900  1
  S  S31  1  0.30074300  0.00000000  0.24368100  1
  S  S32  1  0.47887500  0.00000000  0.83071400  1
  S  S33  1  0.52112500  0.00000000  0.16928600  1
  S  S34  1  0.00000000  0.00000000  0.50000000  1
  S  S35  1  0.87341050  0.30612950  0.53506300  1
  S  S36  1  0.12658950  0.30612950  0.46493700  1
  S  S37  1  0.12658950  0.69387050  0.46493700  1
  S  S38  1  0.87341050  0.69387050  0.53506300  1
  S  S39  1  0.86700700  0.18874900  0.02909500  1
  S  S40  1  0.13299300  0.18874900  0.97090500  1
  S  S41  1  0.13299300  0.81125100  0.97090500  1
  S  S42  1  0.86700700  0.81125100  0.02909500  1
  S  S43  1  0.28740500  0.50000000  0.27880900  1
  S  S44  1  0.71259500  0.50000000  0.72119100  1
  S  S45  1  0.44274900  0.50000000  0.77263200  1
  S  S46  1  0.55725100  0.50000000  0.22736800  1
  S  S47  1  0.19925700  0.50000000  0.75631900  1
  S  S48  1  0.80074300  0.50000000  0.24368100  1
  S  S49  1  0.97887500  0.50000000  0.83071400  1
  S  S50  1  0.02112500  0.50000000  0.16928600  1
  S  S51  1  0.50000000  0.50000000  0.50000000  1
