# generated using pymatgen
data_CrP2O7
_symmetry_space_group_name_H-M   'P 1'
_cell_length_a   7.23483490
_cell_length_b   8.04740700
_cell_length_c   9.35885650
_cell_angle_alpha   90.00000000
_cell_angle_beta   110.69337992
_cell_angle_gamma   90.00000000
_symmetry_Int_Tables_number   1
_chemical_formula_structural   CrP2O7
_chemical_formula_sum   'Cr4 P8 O28'
_cell_volume   509.73463720
_cell_formula_units_Z   4
loop_
 _symmetry_equiv_pos_site_id
 _symmetry_equiv_pos_as_xyz
  1  'x, y, z'
loop_
 _atom_site_type_symbol
 _atom_site_label
 _atom_site_symmetry_multiplicity
 _atom_site_fract_x
 _atom_site_fract_y
 _atom_site_fract_z
 _atom_site_occupancy
  Cr  Cr0  1  0.22742750  0.50817800  0.25303100  1
  Cr  Cr1  1  0.22742750  0.99182200  0.75303100  1
  Cr  Cr2  1  0.77257250  0.00817800  0.24696900  1
  Cr  Cr3  1  0.77257250  0.49182200  0.74696900  1
  P  P4  1  0.42663450  0.76140800  0.05577400  1
  P  P5  1  0.42663450  0.73859200  0.55577400  1
  P  P6  1  0.57336550  0.26140800  0.44422600  1
  P  P7  1  0.57336550  0.23859200  0.94422600  1
  P  P8  1  0.17538550  0.20228100  0.44880600  1
  P  P9  1  0.82461450  0.70228100  0.05119400  1
  P  P10  1  0.17538550  0.29771900  0.94880600  1
  P  P11  1  0.82461450  0.79771900  0.55119400  1
  O  O12  1  0.49093450  0.41378400  0.34270300  1
  O  O13  1  0.49093450  0.08621600  0.84270300  1
  O  O14  1  0.50906550  0.91378400  0.15729700  1
  O  O15  1  0.50906550  0.58621600  0.65729700  1
  O  O16  1  0.30019050  0.64618600  0.10831700  1
  O  O17  1  0.30019050  0.85381400  0.60831700  1
  O  O18  1  0.69980950  0.14618600  0.39168300  1
  O  O19  1  0.69980950  0.35381400  0.89168300  1
  O  O20  1  0.39038850  0.15009100  0.44916600  1
  O  O21  1  0.39038850  0.34990900  0.94916600  1
  O  O22  1  0.60961150  0.65009100  0.05083400  1
  O  O23  1  0.60961150  0.84990900  0.55083400  1
  O  O24  1  0.17386550  0.32131300  0.11090500  1
  O  O25  1  0.17386550  0.17868700  0.61090500  1
  O  O26  1  0.82613450  0.82131300  0.38909500  1
  O  O27  1  0.82613450  0.67868700  0.88909500  1
  O  O28  1  0.30865750  0.68927600  0.38961100  1
  O  O29  1  0.30865750  0.81072400  0.88961100  1
  O  O30  1  0.69134250  0.18927600  0.11038900  1
  O  O31  1  0.69134250  0.31072400  0.61038900  1
  O  O32  1  0.14004850  0.38292600  0.39878800  1
  O  O33  1  0.85995150  0.88292600  0.10121200  1
  O  O34  1  0.14004850  0.11707400  0.89878800  1
  O  O35  1  0.85995150  0.61707400  0.60121200  1
  O  O36  1  0.96324750  0.58085800  0.16694400  1
  O  O37  1  0.03675250  0.08085800  0.33305600  1
  O  O38  1  0.96324750  0.91914200  0.66694400  1
  O  O39  1  0.03675250  0.41914200  0.83305600  1
