# generated using pymatgen
data_CsTmCoS3
_symmetry_space_group_name_H-M   'P 1'
_cell_length_a   3.92703200
_cell_length_b   15.57503800
_cell_length_c   10.40269700
_cell_angle_alpha   90.00000000
_cell_angle_beta   90.00000000
_cell_angle_gamma   90.00000000
_symmetry_Int_Tables_number   1
_chemical_formula_structural   CsTmCoS3
_chemical_formula_sum   'Cs4 Tm4 Co4 S12'
_cell_volume   636.26715375
_cell_formula_units_Z   4
loop_
 _symmetry_equiv_pos_site_id
 _symmetry_equiv_pos_as_xyz
  1  'x, y, z'
loop_
 _atom_site_type_symbol
 _atom_site_label
 _atom_site_symmetry_multiplicity
 _atom_site_fract_x
 _atom_site_fract_y
 _atom_site_fract_z
 _atom_site_occupancy
  Cs  Cs0  1  0.50000000  0.23776000  0.25000000  1
  Cs  Cs1  1  0.00000000  0.26224000  0.75000000  1
  Cs  Cs2  1  0.00000000  0.73776000  0.25000000  1
  Cs  Cs3  1  0.50000000  0.76224000  0.75000000  1
  Tm  Tm4  1  0.00000000  0.00000000  0.00000000  1
  Tm  Tm5  1  0.00000000  0.00000000  0.50000000  1
  Tm  Tm6  1  0.50000000  0.50000000  0.00000000  1
  Tm  Tm7  1  0.50000000  0.50000000  0.50000000  1
  Co  Co8  1  0.00000000  0.46363300  0.25000000  1
  Co  Co9  1  0.50000000  0.03636700  0.75000000  1
  Co  Co10  1  0.50000000  0.96363300  0.25000000  1
  Co  Co11  1  0.00000000  0.53636700  0.75000000  1
  S  S12  1  0.50000000  0.11178900  0.56434100  1
  S  S13  1  0.00000000  0.38821100  0.06434100  1
  S  S14  1  0.50000000  0.11178900  0.93565900  1
  S  S15  1  0.00000000  0.38821100  0.43565900  1
  S  S16  1  0.00000000  0.04622100  0.25000000  1
  S  S17  1  0.50000000  0.45377900  0.75000000  1
  S  S18  1  0.00000000  0.61178900  0.56434100  1
  S  S19  1  0.50000000  0.88821100  0.06434100  1
  S  S20  1  0.00000000  0.61178900  0.93565900  1
  S  S21  1  0.50000000  0.88821100  0.43565900  1
  S  S22  1  0.50000000  0.54622100  0.25000000  1
  S  S23  1  0.00000000  0.95377900  0.75000000  1
