# generated using pymatgen
data_Sm(Sb3Os)4
_symmetry_space_group_name_H-M   'P 1'
_cell_length_a   9.42020600
_cell_length_b   9.42020600
_cell_length_c   9.42020600
_cell_angle_alpha   90.00000000
_cell_angle_beta   90.00000000
_cell_angle_gamma   90.00000000
_symmetry_Int_Tables_number   1
_chemical_formula_structural   Sm(Sb3Os)4
_chemical_formula_sum   'Sm2 Sb24 Os8'
_cell_volume   835.95172829
_cell_formula_units_Z   2
loop_
 _symmetry_equiv_pos_site_id
 _symmetry_equiv_pos_as_xyz
  1  'x, y, z'
loop_
 _atom_site_type_symbol
 _atom_site_label
 _atom_site_symmetry_multiplicity
 _atom_site_fract_x
 _atom_site_fract_y
 _atom_site_fract_z
 _atom_site_occupancy
  Sm  Sm0  1  0.00000000  0.00000000  0.00000000  1
  Sm  Sm1  1  0.50000000  0.50000000  0.50000000  1
  Sb  Sb2  1  0.34343300  0.50000000  0.83831800  1
  Sb  Sb3  1  0.15656700  0.00000000  0.66168200  1
  Sb  Sb4  1  0.34343300  0.50000000  0.16168200  1
  Sb  Sb5  1  0.15656700  0.00000000  0.33831800  1
  Sb  Sb6  1  0.50000000  0.83831800  0.34343300  1
  Sb  Sb7  1  0.00000000  0.66168200  0.15656700  1
  Sb  Sb8  1  0.50000000  0.16168200  0.34343300  1
  Sb  Sb9  1  0.00000000  0.33831800  0.15656700  1
  Sb  Sb10  1  0.83831800  0.34343300  0.50000000  1
  Sb  Sb11  1  0.66168200  0.15656700  0.00000000  1
  Sb  Sb12  1  0.16168200  0.34343300  0.50000000  1
  Sb  Sb13  1  0.33831800  0.15656700  0.00000000  1
  Sb  Sb14  1  0.84343300  0.00000000  0.33831800  1
  Sb  Sb15  1  0.65656700  0.50000000  0.16168200  1
  Sb  Sb16  1  0.84343300  0.00000000  0.66168200  1
  Sb  Sb17  1  0.65656700  0.50000000  0.83831800  1
  Sb  Sb18  1  0.00000000  0.33831800  0.84343300  1
  Sb  Sb19  1  0.50000000  0.16168200  0.65656700  1
  Sb  Sb20  1  0.00000000  0.66168200  0.84343300  1
  Sb  Sb21  1  0.50000000  0.83831800  0.65656700  1
  Sb  Sb22  1  0.33831800  0.84343300  0.00000000  1
  Sb  Sb23  1  0.16168200  0.65656700  0.50000000  1
  Sb  Sb24  1  0.66168200  0.84343300  0.00000000  1
  Sb  Sb25  1  0.83831800  0.65656700  0.50000000  1
  Os  Os26  1  0.25000000  0.25000000  0.75000000  1
  Os  Os27  1  0.75000000  0.25000000  0.25000000  1
  Os  Os28  1  0.25000000  0.75000000  0.25000000  1
  Os  Os29  1  0.25000000  0.25000000  0.25000000  1
  Os  Os30  1  0.75000000  0.75000000  0.25000000  1
  Os  Os31  1  0.25000000  0.75000000  0.75000000  1
  Os  Os32  1  0.75000000  0.25000000  0.75000000  1
  Os  Os33  1  0.75000000  0.75000000  0.75000000  1
