# generated using pymatgen
data_VSnPO5
_symmetry_space_group_name_H-M   'P 1'
_cell_length_a   5.35767035
_cell_length_b   6.62775892
_cell_length_c   6.98336890
_cell_angle_alpha   113.05919016
_cell_angle_beta   107.20078160
_cell_angle_gamma   95.39306172
_symmetry_Int_Tables_number   1
_chemical_formula_structural   VSnPO5
_chemical_formula_sum   'V2 Sn2 P2 O10'
_cell_volume   211.65606534
_cell_formula_units_Z   2
loop_
 _symmetry_equiv_pos_site_id
 _symmetry_equiv_pos_as_xyz
  1  'x, y, z'
loop_
 _atom_site_type_symbol
 _atom_site_label
 _atom_site_symmetry_multiplicity
 _atom_site_fract_x
 _atom_site_fract_y
 _atom_site_fract_z
 _atom_site_occupancy
  V  V0  1  0.84061200  0.36597100  0.23961300  1
  V  V1  1  0.15938800  0.63402900  0.76038700  1
  Sn  Sn2  1  0.39966000  0.21934200  0.46027650  1
  Sn  Sn3  1  0.60034000  0.78065800  0.53972350  1
  P  P4  1  0.82333800  0.80745550  0.10315450  1
  P  P5  1  0.17666200  0.19254450  0.89684550  1
  O  O6  1  0.22360500  0.50007900  0.46450500  1
  O  O7  1  0.77639500  0.49992100  0.53549500  1
  O  O8  1  0.90290600  0.06452000  0.26827050  1
  O  O9  1  0.09709400  0.93548000  0.73172950  1
  O  O10  1  0.93582700  0.25627050  0.96720950  1
  O  O11  1  0.06417300  0.74372950  0.03279050  1
  O  O12  1  0.76253100  0.66795200  0.22555450  1
  O  O13  1  0.23746900  0.33204800  0.77444550  1
  O  O14  1  0.57188700  0.76185150  0.89666700  1
  O  O15  1  0.42811300  0.23814850  0.10333300  1
