# generated using pymatgen
data_Er(Al3Ni)3
_symmetry_space_group_name_H-M   'P 1'
_cell_length_a   7.27426186
_cell_length_b   7.27426186
_cell_length_c   27.36921470
_cell_angle_alpha   90.00000000
_cell_angle_beta   90.00000000
_cell_angle_gamma   120.00000000
_symmetry_Int_Tables_number   1
_chemical_formula_structural   Er(Al3Ni)3
_chemical_formula_sum   'Er6 Al54 Ni18'
_cell_volume   1254.21164827
_cell_formula_units_Z   6
loop_
 _symmetry_equiv_pos_site_id
 _symmetry_equiv_pos_as_xyz
  1  'x, y, z'
loop_
 _atom_site_type_symbol
 _atom_site_label
 _atom_site_symmetry_multiplicity
 _atom_site_fract_x
 _atom_site_fract_y
 _atom_site_fract_z
 _atom_site_occupancy
  Er  Er0  1  0.00000000  0.00000000  0.16691600  1
  Er  Er1  1  0.66666667  0.33333333  0.16641733  1
  Er  Er2  1  0.66666667  0.33333333  0.50024933  1
  Er  Er3  1  0.33333333  0.66666667  0.49975067  1
  Er  Er4  1  0.33333333  0.66666667  0.83358267  1
  Er  Er5  1  0.00000000  0.00000000  0.83308400  1
  Al  Al6  1  0.33335767  0.99690533  0.09957133  1
  Al  Al7  1  0.66354767  0.66664233  0.09957133  1
  Al  Al8  1  0.66357200  0.66669100  0.23376200  1
  Al  Al9  1  0.66666667  0.33333333  0.28143333  1
  Al  Al10  1  0.00000000  0.00000000  0.05190000  1
  Al  Al11  1  0.54252833  0.87586167  0.16666667  1
  Al  Al12  1  0.00311900  0.33642800  0.23376200  1
  Al  Al13  1  0.33333333  0.66666667  0.05361267  1
  Al  Al14  1  0.12413833  0.66666667  0.16666667  1
  Al  Al15  1  0.33330900  0.99688100  0.23376200  1
  Al  Al16  1  0.66666667  0.33333333  0.05136633  1
  Al  Al17  1  0.33333333  0.66666667  0.27972067  1
  Al  Al18  1  0.00000000  0.66611600  0.00000000  1
  Al  Al19  1  0.33333333  0.45747167  0.16666667  1
  Al  Al20  1  0.33388400  0.33388400  0.00000000  1
  Al  Al21  1  0.00000000  0.00000000  0.28196700  1
  Al  Al22  1  0.66611600  0.00000000  0.00000000  1
  Al  Al23  1  0.00309467  0.33645233  0.09957133  1
  Al  Al24  1  0.00002433  0.33023867  0.43290467  1
  Al  Al25  1  0.33021433  0.99997567  0.43290467  1
  Al  Al26  1  0.33023867  0.00002433  0.56709533  1
  Al  Al27  1  0.33333333  0.66666667  0.61476667  1
  Al  Al28  1  0.66666667  0.33333333  0.38523333  1
  Al  Al29  1  0.20919500  0.20919500  0.50000000  1
  Al  Al30  1  0.66978567  0.66976133  0.56709533  1
  Al  Al31  1  0.00000000  0.00000000  0.38694600  1
  Al  Al32  1  0.79080500  0.00000000  0.50000000  1
  Al  Al33  1  0.99997567  0.33021433  0.56709533  1
  Al  Al34  1  0.33333333  0.66666667  0.38469967  1
  Al  Al35  1  1.00000000  0.00000000  0.61305400  1
  Al  Al36  1  0.66666667  0.99944933  0.33333333  1
  Al  Al37  1  1.00000000  0.79080500  0.50000000  1
  Al  Al38  1  0.00055067  0.66721733  0.33333333  1
  Al  Al39  1  0.66666667  0.33333333  0.61530033  1
  Al  Al40  1  0.33278267  0.33333333  0.33333333  1
  Al  Al41  1  0.66976133  0.66978567  0.43290467  1
  Al  Al42  1  0.66669100  0.66357200  0.76623800  1
  Al  Al43  1  0.99688100  0.33330900  0.76623800  1
  Al  Al44  1  0.99690533  0.33335767  0.90042867  1
  Al  Al45  1  0.00000000  0.00000000  0.94810000  1
  Al  Al46  1  0.33333333  0.66666667  0.71856667  1
  Al  Al47  1  0.87586167  0.54252833  0.83333333  1
  Al  Al48  1  0.33645233  0.00309467  0.90042867  1
  Al  Al49  1  0.66666667  0.33333333  0.72027933  1
  Al  Al50  1  0.45747167  0.33333333  0.83333333  1
  Al  Al51  1  0.66664233  0.66354767  0.90042867  1
  Al  Al52  1  0.00000000  0.00000000  0.71803300  1
  Al  Al53  1  0.66666667  0.33333333  0.94638733  1
  Al  Al54  1  0.33333333  0.33278267  0.66666667  1
  Al  Al55  1  0.66666667  0.12413833  0.83333333  1
  Al  Al56  1  0.66721733  0.00055067  0.66666667  1
  Al  Al57  1  0.33333333  0.66666667  0.94863367  1
  Al  Al58  1  0.99944933  0.66666667  0.66666667  1
  Al  Al59  1  0.33642800  0.00311900  0.76623800  1
  Ni  Ni60  1  0.99336367  0.66670833  0.08511333  1
  Ni  Ni61  1  0.99332200  0.66662500  0.24822000  1
  Ni  Ni62  1  0.67334467  0.00663633  0.08511333  1
  Ni  Ni63  1  0.33329167  0.32665533  0.08511333  1
  Ni  Ni64  1  0.33337500  0.32669700  0.24822000  1
  Ni  Ni65  1  0.67330300  0.00667800  0.24822000  1
  Ni  Ni66  1  0.66003033  0.00004167  0.41844667  1
  Ni  Ni67  1  0.65998867  0.99995833  0.58155333  1
  Ni  Ni68  1  0.34001133  0.33996967  0.41844667  1
  Ni  Ni69  1  0.99995833  0.65998867  0.41844667  1
  Ni  Ni70  1  0.00004167  0.66003033  0.58155333  1
  Ni  Ni71  1  0.33996967  0.34001133  0.58155333  1
  Ni  Ni72  1  0.32669700  0.33337500  0.75178000  1
  Ni  Ni73  1  0.32665533  0.33329167  0.91488667  1
  Ni  Ni74  1  0.00667800  0.67330300  0.75178000  1
  Ni  Ni75  1  0.66662500  0.99332200  0.75178000  1
  Ni  Ni76  1  0.66670833  0.99336367  0.91488667  1
  Ni  Ni77  1  0.00663633  0.67334467  0.91488667  1
