# generated using pymatgen
data_Na2VOF4
_symmetry_space_group_name_H-M   'P 1'
_cell_length_a   12.87964869
_cell_length_b   10.45910549
_cell_length_c   6.85193581
_cell_angle_alpha   90.00000000
_cell_angle_beta   106.72897706
_cell_angle_gamma   90.00000000
_symmetry_Int_Tables_number   1
_chemical_formula_structural   Na2VOF4
_chemical_formula_sum   'Na16 V8 O8 F32'
_cell_volume   883.95655756
_cell_formula_units_Z   8
loop_
 _symmetry_equiv_pos_site_id
 _symmetry_equiv_pos_as_xyz
  1  'x, y, z'
loop_
 _atom_site_type_symbol
 _atom_site_label
 _atom_site_symmetry_multiplicity
 _atom_site_fract_x
 _atom_site_fract_y
 _atom_site_fract_z
 _atom_site_occupancy
  Na  Na0  1  0.89710550  0.89685650  0.37485600  1
  Na  Na1  1  0.89710550  0.10314350  0.87485600  1
  Na  Na2  1  0.10289450  0.10314350  0.62514400  1
  Na  Na3  1  0.10289450  0.89685650  0.12514400  1
  Na  Na4  1  0.16535950  0.59671350  0.03322500  1
  Na  Na5  1  0.16535950  0.40328650  0.53322500  1
  Na  Na6  1  0.83464050  0.40328650  0.96677500  1
  Na  Na7  1  0.83464050  0.59671350  0.46677500  1
  Na  Na8  1  0.39710550  0.39685650  0.37485600  1
  Na  Na9  1  0.39710550  0.60314350  0.87485600  1
  Na  Na10  1  0.60289450  0.60314350  0.62514400  1
  Na  Na11  1  0.60289450  0.39685650  0.12514400  1
  Na  Na12  1  0.66535950  0.09671350  0.03322500  1
  Na  Na13  1  0.66535950  0.90328650  0.53322500  1
  Na  Na14  1  0.33464050  0.90328650  0.96677500  1
  Na  Na15  1  0.33464050  0.09671350  0.46677500  1
  V  V16  1  0.13534850  0.26386250  0.08281000  1
  V  V17  1  0.86465150  0.73613750  0.91719000  1
  V  V18  1  0.86465150  0.26386250  0.41719000  1
  V  V19  1  0.13534850  0.73613750  0.58281000  1
  V  V20  1  0.63534850  0.76386250  0.08281000  1
  V  V21  1  0.36465150  0.23613750  0.91719000  1
  V  V22  1  0.36465150  0.76386250  0.41719000  1
  V  V23  1  0.63534850  0.23613750  0.58281000  1
  O  O24  1  0.98548700  0.66956600  0.98816400  1
  O  O25  1  0.98548700  0.33043400  0.48816400  1
  O  O26  1  0.01451300  0.66956600  0.51183600  1
  O  O27  1  0.01451300  0.33043400  0.01183600  1
  O  O28  1  0.48548700  0.16956600  0.98816400  1
  O  O29  1  0.48548700  0.83043400  0.48816400  1
  O  O30  1  0.51451300  0.16956600  0.51183600  1
  O  O31  1  0.51451300  0.83043400  0.01183600  1
  F  F32  1  0.21194900  0.58434000  0.72743200  1
  F  F33  1  0.78805100  0.58434000  0.77256800  1
  F  F34  1  0.78805100  0.41566000  0.27256800  1
  F  F35  1  0.21194900  0.41566000  0.22743200  1
  F  F36  1  0.15322900  0.18941600  0.34922000  1
  F  F37  1  0.84677100  0.18941600  0.15078000  1
  F  F38  1  0.15322900  0.81058400  0.84922000  1
  F  F39  1  0.84677100  0.81058400  0.65078000  1
  F  F40  1  0.90908300  0.90605700  0.03794200  1
  F  F41  1  0.09091700  0.09394300  0.96205800  1
  F  F42  1  0.90908300  0.09394300  0.53794200  1
  F  F43  1  0.09091700  0.90605700  0.46205800  1
  F  F44  1  0.18985250  0.30164450  0.84428100  1
  F  F45  1  0.81014750  0.69835550  0.15571900  1
  F  F46  1  0.18985250  0.69835550  0.34428100  1
  F  F47  1  0.81014750  0.30164450  0.65571900  1
  F  F48  1  0.71194900  0.08434000  0.72743200  1
  F  F49  1  0.28805100  0.08434000  0.77256800  1
  F  F50  1  0.28805100  0.91566000  0.27256800  1
  F  F51  1  0.71194900  0.91566000  0.22743200  1
  F  F52  1  0.65322900  0.68941600  0.34922000  1
  F  F53  1  0.34677100  0.68941600  0.15078000  1
  F  F54  1  0.65322900  0.31058400  0.84922000  1
  F  F55  1  0.34677100  0.31058400  0.65078000  1
  F  F56  1  0.40908300  0.40605700  0.03794200  1
  F  F57  1  0.59091700  0.59394300  0.96205800  1
  F  F58  1  0.40908300  0.59394300  0.53794200  1
  F  F59  1  0.59091700  0.40605700  0.46205800  1
  F  F60  1  0.68985250  0.80164450  0.84428100  1
  F  F61  1  0.31014750  0.19835550  0.15571900  1
  F  F62  1  0.68985250  0.19835550  0.34428100  1
  F  F63  1  0.31014750  0.80164450  0.65571900  1
