# generated using pymatgen
data_CeTa3O9
_symmetry_space_group_name_H-M   'P 1'
_cell_length_a   12.57622400
_cell_length_b   7.69802800
_cell_length_c   6.61783793
_cell_angle_alpha   90.00000000
_cell_angle_beta   93.85851930
_cell_angle_gamma   90.00000000
_symmetry_Int_Tables_number   1
_chemical_formula_structural   CeTa3O9
_chemical_formula_sum   'Ce4 Ta12 O36'
_cell_volume   639.23467761
_cell_formula_units_Z   4
loop_
 _symmetry_equiv_pos_site_id
 _symmetry_equiv_pos_as_xyz
  1  'x, y, z'
loop_
 _atom_site_type_symbol
 _atom_site_label
 _atom_site_symmetry_multiplicity
 _atom_site_fract_x
 _atom_site_fract_y
 _atom_site_fract_z
 _atom_site_occupancy
  Ce  Ce0  1  0.73695400  0.00000000  0.05005400  1
  Ce  Ce1  1  0.26304600  0.00000000  0.94994600  1
  Ce  Ce2  1  0.23695400  0.50000000  0.05005400  1
  Ce  Ce3  1  0.76304600  0.50000000  0.94994600  1
  Ta  Ta4  1  0.46707500  0.75103900  0.23748900  1
  Ta  Ta5  1  0.53292500  0.75103900  0.76251100  1
  Ta  Ta6  1  0.53292500  0.24896100  0.76251100  1
  Ta  Ta7  1  0.46707500  0.24896100  0.23748900  1
  Ta  Ta8  1  0.75000000  0.75000000  0.50000000  1
  Ta  Ta9  1  0.75000000  0.25000000  0.50000000  1
  Ta  Ta10  1  0.96707500  0.25103900  0.23748900  1
  Ta  Ta11  1  0.03292500  0.25103900  0.76251100  1
  Ta  Ta12  1  0.03292500  0.74896100  0.76251100  1
  Ta  Ta13  1  0.96707500  0.74896100  0.23748900  1
  Ta  Ta14  1  0.25000000  0.25000000  0.50000000  1
  Ta  Ta15  1  0.25000000  0.75000000  0.50000000  1
  O  O16  1  0.29298500  0.78543600  0.22005800  1
  O  O17  1  0.70701500  0.78543600  0.77994200  1
  O  O18  1  0.70701500  0.21456400  0.77994200  1
  O  O19  1  0.29298500  0.21456400  0.22005800  1
  O  O20  1  0.40831500  0.28093800  0.54730800  1
  O  O21  1  0.59168500  0.28093800  0.45269200  1
  O  O22  1  0.59168500  0.71906200  0.45269200  1
  O  O23  1  0.40831500  0.71906200  0.54730800  1
  O  O24  1  0.59104950  0.77059450  0.06676200  1
  O  O25  1  0.40895050  0.77059450  0.93323800  1
  O  O26  1  0.40895050  0.22940550  0.93323800  1
  O  O27  1  0.59104950  0.22940550  0.06676200  1
  O  O28  1  0.93151000  0.00000000  0.20454000  1
  O  O29  1  0.06849000  0.00000000  0.79546000  1
  O  O30  1  0.53898200  0.00000000  0.72852900  1
  O  O31  1  0.46101800  0.00000000  0.27147100  1
  O  O32  1  0.73249200  0.00000000  0.42468600  1
  O  O33  1  0.26750800  0.00000000  0.57531400  1
  O  O34  1  0.79298500  0.28543600  0.22005800  1
  O  O35  1  0.20701500  0.28543600  0.77994200  1
  O  O36  1  0.20701500  0.71456400  0.77994200  1
  O  O37  1  0.79298500  0.71456400  0.22005800  1
  O  O38  1  0.90831500  0.78093800  0.54730800  1
  O  O39  1  0.09168500  0.78093800  0.45269200  1
  O  O40  1  0.09168500  0.21906200  0.45269200  1
  O  O41  1  0.90831500  0.21906200  0.54730800  1
  O  O42  1  0.09104950  0.27059450  0.06676200  1
  O  O43  1  0.90895050  0.27059450  0.93323800  1
  O  O44  1  0.90895050  0.72940550  0.93323800  1
  O  O45  1  0.09104950  0.72940550  0.06676200  1
  O  O46  1  0.43151000  0.50000000  0.20454000  1
  O  O47  1  0.56849000  0.50000000  0.79546000  1
  O  O48  1  0.03898200  0.50000000  0.72852900  1
  O  O49  1  0.96101800  0.50000000  0.27147100  1
  O  O50  1  0.23249200  0.50000000  0.42468600  1
  O  O51  1  0.76750800  0.50000000  0.57531400  1
