# generated using pymatgen
data_NpF4
_symmetry_space_group_name_H-M   'P 1'
_cell_length_a   12.77724800
_cell_length_b   10.85726600
_cell_length_c   8.37807934
_cell_angle_alpha   90.00000000
_cell_angle_beta   126.66090292
_cell_angle_gamma   90.00000000
_symmetry_Int_Tables_number   1
_chemical_formula_structural   NpF4
_chemical_formula_sum   'Np12 F48'
_cell_volume   932.34332562
_cell_formula_units_Z   12
loop_
 _symmetry_equiv_pos_site_id
 _symmetry_equiv_pos_as_xyz
  1  'x, y, z'
loop_
 _atom_site_type_symbol
 _atom_site_label
 _atom_site_symmetry_multiplicity
 _atom_site_fract_x
 _atom_site_fract_y
 _atom_site_fract_z
 _atom_site_occupancy
  Np  Np0  1  0.00000000  0.21324800  0.75000000  1
  Np  Np1  1  0.00000000  0.78675200  0.25000000  1
  Np  Np2  1  0.20511350  0.57224250  0.83058500  1
  Np  Np3  1  0.20511350  0.42775750  0.33058500  1
  Np  Np4  1  0.79488650  0.42775750  0.16941500  1
  Np  Np5  1  0.79488650  0.57224250  0.66941500  1
  Np  Np6  1  0.50000000  0.71324800  0.75000000  1
  Np  Np7  1  0.50000000  0.28675200  0.25000000  1
  Np  Np8  1  0.70511350  0.07224250  0.83058500  1
  Np  Np9  1  0.70511350  0.92775750  0.33058500  1
  Np  Np10  1  0.29488650  0.92775750  0.16941500  1
  Np  Np11  1  0.29488650  0.07224250  0.66941500  1
  F  F12  1  0.21164250  0.46987850  0.60463900  1
  F  F13  1  0.89119500  0.29334500  0.42746200  1
  F  F14  1  0.11884100  0.37840300  0.78240300  1
  F  F15  1  0.78835750  0.46987850  0.89536100  1
  F  F16  1  0.61945450  0.55443750  0.95585500  1
  F  F17  1  0.89119500  0.70665500  0.92746200  1
  F  F18  1  0.10880500  0.70665500  0.57253800  1
  F  F19  1  0.00000000  0.60363400  0.75000000  1
  F  F20  1  0.00000000  0.39636600  0.25000000  1
  F  F21  1  0.11884100  0.62159700  0.28240300  1
  F  F22  1  0.38054550  0.55443750  0.54414500  1
  F  F23  1  0.61945450  0.44556250  0.45585500  1
  F  F24  1  0.88115900  0.62159700  0.21759700  1
  F  F25  1  0.78835750  0.53012150  0.39536100  1
  F  F26  1  0.87732050  0.15103450  0.85013400  1
  F  F27  1  0.75000000  0.75000000  0.50000000  1
  F  F28  1  0.12267950  0.15103450  0.64986600  1
  F  F29  1  0.10880500  0.29334500  0.07253800  1
  F  F30  1  0.88115900  0.37840300  0.71759700  1
  F  F31  1  0.38054550  0.44556250  0.04414500  1
  F  F32  1  0.12267950  0.84896550  0.14986600  1
  F  F33  1  0.21164250  0.53012150  0.10463900  1
  F  F34  1  0.87732050  0.84896550  0.35013400  1
  F  F35  1  0.25000000  0.75000000  0.00000000  1
  F  F36  1  0.71164250  0.96987850  0.60463900  1
  F  F37  1  0.39119500  0.79334500  0.42746200  1
  F  F38  1  0.61884100  0.87840300  0.78240300  1
  F  F39  1  0.28835750  0.96987850  0.89536100  1
  F  F40  1  0.11945450  0.05443750  0.95585500  1
  F  F41  1  0.39119500  0.20665500  0.92746200  1
  F  F42  1  0.60880500  0.20665500  0.57253800  1
  F  F43  1  0.50000000  0.10363400  0.75000000  1
  F  F44  1  0.50000000  0.89636600  0.25000000  1
  F  F45  1  0.61884100  0.12159700  0.28240300  1
  F  F46  1  0.88054550  0.05443750  0.54414500  1
  F  F47  1  0.11945450  0.94556250  0.45585500  1
  F  F48  1  0.38115900  0.12159700  0.21759700  1
  F  F49  1  0.28835750  0.03012150  0.39536100  1
  F  F50  1  0.37732050  0.65103450  0.85013400  1
  F  F51  1  0.25000000  0.25000000  0.50000000  1
  F  F52  1  0.62267950  0.65103450  0.64986600  1
  F  F53  1  0.60880500  0.79334500  0.07253800  1
  F  F54  1  0.38115900  0.87840300  0.71759700  1
  F  F55  1  0.88054550  0.94556250  0.04414500  1
  F  F56  1  0.62267950  0.34896550  0.14986600  1
  F  F57  1  0.71164250  0.03012150  0.10463900  1
  F  F58  1  0.37732050  0.34896550  0.35013400  1
  F  F59  1  0.75000000  0.25000000  0.00000000  1
