# generated using pymatgen
data_Cs4Pr6C2I13
_symmetry_space_group_name_H-M   'P 1'
_cell_length_a   18.32608000
_cell_length_b   18.32608000
_cell_length_c   12.86263000
_cell_angle_alpha   90.00000000
_cell_angle_beta   90.00000000
_cell_angle_gamma   90.00000000
_symmetry_Int_Tables_number   1
_chemical_formula_structural   Cs4Pr6C2I13
_chemical_formula_sum   'Cs16 Pr24 C8 I52'
_cell_volume   4319.85264992
_cell_formula_units_Z   4
loop_
 _symmetry_equiv_pos_site_id
 _symmetry_equiv_pos_as_xyz
  1  'x, y, z'
loop_
 _atom_site_type_symbol
 _atom_site_label
 _atom_site_symmetry_multiplicity
 _atom_site_fract_x
 _atom_site_fract_y
 _atom_site_fract_z
 _atom_site_occupancy
  Cs  Cs0  1  0.15357650  0.65357650  0.75000000  1
  Cs  Cs1  1  0.15357650  0.84642350  0.00000000  1
  Cs  Cs2  1  0.84642350  0.15357650  0.00000000  1
  Cs  Cs3  1  0.34642350  0.84642350  0.25000000  1
  Cs  Cs4  1  0.84642350  0.84642350  0.00000000  1
  Cs  Cs5  1  0.34642350  0.15357650  0.25000000  1
  Cs  Cs6  1  0.15357650  0.34642350  0.75000000  1
  Cs  Cs7  1  0.15357650  0.15357650  0.00000000  1
  Cs  Cs8  1  0.65357650  0.15357650  0.25000000  1
  Cs  Cs9  1  0.65357650  0.34642350  0.50000000  1
  Cs  Cs10  1  0.34642350  0.65357650  0.50000000  1
  Cs  Cs11  1  0.84642350  0.34642350  0.75000000  1
  Cs  Cs12  1  0.34642350  0.34642350  0.50000000  1
  Cs  Cs13  1  0.84642350  0.65357650  0.75000000  1
  Cs  Cs14  1  0.65357650  0.84642350  0.25000000  1
  Cs  Cs15  1  0.65357650  0.65357650  0.50000000  1
  Pr  Pr16  1  0.50000000  0.00000000  0.51623900  1
  Pr  Pr17  1  0.00000000  0.00000000  0.26623900  1
  Pr  Pr18  1  0.50000000  0.00000000  0.98376100  1
  Pr  Pr19  1  0.00000000  0.00000000  0.73376100  1
  Pr  Pr20  1  0.36127850  0.00000000  0.74848750  1
  Pr  Pr21  1  0.00000000  0.13872150  0.49848750  1
  Pr  Pr22  1  0.00000000  0.86127850  0.49848750  1
  Pr  Pr23  1  0.63872150  0.00000000  0.74848750  1
  Pr  Pr24  1  0.00000000  0.63872150  0.25151250  1
  Pr  Pr25  1  0.00000000  0.36127850  0.25151250  1
  Pr  Pr26  1  0.86127850  0.00000000  0.50151250  1
  Pr  Pr27  1  0.13872150  0.00000000  0.50151250  1
  Pr  Pr28  1  0.00000000  0.50000000  0.01623900  1
  Pr  Pr29  1  0.50000000  0.50000000  0.76623900  1
  Pr  Pr30  1  0.00000000  0.50000000  0.48376100  1
  Pr  Pr31  1  0.50000000  0.50000000  0.23376100  1
  Pr  Pr32  1  0.86127850  0.50000000  0.24848750  1
  Pr  Pr33  1  0.50000000  0.63872150  0.99848750  1
  Pr  Pr34  1  0.50000000  0.36127850  0.99848750  1
  Pr  Pr35  1  0.13872150  0.50000000  0.24848750  1
  Pr  Pr36  1  0.50000000  0.13872150  0.75151250  1
  Pr  Pr37  1  0.50000000  0.86127850  0.75151250  1
  Pr  Pr38  1  0.36127850  0.50000000  0.00151250  1
  Pr  Pr39  1  0.63872150  0.50000000  0.00151250  1
  C  C40  1  0.50000000  0.00000000  0.69578500  1
  C  C41  1  0.00000000  0.00000000  0.44578500  1
  C  C42  1  0.50000000  0.00000000  0.80421500  1
  C  C43  1  0.00000000  0.00000000  0.55421500  1
  C  C44  1  0.00000000  0.50000000  0.19578500  1
  C  C45  1  0.50000000  0.50000000  0.94578500  1
  C  C46  1  0.00000000  0.50000000  0.30421500  1
  C  C47  1  0.50000000  0.50000000  0.05421500  1
  I  I48  1  0.00000000  0.00000000  0.00000000  1
  I  I49  1  0.50000000  0.00000000  0.25000000  1
  I  I50  1  0.17140350  0.67140350  0.25000000  1
  I  I51  1  0.17140350  0.82859650  0.50000000  1
  I  I52  1  0.82859650  0.17140350  0.50000000  1
  I  I53  1  0.32859650  0.82859650  0.75000000  1
  I  I54  1  0.82859650  0.82859650  0.50000000  1
  I  I55  1  0.32859650  0.17140350  0.75000000  1
  I  I56  1  0.17140350  0.32859650  0.25000000  1
  I  I57  1  0.17140350  0.17140350  0.50000000  1
  I  I58  1  0.32351400  0.00000000  0.00261700  1
  I  I59  1  0.00000000  0.17648600  0.75261700  1
  I  I60  1  0.00000000  0.82351400  0.75261700  1
  I  I61  1  0.67648600  0.00000000  0.00261700  1
  I  I62  1  0.00000000  0.67648600  0.99738300  1
  I  I63  1  0.00000000  0.32351400  0.99738300  1
  I  I64  1  0.82351400  0.00000000  0.24738300  1
  I  I65  1  0.17648600  0.00000000  0.24738300  1
  I  I66  1  0.32736450  0.00000000  0.49449250  1
  I  I67  1  0.00000000  0.17263550  0.24449250  1
  I  I68  1  0.00000000  0.82736450  0.24449250  1
  I  I69  1  0.67263550  0.00000000  0.49449250  1
  I  I70  1  0.00000000  0.67263550  0.50550750  1
  I  I71  1  0.00000000  0.32736450  0.50550750  1
  I  I72  1  0.82736450  0.00000000  0.75550750  1
  I  I73  1  0.17263550  0.00000000  0.75550750  1
  I  I74  1  0.50000000  0.50000000  0.50000000  1
  I  I75  1  0.00000000  0.50000000  0.75000000  1
  I  I76  1  0.67140350  0.17140350  0.75000000  1
  I  I77  1  0.67140350  0.32859650  0.00000000  1
  I  I78  1  0.32859650  0.67140350  0.00000000  1
  I  I79  1  0.82859650  0.32859650  0.25000000  1
  I  I80  1  0.32859650  0.32859650  0.00000000  1
  I  I81  1  0.82859650  0.67140350  0.25000000  1
  I  I82  1  0.67140350  0.82859650  0.75000000  1
  I  I83  1  0.67140350  0.67140350  0.00000000  1
  I  I84  1  0.82351400  0.50000000  0.50261700  1
  I  I85  1  0.50000000  0.67648600  0.25261700  1
  I  I86  1  0.50000000  0.32351400  0.25261700  1
  I  I87  1  0.17648600  0.50000000  0.50261700  1
  I  I88  1  0.50000000  0.17648600  0.49738300  1
  I  I89  1  0.50000000  0.82351400  0.49738300  1
  I  I90  1  0.32351400  0.50000000  0.74738300  1
  I  I91  1  0.67648600  0.50000000  0.74738300  1
  I  I92  1  0.82736450  0.50000000  0.99449250  1
  I  I93  1  0.50000000  0.67263550  0.74449250  1
  I  I94  1  0.50000000  0.32736450  0.74449250  1
  I  I95  1  0.17263550  0.50000000  0.99449250  1
  I  I96  1  0.50000000  0.17263550  0.00550750  1
  I  I97  1  0.50000000  0.82736450  0.00550750  1
  I  I98  1  0.32736450  0.50000000  0.25550750  1
  I  I99  1  0.67263550  0.50000000  0.25550750  1
