# generated using pymatgen
data_MnCoSb
_symmetry_space_group_name_H-M   'P 1'
_cell_length_a   11.56979400
_cell_length_b   11.56979400
_cell_length_c   11.56979400
_cell_angle_alpha   90.00000000
_cell_angle_beta   90.00000000
_cell_angle_gamma   90.00000000
_symmetry_Int_Tables_number   1
_chemical_formula_structural   MnCoSb
_chemical_formula_sum   'Mn32 Co32 Sb32'
_cell_volume   1548.73416596
_cell_formula_units_Z   32
loop_
 _symmetry_equiv_pos_site_id
 _symmetry_equiv_pos_as_xyz
  1  'x, y, z'
loop_
 _atom_site_type_symbol
 _atom_site_label
 _atom_site_symmetry_multiplicity
 _atom_site_fract_x
 _atom_site_fract_y
 _atom_site_fract_z
 _atom_site_occupancy
  Mn  Mn0  1  0.25000000  0.75000000  0.00000000  1
  Mn  Mn1  1  0.00000000  0.00000000  0.00000000  1
  Mn  Mn2  1  0.25000000  0.00000000  0.75000000  1
  Mn  Mn3  1  0.50000000  0.00000000  0.00000000  1
  Mn  Mn4  1  0.75000000  0.00000000  0.75000000  1
  Mn  Mn5  1  0.25000000  0.25000000  0.00000000  1
  Mn  Mn6  1  0.00000000  0.25000000  0.75000000  1
  Mn  Mn7  1  0.00000000  0.75000000  0.75000000  1
  Mn  Mn8  1  0.25000000  0.25000000  0.50000000  1
  Mn  Mn9  1  0.00000000  0.50000000  0.50000000  1
  Mn  Mn10  1  0.25000000  0.50000000  0.25000000  1
  Mn  Mn11  1  0.50000000  0.50000000  0.50000000  1
  Mn  Mn12  1  0.75000000  0.50000000  0.25000000  1
  Mn  Mn13  1  0.25000000  0.75000000  0.50000000  1
  Mn  Mn14  1  0.00000000  0.75000000  0.25000000  1
  Mn  Mn15  1  0.00000000  0.25000000  0.25000000  1
  Mn  Mn16  1  0.75000000  0.75000000  0.50000000  1
  Mn  Mn17  1  0.50000000  0.00000000  0.50000000  1
  Mn  Mn18  1  0.75000000  0.00000000  0.25000000  1
  Mn  Mn19  1  0.00000000  0.00000000  0.50000000  1
  Mn  Mn20  1  0.25000000  0.00000000  0.25000000  1
  Mn  Mn21  1  0.75000000  0.25000000  0.50000000  1
  Mn  Mn22  1  0.50000000  0.25000000  0.25000000  1
  Mn  Mn23  1  0.50000000  0.75000000  0.25000000  1
  Mn  Mn24  1  0.75000000  0.25000000  0.00000000  1
  Mn  Mn25  1  0.50000000  0.50000000  0.00000000  1
  Mn  Mn26  1  0.75000000  0.50000000  0.75000000  1
  Mn  Mn27  1  0.00000000  0.50000000  0.00000000  1
  Mn  Mn28  1  0.25000000  0.50000000  0.75000000  1
  Mn  Mn29  1  0.75000000  0.75000000  0.00000000  1
  Mn  Mn30  1  0.50000000  0.75000000  0.75000000  1
  Mn  Mn31  1  0.50000000  0.25000000  0.75000000  1
  Co  Co32  1  0.12079100  0.62079100  0.62079100  1
  Co  Co33  1  0.12079100  0.87920900  0.87920900  1
  Co  Co34  1  0.37920900  0.87920900  0.62079100  1
  Co  Co35  1  0.12079100  0.37920900  0.62079100  1
  Co  Co36  1  0.37920900  0.62079100  0.87920900  1
  Co  Co37  1  0.37920900  0.12079100  0.62079100  1
  Co  Co38  1  0.12079100  0.12079100  0.87920900  1
  Co  Co39  1  0.37920900  0.37920900  0.87920900  1
  Co  Co40  1  0.12079100  0.12079100  0.12079100  1
  Co  Co41  1  0.12079100  0.37920900  0.37920900  1
  Co  Co42  1  0.37920900  0.37920900  0.12079100  1
  Co  Co43  1  0.12079100  0.87920900  0.12079100  1
  Co  Co44  1  0.37920900  0.12079100  0.37920900  1
  Co  Co45  1  0.37920900  0.62079100  0.12079100  1
  Co  Co46  1  0.12079100  0.62079100  0.37920900  1
  Co  Co47  1  0.37920900  0.87920900  0.37920900  1
  Co  Co48  1  0.62079100  0.62079100  0.12079100  1
  Co  Co49  1  0.62079100  0.87920900  0.37920900  1
  Co  Co50  1  0.87920900  0.87920900  0.12079100  1
  Co  Co51  1  0.62079100  0.37920900  0.12079100  1
  Co  Co52  1  0.87920900  0.62079100  0.37920900  1
  Co  Co53  1  0.87920900  0.12079100  0.12079100  1
  Co  Co54  1  0.62079100  0.12079100  0.37920900  1
  Co  Co55  1  0.87920900  0.37920900  0.37920900  1
  Co  Co56  1  0.62079100  0.12079100  0.62079100  1
  Co  Co57  1  0.62079100  0.37920900  0.87920900  1
  Co  Co58  1  0.87920900  0.37920900  0.62079100  1
  Co  Co59  1  0.62079100  0.87920900  0.62079100  1
  Co  Co60  1  0.87920900  0.12079100  0.87920900  1
  Co  Co61  1  0.87920900  0.62079100  0.62079100  1
  Co  Co62  1  0.62079100  0.62079100  0.87920900  1
  Co  Co63  1  0.87920900  0.87920900  0.87920900  1
  Sb  Sb64  1  0.25000000  0.75000000  0.75000000  1
  Sb  Sb65  1  0.50000000  0.76800500  0.00000000  1
  Sb  Sb66  1  0.50000000  0.00000000  0.76800500  1
  Sb  Sb67  1  0.26800500  0.00000000  0.00000000  1
  Sb  Sb68  1  0.73199500  0.00000000  0.00000000  1
  Sb  Sb69  1  0.00000000  0.00000000  0.73199500  1
  Sb  Sb70  1  0.50000000  0.23199500  0.00000000  1
  Sb  Sb71  1  0.25000000  0.25000000  0.75000000  1
  Sb  Sb72  1  0.25000000  0.25000000  0.25000000  1
  Sb  Sb73  1  0.50000000  0.26800500  0.50000000  1
  Sb  Sb74  1  0.50000000  0.50000000  0.26800500  1
  Sb  Sb75  1  0.26800500  0.50000000  0.50000000  1
  Sb  Sb76  1  0.73199500  0.50000000  0.50000000  1
  Sb  Sb77  1  0.00000000  0.50000000  0.23199500  1
  Sb  Sb78  1  0.50000000  0.73199500  0.50000000  1
  Sb  Sb79  1  0.25000000  0.75000000  0.25000000  1
  Sb  Sb80  1  0.75000000  0.75000000  0.25000000  1
  Sb  Sb81  1  0.00000000  0.76800500  0.50000000  1
  Sb  Sb82  1  0.00000000  0.00000000  0.26800500  1
  Sb  Sb83  1  0.76800500  0.00000000  0.50000000  1
  Sb  Sb84  1  0.23199500  0.00000000  0.50000000  1
  Sb  Sb85  1  0.50000000  0.00000000  0.23199500  1
  Sb  Sb86  1  0.00000000  0.23199500  0.50000000  1
  Sb  Sb87  1  0.75000000  0.25000000  0.25000000  1
  Sb  Sb88  1  0.75000000  0.25000000  0.75000000  1
  Sb  Sb89  1  0.00000000  0.26800500  0.00000000  1
  Sb  Sb90  1  0.00000000  0.50000000  0.76800500  1
  Sb  Sb91  1  0.76800500  0.50000000  0.00000000  1
  Sb  Sb92  1  0.23199500  0.50000000  0.00000000  1
  Sb  Sb93  1  0.50000000  0.50000000  0.73199500  1
  Sb  Sb94  1  0.00000000  0.73199500  0.00000000  1
  Sb  Sb95  1  0.75000000  0.75000000  0.75000000  1
