# generated using pymatgen
data_Na2RuO3
_symmetry_space_group_name_H-M   'P 1'
_cell_length_a   5.49646200
_cell_length_b   9.48844800
_cell_length_c   10.87913333
_cell_angle_alpha   90.00000000
_cell_angle_beta   99.85455199
_cell_angle_gamma   90.00000000
_symmetry_Int_Tables_number   1
_chemical_formula_structural   Na2RuO3
_chemical_formula_sum   'Na16 Ru8 O24'
_cell_volume   559.00684269
_cell_formula_units_Z   8
loop_
 _symmetry_equiv_pos_site_id
 _symmetry_equiv_pos_as_xyz
  1  'x, y, z'
loop_
 _atom_site_type_symbol
 _atom_site_label
 _atom_site_symmetry_multiplicity
 _atom_site_fract_x
 _atom_site_fract_y
 _atom_site_fract_z
 _atom_site_occupancy
  Na  Na0  1  0.50000000  0.58690700  0.75000000  1
  Na  Na1  1  0.76178750  0.91841350  0.49798700  1
  Na  Na2  1  0.76178750  0.08158650  0.99798700  1
  Na  Na3  1  0.23821250  0.91841350  0.00201300  1
  Na  Na4  1  0.75000000  0.75000000  0.00000000  1
  Na  Na5  1  0.23821250  0.08158650  0.50201300  1
  Na  Na6  1  0.50000000  0.41309300  0.25000000  1
  Na  Na7  1  0.75000000  0.25000000  0.50000000  1
  Na  Na8  1  0.00000000  0.08690700  0.75000000  1
  Na  Na9  1  0.26178750  0.41841350  0.49798700  1
  Na  Na10  1  0.26178750  0.58158650  0.99798700  1
  Na  Na11  1  0.73821250  0.41841350  0.00201300  1
  Na  Na12  1  0.25000000  0.25000000  0.00000000  1
  Na  Na13  1  0.73821250  0.58158650  0.50201300  1
  Na  Na14  1  0.00000000  0.91309300  0.25000000  1
  Na  Na15  1  0.25000000  0.75000000  0.50000000  1
  Ru  Ru16  1  0.50000000  0.08021000  0.25000000  1
  Ru  Ru17  1  0.50000000  0.25379300  0.75000000  1
  Ru  Ru18  1  0.50000000  0.91979000  0.75000000  1
  Ru  Ru19  1  0.50000000  0.74620700  0.25000000  1
  Ru  Ru20  1  0.00000000  0.58021000  0.25000000  1
  Ru  Ru21  1  0.00000000  0.75379300  0.75000000  1
  Ru  Ru22  1  0.00000000  0.41979000  0.75000000  1
  Ru  Ru23  1  0.00000000  0.24620700  0.25000000  1
  O  O24  1  0.35334000  0.77285200  0.85295000  1
  O  O25  1  0.40367800  0.91285600  0.35033000  1
  O  O26  1  0.59632200  0.08714400  0.64967000  1
  O  O27  1  0.14587900  0.90144000  0.64565700  1
  O  O28  1  0.59632200  0.91285600  0.14967000  1
  O  O29  1  0.64666000  0.22714800  0.14705000  1
  O  O30  1  0.85412100  0.90144000  0.85434300  1
  O  O31  1  0.35334000  0.22714800  0.35295000  1
  O  O32  1  0.64666000  0.77285200  0.64705000  1
  O  O33  1  0.85412100  0.09856000  0.35434300  1
  O  O34  1  0.40367800  0.08714400  0.85033000  1
  O  O35  1  0.14587900  0.09856000  0.14565700  1
  O  O36  1  0.85334000  0.27285200  0.85295000  1
  O  O37  1  0.90367800  0.41285600  0.35033000  1
  O  O38  1  0.09632200  0.58714400  0.64967000  1
  O  O39  1  0.64587900  0.40144000  0.64565700  1
  O  O40  1  0.09632200  0.41285600  0.14967000  1
  O  O41  1  0.14666000  0.72714800  0.14705000  1
  O  O42  1  0.35412100  0.40144000  0.85434300  1
  O  O43  1  0.85334000  0.72714800  0.35295000  1
  O  O44  1  0.14666000  0.27285200  0.64705000  1
  O  O45  1  0.35412100  0.59856000  0.35434300  1
  O  O46  1  0.90367800  0.58714400  0.85033000  1
  O  O47  1  0.64587900  0.59856000  0.14565700  1
