# generated using pymatgen
data_Cu3Te2(BrO3)2
_symmetry_space_group_name_H-M   'P 1'
_cell_length_a   9.57441600
_cell_length_b   6.31271200
_cell_length_c   8.36721977
_cell_angle_alpha   90.00000000
_cell_angle_beta   104.63422490
_cell_angle_gamma   90.00000000
_symmetry_Int_Tables_number   1
_chemical_formula_structural   Cu3Te2(BrO3)2
_chemical_formula_sum   'Cu6 Te4 Br4 O12'
_cell_volume   489.31287760
_cell_formula_units_Z   2
loop_
 _symmetry_equiv_pos_site_id
 _symmetry_equiv_pos_as_xyz
  1  'x, y, z'
loop_
 _atom_site_type_symbol
 _atom_site_label
 _atom_site_symmetry_multiplicity
 _atom_site_fract_x
 _atom_site_fract_y
 _atom_site_fract_z
 _atom_site_occupancy
  Cu  Cu0  1  0.91007800  0.00000000  0.63278600  1
  Cu  Cu1  1  0.50000000  0.00000000  0.50000000  1
  Cu  Cu2  1  0.08992200  0.00000000  0.36721400  1
  Cu  Cu3  1  0.41007800  0.50000000  0.63278600  1
  Cu  Cu4  1  0.00000000  0.50000000  0.50000000  1
  Cu  Cu5  1  0.58992200  0.50000000  0.36721400  1
  Te  Te6  1  0.67293900  0.00000000  0.24392500  1
  Te  Te7  1  0.32706100  0.00000000  0.75607500  1
  Te  Te8  1  0.17293900  0.50000000  0.24392500  1
  Te  Te9  1  0.82706100  0.50000000  0.75607500  1
  Br  Br10  1  0.79469300  0.00000000  0.86089000  1
  Br  Br11  1  0.20530700  0.00000000  0.13911000  1
  Br  Br12  1  0.29469300  0.50000000  0.86089000  1
  Br  Br13  1  0.70530700  0.50000000  0.13911000  1
  O  O14  1  0.13851000  0.00000000  0.62303100  1
  O  O15  1  0.58218100  0.80584200  0.36953700  1
  O  O16  1  0.41781900  0.19415800  0.63046300  1
  O  O17  1  0.58218100  0.19415800  0.36953700  1
  O  O18  1  0.41781900  0.80584200  0.63046300  1
  O  O19  1  0.86149000  0.00000000  0.37696900  1
  O  O20  1  0.63851000  0.50000000  0.62303100  1
  O  O21  1  0.08218100  0.30584200  0.36953700  1
  O  O22  1  0.91781900  0.69415800  0.63046300  1
  O  O23  1  0.08218100  0.69415800  0.36953700  1
  O  O24  1  0.91781900  0.30584200  0.63046300  1
  O  O25  1  0.36149000  0.50000000  0.37696900  1
