# generated using pymatgen
data_BaEu2Mn2O7
_symmetry_space_group_name_H-M   'P 1'
_cell_length_a   5.65730200
_cell_length_b   20.07995800
_cell_length_c   5.59831800
_cell_angle_alpha   90.00000000
_cell_angle_beta   90.00000000
_cell_angle_gamma   90.00000000
_symmetry_Int_Tables_number   1
_chemical_formula_structural   BaEu2Mn2O7
_chemical_formula_sum   'Ba4 Eu8 Mn8 O28'
_cell_volume   635.95989221
_cell_formula_units_Z   4
loop_
 _symmetry_equiv_pos_site_id
 _symmetry_equiv_pos_as_xyz
  1  'x, y, z'
loop_
 _atom_site_type_symbol
 _atom_site_label
 _atom_site_symmetry_multiplicity
 _atom_site_fract_x
 _atom_site_fract_y
 _atom_site_fract_z
 _atom_site_occupancy
  Ba  Ba0  1  0.25241700  0.00000000  0.75000000  1
  Ba  Ba1  1  0.74758300  0.00000000  0.25000000  1
  Ba  Ba2  1  0.75241700  0.50000000  0.75000000  1
  Ba  Ba3  1  0.24758300  0.50000000  0.25000000  1
  Eu  Eu4  1  0.23482250  0.31733950  0.25000000  1
  Eu  Eu5  1  0.73482250  0.18266050  0.25000000  1
  Eu  Eu6  1  0.76517750  0.31733950  0.75000000  1
  Eu  Eu7  1  0.26517750  0.18266050  0.75000000  1
  Eu  Eu8  1  0.73482250  0.81733950  0.25000000  1
  Eu  Eu9  1  0.23482250  0.68266050  0.25000000  1
  Eu  Eu10  1  0.26517750  0.81733950  0.75000000  1
  Eu  Eu11  1  0.76517750  0.68266050  0.75000000  1
  Mn  Mn12  1  0.24856250  0.09972550  0.25000000  1
  Mn  Mn13  1  0.25143750  0.40027450  0.75000000  1
  Mn  Mn14  1  0.75143750  0.09972550  0.75000000  1
  Mn  Mn15  1  0.74856250  0.40027450  0.25000000  1
  Mn  Mn16  1  0.74856250  0.59972550  0.25000000  1
  Mn  Mn17  1  0.75143750  0.90027450  0.75000000  1
  Mn  Mn18  1  0.25143750  0.59972550  0.75000000  1
  Mn  Mn19  1  0.24856250  0.90027450  0.25000000  1
  O  O20  1  0.50000000  0.10104900  0.00000000  1
  O  O21  1  0.00000000  0.39895100  0.50000000  1
  O  O22  1  0.78491100  0.29864800  0.25000000  1
  O  O23  1  0.71508900  0.20135200  0.75000000  1
  O  O24  1  0.50000000  0.38912400  0.50000000  1
  O  O25  1  0.00000000  0.11087600  0.00000000  1
  O  O26  1  0.23237900  0.00000000  0.25000000  1
  O  O27  1  0.50000000  0.10104900  0.50000000  1
  O  O28  1  0.21508900  0.29864800  0.75000000  1
  O  O29  1  0.00000000  0.11087600  0.50000000  1
  O  O30  1  0.00000000  0.39895100  0.00000000  1
  O  O31  1  0.50000000  0.38912400  0.00000000  1
  O  O32  1  0.28491100  0.20135200  0.25000000  1
  O  O33  1  0.76762100  0.00000000  0.75000000  1
  O  O34  1  0.00000000  0.60104900  0.00000000  1
  O  O35  1  0.50000000  0.89895100  0.50000000  1
  O  O36  1  0.28491100  0.79864800  0.25000000  1
  O  O37  1  0.21508900  0.70135200  0.75000000  1
  O  O38  1  0.00000000  0.88912400  0.50000000  1
  O  O39  1  0.50000000  0.61087600  0.00000000  1
  O  O40  1  0.73237900  0.50000000  0.25000000  1
  O  O41  1  0.00000000  0.60104900  0.50000000  1
  O  O42  1  0.71508900  0.79864800  0.75000000  1
  O  O43  1  0.50000000  0.61087600  0.50000000  1
  O  O44  1  0.50000000  0.89895100  0.00000000  1
  O  O45  1  0.00000000  0.88912400  0.00000000  1
  O  O46  1  0.78491100  0.70135200  0.25000000  1
  O  O47  1  0.26762100  0.50000000  0.75000000  1
