# generated using pymatgen
data_YMg4Cu
_symmetry_space_group_name_H-M   'P 1'
_cell_length_a   13.24352600
_cell_length_b   19.93973400
_cell_length_c   4.04653400
_cell_angle_alpha   90.00000000
_cell_angle_beta   90.00000000
_cell_angle_gamma   90.00000000
_symmetry_Int_Tables_number   1
_chemical_formula_structural   YMg4Cu
_chemical_formula_sum   'Y8 Mg32 Cu8'
_cell_volume   1068.57788704
_cell_formula_units_Z   8
loop_
 _symmetry_equiv_pos_site_id
 _symmetry_equiv_pos_as_xyz
  1  'x, y, z'
loop_
 _atom_site_type_symbol
 _atom_site_label
 _atom_site_symmetry_multiplicity
 _atom_site_fract_x
 _atom_site_fract_y
 _atom_site_fract_z
 _atom_site_occupancy
  Y  Y0  1  0.69863600  0.00000000  0.00000000  1
  Y  Y1  1  0.30136400  0.00000000  0.00000000  1
  Y  Y2  1  0.50000000  0.86735100  0.00000000  1
  Y  Y3  1  0.50000000  0.13264900  0.00000000  1
  Y  Y4  1  0.19863600  0.50000000  0.00000000  1
  Y  Y5  1  0.80136400  0.50000000  0.00000000  1
  Y  Y6  1  0.00000000  0.36735100  0.00000000  1
  Y  Y7  1  0.00000000  0.63264900  0.00000000  1
  Mg  Mg8  1  0.50000000  0.66470100  0.00000000  1
  Mg  Mg9  1  0.24507700  0.83187800  0.00000000  1
  Mg  Mg10  1  0.13045900  0.91969800  0.50000000  1
  Mg  Mg11  1  0.62000250  0.24486050  0.50000000  1
  Mg  Mg12  1  0.13045900  0.08030200  0.50000000  1
  Mg  Mg13  1  0.75492300  0.16812200  0.00000000  1
  Mg  Mg14  1  0.86954100  0.91969800  0.50000000  1
  Mg  Mg15  1  0.50000000  0.33529900  0.00000000  1
  Mg  Mg16  1  0.37999750  0.75513950  0.50000000  1
  Mg  Mg17  1  0.37999750  0.24486050  0.50000000  1
  Mg  Mg18  1  0.24507700  0.16812200  0.00000000  1
  Mg  Mg19  1  0.62000250  0.75513950  0.50000000  1
  Mg  Mg20  1  0.86954100  0.08030200  0.50000000  1
  Mg  Mg21  1  0.75492300  0.83187800  0.00000000  1
  Mg  Mg22  1  0.00000000  0.00000000  0.00000000  1
  Mg  Mg23  1  0.50000000  0.00000000  0.50000000  1
  Mg  Mg24  1  0.00000000  0.16470100  0.00000000  1
  Mg  Mg25  1  0.74507700  0.33187800  0.00000000  1
  Mg  Mg26  1  0.63045900  0.41969800  0.50000000  1
  Mg  Mg27  1  0.12000250  0.74486050  0.50000000  1
  Mg  Mg28  1  0.63045900  0.58030200  0.50000000  1
  Mg  Mg29  1  0.25492300  0.66812200  0.00000000  1
  Mg  Mg30  1  0.36954100  0.41969800  0.50000000  1
  Mg  Mg31  1  0.00000000  0.83529900  0.00000000  1
  Mg  Mg32  1  0.87999750  0.25513950  0.50000000  1
  Mg  Mg33  1  0.87999750  0.74486050  0.50000000  1
  Mg  Mg34  1  0.74507700  0.66812200  0.00000000  1
  Mg  Mg35  1  0.12000250  0.25513950  0.50000000  1
  Mg  Mg36  1  0.36954100  0.58030200  0.50000000  1
  Mg  Mg37  1  0.25492300  0.33187800  0.00000000  1
  Mg  Mg38  1  0.50000000  0.50000000  0.00000000  1
  Mg  Mg39  1  0.00000000  0.50000000  0.50000000  1
  Cu  Cu40  1  0.65934500  0.89458800  0.50000000  1
  Cu  Cu41  1  0.65934500  0.10541200  0.50000000  1
  Cu  Cu42  1  0.34065500  0.89458800  0.50000000  1
  Cu  Cu43  1  0.34065500  0.10541200  0.50000000  1
  Cu  Cu44  1  0.15934500  0.39458800  0.50000000  1
  Cu  Cu45  1  0.15934500  0.60541200  0.50000000  1
  Cu  Cu46  1  0.84065500  0.39458800  0.50000000  1
  Cu  Cu47  1  0.84065500  0.60541200  0.50000000  1
