# generated using pymatgen
data_LiMn2P3O11
_symmetry_space_group_name_H-M   'P 1'
_cell_length_a   11.83943800
_cell_length_b   8.58353800
_cell_length_c   8.61072514
_cell_angle_alpha   90.00000000
_cell_angle_beta   112.38471238
_cell_angle_gamma   90.00000000
_symmetry_Int_Tables_number   1
_chemical_formula_structural   LiMn2P3O11
_chemical_formula_sum   'Li4 Mn8 P12 O44'
_cell_volume   809.12092212
_cell_formula_units_Z   4
loop_
 _symmetry_equiv_pos_site_id
 _symmetry_equiv_pos_as_xyz
  1  'x, y, z'
loop_
 _atom_site_type_symbol
 _atom_site_label
 _atom_site_symmetry_multiplicity
 _atom_site_fract_x
 _atom_site_fract_y
 _atom_site_fract_z
 _atom_site_occupancy
  Li  Li0  1  0.74870700  0.73437200  0.26152400  1
  Li  Li1  1  0.25129300  0.73437200  0.73847600  1
  Li  Li2  1  0.24870700  0.23437200  0.26152400  1
  Li  Li3  1  0.75129300  0.23437200  0.73847600  1
  Mn  Mn4  1  0.87936900  0.75776900  0.70675300  1
  Mn  Mn5  1  0.12160350  0.24186150  0.79422400  1
  Mn  Mn6  1  0.12063100  0.75776900  0.29324700  1
  Mn  Mn7  1  0.87839650  0.24186150  0.20577600  1
  Mn  Mn8  1  0.37936900  0.25776900  0.70675300  1
  Mn  Mn9  1  0.62160350  0.74186150  0.79422400  1
  Mn  Mn10  1  0.62063100  0.25776900  0.29324700  1
  Mn  Mn11  1  0.37839650  0.74186150  0.20577600  1
  P  P12  1  0.88740000  0.56172700  0.03288800  1
  P  P13  1  0.88659300  0.43712900  0.53210200  1
  P  P14  1  0.11340700  0.43712900  0.46789800  1
  P  P15  1  0.11260000  0.56172700  0.96711200  1
  P  P16  1  0.00000000  0.96342200  0.50000000  1
  P  P17  1  0.00000000  0.03724700  0.00000000  1
  P  P18  1  0.38740000  0.06172700  0.03288800  1
  P  P19  1  0.38659300  0.93712900  0.53210200  1
  P  P20  1  0.61340700  0.93712900  0.46789800  1
  P  P21  1  0.61260000  0.06172700  0.96711200  1
  P  P22  1  0.50000000  0.46342200  0.50000000  1
  P  P23  1  0.50000000  0.53724700  0.00000000  1
  O  O24  1  0.56850500  0.44393200  0.15913000  1
  O  O25  1  0.06696550  0.66824750  0.81505100  1
  O  O26  1  0.81381050  0.42150650  0.05188500  1
  O  O27  1  0.93050850  0.33119850  0.68420400  1
  O  O28  1  0.18682700  0.58000100  0.45322600  1
  O  O29  1  0.93303450  0.66824750  0.18494900  1
  O  O30  1  0.81619550  0.65210050  0.86822500  1
  O  O31  1  0.43149500  0.44393200  0.84087000  1
  O  O32  1  0.10167850  0.85489950  0.48316700  1
  O  O33  1  0.89832150  0.85489950  0.51683300  1
  O  O34  1  0.18460400  0.34697400  0.63242800  1
  O  O35  1  0.06949150  0.33119850  0.31579600  1
  O  O36  1  0.43222150  0.55725450  0.34132200  1
  O  O37  1  0.00000000  0.51233500  0.50000000  1
  O  O38  1  0.18380450  0.65210050  0.13177500  1
  O  O39  1  0.18618950  0.42150650  0.94811500  1
  O  O40  1  0.00000000  0.48516200  0.00000000  1
  O  O41  1  0.89811850  0.14545950  0.01617200  1
  O  O42  1  0.81317300  0.58000100  0.54677400  1
  O  O43  1  0.10188150  0.14545950  0.98382800  1
  O  O44  1  0.56777850  0.55725450  0.65867800  1
  O  O45  1  0.81539600  0.34697400  0.36757200  1
  O  O46  1  0.06850500  0.94393200  0.15913000  1
  O  O47  1  0.56696550  0.16824750  0.81505100  1
  O  O48  1  0.31381050  0.92150650  0.05188500  1
  O  O49  1  0.43050850  0.83119850  0.68420400  1
  O  O50  1  0.68682700  0.08000100  0.45322600  1
  O  O51  1  0.43303450  0.16824750  0.18494900  1
  O  O52  1  0.31619550  0.15210050  0.86822500  1
  O  O53  1  0.93149500  0.94393200  0.84087000  1
  O  O54  1  0.60167850  0.35489950  0.48316700  1
  O  O55  1  0.39832150  0.35489950  0.51683300  1
  O  O56  1  0.68460400  0.84697400  0.63242800  1
  O  O57  1  0.56949150  0.83119850  0.31579600  1
  O  O58  1  0.93222150  0.05725450  0.34132200  1
  O  O59  1  0.50000000  0.01233500  0.50000000  1
  O  O60  1  0.68380450  0.15210050  0.13177500  1
  O  O61  1  0.68618950  0.92150650  0.94811500  1
  O  O62  1  0.50000000  0.98516200  0.00000000  1
  O  O63  1  0.39811850  0.64545950  0.01617200  1
  O  O64  1  0.31317300  0.08000100  0.54677400  1
  O  O65  1  0.60188150  0.64545950  0.98382800  1
  O  O66  1  0.06777850  0.05725450  0.65867800  1
  O  O67  1  0.31539600  0.84697400  0.36757200  1
