# generated using pymatgen
data_MnVH4O2F5
_symmetry_space_group_name_H-M   'P 1'
_cell_length_a   6.63685184
_cell_length_b   7.78184260
_cell_length_c   11.12472670
_cell_angle_alpha   90.00000000
_cell_angle_beta   90.00000000
_cell_angle_gamma   90.00000000
_symmetry_Int_Tables_number   1
_chemical_formula_structural   MnVH4O2F5
_chemical_formula_sum   'Mn4 V4 H16 O8 F20'
_cell_volume   574.55805234
_cell_formula_units_Z   4
loop_
 _symmetry_equiv_pos_site_id
 _symmetry_equiv_pos_as_xyz
  1  'x, y, z'
loop_
 _atom_site_type_symbol
 _atom_site_label
 _atom_site_symmetry_multiplicity
 _atom_site_fract_x
 _atom_site_fract_y
 _atom_site_fract_z
 _atom_site_occupancy
  Mn  Mn0  1  0.50000000  0.00000000  0.00000000  1
  Mn  Mn1  1  0.00000000  0.50000000  0.00000000  1
  Mn  Mn2  1  0.00000000  0.50000000  0.50000000  1
  Mn  Mn3  1  0.50000000  0.00000000  0.50000000  1
  V  V4  1  0.25000000  0.25000000  0.25000000  1
  V  V5  1  0.75000000  0.25000000  0.75000000  1
  V  V6  1  0.75000000  0.75000000  0.75000000  1
  V  V7  1  0.25000000  0.75000000  0.25000000  1
  H  H8  1  0.88389200  0.10116150  0.09204800  1
  H  H9  1  0.38389200  0.39883850  0.90795200  1
  H  H10  1  0.11610800  0.10116150  0.90795200  1
  H  H11  1  0.61610800  0.39883850  0.09204800  1
  H  H12  1  0.11610800  0.89883850  0.90795200  1
  H  H13  1  0.61610800  0.60116150  0.09204800  1
  H  H14  1  0.88389200  0.89883850  0.09204800  1
  H  H15  1  0.38389200  0.60116150  0.90795200  1
  H  H16  1  0.38389200  0.60116150  0.59204800  1
  H  H17  1  0.88389200  0.89883850  0.40795200  1
  H  H18  1  0.61610800  0.60116150  0.40795200  1
  H  H19  1  0.11610800  0.89883850  0.59204800  1
  H  H20  1  0.61610800  0.39883850  0.40795200  1
  H  H21  1  0.11610800  0.10116150  0.59204800  1
  H  H22  1  0.38389200  0.39883850  0.59204800  1
  H  H23  1  0.88389200  0.10116150  0.40795200  1
  O  O24  1  0.30297050  0.50000000  0.57056550  1
  O  O25  1  0.30297050  0.50000000  0.92943450  1
  O  O26  1  0.69702950  0.50000000  0.42943450  1
  O  O27  1  0.69702950  0.50000000  0.07056550  1
  O  O28  1  0.80297050  0.00000000  0.07056550  1
  O  O29  1  0.80297050  0.00000000  0.42943450  1
  O  O30  1  0.19702950  0.00000000  0.92943450  1
  O  O31  1  0.19702950  0.00000000  0.57056550  1
  F  F32  1  0.67854600  0.50000000  0.75000000  1
  F  F33  1  0.32145400  0.50000000  0.25000000  1
  F  F34  1  0.45282400  0.78737650  0.12456200  1
  F  F35  1  0.95282400  0.71262350  0.87543800  1
  F  F36  1  0.54717600  0.78737650  0.87543800  1
  F  F37  1  0.04717600  0.71262350  0.12456200  1
  F  F38  1  0.54717600  0.21262350  0.87543800  1
  F  F39  1  0.04717600  0.28737650  0.12456200  1
  F  F40  1  0.45282400  0.21262350  0.12456200  1
  F  F41  1  0.95282400  0.28737650  0.87543800  1
  F  F42  1  0.17854600  0.00000000  0.25000000  1
  F  F43  1  0.82145400  0.00000000  0.75000000  1
  F  F44  1  0.95282400  0.28737650  0.62456200  1
  F  F45  1  0.45282400  0.21262350  0.37543800  1
  F  F46  1  0.04717600  0.28737650  0.37543800  1
  F  F47  1  0.54717600  0.21262350  0.62456200  1
  F  F48  1  0.04717600  0.71262350  0.37543800  1
  F  F49  1  0.54717600  0.78737650  0.62456200  1
  F  F50  1  0.95282400  0.71262350  0.62456200  1
  F  F51  1  0.45282400  0.78737650  0.37543800  1
