# generated using pymatgen
data_CuGeO3
_symmetry_space_group_name_H-M   'P 1'
_cell_length_a   9.93576800
_cell_length_b   11.92274000
_cell_length_c   8.76871000
_cell_angle_alpha   90.00000000
_cell_angle_beta   90.00000000
_cell_angle_gamma   90.00000000
_symmetry_Int_Tables_number   1
_chemical_formula_structural   CuGeO3
_chemical_formula_sum   'Cu16 Ge16 O48'
_cell_volume   1038.75522857
_cell_formula_units_Z   16
loop_
 _symmetry_equiv_pos_site_id
 _symmetry_equiv_pos_as_xyz
  1  'x, y, z'
loop_
 _atom_site_type_symbol
 _atom_site_label
 _atom_site_symmetry_multiplicity
 _atom_site_fract_x
 _atom_site_fract_y
 _atom_site_fract_z
 _atom_site_occupancy
  Cu  Cu0  1  0.50000000  0.25268100  0.50000000  1
  Cu  Cu1  1  0.00000000  0.00000000  0.50000000  1
  Cu  Cu2  1  0.50000000  0.75268100  0.00000000  1
  Cu  Cu3  1  0.00000000  0.00000000  0.00000000  1
  Cu  Cu4  1  0.50000000  0.00000000  0.50000000  1
  Cu  Cu5  1  0.50000000  0.74731900  0.50000000  1
  Cu  Cu6  1  0.50000000  0.24731900  0.00000000  1
  Cu  Cu7  1  0.50000000  0.00000000  0.00000000  1
  Cu  Cu8  1  0.00000000  0.75268100  0.50000000  1
  Cu  Cu9  1  0.50000000  0.50000000  0.50000000  1
  Cu  Cu10  1  0.00000000  0.25268100  0.00000000  1
  Cu  Cu11  1  0.50000000  0.50000000  0.00000000  1
  Cu  Cu12  1  0.00000000  0.50000000  0.50000000  1
  Cu  Cu13  1  0.00000000  0.24731900  0.50000000  1
  Cu  Cu14  1  0.00000000  0.74731900  0.00000000  1
  Cu  Cu15  1  0.00000000  0.50000000  0.00000000  1
  Ge  Ge16  1  0.79708650  0.12511450  0.25039100  1
  Ge  Ge17  1  0.20291350  0.87488550  0.74960900  1
  Ge  Ge18  1  0.29708650  0.87488550  0.24960900  1
  Ge  Ge19  1  0.70291350  0.12511450  0.75039100  1
  Ge  Ge20  1  0.70291350  0.87488550  0.75039100  1
  Ge  Ge21  1  0.79708650  0.87488550  0.25039100  1
  Ge  Ge22  1  0.29708650  0.12511450  0.24960900  1
  Ge  Ge23  1  0.20291350  0.12511450  0.74960900  1
  Ge  Ge24  1  0.29708650  0.62511450  0.25039100  1
  Ge  Ge25  1  0.70291350  0.37488550  0.74960900  1
  Ge  Ge26  1  0.79708650  0.37488550  0.24960900  1
  Ge  Ge27  1  0.20291350  0.62511450  0.75039100  1
  Ge  Ge28  1  0.20291350  0.37488550  0.75039100  1
  Ge  Ge29  1  0.29708650  0.37488550  0.25039100  1
  Ge  Ge30  1  0.79708650  0.62511450  0.24960900  1
  Ge  Ge31  1  0.70291350  0.62511450  0.74960900  1
  O  O32  1  0.60761050  0.87573850  0.92137750  1
  O  O33  1  0.19602500  0.00000000  0.25151500  1
  O  O34  1  0.40196250  0.37404300  0.08710050  1
  O  O35  1  0.69549200  0.25000000  0.25000000  1
  O  O36  1  0.59803750  0.37404300  0.91289950  1
  O  O37  1  0.80397500  0.00000000  0.74848500  1
  O  O38  1  0.30397500  0.00000000  0.75151500  1
  O  O39  1  0.59803750  0.62595700  0.91289950  1
  O  O40  1  0.69602500  0.00000000  0.24848500  1
  O  O41  1  0.39238950  0.12426150  0.07862250  1
  O  O42  1  0.60761050  0.12426150  0.92137750  1
  O  O43  1  0.40196250  0.12595700  0.41289950  1
  O  O44  1  0.39238950  0.87573850  0.07862250  1
  O  O45  1  0.39238950  0.62426150  0.42137750  1
  O  O46  1  0.39238950  0.37573850  0.42137750  1
  O  O47  1  0.69549200  0.75000000  0.25000000  1
  O  O48  1  0.40196250  0.62595700  0.08710050  1
  O  O49  1  0.60761050  0.37573850  0.57862250  1
  O  O50  1  0.60761050  0.62426150  0.57862250  1
  O  O51  1  0.30450800  0.25000000  0.75000000  1
  O  O52  1  0.40196250  0.87404300  0.41289950  1
  O  O53  1  0.59803750  0.12595700  0.58710050  1
  O  O54  1  0.30450800  0.75000000  0.75000000  1
  O  O55  1  0.59803750  0.87404300  0.58710050  1
  O  O56  1  0.10761050  0.37573850  0.92137750  1
  O  O57  1  0.69602500  0.50000000  0.25151500  1
  O  O58  1  0.90196250  0.87404300  0.08710050  1
  O  O59  1  0.19549200  0.75000000  0.25000000  1
  O  O60  1  0.09803750  0.87404300  0.91289950  1
  O  O61  1  0.30397500  0.50000000  0.74848500  1
  O  O62  1  0.80397500  0.50000000  0.75151500  1
  O  O63  1  0.09803750  0.12595700  0.91289950  1
  O  O64  1  0.19602500  0.50000000  0.24848500  1
  O  O65  1  0.89238950  0.62426150  0.07862250  1
  O  O66  1  0.10761050  0.62426150  0.92137750  1
  O  O67  1  0.90196250  0.62595700  0.41289950  1
  O  O68  1  0.89238950  0.37573850  0.07862250  1
  O  O69  1  0.89238950  0.12426150  0.42137750  1
  O  O70  1  0.89238950  0.87573850  0.42137750  1
  O  O71  1  0.19549200  0.25000000  0.25000000  1
  O  O72  1  0.90196250  0.12595700  0.08710050  1
  O  O73  1  0.10761050  0.87573850  0.57862250  1
  O  O74  1  0.10761050  0.12426150  0.57862250  1
  O  O75  1  0.80450800  0.75000000  0.75000000  1
  O  O76  1  0.90196250  0.37404300  0.41289950  1
  O  O77  1  0.09803750  0.62595700  0.58710050  1
  O  O78  1  0.80450800  0.25000000  0.75000000  1
  O  O79  1  0.09803750  0.37404300  0.58710050  1
