# generated using pymatgen
data_Pr2Al19Co6
_symmetry_space_group_name_H-M   'P 1'
_cell_length_a   17.62754400
_cell_length_b   12.08777600
_cell_length_c   8.22714488
_cell_angle_alpha   90.00000000
_cell_angle_beta   103.95590257
_cell_angle_gamma   90.00000000
_symmetry_Int_Tables_number   1
_chemical_formula_structural   Pr2Al19Co6
_chemical_formula_sum   'Pr8 Al76 Co24'
_cell_volume   1701.27561336
_cell_formula_units_Z   4
loop_
 _symmetry_equiv_pos_site_id
 _symmetry_equiv_pos_as_xyz
  1  'x, y, z'
loop_
 _atom_site_type_symbol
 _atom_site_label
 _atom_site_symmetry_multiplicity
 _atom_site_fract_x
 _atom_site_fract_y
 _atom_site_fract_z
 _atom_site_occupancy
  Pr  Pr0  1  0.72077600  0.00000000  0.74251900  1
  Pr  Pr1  1  0.27922400  0.00000000  0.25748100  1
  Pr  Pr2  1  0.71998600  0.00000000  0.22837600  1
  Pr  Pr3  1  0.28001400  0.00000000  0.77162400  1
  Pr  Pr4  1  0.22077600  0.50000000  0.74251900  1
  Pr  Pr5  1  0.77922400  0.50000000  0.25748100  1
  Pr  Pr6  1  0.21998600  0.50000000  0.22837600  1
  Pr  Pr7  1  0.78001400  0.50000000  0.77162400  1
  Al  Al8  1  0.50000000  0.33053400  0.00000000  1
  Al  Al9  1  0.35336200  0.16810500  0.55205000  1
  Al  Al10  1  0.91839600  0.00000000  0.35244000  1
  Al  Al11  1  0.16285600  0.88711300  0.95280200  1
  Al  Al12  1  0.36285850  0.82505250  0.05620500  1
  Al  Al13  1  0.55220850  0.11712750  0.15463900  1
  Al  Al14  1  0.44622500  0.11617200  0.35131000  1
  Al  Al15  1  0.25172750  0.25059550  0.23839700  1
  Al  Al16  1  0.35336200  0.83189500  0.55205000  1
  Al  Al17  1  0.82042050  0.11661350  0.53489000  1
  Al  Al18  1  0.17957950  0.11661350  0.46511000  1
  Al  Al19  1  0.64663800  0.16810500  0.44795000  1
  Al  Al20  1  0.17957950  0.88338650  0.46511000  1
  Al  Al21  1  0.74827250  0.74940450  0.76160300  1
  Al  Al22  1  0.63714150  0.82505250  0.94379500  1
  Al  Al23  1  0.82042050  0.88338650  0.53489000  1
  Al  Al24  1  0.55377500  0.11617200  0.64869000  1
  Al  Al25  1  0.55220850  0.88287250  0.15463900  1
  Al  Al26  1  0.74827250  0.25059550  0.76160300  1
  Al  Al27  1  0.25172750  0.74940450  0.23839700  1
  Al  Al28  1  0.83714400  0.88711300  0.04719800  1
  Al  Al29  1  0.47409200  0.32564100  0.63613300  1
  Al  Al30  1  0.47409200  0.67435900  0.63613300  1
  Al  Al31  1  0.08649100  0.00000000  0.18236100  1
  Al  Al32  1  0.44779150  0.88287250  0.84536100  1
  Al  Al33  1  0.91350900  0.00000000  0.81763900  1
  Al  Al34  1  0.16285600  0.11288700  0.95280200  1
  Al  Al35  1  0.52590800  0.67435900  0.36386700  1
  Al  Al36  1  0.83714400  0.11288700  0.04719800  1
  Al  Al37  1  0.50000000  0.66946600  0.00000000  1
  Al  Al38  1  0.63714150  0.17494750  0.94379500  1
  Al  Al39  1  0.44779150  0.11712750  0.84536100  1
  Al  Al40  1  0.36285850  0.17494750  0.05620500  1
  Al  Al41  1  0.64663800  0.83189500  0.44795000  1
  Al  Al42  1  0.44622500  0.88382800  0.35131000  1
  Al  Al43  1  0.55377500  0.88382800  0.64869000  1
  Al  Al44  1  0.08160400  0.00000000  0.64756000  1
  Al  Al45  1  0.52590800  0.32564100  0.36386700  1
  Al  Al46  1  0.00000000  0.83053400  0.00000000  1
  Al  Al47  1  0.85336200  0.66810500  0.55205000  1
  Al  Al48  1  0.41839600  0.50000000  0.35244000  1
  Al  Al49  1  0.66285600  0.38711300  0.95280200  1
  Al  Al50  1  0.86285850  0.32505250  0.05620500  1
  Al  Al51  1  0.05220850  0.61712750  0.15463900  1
  Al  Al52  1  0.94622500  0.61617200  0.35131000  1
  Al  Al53  1  0.75172750  0.75059550  0.23839700  1
  Al  Al54  1  0.85336200  0.33189500  0.55205000  1
  Al  Al55  1  0.32042050  0.61661350  0.53489000  1
  Al  Al56  1  0.67957950  0.61661350  0.46511000  1
  Al  Al57  1  0.14663800  0.66810500  0.44795000  1
  Al  Al58  1  0.67957950  0.38338650  0.46511000  1
  Al  Al59  1  0.24827250  0.24940450  0.76160300  1
  Al  Al60  1  0.13714150  0.32505250  0.94379500  1
  Al  Al61  1  0.32042050  0.38338650  0.53489000  1
  Al  Al62  1  0.05377500  0.61617200  0.64869000  1
  Al  Al63  1  0.05220850  0.38287250  0.15463900  1
  Al  Al64  1  0.24827250  0.75059550  0.76160300  1
  Al  Al65  1  0.75172750  0.24940450  0.23839700  1
  Al  Al66  1  0.33714400  0.38711300  0.04719800  1
  Al  Al67  1  0.97409200  0.82564100  0.63613300  1
  Al  Al68  1  0.97409200  0.17435900  0.63613300  1
  Al  Al69  1  0.58649100  0.50000000  0.18236100  1
  Al  Al70  1  0.94779150  0.38287250  0.84536100  1
  Al  Al71  1  0.41350900  0.50000000  0.81763900  1
  Al  Al72  1  0.66285600  0.61288700  0.95280200  1
  Al  Al73  1  0.02590800  0.17435900  0.36386700  1
  Al  Al74  1  0.33714400  0.61288700  0.04719800  1
  Al  Al75  1  0.00000000  0.16946600  0.00000000  1
  Al  Al76  1  0.13714150  0.67494750  0.94379500  1
  Al  Al77  1  0.94779150  0.61712750  0.84536100  1
  Al  Al78  1  0.86285850  0.67494750  0.05620500  1
  Al  Al79  1  0.14663800  0.33189500  0.44795000  1
  Al  Al80  1  0.94622500  0.38382800  0.35131000  1
  Al  Al81  1  0.05377500  0.38382800  0.64869000  1
  Al  Al82  1  0.58160400  0.50000000  0.64756000  1
  Al  Al83  1  0.02590800  0.82564100  0.36386700  1
  Co  Co84  1  0.56134200  0.00000000  0.40537200  1
  Co  Co85  1  0.43846600  0.00000000  0.09412300  1
  Co  Co86  1  0.38019000  0.30073000  0.81093800  1
  Co  Co87  1  0.43865800  0.00000000  0.59462800  1
  Co  Co88  1  0.38394600  0.30150200  0.32723900  1
  Co  Co89  1  0.61981000  0.69927000  0.18906200  1
  Co  Co90  1  0.56153400  0.00000000  0.90587700  1
  Co  Co91  1  0.38019000  0.69927000  0.81093800  1
  Co  Co92  1  0.38394600  0.69849800  0.32723900  1
  Co  Co93  1  0.61605400  0.69849800  0.67276100  1
  Co  Co94  1  0.61981000  0.30073000  0.18906200  1
  Co  Co95  1  0.61605400  0.30150200  0.67276100  1
  Co  Co96  1  0.06134200  0.50000000  0.40537200  1
  Co  Co97  1  0.93846600  0.50000000  0.09412300  1
  Co  Co98  1  0.88019000  0.80073000  0.81093800  1
  Co  Co99  1  0.93865800  0.50000000  0.59462800  1
  Co  Co100  1  0.88394600  0.80150200  0.32723900  1
  Co  Co101  1  0.11981000  0.19927000  0.18906200  1
  Co  Co102  1  0.06153400  0.50000000  0.90587700  1
  Co  Co103  1  0.88019000  0.19927000  0.81093800  1
  Co  Co104  1  0.88394600  0.19849800  0.32723900  1
  Co  Co105  1  0.11605400  0.19849800  0.67276100  1
  Co  Co106  1  0.11981000  0.80073000  0.18906200  1
  Co  Co107  1  0.11605400  0.80150200  0.67276100  1
