# generated using pymatgen
data_La3(SiNi)4
_symmetry_space_group_name_H-M   'P 1'
_cell_length_a   4.11894400
_cell_length_b   4.17225400
_cell_length_c   23.59302800
_cell_angle_alpha   90.00000000
_cell_angle_beta   90.00000000
_cell_angle_gamma   90.00000000
_symmetry_Int_Tables_number   1
_chemical_formula_structural   La3(SiNi)4
_chemical_formula_sum   'La6 Si8 Ni8'
_cell_volume   405.45280591
_cell_formula_units_Z   2
loop_
 _symmetry_equiv_pos_site_id
 _symmetry_equiv_pos_as_xyz
  1  'x, y, z'
loop_
 _atom_site_type_symbol
 _atom_site_label
 _atom_site_symmetry_multiplicity
 _atom_site_fract_x
 _atom_site_fract_y
 _atom_site_fract_z
 _atom_site_occupancy
  La  La0  1  0.50000000  0.00000000  0.85001000  1
  La  La1  1  0.00000000  0.00000000  0.00000000  1
  La  La2  1  0.00000000  0.50000000  0.64999000  1
  La  La3  1  0.00000000  0.50000000  0.35001000  1
  La  La4  1  0.50000000  0.50000000  0.50000000  1
  La  La5  1  0.50000000  0.00000000  0.14999000  1
  Si  Si6  1  0.50000000  0.00000000  0.70089100  1
  Si  Si7  1  0.50000000  0.50000000  0.94823900  1
  Si  Si8  1  0.00000000  0.00000000  0.55176100  1
  Si  Si9  1  0.00000000  0.50000000  0.79910900  1
  Si  Si10  1  0.00000000  0.50000000  0.20089100  1
  Si  Si11  1  0.00000000  0.00000000  0.44823900  1
  Si  Si12  1  0.50000000  0.50000000  0.05176100  1
  Si  Si13  1  0.50000000  0.00000000  0.29910900  1
  Ni  Ni14  1  0.50000000  0.50000000  0.74850200  1
  Ni  Ni15  1  0.00000000  0.00000000  0.75149800  1
  Ni  Ni16  1  0.50000000  0.00000000  0.59957900  1
  Ni  Ni17  1  0.00000000  0.50000000  0.90042100  1
  Ni  Ni18  1  0.00000000  0.00000000  0.24850200  1
  Ni  Ni19  1  0.50000000  0.50000000  0.25149800  1
  Ni  Ni20  1  0.00000000  0.50000000  0.09957900  1
  Ni  Ni21  1  0.50000000  0.00000000  0.40042100  1
