# generated using pymatgen
data_K2BiPWO8
_symmetry_space_group_name_H-M   'P 1'
_cell_length_a   7.15415600
_cell_length_b   12.60824000
_cell_length_c   20.06185400
_cell_angle_alpha   90.00000000
_cell_angle_beta   90.00000000
_cell_angle_gamma   90.00000000
_symmetry_Int_Tables_number   1
_chemical_formula_structural   K2BiPWO8
_chemical_formula_sum   'K16 Bi8 P8 W8 O64'
_cell_volume   1809.60562910
_cell_formula_units_Z   8
loop_
 _symmetry_equiv_pos_site_id
 _symmetry_equiv_pos_as_xyz
  1  'x, y, z'
loop_
 _atom_site_type_symbol
 _atom_site_label
 _atom_site_symmetry_multiplicity
 _atom_site_fract_x
 _atom_site_fract_y
 _atom_site_fract_z
 _atom_site_occupancy
  K  K0  1  0.96804350  0.42170050  0.34409150  1
  K  K1  1  0.03195650  0.42170050  0.84409150  1
  K  K2  1  0.46804350  0.42170050  0.15590850  1
  K  K3  1  0.96804350  0.57829950  0.15590850  1
  K  K4  1  0.53195650  0.42170050  0.65590850  1
  K  K5  1  0.46804350  0.57829950  0.34409150  1
  K  K6  1  0.53195650  0.57829950  0.84409150  1
  K  K7  1  0.03195650  0.57829950  0.65590850  1
  K  K8  1  0.46804350  0.92170050  0.84409150  1
  K  K9  1  0.53195650  0.92170050  0.34409150  1
  K  K10  1  0.96804350  0.92170050  0.65590850  1
  K  K11  1  0.46804350  0.07829950  0.65590850  1
  K  K12  1  0.03195650  0.92170050  0.15590850  1
  K  K13  1  0.96804350  0.07829950  0.84409150  1
  K  K14  1  0.03195650  0.07829950  0.34409150  1
  K  K15  1  0.53195650  0.07829950  0.15590850  1
  Bi  Bi16  1  0.75000000  0.33032600  0.00000000  1
  Bi  Bi17  1  0.25000000  0.66967400  0.00000000  1
  Bi  Bi18  1  0.25000000  0.16967400  0.00000000  1
  Bi  Bi19  1  0.75000000  0.83032600  0.00000000  1
  Bi  Bi20  1  0.25000000  0.83032600  0.50000000  1
  Bi  Bi21  1  0.75000000  0.16967400  0.50000000  1
  Bi  Bi22  1  0.75000000  0.66967400  0.50000000  1
  Bi  Bi23  1  0.25000000  0.33032600  0.50000000  1
  P  P24  1  0.25000000  0.92687400  0.00000000  1
  P  P25  1  0.25000000  0.42687400  0.00000000  1
  P  P26  1  0.75000000  0.07312600  0.00000000  1
  P  P27  1  0.75000000  0.57312600  0.00000000  1
  P  P28  1  0.75000000  0.42687400  0.50000000  1
  P  P29  1  0.75000000  0.92687400  0.50000000  1
  P  P30  1  0.25000000  0.57312600  0.50000000  1
  P  P31  1  0.25000000  0.07312600  0.50000000  1
  W  W32  1  0.00000000  0.25000000  0.16819600  1
  W  W33  1  0.00000000  0.75000000  0.83180400  1
  W  W34  1  0.50000000  0.75000000  0.16819600  1
  W  W35  1  0.50000000  0.25000000  0.83180400  1
  W  W36  1  0.50000000  0.75000000  0.66819600  1
  W  W37  1  0.50000000  0.25000000  0.33180400  1
  W  W38  1  0.00000000  0.25000000  0.66819600  1
  W  W39  1  0.00000000  0.75000000  0.33180400  1
  O  O40  1  0.72373700  0.49998900  0.43854600  1
  O  O41  1  0.77626300  0.50001100  0.93854600  1
  O  O42  1  0.06270500  0.63721900  0.28096800  1
  O  O43  1  0.43729500  0.63721900  0.71903200  1
  O  O44  1  0.22373700  0.49998900  0.06145400  1
  O  O45  1  0.41806450  0.34914250  0.01099250  1
  O  O46  1  0.93729500  0.36278100  0.71903200  1
  O  O47  1  0.29569950  0.71577950  0.11704850  1
  O  O48  1  0.20430050  0.21577950  0.11704850  1
  O  O49  1  0.56270500  0.63721900  0.21903200  1
  O  O50  1  0.58193550  0.65085750  0.98900750  1
  O  O51  1  0.27626300  0.49998900  0.93854600  1
  O  O52  1  0.29569950  0.21577950  0.88295150  1
  O  O53  1  0.79569950  0.78422050  0.88295150  1
  O  O54  1  0.06270500  0.36278100  0.21903200  1
  O  O55  1  0.27626300  0.50001100  0.56145400  1
  O  O56  1  0.70430050  0.78422050  0.11704850  1
  O  O57  1  0.20430050  0.71577950  0.88295150  1
  O  O58  1  0.08193550  0.34914250  0.98900750  1
  O  O59  1  0.08193550  0.84914250  0.01099250  1
  O  O60  1  0.56270500  0.36278100  0.28096800  1
  O  O61  1  0.22373700  0.50001100  0.43854600  1
  O  O62  1  0.79569950  0.28422050  0.11704850  1
  O  O63  1  0.70430050  0.28422050  0.88295150  1
  O  O64  1  0.72373700  0.50001100  0.06145400  1
  O  O65  1  0.43729500  0.36278100  0.78096800  1
  O  O66  1  0.91806450  0.65085750  0.01099250  1
  O  O67  1  0.41806450  0.84914250  0.98900750  1
  O  O68  1  0.93729500  0.63721900  0.78096800  1
  O  O69  1  0.91806450  0.15085750  0.98900750  1
  O  O70  1  0.77626300  0.49998900  0.56145400  1
  O  O71  1  0.58193550  0.15085750  0.01099250  1
  O  O72  1  0.22373700  0.99998900  0.93854600  1
  O  O73  1  0.27626300  0.00001100  0.43854600  1
  O  O74  1  0.56270500  0.13721900  0.78096800  1
  O  O75  1  0.93729500  0.13721900  0.21903200  1
  O  O76  1  0.72373700  0.99998900  0.56145400  1
  O  O77  1  0.91806450  0.84914250  0.51099250  1
  O  O78  1  0.43729500  0.86278100  0.21903200  1
  O  O79  1  0.79569950  0.21577950  0.61704850  1
  O  O80  1  0.70430050  0.71577950  0.61704850  1
  O  O81  1  0.06270500  0.13721900  0.71903200  1
  O  O82  1  0.08193550  0.15085750  0.48900750  1
  O  O83  1  0.77626300  0.99998900  0.43854600  1
  O  O84  1  0.79569950  0.71577950  0.38295150  1
  O  O85  1  0.29569950  0.28422050  0.38295150  1
  O  O86  1  0.56270500  0.86278100  0.71903200  1
  O  O87  1  0.77626300  0.00001100  0.06145400  1
  O  O88  1  0.20430050  0.28422050  0.61704850  1
  O  O89  1  0.70430050  0.21577950  0.38295150  1
  O  O90  1  0.58193550  0.84914250  0.48900750  1
  O  O91  1  0.58193550  0.34914250  0.51099250  1
  O  O92  1  0.06270500  0.86278100  0.78096800  1
  O  O93  1  0.72373700  0.00001100  0.93854600  1
  O  O94  1  0.29569950  0.78422050  0.61704850  1
  O  O95  1  0.20430050  0.78422050  0.38295150  1
  O  O96  1  0.22373700  0.00001100  0.56145400  1
  O  O97  1  0.93729500  0.86278100  0.28096800  1
  O  O98  1  0.41806450  0.15085750  0.51099250  1
  O  O99  1  0.91806450  0.34914250  0.48900750  1
  O  O100  1  0.43729500  0.13721900  0.28096800  1
  O  O101  1  0.41806450  0.65085750  0.48900750  1
  O  O102  1  0.27626300  0.99998900  0.06145400  1
  O  O103  1  0.08193550  0.65085750  0.51099250  1
