# generated using pymatgen
data_BaBi4(BrO3)2
_symmetry_space_group_name_H-M   'P 1'
_cell_length_a   4.02776600
_cell_length_b   4.02776600
_cell_length_c   33.74206400
_cell_angle_alpha   90.00000000
_cell_angle_beta   90.00000000
_cell_angle_gamma   90.00000000
_symmetry_Int_Tables_number   1
_chemical_formula_structural   BaBi4(BrO3)2
_chemical_formula_sum   'Ba2 Bi8 Br4 O12'
_cell_volume   547.39409466
_cell_formula_units_Z   2
loop_
 _symmetry_equiv_pos_site_id
 _symmetry_equiv_pos_as_xyz
  1  'x, y, z'
loop_
 _atom_site_type_symbol
 _atom_site_label
 _atom_site_symmetry_multiplicity
 _atom_site_fract_x
 _atom_site_fract_y
 _atom_site_fract_z
 _atom_site_occupancy
  Ba  Ba0  1  0.50000000  0.50000000  0.00000000  1
  Ba  Ba1  1  0.00000000  0.00000000  0.50000000  1
  Bi  Bi2  1  0.00000000  0.00000000  0.08369300  1
  Bi  Bi3  1  0.50000000  0.50000000  0.41630700  1
  Bi  Bi4  1  0.50000000  0.50000000  0.28625000  1
  Bi  Bi5  1  0.00000000  0.00000000  0.21375000  1
  Bi  Bi6  1  0.50000000  0.50000000  0.58369300  1
  Bi  Bi7  1  0.00000000  0.00000000  0.91630700  1
  Bi  Bi8  1  0.00000000  0.00000000  0.78625000  1
  Bi  Bi9  1  0.50000000  0.50000000  0.71375000  1
  Br  Br10  1  0.00000000  0.00000000  0.33314100  1
  Br  Br11  1  0.50000000  0.50000000  0.16685900  1
  Br  Br12  1  0.50000000  0.50000000  0.83314100  1
  Br  Br13  1  0.00000000  0.00000000  0.66685900  1
  O  O14  1  0.50000000  0.00000000  0.44432400  1
  O  O15  1  0.00000000  0.50000000  0.05567600  1
  O  O16  1  0.50000000  0.00000000  0.05567600  1
  O  O17  1  0.00000000  0.50000000  0.44432400  1
  O  O18  1  0.00000000  0.50000000  0.25000000  1
  O  O19  1  0.50000000  0.00000000  0.25000000  1
  O  O20  1  0.00000000  0.50000000  0.94432400  1
  O  O21  1  0.50000000  0.00000000  0.55567600  1
  O  O22  1  0.00000000  0.50000000  0.55567600  1
  O  O23  1  0.50000000  0.00000000  0.94432400  1
  O  O24  1  0.50000000  0.00000000  0.75000000  1
  O  O25  1  0.00000000  0.50000000  0.75000000  1
