# generated using pymatgen
data_Hf3As
_symmetry_space_group_name_H-M   'P 1'
_cell_length_a   15.48528600
_cell_length_b   5.41193000
_cell_length_c   15.41822704
_cell_angle_alpha   90.00000000
_cell_angle_beta   90.32760634
_cell_angle_gamma   90.00000000
_symmetry_Int_Tables_number   1
_chemical_formula_structural   Hf3As
_chemical_formula_sum   'Hf48 As16'
_cell_volume   1292.10777145
_cell_formula_units_Z   16
loop_
 _symmetry_equiv_pos_site_id
 _symmetry_equiv_pos_as_xyz
  1  'x, y, z'
loop_
 _atom_site_type_symbol
 _atom_site_label
 _atom_site_symmetry_multiplicity
 _atom_site_fract_x
 _atom_site_fract_y
 _atom_site_fract_z
 _atom_site_occupancy
  Hf  Hf0  1  0.58268450  0.46256750  0.19086000  1
  Hf  Hf1  1  0.94149100  0.51749200  0.16722700  1
  Hf  Hf2  1  0.91731550  0.96256750  0.30914000  1
  Hf  Hf3  1  0.94149100  0.48250800  0.66722700  1
  Hf  Hf4  1  0.76064500  0.70998700  0.09484000  1
  Hf  Hf5  1  0.55850900  0.01749200  0.33277300  1
  Hf  Hf6  1  0.65508650  0.22480350  0.00983100  1
  Hf  Hf7  1  0.95079050  0.75244750  0.98396700  1
  Hf  Hf8  1  0.84491350  0.27519650  0.99016900  1
  Hf  Hf9  1  0.84491350  0.72480350  0.49016900  1
  Hf  Hf10  1  0.73935500  0.79001300  0.90516000  1
  Hf  Hf11  1  0.65508650  0.77519650  0.50983100  1
  Hf  Hf12  1  0.76614850  0.76539750  0.69921900  1
  Hf  Hf13  1  0.73385150  0.73460250  0.30078100  1
  Hf  Hf14  1  0.54920950  0.74755250  0.01603300  1
  Hf  Hf15  1  0.73935500  0.20998700  0.40516000  1
  Hf  Hf16  1  0.58268450  0.53743250  0.69086000  1
  Hf  Hf17  1  0.95079050  0.24755250  0.48396700  1
  Hf  Hf18  1  0.54920950  0.25244750  0.51603300  1
  Hf  Hf19  1  0.91731550  0.03743250  0.80914000  1
  Hf  Hf20  1  0.73385150  0.26539750  0.80078100  1
  Hf  Hf21  1  0.55850900  0.98250800  0.83277300  1
  Hf  Hf22  1  0.76614850  0.23460250  0.19921900  1
  Hf  Hf23  1  0.76064500  0.29001300  0.59484000  1
  Hf  Hf24  1  0.08268450  0.96256750  0.19086000  1
  Hf  Hf25  1  0.44149100  0.01749200  0.16722700  1
  Hf  Hf26  1  0.41731550  0.46256750  0.30914000  1
  Hf  Hf27  1  0.44149100  0.98250800  0.66722700  1
  Hf  Hf28  1  0.26064500  0.20998700  0.09484000  1
  Hf  Hf29  1  0.05850900  0.51749200  0.33277300  1
  Hf  Hf30  1  0.15508650  0.72480350  0.00983100  1
  Hf  Hf31  1  0.45079050  0.25244750  0.98396700  1
  Hf  Hf32  1  0.34491350  0.77519650  0.99016900  1
  Hf  Hf33  1  0.34491350  0.22480350  0.49016900  1
  Hf  Hf34  1  0.23935500  0.29001300  0.90516000  1
  Hf  Hf35  1  0.15508650  0.27519650  0.50983100  1
  Hf  Hf36  1  0.26614850  0.26539750  0.69921900  1
  Hf  Hf37  1  0.23385150  0.23460250  0.30078100  1
  Hf  Hf38  1  0.04920950  0.24755250  0.01603300  1
  Hf  Hf39  1  0.23935500  0.70998700  0.40516000  1
  Hf  Hf40  1  0.08268450  0.03743250  0.69086000  1
  Hf  Hf41  1  0.45079050  0.74755250  0.48396700  1
  Hf  Hf42  1  0.04920950  0.75244750  0.51603300  1
  Hf  Hf43  1  0.41731550  0.53743250  0.80914000  1
  Hf  Hf44  1  0.23385150  0.76539750  0.80078100  1
  Hf  Hf45  1  0.05850900  0.48250800  0.83277300  1
  Hf  Hf46  1  0.26614850  0.73460250  0.19921900  1
  Hf  Hf47  1  0.26064500  0.79001300  0.59484000  1
  As  As48  1  0.87821450  0.54216050  0.83347600  1
  As  As49  1  0.91532050  0.01977650  0.12891100  1
  As  As50  1  0.58467950  0.48022350  0.87108900  1
  As  As51  1  0.62178550  0.95783950  0.16652400  1
  As  As52  1  0.62178550  0.04216050  0.66652400  1
  As  As53  1  0.87821450  0.45783950  0.33347600  1
  As  As54  1  0.91532050  0.98022350  0.62891100  1
  As  As55  1  0.58467950  0.51977650  0.37108900  1
  As  As56  1  0.37821450  0.04216050  0.83347600  1
  As  As57  1  0.41532050  0.51977650  0.12891100  1
  As  As58  1  0.08467950  0.98022350  0.87108900  1
  As  As59  1  0.12178550  0.45783950  0.16652400  1
  As  As60  1  0.12178550  0.54216050  0.66652400  1
  As  As61  1  0.37821450  0.95783950  0.33347600  1
  As  As62  1  0.41532050  0.48022350  0.62891100  1
  As  As63  1  0.08467950  0.01977650  0.37108900  1
