# generated using pymatgen
data_MgGa
_symmetry_space_group_name_H-M   'P 1'
_cell_length_a   10.69165600
_cell_length_b   10.69165600
_cell_length_c   5.50178800
_cell_angle_alpha   90.00000000
_cell_angle_beta   90.00000000
_cell_angle_gamma   90.00000000
_symmetry_Int_Tables_number   1
_chemical_formula_structural   MgGa
_chemical_formula_sum   'Mg16 Ga16'
_cell_volume   628.91768310
_cell_formula_units_Z   16
loop_
 _symmetry_equiv_pos_site_id
 _symmetry_equiv_pos_as_xyz
  1  'x, y, z'
loop_
 _atom_site_type_symbol
 _atom_site_label
 _atom_site_symmetry_multiplicity
 _atom_site_fract_x
 _atom_site_fract_y
 _atom_site_fract_z
 _atom_site_occupancy
  Mg  Mg0  1  0.13236750  0.07373250  0.73511950  1
  Mg  Mg1  1  0.42626750  0.63236750  0.76488050  1
  Mg  Mg2  1  0.57373250  0.36763250  0.76488050  1
  Mg  Mg3  1  0.86763250  0.92626750  0.73511950  1
  Mg  Mg4  1  0.63236750  0.07373250  0.51488050  1
  Mg  Mg5  1  0.42626750  0.13236750  0.98511950  1
  Mg  Mg6  1  0.57373250  0.86763250  0.98511950  1
  Mg  Mg7  1  0.36763250  0.92626750  0.51488050  1
  Mg  Mg8  1  0.63236750  0.57373250  0.23511950  1
  Mg  Mg9  1  0.92626750  0.13236750  0.26488050  1
  Mg  Mg10  1  0.07373250  0.86763250  0.26488050  1
  Mg  Mg11  1  0.36763250  0.42626750  0.23511950  1
  Mg  Mg12  1  0.13236750  0.57373250  0.01488050  1
  Mg  Mg13  1  0.92626750  0.63236750  0.48511950  1
  Mg  Mg14  1  0.07373250  0.36763250  0.48511950  1
  Mg  Mg15  1  0.86763250  0.42626750  0.01488050  1
  Ga  Ga16  1  0.30372350  0.89138450  0.00348350  1
  Ga  Ga17  1  0.39138450  0.69627650  0.25348350  1
  Ga  Ga18  1  0.60861550  0.30372350  0.25348350  1
  Ga  Ga19  1  0.69627650  0.10861550  0.00348350  1
  Ga  Ga20  1  0.80372350  0.89138450  0.24651650  1
  Ga  Ga21  1  0.39138450  0.19627650  0.49651650  1
  Ga  Ga22  1  0.60861550  0.80372350  0.49651650  1
  Ga  Ga23  1  0.19627650  0.10861550  0.24651650  1
  Ga  Ga24  1  0.80372350  0.39138450  0.50348350  1
  Ga  Ga25  1  0.89138450  0.19627650  0.75348350  1
  Ga  Ga26  1  0.10861550  0.80372350  0.75348350  1
  Ga  Ga27  1  0.19627650  0.60861550  0.50348350  1
  Ga  Ga28  1  0.30372350  0.39138450  0.74651650  1
  Ga  Ga29  1  0.89138450  0.69627650  0.99651650  1
  Ga  Ga30  1  0.10861550  0.30372350  0.99651650  1
  Ga  Ga31  1  0.69627650  0.60861550  0.74651650  1
