# generated using pymatgen
data_ErNiGe2
_symmetry_space_group_name_H-M   'P 1'
_cell_length_a   4.14547600
_cell_length_b   8.50355800
_cell_length_c   15.93058000
_cell_angle_alpha   90.00000000
_cell_angle_beta   90.00000000
_cell_angle_gamma   90.00000000
_symmetry_Int_Tables_number   1
_chemical_formula_structural   ErNiGe2
_chemical_formula_sum   'Er8 Ni8 Ge16'
_cell_volume   561.57358472
_cell_formula_units_Z   8
loop_
 _symmetry_equiv_pos_site_id
 _symmetry_equiv_pos_as_xyz
  1  'x, y, z'
loop_
 _atom_site_type_symbol
 _atom_site_label
 _atom_site_symmetry_multiplicity
 _atom_site_fract_x
 _atom_site_fract_y
 _atom_site_fract_z
 _atom_site_occupancy
  Er  Er0  1  0.50000000  0.00000000  0.70400800  1
  Er  Er1  1  0.00000000  0.50000000  0.79599200  1
  Er  Er2  1  0.00000000  0.25975600  0.00000000  1
  Er  Er3  1  0.00000000  0.74024400  0.00000000  1
  Er  Er4  1  0.00000000  0.50000000  0.20400800  1
  Er  Er5  1  0.50000000  0.00000000  0.29599200  1
  Er  Er6  1  0.50000000  0.75975600  0.50000000  1
  Er  Er7  1  0.50000000  0.24024400  0.50000000  1
  Ni  Ni8  1  0.50000000  0.74897800  0.85231500  1
  Ni  Ni9  1  0.50000000  0.25102200  0.85231500  1
  Ni  Ni10  1  0.00000000  0.24897800  0.64768500  1
  Ni  Ni11  1  0.00000000  0.75102200  0.64768500  1
  Ni  Ni12  1  0.00000000  0.24897800  0.35231500  1
  Ni  Ni13  1  0.00000000  0.75102200  0.35231500  1
  Ni  Ni14  1  0.50000000  0.74897800  0.14768500  1
  Ni  Ni15  1  0.50000000  0.25102200  0.14768500  1
  Ge  Ge16  1  0.00000000  0.15748400  0.80388200  1
  Ge  Ge17  1  0.50000000  0.65748400  0.69611800  1
  Ge  Ge18  1  0.50000000  0.00000000  0.92042200  1
  Ge  Ge19  1  0.00000000  0.00000000  0.57703700  1
  Ge  Ge20  1  0.00000000  0.50000000  0.57957800  1
  Ge  Ge21  1  0.50000000  0.34251600  0.69611800  1
  Ge  Ge22  1  0.00000000  0.84251600  0.80388200  1
  Ge  Ge23  1  0.50000000  0.50000000  0.92296300  1
  Ge  Ge24  1  0.50000000  0.65748400  0.30388200  1
  Ge  Ge25  1  0.00000000  0.15748400  0.19611800  1
  Ge  Ge26  1  0.00000000  0.50000000  0.42042200  1
  Ge  Ge27  1  0.50000000  0.50000000  0.07703700  1
  Ge  Ge28  1  0.50000000  0.00000000  0.07957800  1
  Ge  Ge29  1  0.00000000  0.84251600  0.19611800  1
  Ge  Ge30  1  0.50000000  0.34251600  0.30388200  1
  Ge  Ge31  1  0.00000000  0.00000000  0.42296300  1
