# generated using pymatgen
data_Mg3Si8Ir3
_symmetry_space_group_name_H-M   'P 1'
_cell_length_a   12.27658000
_cell_length_b   12.27658000
_cell_length_c   12.27658000
_cell_angle_alpha   90.00000000
_cell_angle_beta   90.00000000
_cell_angle_gamma   90.00000000
_symmetry_Int_Tables_number   1
_chemical_formula_structural   Mg3Si8Ir3
_chemical_formula_sum   'Mg24 Si64 Ir24'
_cell_volume   1850.25759127
_cell_formula_units_Z   8
loop_
 _symmetry_equiv_pos_site_id
 _symmetry_equiv_pos_as_xyz
  1  'x, y, z'
loop_
 _atom_site_type_symbol
 _atom_site_label
 _atom_site_symmetry_multiplicity
 _atom_site_fract_x
 _atom_site_fract_y
 _atom_site_fract_z
 _atom_site_occupancy
  Mg  Mg0  1  0.60034125  0.39965875  0.60034125  1
  Mg  Mg1  1  0.39965875  0.39965875  0.39965875  1
  Mg  Mg2  1  0.39965875  0.60034125  0.60034125  1
  Mg  Mg3  1  0.75000000  0.25000000  0.25000000  1
  Mg  Mg4  1  0.60034125  0.60034125  0.39965875  1
  Mg  Mg5  1  0.50000000  0.50000000  0.00000000  1
  Mg  Mg6  1  0.60034125  0.89965875  0.10034125  1
  Mg  Mg7  1  0.39965875  0.89965875  0.89965875  1
  Mg  Mg8  1  0.39965875  0.10034125  0.10034125  1
  Mg  Mg9  1  0.75000000  0.75000000  0.75000000  1
  Mg  Mg10  1  0.60034125  0.10034125  0.89965875  1
  Mg  Mg11  1  0.50000000  0.00000000  0.50000000  1
  Mg  Mg12  1  0.10034125  0.39965875  0.10034125  1
  Mg  Mg13  1  0.89965875  0.39965875  0.89965875  1
  Mg  Mg14  1  0.89965875  0.60034125  0.10034125  1
  Mg  Mg15  1  0.25000000  0.25000000  0.75000000  1
  Mg  Mg16  1  0.10034125  0.60034125  0.89965875  1
  Mg  Mg17  1  0.00000000  0.50000000  0.50000000  1
  Mg  Mg18  1  0.10034125  0.89965875  0.60034125  1
  Mg  Mg19  1  0.89965875  0.89965875  0.39965875  1
  Mg  Mg20  1  0.89965875  0.10034125  0.60034125  1
  Mg  Mg21  1  0.25000000  0.75000000  0.25000000  1
  Mg  Mg22  1  0.10034125  0.10034125  0.39965875  1
  Mg  Mg23  1  0.00000000  0.00000000  0.00000000  1
  Si  Si24  1  0.22052025  0.56966625  0.43033375  1
  Si  Si25  1  0.32408658  0.32408658  0.17591342  1
  Si  Si26  1  0.27947975  0.56966625  0.06966625  1
  Si  Si27  1  0.93033375  0.27947975  0.43033375  1
  Si  Si28  1  0.56966625  0.43033375  0.22052025  1
  Si  Si29  1  0.06966625  0.72052025  0.43033375  1
  Si  Si30  1  0.72052025  0.43033375  0.06966625  1
  Si  Si31  1  0.93033375  0.43033375  0.27947975  1
  Si  Si32  1  0.67591342  0.32408658  0.82408658  1
  Si  Si33  1  0.56966625  0.27947975  0.06966625  1
  Si  Si34  1  0.06966625  0.56966625  0.27947975  1
  Si  Si35  1  0.43033375  0.72052025  0.06966625  1
  Si  Si36  1  0.43033375  0.56966625  0.22052025  1
  Si  Si37  1  0.67591342  0.67591342  0.17591342  1
  Si  Si38  1  0.77947975  0.43033375  0.43033375  1
  Si  Si39  1  0.32408658  0.67591342  0.82408658  1
  Si  Si40  1  0.22052025  0.06966625  0.93033375  1
  Si  Si41  1  0.32408658  0.82408658  0.67591342  1
  Si  Si42  1  0.27947975  0.06966625  0.56966625  1
  Si  Si43  1  0.93033375  0.77947975  0.93033375  1
  Si  Si44  1  0.56966625  0.93033375  0.72052025  1
  Si  Si45  1  0.06966625  0.22052025  0.93033375  1
  Si  Si46  1  0.72052025  0.93033375  0.56966625  1
  Si  Si47  1  0.93033375  0.93033375  0.77947975  1
  Si  Si48  1  0.67591342  0.82408658  0.32408658  1
  Si  Si49  1  0.56966625  0.77947975  0.56966625  1
  Si  Si50  1  0.06966625  0.06966625  0.77947975  1
  Si  Si51  1  0.43033375  0.22052025  0.56966625  1
  Si  Si52  1  0.43033375  0.06966625  0.72052025  1
  Si  Si53  1  0.67591342  0.17591342  0.67591342  1
  Si  Si54  1  0.77947975  0.93033375  0.93033375  1
  Si  Si55  1  0.32408658  0.17591342  0.32408658  1
  Si  Si56  1  0.72052025  0.56966625  0.93033375  1
  Si  Si57  1  0.82408658  0.32408658  0.67591342  1
  Si  Si58  1  0.77947975  0.56966625  0.56966625  1
  Si  Si59  1  0.43033375  0.27947975  0.93033375  1
  Si  Si60  1  0.06966625  0.43033375  0.72052025  1
  Si  Si61  1  0.56966625  0.72052025  0.93033375  1
  Si  Si62  1  0.22052025  0.43033375  0.56966625  1
  Si  Si63  1  0.43033375  0.43033375  0.77947975  1
  Si  Si64  1  0.17591342  0.32408658  0.32408658  1
  Si  Si65  1  0.06966625  0.27947975  0.56966625  1
  Si  Si66  1  0.56966625  0.56966625  0.77947975  1
  Si  Si67  1  0.93033375  0.72052025  0.56966625  1
  Si  Si68  1  0.93033375  0.56966625  0.72052025  1
  Si  Si69  1  0.17591342  0.67591342  0.67591342  1
  Si  Si70  1  0.27947975  0.43033375  0.93033375  1
  Si  Si71  1  0.82408658  0.67591342  0.32408658  1
  Si  Si72  1  0.72052025  0.06966625  0.43033375  1
  Si  Si73  1  0.82408658  0.82408658  0.17591342  1
  Si  Si74  1  0.77947975  0.06966625  0.06966625  1
  Si  Si75  1  0.43033375  0.77947975  0.43033375  1
  Si  Si76  1  0.06966625  0.93033375  0.22052025  1
  Si  Si77  1  0.56966625  0.22052025  0.43033375  1
  Si  Si78  1  0.22052025  0.93033375  0.06966625  1
  Si  Si79  1  0.43033375  0.93033375  0.27947975  1
  Si  Si80  1  0.17591342  0.82408658  0.82408658  1
  Si  Si81  1  0.06966625  0.77947975  0.06966625  1
  Si  Si82  1  0.56966625  0.06966625  0.27947975  1
  Si  Si83  1  0.93033375  0.22052025  0.06966625  1
  Si  Si84  1  0.93033375  0.06966625  0.22052025  1
  Si  Si85  1  0.17591342  0.17591342  0.17591342  1
  Si  Si86  1  0.27947975  0.93033375  0.43033375  1
  Si  Si87  1  0.82408658  0.17591342  0.82408658  1
  Ir  Ir88  1  0.75000000  0.25000000  0.99498825  1
  Ir  Ir89  1  0.25000000  0.49498825  0.25000000  1
  Ir  Ir90  1  0.49498825  0.25000000  0.25000000  1
  Ir  Ir91  1  0.00501175  0.25000000  0.25000000  1
  Ir  Ir92  1  0.75000000  0.50501175  0.25000000  1
  Ir  Ir93  1  0.75000000  0.25000000  0.50501175  1
  Ir  Ir94  1  0.75000000  0.75000000  0.49498825  1
  Ir  Ir95  1  0.25000000  0.99498825  0.75000000  1
  Ir  Ir96  1  0.49498825  0.75000000  0.75000000  1
  Ir  Ir97  1  0.00501175  0.75000000  0.75000000  1
  Ir  Ir98  1  0.75000000  0.00501175  0.75000000  1
  Ir  Ir99  1  0.75000000  0.75000000  0.00501175  1
  Ir  Ir100  1  0.25000000  0.25000000  0.49498825  1
  Ir  Ir101  1  0.75000000  0.49498825  0.75000000  1
  Ir  Ir102  1  0.99498825  0.25000000  0.75000000  1
  Ir  Ir103  1  0.50501175  0.25000000  0.75000000  1
  Ir  Ir104  1  0.25000000  0.50501175  0.75000000  1
  Ir  Ir105  1  0.25000000  0.25000000  0.00501175  1
  Ir  Ir106  1  0.25000000  0.75000000  0.99498825  1
  Ir  Ir107  1  0.75000000  0.99498825  0.25000000  1
  Ir  Ir108  1  0.99498825  0.75000000  0.25000000  1
  Ir  Ir109  1  0.50501175  0.75000000  0.25000000  1
  Ir  Ir110  1  0.25000000  0.00501175  0.25000000  1
  Ir  Ir111  1  0.25000000  0.75000000  0.50501175  1
