# generated using pymatgen
data_Ba2FeO4
_symmetry_space_group_name_H-M   'P 1'
_cell_length_a   6.23489985
_cell_length_b   7.75042000
_cell_length_c   11.66963300
_cell_angle_alpha   90.00000000
_cell_angle_beta   117.90995561
_cell_angle_gamma   90.00000000
_symmetry_Int_Tables_number   1
_chemical_formula_structural   Ba2FeO4
_chemical_formula_sum   'Ba8 Fe4 O16'
_cell_volume   498.32085411
_cell_formula_units_Z   4
loop_
 _symmetry_equiv_pos_site_id
 _symmetry_equiv_pos_as_xyz
  1  'x, y, z'
loop_
 _atom_site_type_symbol
 _atom_site_label
 _atom_site_symmetry_multiplicity
 _atom_site_fract_x
 _atom_site_fract_y
 _atom_site_fract_z
 _atom_site_occupancy
  Ba  Ba0  1  0.31881000  0.84526900  0.07507950  1
  Ba  Ba1  1  0.68119000  0.34526900  0.42492050  1
  Ba  Ba2  1  0.68119000  0.15473100  0.92492050  1
  Ba  Ba3  1  0.31881000  0.65473100  0.57507950  1
  Ba  Ba4  1  0.97718800  0.50587400  0.19739750  1
  Ba  Ba5  1  0.02281200  0.00587400  0.30260250  1
  Ba  Ba6  1  0.02281200  0.49412600  0.80260250  1
  Ba  Ba7  1  0.97718800  0.99412600  0.69739750  1
  Fe  Fe8  1  0.65937100  0.72119500  0.91680950  1
  Fe  Fe9  1  0.34062900  0.22119500  0.58319050  1
  Fe  Fe10  1  0.34062900  0.27880500  0.08319050  1
  Fe  Fe11  1  0.65937100  0.77880500  0.41680950  1
  O  O12  1  0.69947200  0.00703700  0.40426150  1
  O  O13  1  0.30052800  0.50703700  0.09573850  1
  O  O14  1  0.30052800  0.99296300  0.59573850  1
  O  O15  1  0.69947200  0.49296300  0.90426150  1
  O  O16  1  0.66601100  0.24437500  0.16297550  1
  O  O17  1  0.33398900  0.74437500  0.33702450  1
  O  O18  1  0.33398900  0.75562500  0.83702450  1
  O  O19  1  0.66601100  0.25562500  0.66297550  1
  O  O20  1  0.13087400  0.18300400  0.13226050  1
  O  O21  1  0.86912600  0.68300400  0.36773950  1
  O  O22  1  0.86912600  0.81699600  0.86773950  1
  O  O23  1  0.13087400  0.31699600  0.63226050  1
  O  O24  1  0.24500000  0.16855600  0.92745950  1
  O  O25  1  0.75500000  0.66855600  0.57254050  1
  O  O26  1  0.75500000  0.83144400  0.07254050  1
  O  O27  1  0.24500000  0.33144400  0.42745950  1
