# generated using pymatgen
data_MoP2O7
_symmetry_space_group_name_H-M   'P 1'
_cell_length_a   10.00102200
_cell_length_b   8.35805800
_cell_length_c   13.54037319
_cell_angle_alpha   90.00000000
_cell_angle_beta   111.26010089
_cell_angle_gamma   90.00000000
_symmetry_Int_Tables_number   1
_chemical_formula_structural   MoP2O7
_chemical_formula_sum   'Mo8 P16 O56'
_cell_volume   1054.80017953
_cell_formula_units_Z   8
loop_
 _symmetry_equiv_pos_site_id
 _symmetry_equiv_pos_as_xyz
  1  'x, y, z'
loop_
 _atom_site_type_symbol
 _atom_site_label
 _atom_site_symmetry_multiplicity
 _atom_site_fract_x
 _atom_site_fract_y
 _atom_site_fract_z
 _atom_site_occupancy
  Mo  Mo0  1  0.85701600  0.73643800  0.35575400  1
  Mo  Mo1  1  0.85701600  0.26356200  0.85575400  1
  Mo  Mo2  1  0.64298400  0.23643800  0.14424600  1
  Mo  Mo3  1  0.64298400  0.76356200  0.64424600  1
  Mo  Mo4  1  0.35701600  0.23643800  0.35575400  1
  Mo  Mo5  1  0.35701600  0.76356200  0.85575400  1
  Mo  Mo6  1  0.14298400  0.73643800  0.14424600  1
  Mo  Mo7  1  0.14298400  0.26356200  0.64424600  1
  P  P8  1  0.66765150  0.42072450  0.36644200  1
  P  P9  1  0.83234850  0.07927550  0.63355800  1
  P  P10  1  0.66765150  0.57927550  0.86644200  1
  P  P11  1  0.37241950  0.96242750  0.06985200  1
  P  P12  1  0.87241950  0.53757250  0.56985200  1
  P  P13  1  0.12758050  0.53757250  0.93014800  1
  P  P14  1  0.83234850  0.92072450  0.13355800  1
  P  P15  1  0.62758050  0.96242750  0.43014800  1
  P  P16  1  0.16765150  0.92072450  0.36644200  1
  P  P17  1  0.33234850  0.57927550  0.63355800  1
  P  P18  1  0.16765150  0.07927550  0.86644200  1
  P  P19  1  0.87241950  0.46242750  0.06985200  1
  P  P20  1  0.37241950  0.03757250  0.56985200  1
  P  P21  1  0.62758050  0.03757250  0.93014800  1
  P  P22  1  0.33234850  0.42072450  0.13355800  1
  P  P23  1  0.12758050  0.46242750  0.43014800  1
  O  O24  1  0.27213600  0.91776300  0.12760100  1
  O  O25  1  0.72786400  0.91776300  0.37239900  1
  O  O26  1  0.50852250  0.04593550  0.14234200  1
  O  O27  1  0.80098250  0.78352450  0.19933000  1
  O  O28  1  0.77213600  0.58223700  0.62760100  1
  O  O29  1  0.99147750  0.45406450  0.85765800  1
  O  O30  1  0.69901750  0.71647550  0.80067000  1
  O  O31  1  0.70585950  0.90440650  0.01870000  1
  O  O32  1  0.02668600  0.89649900  0.38256800  1
  O  O33  1  0.00852250  0.45406450  0.64234200  1
  O  O34  1  0.97331400  0.89649900  0.11743200  1
  O  O35  1  0.09488700  0.68384800  0.98721700  1
  O  O36  1  0.69901750  0.28352450  0.30067000  1
  O  O37  1  0.90511300  0.68384800  0.51278300  1
  O  O38  1  0.81947350  0.08656850  0.17595000  1
  O  O39  1  0.22786400  0.58223700  0.87239900  1
  O  O40  1  0.79414050  0.40440650  0.48130000  1
  O  O41  1  0.47331400  0.60350100  0.61743200  1
  O  O42  1  0.68052650  0.58656850  0.32405000  1
  O  O43  1  0.70585950  0.09559350  0.51870000  1
  O  O44  1  0.79414050  0.59559350  0.98130000  1
  O  O45  1  0.68052650  0.41343150  0.82405000  1
  O  O46  1  0.59488700  0.81615200  0.48721700  1
  O  O47  1  0.80098250  0.21647550  0.69933000  1
  O  O48  1  0.40511300  0.81615200  0.01278300  1
  O  O49  1  0.52668600  0.60350100  0.88256800  1
  O  O50  1  0.49147750  0.04593550  0.35765800  1
  O  O51  1  0.81947350  0.91343150  0.67595000  1
  O  O52  1  0.77213600  0.41776300  0.12760100  1
  O  O53  1  0.22786400  0.41776300  0.37239900  1
  O  O54  1  0.00852250  0.54593550  0.14234200  1
  O  O55  1  0.30098250  0.28352450  0.19933000  1
  O  O56  1  0.27213600  0.08223700  0.62760100  1
  O  O57  1  0.49147750  0.95406450  0.85765800  1
  O  O58  1  0.19901750  0.21647550  0.80067000  1
  O  O59  1  0.20585950  0.40440650  0.01870000  1
  O  O60  1  0.52668600  0.39649900  0.38256800  1
  O  O61  1  0.50852250  0.95406450  0.64234200  1
  O  O62  1  0.47331400  0.39649900  0.11743200  1
  O  O63  1  0.59488700  0.18384800  0.98721700  1
  O  O64  1  0.19901750  0.78352450  0.30067000  1
  O  O65  1  0.40511300  0.18384800  0.51278300  1
  O  O66  1  0.31947350  0.58656850  0.17595000  1
  O  O67  1  0.72786400  0.08223700  0.87239900  1
  O  O68  1  0.29414050  0.90440650  0.48130000  1
  O  O69  1  0.97331400  0.10350100  0.61743200  1
  O  O70  1  0.18052650  0.08656850  0.32405000  1
  O  O71  1  0.20585950  0.59559350  0.51870000  1
  O  O72  1  0.29414050  0.09559350  0.98130000  1
  O  O73  1  0.18052650  0.91343150  0.82405000  1
  O  O74  1  0.09488700  0.31615200  0.48721700  1
  O  O75  1  0.30098250  0.71647550  0.69933000  1
  O  O76  1  0.90511300  0.31615200  0.01278300  1
  O  O77  1  0.02668600  0.10350100  0.88256800  1
  O  O78  1  0.99147750  0.54593550  0.35765800  1
  O  O79  1  0.31947350  0.41343150  0.67595000  1
