# generated using pymatgen
data_Ce3Ta(ClO2)3
_symmetry_space_group_name_H-M   'P 1'
_cell_length_a   9.32175198
_cell_length_b   9.32175198
_cell_length_c   5.41006100
_cell_angle_alpha   90.00000000
_cell_angle_beta   90.00000000
_cell_angle_gamma   120.00000000
_symmetry_Int_Tables_number   1
_chemical_formula_structural   Ce3Ta(ClO2)3
_chemical_formula_sum   'Ce6 Ta2 Cl6 O12'
_cell_volume   407.12510277
_cell_formula_units_Z   2
loop_
 _symmetry_equiv_pos_site_id
 _symmetry_equiv_pos_as_xyz
  1  'x, y, z'
loop_
 _atom_site_type_symbol
 _atom_site_label
 _atom_site_symmetry_multiplicity
 _atom_site_fract_x
 _atom_site_fract_y
 _atom_site_fract_z
 _atom_site_occupancy
  Ce  Ce0  1  0.67959200  0.09044600  0.25000000  1
  Ce  Ce1  1  0.41085400  0.32040800  0.25000000  1
  Ce  Ce2  1  0.32040800  0.90955400  0.75000000  1
  Ce  Ce3  1  0.90955400  0.58914600  0.25000000  1
  Ce  Ce4  1  0.58914600  0.67959200  0.75000000  1
  Ce  Ce5  1  0.09044600  0.41085400  0.75000000  1
  Ta  Ta6  1  0.33333333  0.66666667  0.25000000  1
  Ta  Ta7  1  0.66666667  0.33333333  0.75000000  1
  Cl  Cl8  1  0.75905000  0.81112600  0.25000000  1
  Cl  Cl9  1  0.18887400  0.94792400  0.25000000  1
  Cl  Cl10  1  0.24095000  0.18887400  0.75000000  1
  Cl  Cl11  1  0.94792400  0.75905000  0.75000000  1
  Cl  Cl12  1  0.05207600  0.24095000  0.25000000  1
  Cl  Cl13  1  0.81112600  0.05207600  0.75000000  1
  O  O14  1  0.47935500  0.84474900  0.48857400  1
  O  O15  1  0.36539400  0.52064500  0.01142600  1
  O  O16  1  0.84474900  0.36539400  0.51142600  1
  O  O17  1  0.15525100  0.63460600  0.01142600  1
  O  O18  1  0.84474900  0.36539400  0.98857400  1
  O  O19  1  0.63460600  0.47935500  0.98857400  1
  O  O20  1  0.52064500  0.15525100  0.98857400  1
  O  O21  1  0.63460600  0.47935500  0.51142600  1
  O  O22  1  0.15525100  0.63460600  0.48857400  1
  O  O23  1  0.47935500  0.84474900  0.01142600  1
  O  O24  1  0.36539400  0.52064500  0.48857400  1
  O  O25  1  0.52064500  0.15525100  0.51142600  1
