# generated using pymatgen
data_Na3Fe5O9
_symmetry_space_group_name_H-M   'P 1'
_cell_length_a   13.64856200
_cell_length_b   12.29006600
_cell_length_c   5.41239545
_cell_angle_alpha   90.00000000
_cell_angle_beta   90.61565300
_cell_angle_gamma   90.00000000
_symmetry_Int_Tables_number   1
_chemical_formula_structural   Na3Fe5O9
_chemical_formula_sum   'Na12 Fe20 O36'
_cell_volume   907.83215334
_cell_formula_units_Z   4
loop_
 _symmetry_equiv_pos_site_id
 _symmetry_equiv_pos_as_xyz
  1  'x, y, z'
loop_
 _atom_site_type_symbol
 _atom_site_label
 _atom_site_symmetry_multiplicity
 _atom_site_fract_x
 _atom_site_fract_y
 _atom_site_fract_z
 _atom_site_occupancy
  Na  Na0  1  0.24076750  0.07798650  0.26396900  1
  Na  Na1  1  0.75923250  0.07798650  0.23603100  1
  Na  Na2  1  0.75923250  0.92201350  0.73603100  1
  Na  Na3  1  0.24076750  0.92201350  0.76396900  1
  Na  Na4  1  0.50000000  0.09115900  0.25000000  1
  Na  Na5  1  0.50000000  0.90884100  0.75000000  1
  Na  Na6  1  0.74076750  0.57798650  0.26396900  1
  Na  Na7  1  0.25923250  0.57798650  0.23603100  1
  Na  Na8  1  0.25923250  0.42201350  0.73603100  1
  Na  Na9  1  0.74076750  0.42201350  0.76396900  1
  Na  Na10  1  0.00000000  0.59115900  0.25000000  1
  Na  Na11  1  0.00000000  0.40884100  0.75000000  1
  Fe  Fe12  1  0.61596700  0.81869500  0.28499600  1
  Fe  Fe13  1  0.38403300  0.81869500  0.21500400  1
  Fe  Fe14  1  0.38403300  0.18130500  0.71500400  1
  Fe  Fe15  1  0.61596700  0.18130500  0.78499600  1
  Fe  Fe16  1  0.36013050  0.33971650  0.21788000  1
  Fe  Fe17  1  0.63986950  0.33971650  0.28212000  1
  Fe  Fe18  1  0.63986950  0.66028350  0.78212000  1
  Fe  Fe19  1  0.36013050  0.66028350  0.71788000  1
  Fe  Fe20  1  0.50000000  0.56389400  0.25000000  1
  Fe  Fe21  1  0.50000000  0.43610600  0.75000000  1
  Fe  Fe22  1  0.11596700  0.31869500  0.28499600  1
  Fe  Fe23  1  0.88403300  0.31869500  0.21500400  1
  Fe  Fe24  1  0.88403300  0.68130500  0.71500400  1
  Fe  Fe25  1  0.11596700  0.68130500  0.78499600  1
  Fe  Fe26  1  0.86013050  0.83971650  0.21788000  1
  Fe  Fe27  1  0.13986950  0.83971650  0.28212000  1
  Fe  Fe28  1  0.13986950  0.16028350  0.78212000  1
  Fe  Fe29  1  0.86013050  0.16028350  0.71788000  1
  Fe  Fe30  1  0.00000000  0.06389400  0.25000000  1
  Fe  Fe31  1  0.00000000  0.93610600  0.75000000  1
  O  O32  1  0.59591750  0.68097450  0.11937200  1
  O  O33  1  0.40408250  0.68097450  0.38062800  1
  O  O34  1  0.40408250  0.31902550  0.88062800  1
  O  O35  1  0.59591750  0.31902550  0.61937200  1
  O  O36  1  0.36639600  0.20107800  0.36774100  1
  O  O37  1  0.63360400  0.20107800  0.13225900  1
  O  O38  1  0.63360400  0.79892200  0.63225900  1
  O  O39  1  0.36639600  0.79892200  0.86774100  1
  O  O40  1  0.72906850  0.89294950  0.17487100  1
  O  O41  1  0.27093150  0.89294950  0.32512900  1
  O  O42  1  0.27093150  0.10705050  0.82512900  1
  O  O43  1  0.72906850  0.10705050  0.67487100  1
  O  O44  1  0.91827200  0.94775300  0.42913200  1
  O  O45  1  0.08172800  0.94775300  0.07086800  1
  O  O46  1  0.08172800  0.05224700  0.57086800  1
  O  O47  1  0.91827200  0.05224700  0.92913200  1
  O  O48  1  0.50000000  0.90470900  0.25000000  1
  O  O49  1  0.50000000  0.09529100  0.75000000  1
  O  O50  1  0.09591750  0.18097450  0.11937200  1
  O  O51  1  0.90408250  0.18097450  0.38062800  1
  O  O52  1  0.90408250  0.81902550  0.88062800  1
  O  O53  1  0.09591750  0.81902550  0.61937200  1
  O  O54  1  0.86639600  0.70107800  0.36774100  1
  O  O55  1  0.13360400  0.70107800  0.13225900  1
  O  O56  1  0.13360400  0.29892200  0.63225900  1
  O  O57  1  0.86639600  0.29892200  0.86774100  1
  O  O58  1  0.22906850  0.39294950  0.17487100  1
  O  O59  1  0.77093150  0.39294950  0.32512900  1
  O  O60  1  0.77093150  0.60705050  0.82512900  1
  O  O61  1  0.22906850  0.60705050  0.67487100  1
  O  O62  1  0.41827200  0.44775300  0.42913200  1
  O  O63  1  0.58172800  0.44775300  0.07086800  1
  O  O64  1  0.58172800  0.55224700  0.57086800  1
  O  O65  1  0.41827200  0.55224700  0.92913200  1
  O  O66  1  0.00000000  0.40470900  0.25000000  1
  O  O67  1  0.00000000  0.59529100  0.75000000  1
