# generated using pymatgen
data_Ba2Ni3F10
_symmetry_space_group_name_H-M   'P 1'
_cell_length_a   18.76846200
_cell_length_b   6.02853800
_cell_length_c   7.94789777
_cell_angle_alpha   90.00000000
_cell_angle_beta   111.79381525
_cell_angle_gamma   90.00000000
_symmetry_Int_Tables_number   1
_chemical_formula_structural   Ba2Ni3F10
_chemical_formula_sum   'Ba8 Ni12 F40'
_cell_volume   835.00098337
_cell_formula_units_Z   4
loop_
 _symmetry_equiv_pos_site_id
 _symmetry_equiv_pos_as_xyz
  1  'x, y, z'
loop_
 _atom_site_type_symbol
 _atom_site_label
 _atom_site_symmetry_multiplicity
 _atom_site_fract_x
 _atom_site_fract_y
 _atom_site_fract_z
 _atom_site_occupancy
  Ba  Ba0  1  0.28309100  0.50000000  0.18671000  1
  Ba  Ba1  1  0.21690900  0.00000000  0.81329000  1
  Ba  Ba2  1  0.38537700  0.50000000  0.77906400  1
  Ba  Ba3  1  0.11462300  0.00000000  0.22093600  1
  Ba  Ba4  1  0.78309100  0.00000000  0.18671000  1
  Ba  Ba5  1  0.71690900  0.50000000  0.81329000  1
  Ba  Ba6  1  0.88537700  0.00000000  0.77906400  1
  Ba  Ba7  1  0.61462300  0.50000000  0.22093600  1
  Ni  Ni8  1  0.00000000  0.24679800  0.50000000  1
  Ni  Ni9  1  0.00000000  0.75320200  0.50000000  1
  Ni  Ni10  1  0.17736400  0.50000000  0.51687600  1
  Ni  Ni11  1  0.32263600  0.00000000  0.48312400  1
  Ni  Ni12  1  0.07455000  0.50000000  0.95941200  1
  Ni  Ni13  1  0.42545000  0.00000000  0.04058800  1
  Ni  Ni14  1  0.50000000  0.74679800  0.50000000  1
  Ni  Ni15  1  0.50000000  0.25320200  0.50000000  1
  Ni  Ni16  1  0.67736400  0.00000000  0.51687600  1
  Ni  Ni17  1  0.82263600  0.50000000  0.48312400  1
  Ni  Ni18  1  0.57455000  0.00000000  0.95941200  1
  Ni  Ni19  1  0.92545000  0.50000000  0.04058800  1
  F  F20  1  0.25000000  0.75000000  0.50000000  1
  F  F21  1  0.25000000  0.25000000  0.50000000  1
  F  F22  1  0.00000000  0.72539200  0.00000000  1
  F  F23  1  0.00000000  0.27460800  0.00000000  1
  F  F24  1  0.23671800  0.50000000  0.78046100  1
  F  F25  1  0.26328200  0.00000000  0.21953900  1
  F  F26  1  0.48258100  0.50000000  0.31818100  1
  F  F27  1  0.01741900  0.00000000  0.68181900  1
  F  F28  1  0.13409100  0.50000000  0.24322500  1
  F  F29  1  0.36590900  0.00000000  0.75677500  1
  F  F30  1  0.11171150  0.24111450  0.52671000  1
  F  F31  1  0.38828850  0.74111450  0.47329000  1
  F  F32  1  0.38828850  0.25888550  0.47329000  1
  F  F33  1  0.11171150  0.75888550  0.52671000  1
  F  F34  1  0.35023950  0.23860650  0.02428300  1
  F  F35  1  0.14976050  0.73860650  0.97571700  1
  F  F36  1  0.14976050  0.26139350  0.97571700  1
  F  F37  1  0.35023950  0.76139350  0.02428300  1
  F  F38  1  0.47876600  0.00000000  0.31600800  1
  F  F39  1  0.02123400  0.50000000  0.68399200  1
  F  F40  1  0.75000000  0.25000000  0.50000000  1
  F  F41  1  0.75000000  0.75000000  0.50000000  1
  F  F42  1  0.50000000  0.22539200  0.00000000  1
  F  F43  1  0.50000000  0.77460800  0.00000000  1
  F  F44  1  0.73671800  0.00000000  0.78046100  1
  F  F45  1  0.76328200  0.50000000  0.21953900  1
  F  F46  1  0.98258100  0.00000000  0.31818100  1
  F  F47  1  0.51741900  0.50000000  0.68181900  1
  F  F48  1  0.63409100  0.00000000  0.24322500  1
  F  F49  1  0.86590900  0.50000000  0.75677500  1
  F  F50  1  0.61171150  0.74111450  0.52671000  1
  F  F51  1  0.88828850  0.24111450  0.47329000  1
  F  F52  1  0.88828850  0.75888550  0.47329000  1
  F  F53  1  0.61171150  0.25888550  0.52671000  1
  F  F54  1  0.85023950  0.73860650  0.02428300  1
  F  F55  1  0.64976050  0.23860650  0.97571700  1
  F  F56  1  0.64976050  0.76139350  0.97571700  1
  F  F57  1  0.85023950  0.26139350  0.02428300  1
  F  F58  1  0.97876600  0.50000000  0.31600800  1
  F  F59  1  0.52123400  0.00000000  0.68399200  1
