# generated using pymatgen
data_Na7Fe4(PO4)6
_symmetry_space_group_name_H-M   'P 1'
_cell_length_a   13.58315777
_cell_length_b   13.58315777
_cell_length_c   18.10767198
_cell_angle_alpha   90.00000000
_cell_angle_beta   90.00000000
_cell_angle_gamma   120.00000000
_symmetry_Int_Tables_number   1
_chemical_formula_structural   Na7Fe4(PO4)6
_chemical_formula_sum   'Na42 Fe24 P36 O144'
_cell_volume   2893.30848636
_cell_formula_units_Z   6
loop_
 _symmetry_equiv_pos_site_id
 _symmetry_equiv_pos_as_xyz
  1  'x, y, z'
loop_
 _atom_site_type_symbol
 _atom_site_label
 _atom_site_symmetry_multiplicity
 _atom_site_fract_x
 _atom_site_fract_y
 _atom_site_fract_z
 _atom_site_occupancy
  Na  Na0  1  0.79402800  0.77201000  0.05473900  1
  Na  Na1  1  0.87263867  0.56132333  0.27859433  1
  Na  Na2  1  0.43867667  0.31131533  0.27859433  1
  Na  Na3  1  0.12736133  0.68868467  0.22140567  1
  Na  Na4  1  0.97798200  0.20597200  0.05473900  1
  Na  Na5  1  0.22799000  0.02201800  0.05473900  1
  Na  Na6  1  0.68868467  0.12736133  0.27859433  1
  Na  Na7  1  0.35535133  0.89465667  0.11192767  1
  Na  Na8  1  0.00000000  0.00000000  0.00000000  1
  Na  Na9  1  0.10534333  0.46069467  0.11192767  1
  Na  Na10  1  0.53930533  0.64464867  0.11192767  1
  Na  Na11  1  0.31131533  0.43867667  0.22140567  1
  Na  Na12  1  0.56132333  0.87263867  0.22140567  1
  Na  Na13  1  0.33333333  0.66666667  0.16666667  1
  Na  Na14  1  0.46069467  0.10534333  0.38807233  1
  Na  Na15  1  0.53930533  0.89465667  0.61192767  1
  Na  Na16  1  0.10534333  0.64464867  0.61192767  1
  Na  Na17  1  0.79402800  0.02201800  0.55473900  1
  Na  Na18  1  0.64464867  0.53930533  0.38807233  1
  Na  Na19  1  0.89465667  0.35535133  0.38807233  1
  Na  Na20  1  0.35535133  0.46069467  0.61192767  1
  Na  Na21  1  0.02201800  0.22799000  0.44526100  1
  Na  Na22  1  0.66666667  0.33333333  0.33333333  1
  Na  Na23  1  0.77201000  0.79402800  0.44526100  1
  Na  Na24  1  0.20597200  0.97798200  0.44526100  1
  Na  Na25  1  0.97798200  0.77201000  0.55473900  1
  Na  Na26  1  0.22799000  0.20597200  0.55473900  1
  Na  Na27  1  0.00000000  0.00000000  0.50000000  1
  Na  Na28  1  0.12736133  0.43867667  0.72140567  1
  Na  Na29  1  0.20597200  0.22799000  0.94526100  1
  Na  Na30  1  0.77201000  0.97798200  0.94526100  1
  Na  Na31  1  0.46069467  0.35535133  0.88807233  1
  Na  Na32  1  0.31131533  0.87263867  0.72140567  1
  Na  Na33  1  0.56132333  0.68868467  0.72140567  1
  Na  Na34  1  0.02201800  0.79402800  0.94526100  1
  Na  Na35  1  0.68868467  0.56132333  0.77859433  1
  Na  Na36  1  0.33333333  0.66666667  0.66666667  1
  Na  Na37  1  0.43867667  0.12736133  0.77859433  1
  Na  Na38  1  0.87263867  0.31131533  0.77859433  1
  Na  Na39  1  0.64464867  0.10534333  0.88807233  1
  Na  Na40  1  0.89465667  0.53930533  0.88807233  1
  Na  Na41  1  0.66666667  0.33333333  0.83333333  1
  Fe  Fe42  1  0.11170033  0.44503367  0.91666667  1
  Fe  Fe43  1  0.55496633  0.88829967  0.41666667  1
  Fe  Fe44  1  0.33333333  0.88829967  0.91666667  1
  Fe  Fe45  1  0.33333333  0.44503367  0.41666667  1
  Fe  Fe46  1  0.55496633  0.66666667  0.91666667  1
  Fe  Fe47  1  0.33333333  0.66666667  0.41666667  1
  Fe  Fe48  1  0.11170033  0.66666667  0.41666667  1
  Fe  Fe49  1  0.33333333  0.66666667  0.91666667  1
  Fe  Fe50  1  0.77836700  0.77836700  0.25000000  1
  Fe  Fe51  1  0.22163300  0.22163300  0.75000000  1
  Fe  Fe52  1  0.00000000  0.22163300  0.25000000  1
  Fe  Fe53  1  0.00000000  0.77836700  0.75000000  1
  Fe  Fe54  1  0.22163300  0.00000000  0.25000000  1
  Fe  Fe55  1  0.00000000  0.00000000  0.75000000  1
  Fe  Fe56  1  0.77836700  0.00000000  0.75000000  1
  Fe  Fe57  1  0.00000000  0.00000000  0.25000000  1
  Fe  Fe58  1  0.44503367  0.11170033  0.58333333  1
  Fe  Fe59  1  0.88829967  0.55496633  0.08333333  1
  Fe  Fe60  1  0.66666667  0.55496633  0.58333333  1
  Fe  Fe61  1  0.66666667  0.11170033  0.08333333  1
  Fe  Fe62  1  0.88829967  0.33333333  0.58333333  1
  Fe  Fe63  1  0.66666667  0.33333333  0.08333333  1
  Fe  Fe64  1  0.44503367  0.33333333  0.08333333  1
  Fe  Fe65  1  0.66666667  0.33333333  0.58333333  1
  P  P66  1  0.80475300  0.98791300  0.14428700  1
  P  P67  1  0.65457967  0.51649333  0.18904633  1
  P  P68  1  0.18316000  0.19524700  0.14428700  1
  P  P69  1  0.13808633  0.48350667  0.31095367  1
  P  P70  1  0.01208700  0.81684000  0.14428700  1
  P  P71  1  0.15017333  0.67875367  0.02237967  1
  P  P72  1  0.32124633  0.47141967  0.02237967  1
  P  P73  1  0.86191367  0.34542033  0.18904633  1
  P  P74  1  0.51649333  0.65457967  0.31095367  1
  P  P75  1  0.34542033  0.86191367  0.31095367  1
  P  P76  1  0.48350667  0.13808633  0.18904633  1
  P  P77  1  0.52858033  0.84982667  0.02237967  1
  P  P78  1  0.47141967  0.32124633  0.47762033  1
  P  P79  1  0.32124633  0.84982667  0.52237967  1
  P  P80  1  0.84982667  0.52858033  0.47762033  1
  P  P81  1  0.80475300  0.81684000  0.64428700  1
  P  P82  1  0.67875367  0.15017333  0.47762033  1
  P  P83  1  0.81684000  0.01208700  0.35571300  1
  P  P84  1  0.98791300  0.80475300  0.35571300  1
  P  P85  1  0.52858033  0.67875367  0.52237967  1
  P  P86  1  0.18316000  0.98791300  0.64428700  1
  P  P87  1  0.01208700  0.19524700  0.64428700  1
  P  P88  1  0.15017333  0.47141967  0.52237967  1
  P  P89  1  0.19524700  0.18316000  0.35571300  1
  P  P90  1  0.13808633  0.65457967  0.81095367  1
  P  P91  1  0.98791300  0.18316000  0.85571300  1
  P  P92  1  0.51649333  0.86191367  0.81095367  1
  P  P93  1  0.47141967  0.15017333  0.97762033  1
  P  P94  1  0.34542033  0.48350667  0.81095367  1
  P  P95  1  0.48350667  0.34542033  0.68904633  1
  P  P96  1  0.65457967  0.13808633  0.68904633  1
  P  P97  1  0.19524700  0.01208700  0.85571300  1
  P  P98  1  0.84982667  0.32124633  0.97762033  1
  P  P99  1  0.67875367  0.52858033  0.97762033  1
  P  P100  1  0.81684000  0.80475300  0.85571300  1
  P  P101  1  0.86191367  0.51649333  0.68904633  1
  O  O102  1  0.72974367  0.04379333  0.15542233  1
  O  O103  1  0.51903000  0.17144900  0.26918200  1
  O  O104  1  0.25326333  0.73008267  0.85494967  1
  O  O105  1  0.26991733  0.52318067  0.85494967  1
  O  O106  1  0.46749300  0.92973800  0.34415000  1
  O  O107  1  0.17144900  0.51903000  0.23081800  1
  O  O108  1  0.49521767  0.81430333  0.10251533  1
  O  O109  1  0.28954000  0.93692300  0.32208900  1
  O  O110  1  0.93692300  0.28954000  0.17791100  1
  O  O111  1  0.31404967  0.27025633  0.15542233  1
  O  O112  1  0.71046000  0.64738300  0.17791100  1
  O  O113  1  0.73692867  0.86584033  0.17748333  1
  O  O114  1  0.41340333  0.81015267  0.97838367  1
  O  O115  1  0.46224500  0.53250700  0.34415000  1
  O  O116  1  0.53775500  0.07026200  0.15585000  1
  O  O117  1  0.34758100  0.82855100  0.23081800  1
  O  O118  1  0.92973800  0.46749300  0.15585000  1
  O  O119  1  0.19917367  0.40359533  0.98918333  1
  O  O120  1  0.37712667  0.39641033  0.01124433  1
  O  O121  1  0.31908567  0.50478233  0.10251533  1
  O  O122  1  0.59640467  0.79557833  0.98918333  1
  O  O123  1  0.82855100  0.34758100  0.26918200  1
  O  O124  1  0.01928367  0.62287333  0.01124433  1
  O  O125  1  0.18984733  0.58659667  0.47838367  1
  O  O126  1  0.95620667  0.68595033  0.15542233  1
  O  O127  1  0.39674933  0.81015267  0.47838367  1
  O  O128  1  0.39674933  0.58659667  0.97838367  1
  O  O129  1  0.64738300  0.71046000  0.32208900  1
  O  O130  1  0.18984733  0.60325067  0.97838367  1
  O  O131  1  0.60358967  0.98071633  0.01124433  1
  O  O132  1  0.18569667  0.68091433  0.10251533  1
  O  O133  1  0.20442167  0.80082633  0.98918333  1
  O  O134  1  0.83811567  0.98575233  0.06415133  1
  O  O135  1  0.06307700  0.35261700  0.32208900  1
  O  O136  1  0.41340333  0.60325067  0.47838367  1
  O  O137  1  0.14763667  0.16188433  0.06415133  1
  O  O138  1  0.48097000  0.65241900  0.23081800  1
  O  O139  1  0.01424767  0.85236333  0.06415133  1
  O  O140  1  0.65241900  0.48097000  0.26918200  1
  O  O141  1  0.25326333  0.52318067  0.35494967  1
  O  O142  1  0.13415967  0.87108833  0.17748333  1
  O  O143  1  0.07026200  0.53775500  0.34415000  1
  O  O144  1  0.35261700  0.06307700  0.17791100  1
  O  O145  1  0.47681933  0.74673667  0.85494967  1
  O  O146  1  0.53250700  0.46224500  0.15585000  1
  O  O147  1  0.12891167  0.26307133  0.17748333  1
  O  O148  1  0.47681933  0.73008267  0.35494967  1
  O  O149  1  0.26991733  0.74673667  0.35494967  1
  O  O150  1  0.39641033  0.37712667  0.48875567  1
  O  O151  1  0.18569667  0.50478233  0.60251533  1
  O  O152  1  0.91993000  0.06341600  0.18828300  1
  O  O153  1  0.93658400  0.85651400  0.18828300  1
  O  O154  1  0.13415967  0.26307133  0.67748333  1
  O  O155  1  0.83811567  0.85236333  0.56415133  1
  O  O156  1  0.16188433  0.14763667  0.43584867  1
  O  O157  1  0.95620667  0.27025633  0.65542233  1
  O  O158  1  0.60358967  0.62287333  0.51124433  1
  O  O159  1  0.98071633  0.60358967  0.48875567  1
  O  O160  1  0.37712667  0.98071633  0.51124433  1
  O  O161  1  0.40359533  0.19917367  0.51081667  1
  O  O162  1  0.08007000  0.14348600  0.31171700  1
  O  O163  1  0.12891167  0.86584033  0.67748333  1
  O  O164  1  0.20442167  0.40359533  0.48918333  1
  O  O165  1  0.01424767  0.16188433  0.56415133  1
  O  O166  1  0.59640467  0.80082633  0.48918333  1
  O  O167  1  0.86584033  0.73692867  0.32251667  1
  O  O168  1  0.04379333  0.72974367  0.34457767  1
  O  O169  1  0.98575233  0.83811567  0.43584867  1
  O  O170  1  0.26307133  0.12891167  0.32251667  1
  O  O171  1  0.49521767  0.68091433  0.60251533  1
  O  O172  1  0.68595033  0.95620667  0.34457767  1
  O  O173  1  0.85651400  0.91993000  0.81171700  1
  O  O174  1  0.62287333  0.01928367  0.48875567  1
  O  O175  1  0.06341600  0.14348600  0.81171700  1
  O  O176  1  0.06341600  0.91993000  0.31171700  1
  O  O177  1  0.31404967  0.04379333  0.65542233  1
  O  O178  1  0.85651400  0.93658400  0.31171700  1
  O  O179  1  0.27025633  0.31404967  0.34457767  1
  O  O180  1  0.85236333  0.01424767  0.43584867  1
  O  O181  1  0.87108833  0.13415967  0.32251667  1
  O  O182  1  0.50478233  0.31908567  0.39748467  1
  O  O183  1  0.72974367  0.68595033  0.65542233  1
  O  O184  1  0.08007000  0.93658400  0.81171700  1
  O  O185  1  0.81430333  0.49521767  0.39748467  1
  O  O186  1  0.14763667  0.98575233  0.56415133  1
  O  O187  1  0.68091433  0.18569667  0.39748467  1
  O  O188  1  0.31908567  0.81430333  0.60251533  1
  O  O189  1  0.91993000  0.85651400  0.68828300  1
  O  O190  1  0.80082633  0.20442167  0.51081667  1
  O  O191  1  0.73692867  0.87108833  0.67748333  1
  O  O192  1  0.01928367  0.39641033  0.51124433  1
  O  O193  1  0.14348600  0.08007000  0.18828300  1
  O  O194  1  0.19917367  0.79557833  0.48918333  1
  O  O195  1  0.79557833  0.59640467  0.51081667  1
  O  O196  1  0.14348600  0.06341600  0.68828300  1
  O  O197  1  0.93658400  0.08007000  0.68828300  1
  O  O198  1  0.06307700  0.71046000  0.82208900  1
  O  O199  1  0.85236333  0.83811567  0.93584867  1
  O  O200  1  0.58659667  0.39674933  0.52161633  1
  O  O201  1  0.60325067  0.18984733  0.52161633  1
  O  O202  1  0.80082633  0.59640467  0.01081667  1
  O  O203  1  0.50478233  0.18569667  0.89748467  1
  O  O204  1  0.82855100  0.48097000  0.76918200  1
  O  O205  1  0.62287333  0.60358967  0.98875567  1
  O  O206  1  0.27025633  0.95620667  0.84457767  1
  O  O207  1  0.64738300  0.93692300  0.82208900  1
  O  O208  1  0.04379333  0.31404967  0.84457767  1
  O  O209  1  0.07026200  0.53250700  0.84415000  1
  O  O210  1  0.74673667  0.47681933  0.64505033  1
  O  O211  1  0.79557833  0.19917367  0.01081667  1
  O  O212  1  0.87108833  0.73692867  0.82251667  1
  O  O213  1  0.68091433  0.49521767  0.89748467  1
  O  O214  1  0.26307133  0.13415967  0.82251667  1
  O  O215  1  0.53250700  0.07026200  0.65585000  1
  O  O216  1  0.71046000  0.06307700  0.67791100  1
  O  O217  1  0.65241900  0.17144900  0.76918200  1
  O  O218  1  0.92973800  0.46224500  0.65585000  1
  O  O219  1  0.16188433  0.01424767  0.93584867  1
  O  O220  1  0.35261700  0.28954000  0.67791100  1
  O  O221  1  0.52318067  0.25326333  0.14505033  1
  O  O222  1  0.28954000  0.35261700  0.82208900  1
  O  O223  1  0.73008267  0.47681933  0.14505033  1
  O  O224  1  0.73008267  0.25326333  0.64505033  1
  O  O225  1  0.98071633  0.37712667  0.98875567  1
  O  O226  1  0.52318067  0.26991733  0.64505033  1
  O  O227  1  0.93692300  0.64738300  0.67791100  1
  O  O228  1  0.51903000  0.34758100  0.76918200  1
  O  O229  1  0.53775500  0.46749300  0.65585000  1
  O  O230  1  0.17144900  0.65241900  0.73081800  1
  O  O231  1  0.39641033  0.01928367  0.98875567  1
  O  O232  1  0.74673667  0.26991733  0.14505033  1
  O  O233  1  0.48097000  0.82855100  0.73081800  1
  O  O234  1  0.81430333  0.31908567  0.89748467  1
  O  O235  1  0.34758100  0.51903000  0.73081800  1
  O  O236  1  0.98575233  0.14763667  0.93584867  1
  O  O237  1  0.58659667  0.18984733  0.02161633  1
  O  O238  1  0.46749300  0.53775500  0.84415000  1
  O  O239  1  0.40359533  0.20442167  0.01081667  1
  O  O240  1  0.68595033  0.72974367  0.84457767  1
  O  O241  1  0.81015267  0.41340333  0.52161633  1
  O  O242  1  0.86584033  0.12891167  0.82251667  1
  O  O243  1  0.46224500  0.92973800  0.84415000  1
  O  O244  1  0.81015267  0.39674933  0.02161633  1
  O  O245  1  0.60325067  0.41340333  0.02161633  1
