# generated using pymatgen
data_Ba3BiRu2O9
_symmetry_space_group_name_H-M   'P 1'
_cell_length_a   6.01328000
_cell_length_b   10.43503000
_cell_length_c   14.85538241
_cell_angle_alpha   90.00000000
_cell_angle_beta   91.64770738
_cell_angle_gamma   90.00000000
_symmetry_Int_Tables_number   1
_chemical_formula_structural   Ba3BiRu2O9
_chemical_formula_sum   'Ba12 Bi4 Ru8 O36'
_cell_volume   931.77135534
_cell_formula_units_Z   4
loop_
 _symmetry_equiv_pos_site_id
 _symmetry_equiv_pos_as_xyz
  1  'x, y, z'
loop_
 _atom_site_type_symbol
 _atom_site_label
 _atom_site_symmetry_multiplicity
 _atom_site_fract_x
 _atom_site_fract_y
 _atom_site_fract_z
 _atom_site_occupancy
  Ba  Ba0  1  0.50000000  0.50259600  0.25000000  1
  Ba  Ba1  1  0.50418300  0.83440700  0.59567400  1
  Ba  Ba2  1  0.49581700  0.83440700  0.90432600  1
  Ba  Ba3  1  0.99581700  0.66559300  0.40432600  1
  Ba  Ba4  1  0.00000000  0.99740400  0.75000000  1
  Ba  Ba5  1  0.00418300  0.66559300  0.09567400  1
  Ba  Ba6  1  0.00000000  0.00259600  0.25000000  1
  Ba  Ba7  1  0.00418300  0.33440700  0.59567400  1
  Ba  Ba8  1  0.99581700  0.33440700  0.90432600  1
  Ba  Ba9  1  0.49581700  0.16559300  0.40432600  1
  Ba  Ba10  1  0.50000000  0.49740400  0.75000000  1
  Ba  Ba11  1  0.50418300  0.16559300  0.09567400  1
  Bi  Bi12  1  0.00000000  0.00000000  0.50000000  1
  Bi  Bi13  1  0.00000000  0.00000000  0.00000000  1
  Bi  Bi14  1  0.50000000  0.50000000  0.50000000  1
  Bi  Bi15  1  0.50000000  0.50000000  0.00000000  1
  Ru  Ru16  1  0.48792850  0.83406050  0.33407600  1
  Ru  Ru17  1  0.51207150  0.83406050  0.16592400  1
  Ru  Ru18  1  0.98792850  0.66593950  0.83407600  1
  Ru  Ru19  1  0.01207150  0.66593950  0.66592400  1
  Ru  Ru20  1  0.98792850  0.33406050  0.33407600  1
  Ru  Ru21  1  0.01207150  0.33406050  0.16592400  1
  Ru  Ru22  1  0.48792850  0.16593950  0.83407600  1
  Ru  Ru23  1  0.51207150  0.16593950  0.66592400  1
  O  O24  1  0.73580800  0.76196800  0.26014000  1
  O  O25  1  0.47403400  0.67248900  0.40388400  1
  O  O26  1  0.52596600  0.67248900  0.09611600  1
  O  O27  1  0.02596600  0.82751100  0.59611600  1
  O  O28  1  0.73203500  0.59651300  0.89983900  1
  O  O29  1  0.76796500  0.90348700  0.10016100  1
  O  O30  1  0.26796500  0.59651300  0.60016100  1
  O  O31  1  0.19223250  0.58765350  0.92447800  1
  O  O32  1  0.97403400  0.82751100  0.90388400  1
  O  O33  1  0.23203500  0.90348700  0.39983900  1
  O  O34  1  0.50000000  0.99106400  0.25000000  1
  O  O35  1  0.26419200  0.76196800  0.23986000  1
  O  O36  1  0.23580800  0.73803200  0.76014000  1
  O  O37  1  0.00000000  0.50893600  0.75000000  1
  O  O38  1  0.30776750  0.91234650  0.07552200  1
  O  O39  1  0.69223250  0.91234650  0.42447800  1
  O  O40  1  0.80776750  0.58765350  0.57552200  1
  O  O41  1  0.76419200  0.73803200  0.73986000  1
  O  O42  1  0.23580800  0.26196800  0.26014000  1
  O  O43  1  0.97403400  0.17248900  0.40388400  1
  O  O44  1  0.02596600  0.17248900  0.09611600  1
  O  O45  1  0.52596600  0.32751100  0.59611600  1
  O  O46  1  0.23203500  0.09651300  0.89983900  1
  O  O47  1  0.26796500  0.40348700  0.10016100  1
  O  O48  1  0.76796500  0.09651300  0.60016100  1
  O  O49  1  0.69223250  0.08765350  0.92447800  1
  O  O50  1  0.47403400  0.32751100  0.90388400  1
  O  O51  1  0.73203500  0.40348700  0.39983900  1
  O  O52  1  0.00000000  0.49106400  0.25000000  1
  O  O53  1  0.76419200  0.26196800  0.23986000  1
  O  O54  1  0.73580800  0.23803200  0.76014000  1
  O  O55  1  0.50000000  0.00893600  0.75000000  1
  O  O56  1  0.80776750  0.41234650  0.07552200  1
  O  O57  1  0.19223250  0.41234650  0.42447800  1
  O  O58  1  0.30776750  0.08765350  0.57552200  1
  O  O59  1  0.26419200  0.23803200  0.73986000  1
