# generated using pymatgen
data_Ce10Ga5Br4
_symmetry_space_group_name_H-M   'P 1'
_cell_length_a   7.94210800
_cell_length_b   7.94210800
_cell_length_c   31.76131600
_cell_angle_alpha   90.00000000
_cell_angle_beta   90.00000000
_cell_angle_gamma   90.00000000
_symmetry_Int_Tables_number   1
_chemical_formula_structural   Ce10Ga5Br4
_chemical_formula_sum   'Ce40 Ga20 Br16'
_cell_volume   2003.41105384
_cell_formula_units_Z   4
loop_
 _symmetry_equiv_pos_site_id
 _symmetry_equiv_pos_as_xyz
  1  'x, y, z'
loop_
 _atom_site_type_symbol
 _atom_site_label
 _atom_site_symmetry_multiplicity
 _atom_site_fract_x
 _atom_site_fract_y
 _atom_site_fract_z
 _atom_site_occupancy
  Ce  Ce0  1  0.82898050  0.67101950  0.29539450  1
  Ce  Ce1  1  0.16829800  0.33170200  0.42627000  1
  Ce  Ce2  1  0.33170200  0.83170200  0.42627000  1
  Ce  Ce3  1  0.17101950  0.32898050  0.29539450  1
  Ce  Ce4  1  0.17101950  0.67101950  0.20460550  1
  Ce  Ce5  1  0.50000000  0.50000000  0.15505600  1
  Ce  Ce6  1  0.67101950  0.17101950  0.29539450  1
  Ce  Ce7  1  0.50000000  0.50000000  0.34494400  1
  Ce  Ce8  1  0.66829800  0.16829800  0.42627000  1
  Ce  Ce9  1  0.82898050  0.32898050  0.20460550  1
  Ce  Ce10  1  0.83170200  0.66829800  0.42627000  1
  Ce  Ce11  1  0.32898050  0.17101950  0.20460550  1
  Ce  Ce12  1  0.67101950  0.82898050  0.20460550  1
  Ce  Ce13  1  0.00000000  0.00000000  0.15505600  1
  Ce  Ce14  1  0.83170200  0.33170200  0.07373000  1
  Ce  Ce15  1  0.32898050  0.82898050  0.29539450  1
  Ce  Ce16  1  0.66829800  0.83170200  0.07373000  1
  Ce  Ce17  1  0.16829800  0.66829800  0.07373000  1
  Ce  Ce18  1  0.00000000  0.00000000  0.34494400  1
  Ce  Ce19  1  0.33170200  0.16829800  0.07373000  1
  Ce  Ce20  1  0.32898050  0.17101950  0.79539450  1
  Ce  Ce21  1  0.66829800  0.83170200  0.92627000  1
  Ce  Ce22  1  0.83170200  0.33170200  0.92627000  1
  Ce  Ce23  1  0.67101950  0.82898050  0.79539450  1
  Ce  Ce24  1  0.67101950  0.17101950  0.70460550  1
  Ce  Ce25  1  0.00000000  0.00000000  0.65505600  1
  Ce  Ce26  1  0.17101950  0.67101950  0.79539450  1
  Ce  Ce27  1  0.00000000  0.00000000  0.84494400  1
  Ce  Ce28  1  0.16829800  0.66829800  0.92627000  1
  Ce  Ce29  1  0.32898050  0.82898050  0.70460550  1
  Ce  Ce30  1  0.33170200  0.16829800  0.92627000  1
  Ce  Ce31  1  0.82898050  0.67101950  0.70460550  1
  Ce  Ce32  1  0.17101950  0.32898050  0.70460550  1
  Ce  Ce33  1  0.50000000  0.50000000  0.65505600  1
  Ce  Ce34  1  0.33170200  0.83170200  0.57373000  1
  Ce  Ce35  1  0.82898050  0.32898050  0.79539450  1
  Ce  Ce36  1  0.16829800  0.33170200  0.57373000  1
  Ce  Ce37  1  0.66829800  0.16829800  0.57373000  1
  Ce  Ce38  1  0.50000000  0.50000000  0.84494400  1
  Ce  Ce39  1  0.83170200  0.66829800  0.57373000  1
  Ga  Ga40  1  0.37556150  0.87556150  0.13702950  1
  Ga  Ga41  1  0.87556150  0.62443850  0.13702950  1
  Ga  Ga42  1  0.62443850  0.87556150  0.36297050  1
  Ga  Ga43  1  0.62443850  0.12443850  0.13702950  1
  Ga  Ga44  1  0.87556150  0.37556150  0.36297050  1
  Ga  Ga45  1  0.12443850  0.62443850  0.36297050  1
  Ga  Ga46  1  0.12443850  0.37556150  0.13702950  1
  Ga  Ga47  1  0.50000000  0.50000000  0.25000000  1
  Ga  Ga48  1  0.37556150  0.12443850  0.36297050  1
  Ga  Ga49  1  0.00000000  0.00000000  0.25000000  1
  Ga  Ga50  1  0.87556150  0.37556150  0.63702950  1
  Ga  Ga51  1  0.37556150  0.12443850  0.63702950  1
  Ga  Ga52  1  0.12443850  0.37556150  0.86297050  1
  Ga  Ga53  1  0.12443850  0.62443850  0.63702950  1
  Ga  Ga54  1  0.37556150  0.87556150  0.86297050  1
  Ga  Ga55  1  0.62443850  0.12443850  0.86297050  1
  Ga  Ga56  1  0.62443850  0.87556150  0.63702950  1
  Ga  Ga57  1  0.00000000  0.00000000  0.75000000  1
  Ga  Ga58  1  0.87556150  0.62443850  0.86297050  1
  Ga  Ga59  1  0.50000000  0.50000000  0.75000000  1
  Br  Br60  1  0.50000000  0.50000000  0.44226500  1
  Br  Br61  1  0.00000000  0.00000000  0.44226500  1
  Br  Br62  1  0.14365100  0.35634900  0.00000000  1
  Br  Br63  1  0.85634900  0.64365100  0.00000000  1
  Br  Br64  1  0.50000000  0.50000000  0.05773500  1
  Br  Br65  1  0.00000000  0.00000000  0.05773500  1
  Br  Br66  1  0.64365100  0.14365100  0.00000000  1
  Br  Br67  1  0.85634900  0.35634900  0.50000000  1
  Br  Br68  1  0.00000000  0.00000000  0.94226500  1
  Br  Br69  1  0.50000000  0.50000000  0.94226500  1
  Br  Br70  1  0.64365100  0.85634900  0.50000000  1
  Br  Br71  1  0.35634900  0.14365100  0.50000000  1
  Br  Br72  1  0.00000000  0.00000000  0.55773500  1
  Br  Br73  1  0.50000000  0.50000000  0.55773500  1
  Br  Br74  1  0.14365100  0.64365100  0.50000000  1
  Br  Br75  1  0.35634900  0.85634900  0.00000000  1
