# generated using pymatgen
data_K5InPb8
_symmetry_space_group_name_H-M   'P 1'
_cell_length_a   7.06804632
_cell_length_b   7.06804632
_cell_length_c   38.93468368
_cell_angle_alpha   90.00000000
_cell_angle_beta   90.00000000
_cell_angle_gamma   120.00000000
_symmetry_Int_Tables_number   1
_chemical_formula_structural   K5InPb8
_chemical_formula_sum   'K15 In3 Pb24'
_cell_volume   1684.48076701
_cell_formula_units_Z   3
loop_
 _symmetry_equiv_pos_site_id
 _symmetry_equiv_pos_as_xyz
  1  'x, y, z'
loop_
 _atom_site_type_symbol
 _atom_site_label
 _atom_site_symmetry_multiplicity
 _atom_site_fract_x
 _atom_site_fract_y
 _atom_site_fract_z
 _atom_site_occupancy
  K  K0  1  0.66666667  0.33333333  0.01525433  1
  K  K1  1  0.33333333  0.66666667  0.16666667  1
  K  K2  1  0.00000000  0.00000000  0.21982900  1
  K  K3  1  0.00000000  0.00000000  0.31807900  1
  K  K4  1  0.66666667  0.33333333  0.11350433  1
  K  K5  1  0.33333333  0.66666667  0.34858767  1
  K  K6  1  1.00000000  1.00000000  0.50000000  1
  K  K7  1  0.66666667  0.33333333  0.55316233  1
  K  K8  1  0.66666667  0.33333333  0.65141233  1
  K  K9  1  0.33333333  0.66666667  0.44683767  1
  K  K10  1  0.00000000  0.00000000  0.68192100  1
  K  K11  1  0.66666667  0.33333333  0.83333333  1
  K  K12  1  0.33333333  0.66666667  0.88649567  1
  K  K13  1  0.33333333  0.66666667  0.98474567  1
  K  K14  1  0.00000000  0.00000000  0.78017100  1
  In  In15  1  0.00000000  0.00000000  0.00000000  1
  In  In16  1  0.66666667  0.33333333  0.33333333  1
  In  In17  1  0.33333333  0.66666667  0.66666667  1
  Pb  Pb18  1  0.68359267  0.84179633  0.06592033  1
  Pb  Pb19  1  0.00000000  0.00000000  0.12842000  1
  Pb  Pb20  1  0.50846300  0.49153700  0.26741300  1
  Pb  Pb21  1  0.15820367  0.31640733  0.06592033  1
  Pb  Pb22  1  0.66666667  0.33333333  0.20491333  1
  Pb  Pb23  1  0.15820367  0.84179633  0.06592033  1
  Pb  Pb24  1  0.50846300  0.01692600  0.26741300  1
  Pb  Pb25  1  0.98307400  0.49153700  0.26741300  1
  Pb  Pb26  1  0.35025933  0.17512967  0.39925367  1
  Pb  Pb27  1  0.66666667  0.33333333  0.46175333  1
  Pb  Pb28  1  0.17512967  0.82487033  0.60074633  1
  Pb  Pb29  1  0.82487033  0.64974067  0.39925367  1
  Pb  Pb30  1  0.33333333  0.66666667  0.53824667  1
  Pb  Pb31  1  0.82487033  0.17512967  0.39925367  1
  Pb  Pb32  1  0.17512967  0.35025933  0.60074633  1
  Pb  Pb33  1  0.64974067  0.82487033  0.60074633  1
  Pb  Pb34  1  0.01692600  0.50846300  0.73258700  1
  Pb  Pb35  1  0.33333333  0.66666667  0.79508667  1
  Pb  Pb36  1  0.84179633  0.15820367  0.93407967  1
  Pb  Pb37  1  0.49153700  0.98307400  0.73258700  1
  Pb  Pb38  1  0.00000000  0.00000000  0.87158000  1
  Pb  Pb39  1  0.49153700  0.50846300  0.73258700  1
  Pb  Pb40  1  0.84179633  0.68359267  0.93407967  1
  Pb  Pb41  1  0.31640733  0.15820367  0.93407967  1
