# generated using pymatgen
data_Dy5In3
_symmetry_space_group_name_H-M   'P 1'
_cell_length_a   12.29496200
_cell_length_b   12.29496200
_cell_length_c   5.99320600
_cell_angle_alpha   90.00000000
_cell_angle_beta   90.00000000
_cell_angle_gamma   90.00000000
_symmetry_Int_Tables_number   1
_chemical_formula_structural   Dy5In3
_chemical_formula_sum   'Dy20 In12'
_cell_volume   905.96952107
_cell_formula_units_Z   4
loop_
 _symmetry_equiv_pos_site_id
 _symmetry_equiv_pos_as_xyz
  1  'x, y, z'
loop_
 _atom_site_type_symbol
 _atom_site_label
 _atom_site_symmetry_multiplicity
 _atom_site_fract_x
 _atom_site_fract_y
 _atom_site_fract_z
 _atom_site_occupancy
  Dy  Dy0  1  0.21946500  0.91674800  0.00000000  1
  Dy  Dy1  1  0.78053500  0.08325200  0.00000000  1
  Dy  Dy2  1  0.58325200  0.71946500  0.50000000  1
  Dy  Dy3  1  0.21946500  0.08325200  0.50000000  1
  Dy  Dy4  1  0.41674800  0.71946500  0.00000000  1
  Dy  Dy5  1  0.50000000  0.00000000  0.75000000  1
  Dy  Dy6  1  0.50000000  0.00000000  0.25000000  1
  Dy  Dy7  1  0.78053500  0.91674800  0.50000000  1
  Dy  Dy8  1  0.41674800  0.28053500  0.50000000  1
  Dy  Dy9  1  0.58325200  0.28053500  0.00000000  1
  Dy  Dy10  1  0.71946500  0.41674800  0.50000000  1
  Dy  Dy11  1  0.28053500  0.58325200  0.50000000  1
  Dy  Dy12  1  0.08325200  0.21946500  0.00000000  1
  Dy  Dy13  1  0.71946500  0.58325200  0.00000000  1
  Dy  Dy14  1  0.91674800  0.21946500  0.50000000  1
  Dy  Dy15  1  0.00000000  0.50000000  0.25000000  1
  Dy  Dy16  1  0.00000000  0.50000000  0.75000000  1
  Dy  Dy17  1  0.28053500  0.41674800  0.00000000  1
  Dy  Dy18  1  0.91674800  0.78053500  0.00000000  1
  Dy  Dy19  1  0.08325200  0.78053500  0.50000000  1
  In  In20  1  0.33864000  0.16136000  0.00000000  1
  In  In21  1  0.33864000  0.83864000  0.50000000  1
  In  In22  1  0.00000000  0.00000000  0.25000000  1
  In  In23  1  0.66136000  0.16136000  0.50000000  1
  In  In24  1  0.66136000  0.83864000  0.00000000  1
  In  In25  1  0.00000000  0.00000000  0.75000000  1
  In  In26  1  0.83864000  0.66136000  0.50000000  1
  In  In27  1  0.83864000  0.33864000  0.00000000  1
  In  In28  1  0.50000000  0.50000000  0.75000000  1
  In  In29  1  0.16136000  0.66136000  0.00000000  1
  In  In30  1  0.16136000  0.33864000  0.50000000  1
  In  In31  1  0.50000000  0.50000000  0.25000000  1
