# generated using pymatgen
data_Li4FeP2O9
_symmetry_space_group_name_H-M   'P 1'
_cell_length_a   14.42861400
_cell_length_b   6.78821000
_cell_length_c   7.10971111
_cell_angle_alpha   90.00000000
_cell_angle_beta   90.75613132
_cell_angle_gamma   90.00000000
_symmetry_Int_Tables_number   1
_chemical_formula_structural   Li4FeP2O9
_chemical_formula_sum   'Li16 Fe4 P8 O36'
_cell_volume   696.29619012
_cell_formula_units_Z   4
loop_
 _symmetry_equiv_pos_site_id
 _symmetry_equiv_pos_as_xyz
  1  'x, y, z'
loop_
 _atom_site_type_symbol
 _atom_site_label
 _atom_site_symmetry_multiplicity
 _atom_site_fract_x
 _atom_site_fract_y
 _atom_site_fract_z
 _atom_site_occupancy
  Li  Li0  1  0.00000000  0.24593100  0.00000000  1
  Li  Li1  1  0.60391000  0.50000000  0.23563500  1
  Li  Li2  1  0.87076100  0.50000000  0.29599100  1
  Li  Li3  1  0.00000000  0.75406900  0.00000000  1
  Li  Li4  1  0.89609000  0.00000000  0.76436500  1
  Li  Li5  1  0.62923900  0.00000000  0.70400900  1
  Li  Li6  1  0.75000000  0.25000000  0.50000000  1
  Li  Li7  1  0.75000000  0.75000000  0.50000000  1
  Li  Li8  1  0.50000000  0.74593100  0.00000000  1
  Li  Li9  1  0.10391000  0.00000000  0.23563500  1
  Li  Li10  1  0.37076100  0.00000000  0.29599100  1
  Li  Li11  1  0.50000000  0.25406900  0.00000000  1
  Li  Li12  1  0.39609000  0.50000000  0.76436500  1
  Li  Li13  1  0.12923900  0.50000000  0.70400900  1
  Li  Li14  1  0.25000000  0.75000000  0.50000000  1
  Li  Li15  1  0.25000000  0.25000000  0.50000000  1
  Fe  Fe16  1  0.75000000  0.75000000  0.00000000  1
  Fe  Fe17  1  0.75000000  0.25000000  0.00000000  1
  Fe  Fe18  1  0.25000000  0.25000000  0.00000000  1
  Fe  Fe19  1  0.25000000  0.75000000  0.00000000  1
  P  P20  1  0.62362200  0.50000000  0.70621300  1
  P  P21  1  0.60175200  0.00000000  0.24582500  1
  P  P22  1  0.87637800  0.00000000  0.29378700  1
  P  P23  1  0.89824800  0.50000000  0.75417500  1
  P  P24  1  0.12362200  0.00000000  0.70621300  1
  P  P25  1  0.10175200  0.50000000  0.24582500  1
  P  P26  1  0.37637800  0.50000000  0.29378700  1
  P  P27  1  0.39824800  0.00000000  0.75417500  1
  O  O28  1  0.76342300  0.00000000  0.89715700  1
  O  O29  1  0.82011650  0.19155150  0.23669700  1
  O  O30  1  0.96907200  0.00000000  0.19083200  1
  O  O31  1  0.67988350  0.30844850  0.76330300  1
  O  O32  1  0.62705800  0.50000000  0.49228300  1
  O  O33  1  0.50402800  0.00000000  0.76172100  1
  O  O34  1  0.53092800  0.50000000  0.80916800  1
  O  O35  1  0.73657700  0.50000000  0.10284300  1
  O  O36  1  0.62904450  0.81011850  0.12954800  1
  O  O37  1  0.87095550  0.68988150  0.87045200  1
  O  O38  1  0.65288800  0.00000000  0.43632300  1
  O  O39  1  0.84711200  0.50000000  0.56367700  1
  O  O40  1  0.87294200  0.00000000  0.50771700  1
  O  O41  1  0.82011650  0.80844850  0.23669700  1
  O  O42  1  0.67988350  0.69155150  0.76330300  1
  O  O43  1  0.87095550  0.31011850  0.87045200  1
  O  O44  1  0.99597200  0.50000000  0.23827900  1
  O  O45  1  0.62904450  0.18988150  0.12954800  1
  O  O46  1  0.26342300  0.50000000  0.89715700  1
  O  O47  1  0.32011650  0.69155150  0.23669700  1
  O  O48  1  0.46907200  0.50000000  0.19083200  1
  O  O49  1  0.17988350  0.80844850  0.76330300  1
  O  O50  1  0.12705800  0.00000000  0.49228300  1
  O  O51  1  0.00402800  0.50000000  0.76172100  1
  O  O52  1  0.03092800  0.00000000  0.80916800  1
  O  O53  1  0.23657700  0.00000000  0.10284300  1
  O  O54  1  0.12904450  0.31011850  0.12954800  1
  O  O55  1  0.37095550  0.18988150  0.87045200  1
  O  O56  1  0.15288800  0.50000000  0.43632300  1
  O  O57  1  0.34711200  0.00000000  0.56367700  1
  O  O58  1  0.37294200  0.50000000  0.50771700  1
  O  O59  1  0.32011650  0.30844850  0.23669700  1
  O  O60  1  0.17988350  0.19155150  0.76330300  1
  O  O61  1  0.37095550  0.81011850  0.87045200  1
  O  O62  1  0.49597200  0.00000000  0.23827900  1
  O  O63  1  0.12904450  0.68988150  0.12954800  1
