# generated using pymatgen
data_NaV(SO4)2
_symmetry_space_group_name_H-M   'P 1'
_cell_length_a   8.23595086
_cell_length_b   5.22723885
_cell_length_c   7.28813440
_cell_angle_alpha   90.00000000
_cell_angle_beta   90.06709954
_cell_angle_gamma   90.00000000
_symmetry_Int_Tables_number   1
_chemical_formula_structural   NaV(SO4)2
_chemical_formula_sum   'Na2 V2 S4 O16'
_cell_volume   313.76331599
_cell_formula_units_Z   2
loop_
 _symmetry_equiv_pos_site_id
 _symmetry_equiv_pos_as_xyz
  1  'x, y, z'
loop_
 _atom_site_type_symbol
 _atom_site_label
 _atom_site_symmetry_multiplicity
 _atom_site_fract_x
 _atom_site_fract_y
 _atom_site_fract_z
 _atom_site_occupancy
  Na  Na0  1  0.50000000  0.50000000  0.00000000  1
  Na  Na1  1  0.00000000  0.00000000  0.00000000  1
  V  V2  1  0.50000000  0.50000000  0.50000000  1
  V  V3  1  0.00000000  0.00000000  0.50000000  1
  S  S4  1  0.64403850  0.00000000  0.27955200  1
  S  S5  1  0.35596150  0.00000000  0.72044800  1
  S  S6  1  0.14403850  0.50000000  0.27955200  1
  S  S7  1  0.85596150  0.50000000  0.72044800  1
  O  O8  1  0.28129675  0.00000000  0.90020075  1
  O  O9  1  0.71870325  0.00000000  0.09979925  1
  O  O10  1  0.76013125  0.00000000  0.43507275  1
  O  O11  1  0.23986875  0.00000000  0.56492725  1
  O  O12  1  0.46491650  0.23179675  0.70214050  1
  O  O13  1  0.46491650  0.76820325  0.70214050  1
  O  O14  1  0.53508350  0.76820325  0.29785950  1
  O  O15  1  0.53508350  0.23179675  0.29785950  1
  O  O16  1  0.78129675  0.50000000  0.90020075  1
  O  O17  1  0.21870325  0.50000000  0.09979925  1
  O  O18  1  0.26013125  0.50000000  0.43507275  1
  O  O19  1  0.73986875  0.50000000  0.56492725  1
  O  O20  1  0.96491650  0.73179675  0.70214050  1
  O  O21  1  0.96491650  0.26820325  0.70214050  1
  O  O22  1  0.03508350  0.26820325  0.29785950  1
  O  O23  1  0.03508350  0.73179675  0.29785950  1
