# generated using pymatgen
data_Cs(Zr3I7)2
_symmetry_space_group_name_H-M   'P 1'
_cell_length_a   15.24691600
_cell_length_b   16.19758800
_cell_length_c   13.35780900
_cell_angle_alpha   90.00000000
_cell_angle_beta   90.00000000
_cell_angle_gamma   90.00000000
_symmetry_Int_Tables_number   1
_chemical_formula_structural   Cs(Zr3I7)2
_chemical_formula_sum   'Cs4 Zr24 I56'
_cell_volume   3298.88810570
_cell_formula_units_Z   4
loop_
 _symmetry_equiv_pos_site_id
 _symmetry_equiv_pos_as_xyz
  1  'x, y, z'
loop_
 _atom_site_type_symbol
 _atom_site_label
 _atom_site_symmetry_multiplicity
 _atom_site_fract_x
 _atom_site_fract_y
 _atom_site_fract_z
 _atom_site_occupancy
  Cs  Cs0  1  0.00000000  0.00000000  0.00000000  1
  Cs  Cs1  1  0.50000000  0.00000000  0.50000000  1
  Cs  Cs2  1  0.50000000  0.50000000  0.00000000  1
  Cs  Cs3  1  0.00000000  0.50000000  0.50000000  1
  Zr  Zr4  1  0.56535400  0.11336300  0.88515000  1
  Zr  Zr5  1  0.43464600  0.38663700  0.38515000  1
  Zr  Zr6  1  0.56535400  0.38663700  0.61485000  1
  Zr  Zr7  1  0.43464600  0.11336300  0.11485000  1
  Zr  Zr8  1  0.43464600  0.88663700  0.11485000  1
  Zr  Zr9  1  0.56535400  0.61336300  0.61485000  1
  Zr  Zr10  1  0.43464600  0.61336300  0.38515000  1
  Zr  Zr11  1  0.56535400  0.88663700  0.88515000  1
  Zr  Zr12  1  0.39428200  0.00000000  0.92226600  1
  Zr  Zr13  1  0.10571800  0.00000000  0.42226600  1
  Zr  Zr14  1  0.89428200  0.00000000  0.57773400  1
  Zr  Zr15  1  0.60571800  0.00000000  0.07773400  1
  Zr  Zr16  1  0.06535400  0.61336300  0.88515000  1
  Zr  Zr17  1  0.93464600  0.88663700  0.38515000  1
  Zr  Zr18  1  0.06535400  0.88663700  0.61485000  1
  Zr  Zr19  1  0.93464600  0.61336300  0.11485000  1
  Zr  Zr20  1  0.93464600  0.38663700  0.11485000  1
  Zr  Zr21  1  0.06535400  0.11336300  0.61485000  1
  Zr  Zr22  1  0.93464600  0.11336300  0.38515000  1
  Zr  Zr23  1  0.06535400  0.38663700  0.88515000  1
  Zr  Zr24  1  0.89428200  0.50000000  0.92226600  1
  Zr  Zr25  1  0.60571800  0.50000000  0.42226600  1
  Zr  Zr26  1  0.39428200  0.50000000  0.57773400  1
  Zr  Zr27  1  0.10571800  0.50000000  0.07773400  1
  I  I28  1  0.58820450  0.37912550  0.26013000  1
  I  I29  1  0.41179550  0.12087450  0.76013000  1
  I  I30  1  0.58820450  0.12087450  0.23987000  1
  I  I31  1  0.41179550  0.37912550  0.73987000  1
  I  I32  1  0.41179550  0.62087450  0.73987000  1
  I  I33  1  0.58820450  0.87912550  0.23987000  1
  I  I34  1  0.41179550  0.87912550  0.76013000  1
  I  I35  1  0.58820450  0.62087450  0.26013000  1
  I  I36  1  0.27188850  0.87840550  0.00600700  1
  I  I37  1  0.22811150  0.12159450  0.50600700  1
  I  I38  1  0.77188850  0.12159450  0.49399300  1
  I  I39  1  0.72811150  0.87840550  0.99399300  1
  I  I40  1  0.72811150  0.12159450  0.99399300  1
  I  I41  1  0.77188850  0.87840550  0.49399300  1
  I  I42  1  0.22811150  0.87840550  0.50600700  1
  I  I43  1  0.27188850  0.12159450  0.00600700  1
  I  I44  1  0.35549700  0.75000000  0.25000000  1
  I  I45  1  0.64450300  0.75000000  0.75000000  1
  I  I46  1  0.64450300  0.25000000  0.75000000  1
  I  I47  1  0.35549700  0.25000000  0.25000000  1
  I  I48  1  0.15079400  0.00000000  0.75854100  1
  I  I49  1  0.34920600  0.00000000  0.25854100  1
  I  I50  1  0.65079400  0.00000000  0.74145900  1
  I  I51  1  0.84920600  0.00000000  0.24145900  1
  I  I52  1  0.50000000  0.25469300  0.00000000  1
  I  I53  1  0.50000000  0.24530700  0.50000000  1
  I  I54  1  0.50000000  0.74530700  0.00000000  1
  I  I55  1  0.50000000  0.75469300  0.50000000  1
  I  I56  1  0.08820450  0.87912550  0.26013000  1
  I  I57  1  0.91179550  0.62087450  0.76013000  1
  I  I58  1  0.08820450  0.62087450  0.23987000  1
  I  I59  1  0.91179550  0.87912550  0.73987000  1
  I  I60  1  0.91179550  0.12087450  0.73987000  1
  I  I61  1  0.08820450  0.37912550  0.23987000  1
  I  I62  1  0.91179550  0.37912550  0.76013000  1
  I  I63  1  0.08820450  0.12087450  0.26013000  1
  I  I64  1  0.77188850  0.37840550  0.00600700  1
  I  I65  1  0.72811150  0.62159450  0.50600700  1
  I  I66  1  0.27188850  0.62159450  0.49399300  1
  I  I67  1  0.22811150  0.37840550  0.99399300  1
  I  I68  1  0.22811150  0.62159450  0.99399300  1
  I  I69  1  0.27188850  0.37840550  0.49399300  1
  I  I70  1  0.72811150  0.37840550  0.50600700  1
  I  I71  1  0.77188850  0.62159450  0.00600700  1
  I  I72  1  0.85549700  0.25000000  0.25000000  1
  I  I73  1  0.14450300  0.25000000  0.75000000  1
  I  I74  1  0.14450300  0.75000000  0.75000000  1
  I  I75  1  0.85549700  0.75000000  0.25000000  1
  I  I76  1  0.65079400  0.50000000  0.75854100  1
  I  I77  1  0.84920600  0.50000000  0.25854100  1
  I  I78  1  0.15079400  0.50000000  0.74145900  1
  I  I79  1  0.34920600  0.50000000  0.24145900  1
  I  I80  1  0.00000000  0.75469300  0.00000000  1
  I  I81  1  0.00000000  0.74530700  0.50000000  1
  I  I82  1  0.00000000  0.24530700  0.00000000  1
  I  I83  1  0.00000000  0.25469300  0.50000000  1
