# generated using pymatgen
data_Np2Si4Mo3
_symmetry_space_group_name_H-M   'P 1'
_cell_length_a   6.78087431
_cell_length_b   6.88846800
_cell_length_c   6.87022930
_cell_angle_alpha   90.00000000
_cell_angle_beta   109.74765066
_cell_angle_gamma   90.00000000
_symmetry_Int_Tables_number   1
_chemical_formula_structural   Np2Si4Mo3
_chemical_formula_sum   'Np4 Si8 Mo6'
_cell_volume   302.03468307
_cell_formula_units_Z   2
loop_
 _symmetry_equiv_pos_site_id
 _symmetry_equiv_pos_as_xyz
  1  'x, y, z'
loop_
 _atom_site_type_symbol
 _atom_site_label
 _atom_site_symmetry_multiplicity
 _atom_site_fract_x
 _atom_site_fract_y
 _atom_site_fract_z
 _atom_site_occupancy
  Np  Np0  1  0.44435800  0.83936100  0.31757200  1
  Np  Np1  1  0.05564200  0.33936100  0.68242800  1
  Np  Np2  1  0.94435800  0.66063900  0.31757200  1
  Np  Np3  1  0.55564200  0.16063900  0.68242800  1
  Si  Si4  1  0.37229300  0.54386800  0.59052200  1
  Si  Si5  1  0.87229300  0.95613200  0.59052200  1
  Si  Si6  1  0.13298000  0.63321500  0.00055900  1
  Si  Si7  1  0.63298000  0.86678500  0.00055900  1
  Si  Si8  1  0.12770700  0.04386800  0.40947800  1
  Si  Si9  1  0.86702000  0.36678500  0.99944100  1
  Si  Si10  1  0.62770700  0.45613200  0.40947800  1
  Si  Si11  1  0.36702000  0.13321500  0.99944100  1
  Mo  Mo12  1  0.75246700  0.66422400  0.74897800  1
  Mo  Mo13  1  0.24753300  0.33577600  0.25102200  1
  Mo  Mo14  1  0.25246700  0.83577600  0.74897800  1
  Mo  Mo15  1  0.50000000  0.50000000  0.00000000  1
  Mo  Mo16  1  0.00000000  0.00000000  0.00000000  1
  Mo  Mo17  1  0.74753300  0.16422400  0.25102200  1
