# generated using pymatgen
data_Cu3AsS3
_symmetry_space_group_name_H-M   'P 1'
_cell_length_a   9.96537800
_cell_length_b   9.96537800
_cell_length_c   9.96537800
_cell_angle_alpha   90.00000000
_cell_angle_beta   90.00000000
_cell_angle_gamma   90.00000000
_symmetry_Int_Tables_number   1
_chemical_formula_structural   Cu3AsS3
_chemical_formula_sum   'Cu24 As8 S24'
_cell_volume   989.64931899
_cell_formula_units_Z   8
loop_
 _symmetry_equiv_pos_site_id
 _symmetry_equiv_pos_as_xyz
  1  'x, y, z'
loop_
 _atom_site_type_symbol
 _atom_site_label
 _atom_site_symmetry_multiplicity
 _atom_site_fract_x
 _atom_site_fract_y
 _atom_site_fract_z
 _atom_site_occupancy
  Cu  Cu0  1  0.50000000  0.00000000  0.25000000  1
  Cu  Cu1  1  0.25000000  0.50000000  0.00000000  1
  Cu  Cu2  1  0.25000000  0.00000000  0.50000000  1
  Cu  Cu3  1  0.50000000  0.25000000  0.00000000  1
  Cu  Cu4  1  0.00000000  0.25000000  0.50000000  1
  Cu  Cu5  1  0.00000000  0.50000000  0.25000000  1
  Cu  Cu6  1  0.00000000  0.00000000  0.18210100  1
  Cu  Cu7  1  0.81789900  0.00000000  0.00000000  1
  Cu  Cu8  1  0.18210100  0.00000000  0.00000000  1
  Cu  Cu9  1  0.00000000  0.18210100  0.00000000  1
  Cu  Cu10  1  0.00000000  0.81789900  0.00000000  1
  Cu  Cu11  1  0.00000000  0.00000000  0.81789900  1
  Cu  Cu12  1  0.00000000  0.50000000  0.75000000  1
  Cu  Cu13  1  0.75000000  0.00000000  0.50000000  1
  Cu  Cu14  1  0.75000000  0.50000000  0.00000000  1
  Cu  Cu15  1  0.00000000  0.75000000  0.50000000  1
  Cu  Cu16  1  0.50000000  0.75000000  0.00000000  1
  Cu  Cu17  1  0.50000000  0.00000000  0.75000000  1
  Cu  Cu18  1  0.50000000  0.50000000  0.68210100  1
  Cu  Cu19  1  0.31789900  0.50000000  0.50000000  1
  Cu  Cu20  1  0.68210100  0.50000000  0.50000000  1
  Cu  Cu21  1  0.50000000  0.68210100  0.50000000  1
  Cu  Cu22  1  0.50000000  0.31789900  0.50000000  1
  Cu  Cu23  1  0.50000000  0.50000000  0.31789900  1
  As  As24  1  0.26274750  0.26274750  0.26274750  1
  As  As25  1  0.23725250  0.23725250  0.76274750  1
  As  As26  1  0.76274750  0.23725250  0.23725250  1
  As  As27  1  0.23725250  0.76274750  0.23725250  1
  As  As28  1  0.76274750  0.76274750  0.76274750  1
  As  As29  1  0.73725250  0.73725250  0.26274750  1
  As  As30  1  0.26274750  0.73725250  0.73725250  1
  As  As31  1  0.73725250  0.26274750  0.73725250  1
  S  S32  1  0.11398550  0.35261550  0.11398550  1
  S  S33  1  0.88601450  0.64738450  0.11398550  1
  S  S34  1  0.11398550  0.64738450  0.88601450  1
  S  S35  1  0.88601450  0.11398550  0.64738450  1
  S  S36  1  0.38601450  0.38601450  0.85261550  1
  S  S37  1  0.85261550  0.38601450  0.38601450  1
  S  S38  1  0.64738450  0.11398550  0.88601450  1
  S  S39  1  0.64738450  0.88601450  0.11398550  1
  S  S40  1  0.11398550  0.88601450  0.64738450  1
  S  S41  1  0.11398550  0.11398550  0.35261550  1
  S  S42  1  0.35261550  0.11398550  0.11398550  1
  S  S43  1  0.38601450  0.85261550  0.38601450  1
  S  S44  1  0.61398550  0.85261550  0.61398550  1
  S  S45  1  0.38601450  0.14738450  0.61398550  1
  S  S46  1  0.61398550  0.14738450  0.38601450  1
  S  S47  1  0.38601450  0.61398550  0.14738450  1
  S  S48  1  0.88601450  0.88601450  0.35261550  1
  S  S49  1  0.35261550  0.88601450  0.88601450  1
  S  S50  1  0.14738450  0.61398550  0.38601450  1
  S  S51  1  0.14738450  0.38601450  0.61398550  1
  S  S52  1  0.61398550  0.38601450  0.14738450  1
  S  S53  1  0.61398550  0.61398550  0.85261550  1
  S  S54  1  0.85261550  0.61398550  0.61398550  1
  S  S55  1  0.88601450  0.35261550  0.88601450  1
