# generated using pymatgen
data_K2Th(MoO4)3
_symmetry_space_group_name_H-M   'P 1'
_cell_length_a   18.68263200
_cell_length_b   12.14070600
_cell_length_c   5.54003850
_cell_angle_alpha   90.00000000
_cell_angle_beta   102.34207341
_cell_angle_gamma   90.00000000
_symmetry_Int_Tables_number   1
_chemical_formula_structural   K2Th(MoO4)3
_chemical_formula_sum   'K8 Th4 Mo12 O48'
_cell_volume   1227.55214681
_cell_formula_units_Z   4
loop_
 _symmetry_equiv_pos_site_id
 _symmetry_equiv_pos_as_xyz
  1  'x, y, z'
loop_
 _atom_site_type_symbol
 _atom_site_label
 _atom_site_symmetry_multiplicity
 _atom_site_fract_x
 _atom_site_fract_y
 _atom_site_fract_z
 _atom_site_occupancy
  K  K0  1  0.31477350  0.88358550  0.51112600  1
  K  K1  1  0.68522650  0.88358550  0.98887400  1
  K  K2  1  0.68522650  0.11641450  0.48887400  1
  K  K3  1  0.31477350  0.11641450  0.01112600  1
  K  K4  1  0.81477350  0.38358550  0.51112600  1
  K  K5  1  0.18522650  0.38358550  0.98887400  1
  K  K6  1  0.18522650  0.61641450  0.48887400  1
  K  K7  1  0.81477350  0.61641450  0.01112600  1
  Th  Th8  1  0.50000000  0.36849600  0.25000000  1
  Th  Th9  1  0.50000000  0.63150400  0.75000000  1
  Th  Th10  1  0.00000000  0.86849600  0.25000000  1
  Th  Th11  1  0.00000000  0.13150400  0.75000000  1
  Mo  Mo12  1  0.50000000  0.09716000  0.25000000  1
  Mo  Mo13  1  0.50000000  0.90284000  0.75000000  1
  Mo  Mo14  1  0.14782150  0.89413350  0.87317000  1
  Mo  Mo15  1  0.85217850  0.89413350  0.62683000  1
  Mo  Mo16  1  0.85217850  0.10586650  0.12683000  1
  Mo  Mo17  1  0.14782150  0.10586650  0.37317000  1
  Mo  Mo18  1  0.00000000  0.59716000  0.25000000  1
  Mo  Mo19  1  0.00000000  0.40284000  0.75000000  1
  Mo  Mo20  1  0.64782150  0.39413350  0.87317000  1
  Mo  Mo21  1  0.35217850  0.39413350  0.62683000  1
  Mo  Mo22  1  0.35217850  0.60586650  0.12683000  1
  Mo  Mo23  1  0.64782150  0.60586650  0.37317000  1
  O  O24  1  0.06763450  0.95295450  0.63207500  1
  O  O25  1  0.93236550  0.95295450  0.86792500  1
  O  O26  1  0.93236550  0.04704550  0.36792500  1
  O  O27  1  0.06763450  0.04704550  0.13207500  1
  O  O28  1  0.56902300  0.02401900  0.13634600  1
  O  O29  1  0.43097700  0.02401900  0.36365400  1
  O  O30  1  0.43097700  0.97598100  0.86365400  1
  O  O31  1  0.56902300  0.97598100  0.63634600  1
  O  O32  1  0.20778000  0.98184400  0.08316000  1
  O  O33  1  0.79222000  0.98184400  0.41684000  1
  O  O34  1  0.79222000  0.01815600  0.91684000  1
  O  O35  1  0.20778000  0.01815600  0.58316000  1
  O  O36  1  0.70057850  0.29884150  0.75083700  1
  O  O37  1  0.29942150  0.29884150  0.74916300  1
  O  O38  1  0.29942150  0.70115850  0.24916300  1
  O  O39  1  0.70057850  0.70115850  0.25083700  1
  O  O40  1  0.54486650  0.20636650  0.46312300  1
  O  O41  1  0.45513350  0.20636650  0.03687700  1
  O  O42  1  0.45513350  0.79363350  0.53687700  1
  O  O43  1  0.54486650  0.79363350  0.96312300  1
  O  O44  1  0.39895700  0.68202100  0.92454900  1
  O  O45  1  0.60104300  0.68202100  0.57545100  1
  O  O46  1  0.60104300  0.31797900  0.07545100  1
  O  O47  1  0.39895700  0.31797900  0.42454900  1
  O  O48  1  0.56763450  0.45295450  0.63207500  1
  O  O49  1  0.43236550  0.45295450  0.86792500  1
  O  O50  1  0.43236550  0.54704550  0.36792500  1
  O  O51  1  0.56763450  0.54704550  0.13207500  1
  O  O52  1  0.06902300  0.52401900  0.13634600  1
  O  O53  1  0.93097700  0.52401900  0.36365400  1
  O  O54  1  0.93097700  0.47598100  0.86365400  1
  O  O55  1  0.06902300  0.47598100  0.63634600  1
  O  O56  1  0.70778000  0.48184400  0.08316000  1
  O  O57  1  0.29222000  0.48184400  0.41684000  1
  O  O58  1  0.29222000  0.51815600  0.91684000  1
  O  O59  1  0.70778000  0.51815600  0.58316000  1
  O  O60  1  0.20057850  0.79884150  0.75083700  1
  O  O61  1  0.79942150  0.79884150  0.74916300  1
  O  O62  1  0.79942150  0.20115850  0.24916300  1
  O  O63  1  0.20057850  0.20115850  0.25083700  1
  O  O64  1  0.04486650  0.70636650  0.46312300  1
  O  O65  1  0.95513350  0.70636650  0.03687700  1
  O  O66  1  0.95513350  0.29363350  0.53687700  1
  O  O67  1  0.04486650  0.29363350  0.96312300  1
  O  O68  1  0.89895700  0.18202100  0.92454900  1
  O  O69  1  0.10104300  0.18202100  0.57545100  1
  O  O70  1  0.10104300  0.81797900  0.07545100  1
  O  O71  1  0.89895700  0.81797900  0.42454900  1
