# generated using pymatgen
data_La4As3
_symmetry_space_group_name_H-M   'P 1'
_cell_length_a   9.21956600
_cell_length_b   9.21956600
_cell_length_c   9.21956600
_cell_angle_alpha   90.00000000
_cell_angle_beta   90.00000000
_cell_angle_gamma   90.00000000
_symmetry_Int_Tables_number   1
_chemical_formula_structural   La4As3
_chemical_formula_sum   'La16 As12'
_cell_volume   783.66677227
_cell_formula_units_Z   4
loop_
 _symmetry_equiv_pos_site_id
 _symmetry_equiv_pos_as_xyz
  1  'x, y, z'
loop_
 _atom_site_type_symbol
 _atom_site_label
 _atom_site_symmetry_multiplicity
 _atom_site_fract_x
 _atom_site_fract_y
 _atom_site_fract_z
 _atom_site_occupancy
  La  La0  1  0.31861600  0.18138400  0.81861600  1
  La  La1  1  0.18138400  0.18138400  0.18138400  1
  La  La2  1  0.93138400  0.06861600  0.56861600  1
  La  La3  1  0.81861600  0.31861600  0.18138400  1
  La  La4  1  0.43138400  0.43138400  0.43138400  1
  La  La5  1  0.06861600  0.56861600  0.93138400  1
  La  La6  1  0.56861600  0.93138400  0.06861600  1
  La  La7  1  0.18138400  0.81861600  0.31861600  1
  La  La8  1  0.81861600  0.68138400  0.31861600  1
  La  La9  1  0.68138400  0.68138400  0.68138400  1
  La  La10  1  0.43138400  0.56861600  0.06861600  1
  La  La11  1  0.31861600  0.81861600  0.68138400  1
  La  La12  1  0.93138400  0.93138400  0.93138400  1
  La  La13  1  0.56861600  0.06861600  0.43138400  1
  La  La14  1  0.06861600  0.43138400  0.56861600  1
  La  La15  1  0.68138400  0.31861600  0.81861600  1
  As  As16  1  0.75000000  0.37500000  0.50000000  1
  As  As17  1  0.50000000  0.25000000  0.12500000  1
  As  As18  1  0.50000000  0.75000000  0.37500000  1
  As  As19  1  0.25000000  0.12500000  0.50000000  1
  As  As20  1  0.37500000  0.50000000  0.75000000  1
  As  As21  1  0.12500000  0.50000000  0.25000000  1
  As  As22  1  0.25000000  0.87500000  0.00000000  1
  As  As23  1  0.00000000  0.75000000  0.62500000  1
  As  As24  1  0.00000000  0.25000000  0.87500000  1
  As  As25  1  0.75000000  0.62500000  0.00000000  1
  As  As26  1  0.87500000  0.00000000  0.25000000  1
  As  As27  1  0.62500000  0.00000000  0.75000000  1
