# generated using pymatgen
data_TbCd3
_symmetry_space_group_name_H-M   'P 1'
_cell_length_a   7.17366000
_cell_length_b   10.97368800
_cell_length_c   4.91444700
_cell_angle_alpha   90.00000000
_cell_angle_beta   90.00000000
_cell_angle_gamma   90.00000000
_symmetry_Int_Tables_number   1
_chemical_formula_structural   TbCd3
_chemical_formula_sum   'Tb4 Cd12'
_cell_volume   386.87267223
_cell_formula_units_Z   4
loop_
 _symmetry_equiv_pos_site_id
 _symmetry_equiv_pos_as_xyz
  1  'x, y, z'
loop_
 _atom_site_type_symbol
 _atom_site_label
 _atom_site_symmetry_multiplicity
 _atom_site_fract_x
 _atom_site_fract_y
 _atom_site_fract_z
 _atom_site_occupancy
  Tb  Tb0  1  0.50000000  0.13522100  0.75000000  1
  Tb  Tb1  1  0.50000000  0.86477900  0.25000000  1
  Tb  Tb2  1  0.00000000  0.63522100  0.75000000  1
  Tb  Tb3  1  0.00000000  0.36477900  0.25000000  1
  Cd  Cd4  1  0.78520500  0.90465700  0.75000000  1
  Cd  Cd5  1  0.50000000  0.67622300  0.75000000  1
  Cd  Cd6  1  0.21479500  0.90465700  0.75000000  1
  Cd  Cd7  1  0.21479500  0.09534300  0.25000000  1
  Cd  Cd8  1  0.78520500  0.09534300  0.25000000  1
  Cd  Cd9  1  0.50000000  0.32377700  0.25000000  1
  Cd  Cd10  1  0.28520500  0.40465700  0.75000000  1
  Cd  Cd11  1  0.00000000  0.17622300  0.75000000  1
  Cd  Cd12  1  0.71479500  0.40465700  0.75000000  1
  Cd  Cd13  1  0.71479500  0.59534300  0.25000000  1
  Cd  Cd14  1  0.28520500  0.59534300  0.25000000  1
  Cd  Cd15  1  0.00000000  0.82377700  0.25000000  1
