# generated using pymatgen
data_CoNiH24(SO10)2
_symmetry_space_group_name_H-M   'P 1'
_cell_length_a   10.10644200
_cell_length_b   7.21358600
_cell_length_c   24.60047940
_cell_angle_alpha   90.00000000
_cell_angle_beta   100.22994056
_cell_angle_gamma   90.00000000
_symmetry_Int_Tables_number   1
_chemical_formula_structural   CoNiH24(SO10)2
_chemical_formula_sum   'Co4 Ni4 H96 S8 O80'
_cell_volume   1764.95484850
_cell_formula_units_Z   4
loop_
 _symmetry_equiv_pos_site_id
 _symmetry_equiv_pos_as_xyz
  1  'x, y, z'
loop_
 _atom_site_type_symbol
 _atom_site_label
 _atom_site_symmetry_multiplicity
 _atom_site_fract_x
 _atom_site_fract_y
 _atom_site_fract_z
 _atom_site_occupancy
  Co  Co0  1  0.00000000  0.00000000  0.00000000  1
  Co  Co1  1  0.00000000  0.00000000  0.50000000  1
  Co  Co2  1  0.50000000  0.50000000  0.00000000  1
  Co  Co3  1  0.50000000  0.50000000  0.50000000  1
  Ni  Ni4  1  0.00000000  0.94885300  0.75000000  1
  Ni  Ni5  1  0.50000000  0.55114700  0.25000000  1
  Ni  Ni6  1  0.50000000  0.44885300  0.75000000  1
  Ni  Ni7  1  0.00000000  0.05114700  0.25000000  1
  H  H8  1  0.20470150  0.13818750  0.94989400  1
  H  H9  1  0.29529850  0.63818750  0.55010600  1
  H  H10  1  0.29529850  0.36181250  0.05010600  1
  H  H11  1  0.20470150  0.86181250  0.44989400  1
  H  H12  1  0.27689600  0.02448000  0.00328800  1
  H  H13  1  0.72310400  0.02448000  0.49671200  1
  H  H14  1  0.22310400  0.47552000  0.99671200  1
  H  H15  1  0.77689600  0.47552000  0.50328800  1
  H  H16  1  0.46599700  0.82637500  0.94395900  1
  H  H17  1  0.03400300  0.32637500  0.55604100  1
  H  H18  1  0.03400300  0.67362500  0.05604100  1
  H  H19  1  0.46599700  0.17362500  0.44395900  1
  H  H20  1  0.34027950  0.69474150  0.92259600  1
  H  H21  1  0.15972050  0.19474150  0.57740400  1
  H  H22  1  0.15972050  0.80525850  0.07740400  1
  H  H23  1  0.34027950  0.30525850  0.42259600  1
  H  H24  1  0.62703900  0.68868600  0.09047200  1
  H  H25  1  0.37296100  0.68868600  0.40952800  1
  H  H26  1  0.87296100  0.81131400  0.90952800  1
  H  H27  1  0.12703900  0.81131400  0.59047200  1
  H  H28  1  0.48647300  0.78524600  0.06796700  1
  H  H29  1  0.51352700  0.78524600  0.43203300  1
  H  H30  1  0.01352700  0.71475400  0.93203300  1
  H  H31  1  0.98647300  0.71475400  0.56796700  1
  H  H32  1  0.15998600  0.06082700  0.84389500  1
  H  H33  1  0.34001400  0.56082700  0.65610500  1
  H  H34  1  0.34001400  0.43917300  0.15610500  1
  H  H35  1  0.15998600  0.93917300  0.34389500  1
  H  H36  1  0.16241450  0.83756550  0.84244000  1
  H  H37  1  0.83758550  0.83756550  0.65756000  1
  H  H38  1  0.33758550  0.66243450  0.15756000  1
  H  H39  1  0.66241450  0.66243450  0.34244000  1
  H  H40  1  0.92759700  0.64026900  0.79941700  1
  H  H41  1  0.07240300  0.64026900  0.70058300  1
  H  H42  1  0.57240300  0.85973100  0.20058300  1
  H  H43  1  0.42759700  0.85973100  0.29941700  1
  H  H44  1  0.79399500  0.72315200  0.76287400  1
  H  H45  1  0.20600500  0.72315200  0.73712600  1
  H  H46  1  0.70600500  0.77684800  0.23712600  1
  H  H47  1  0.29399500  0.77684800  0.26287400  1
  H  H48  1  0.43139050  0.76154050  0.79864800  1
  H  H49  1  0.06860950  0.26154050  0.70135200  1
  H  H50  1  0.06860950  0.73845950  0.20135200  1
  H  H51  1  0.43139050  0.23845950  0.29864800  1
  H  H52  1  0.33556000  0.60001600  0.81050100  1
  H  H53  1  0.66444000  0.60001600  0.68949900  1
  H  H54  1  0.16444000  0.89998400  0.18949900  1
  H  H55  1  0.83556000  0.89998400  0.31050100  1
  H  H56  1  0.70470150  0.63818750  0.94989400  1
  H  H57  1  0.79529850  0.13818750  0.55010600  1
  H  H58  1  0.79529850  0.86181250  0.05010600  1
  H  H59  1  0.70470150  0.36181250  0.44989400  1
  H  H60  1  0.77689600  0.52448000  0.00328800  1
  H  H61  1  0.22310400  0.52448000  0.49671200  1
  H  H62  1  0.72310400  0.97552000  0.99671200  1
  H  H63  1  0.27689600  0.97552000  0.50328800  1
  H  H64  1  0.96599700  0.32637500  0.94395900  1
  H  H65  1  0.53400300  0.82637500  0.55604100  1
  H  H66  1  0.53400300  0.17362500  0.05604100  1
  H  H67  1  0.96599700  0.67362500  0.44395900  1
  H  H68  1  0.84027950  0.19474150  0.92259600  1
  H  H69  1  0.65972050  0.69474150  0.57740400  1
  H  H70  1  0.65972050  0.30525850  0.07740400  1
  H  H71  1  0.84027950  0.80525850  0.42259600  1
  H  H72  1  0.12703900  0.18868600  0.09047200  1
  H  H73  1  0.87296100  0.18868600  0.40952800  1
  H  H74  1  0.37296100  0.31131400  0.90952800  1
  H  H75  1  0.62703900  0.31131400  0.59047200  1
  H  H76  1  0.98647300  0.28524600  0.06796700  1
  H  H77  1  0.01352700  0.28524600  0.43203300  1
  H  H78  1  0.51352700  0.21475400  0.93203300  1
  H  H79  1  0.48647300  0.21475400  0.56796700  1
  H  H80  1  0.65998600  0.56082700  0.84389500  1
  H  H81  1  0.84001400  0.06082700  0.65610500  1
  H  H82  1  0.84001400  0.93917300  0.15610500  1
  H  H83  1  0.65998600  0.43917300  0.34389500  1
  H  H84  1  0.66241450  0.33756550  0.84244000  1
  H  H85  1  0.33758550  0.33756550  0.65756000  1
  H  H86  1  0.83758550  0.16243450  0.15756000  1
  H  H87  1  0.16241450  0.16243450  0.34244000  1
  H  H88  1  0.42759700  0.14026900  0.79941700  1
  H  H89  1  0.57240300  0.14026900  0.70058300  1
  H  H90  1  0.07240300  0.35973100  0.20058300  1
  H  H91  1  0.92759700  0.35973100  0.29941700  1
  H  H92  1  0.29399500  0.22315200  0.76287400  1
  H  H93  1  0.70600500  0.22315200  0.73712600  1
  H  H94  1  0.20600500  0.27684800  0.23712600  1
  H  H95  1  0.79399500  0.27684800  0.26287400  1
  H  H96  1  0.93139050  0.26154050  0.79864800  1
  H  H97  1  0.56860950  0.76154050  0.70135200  1
  H  H98  1  0.56860950  0.23845950  0.20135200  1
  H  H99  1  0.93139050  0.73845950  0.29864800  1
  H  H100  1  0.83556000  0.10001600  0.81050100  1
  H  H101  1  0.16444000  0.10001600  0.68949900  1
  H  H102  1  0.66444000  0.39998400  0.18949900  1
  H  H103  1  0.33556000  0.39998400  0.31050100  1
  S  S104  1  0.12926050  0.45246250  0.87607500  1
  S  S105  1  0.87073950  0.45246250  0.62392500  1
  S  S106  1  0.37073950  0.04753750  0.12392500  1
  S  S107  1  0.62926050  0.04753750  0.37607500  1
  S  S108  1  0.62926050  0.95246250  0.87607500  1
  S  S109  1  0.37073950  0.95246250  0.62392500  1
  S  S110  1  0.87073950  0.54753750  0.12392500  1
  S  S111  1  0.12926050  0.54753750  0.37607500  1
  O  O112  1  0.01434450  0.44450050  0.82919500  1
  O  O113  1  0.98565550  0.44450050  0.67080500  1
  O  O114  1  0.48565550  0.05549950  0.17080500  1
  O  O115  1  0.51434450  0.05549950  0.32919500  1
  O  O116  1  0.22468750  0.60145550  0.86545200  1
  O  O117  1  0.77531250  0.60145550  0.63454800  1
  O  O118  1  0.27531250  0.89854450  0.13454800  1
  O  O119  1  0.72468750  0.89854450  0.36545200  1
  O  O120  1  0.20016750  0.26937850  0.88282800  1
  O  O121  1  0.29983250  0.76937850  0.61717200  1
  O  O122  1  0.29983250  0.23062150  0.11717200  1
  O  O123  1  0.20016750  0.73062150  0.38282800  1
  O  O124  1  0.08092900  0.49568400  0.92896800  1
  O  O125  1  0.91907100  0.49568400  0.57103200  1
  O  O126  1  0.41907100  0.00431600  0.07103200  1
  O  O127  1  0.58092900  0.00431600  0.42896800  1
  O  O128  1  0.19054850  0.05439450  0.97984000  1
  O  O129  1  0.30945150  0.55439450  0.52016000  1
  O  O130  1  0.30945150  0.44560550  0.02016000  1
  O  O131  1  0.19054850  0.94560550  0.47984000  1
  O  O132  1  0.40596700  0.73129000  0.95559600  1
  O  O133  1  0.09403300  0.23129000  0.54440400  1
  O  O134  1  0.09403300  0.76871000  0.04440400  1
  O  O135  1  0.40596700  0.26871000  0.45559600  1
  O  O136  1  0.53512200  0.66512900  0.07012200  1
  O  O137  1  0.46487800  0.66512900  0.42987800  1
  O  O138  1  0.96487800  0.83487100  0.92987800  1
  O  O139  1  0.03512200  0.83487100  0.57012200  1
  O  O140  1  0.14837550  0.95054050  0.81963100  1
  O  O141  1  0.35162450  0.45054050  0.68036900  1
  O  O142  1  0.35162450  0.54945950  0.18036900  1
  O  O143  1  0.14837550  0.04945950  0.31963100  1
  O  O144  1  0.88432400  0.75552200  0.78292900  1
  O  O145  1  0.11567600  0.75552200  0.71707100  1
  O  O146  1  0.61567600  0.74447800  0.21707100  1
  O  O147  1  0.38432400  0.74447800  0.28292900  1
  O  O148  1  0.37996850  0.65186050  0.78110400  1
  O  O149  1  0.12003150  0.15186050  0.71889600  1
  O  O150  1  0.12003150  0.84813950  0.21889600  1
  O  O151  1  0.37996850  0.34813950  0.28110400  1
  O  O152  1  0.51434450  0.94450050  0.82919500  1
  O  O153  1  0.48565550  0.94450050  0.67080500  1
  O  O154  1  0.98565550  0.55549950  0.17080500  1
  O  O155  1  0.01434450  0.55549950  0.32919500  1
  O  O156  1  0.72468750  0.10145550  0.86545200  1
  O  O157  1  0.27531250  0.10145550  0.63454800  1
  O  O158  1  0.77531250  0.39854450  0.13454800  1
  O  O159  1  0.22468750  0.39854450  0.36545200  1
  O  O160  1  0.70016750  0.76937850  0.88282800  1
  O  O161  1  0.79983250  0.26937850  0.61717200  1
  O  O162  1  0.79983250  0.73062150  0.11717200  1
  O  O163  1  0.70016750  0.23062150  0.38282800  1
  O  O164  1  0.58092900  0.99568400  0.92896800  1
  O  O165  1  0.41907100  0.99568400  0.57103200  1
  O  O166  1  0.91907100  0.50431600  0.07103200  1
  O  O167  1  0.08092900  0.50431600  0.42896800  1
  O  O168  1  0.69054850  0.55439450  0.97984000  1
  O  O169  1  0.80945150  0.05439450  0.52016000  1
  O  O170  1  0.80945150  0.94560550  0.02016000  1
  O  O171  1  0.69054850  0.44560550  0.47984000  1
  O  O172  1  0.90596700  0.23129000  0.95559600  1
  O  O173  1  0.59403300  0.73129000  0.54440400  1
  O  O174  1  0.59403300  0.26871000  0.04440400  1
  O  O175  1  0.90596700  0.76871000  0.45559600  1
  O  O176  1  0.03512200  0.16512900  0.07012200  1
  O  O177  1  0.96487800  0.16512900  0.42987800  1
  O  O178  1  0.46487800  0.33487100  0.92987800  1
  O  O179  1  0.53512200  0.33487100  0.57012200  1
  O  O180  1  0.64837550  0.45054050  0.81963100  1
  O  O181  1  0.85162450  0.95054050  0.68036900  1
  O  O182  1  0.85162450  0.04945950  0.18036900  1
  O  O183  1  0.64837550  0.54945950  0.31963100  1
  O  O184  1  0.38432400  0.25552200  0.78292900  1
  O  O185  1  0.61567600  0.25552200  0.71707100  1
  O  O186  1  0.11567600  0.24447800  0.21707100  1
  O  O187  1  0.88432400  0.24447800  0.28292900  1
  O  O188  1  0.87996850  0.15186050  0.78110400  1
  O  O189  1  0.62003150  0.65186050  0.71889600  1
  O  O190  1  0.62003150  0.34813950  0.21889600  1
  O  O191  1  0.87996850  0.84813950  0.28110400  1
