# generated using pymatgen
data_Sm4Sn3
_symmetry_space_group_name_H-M   'P 1'
_cell_length_a   9.50192600
_cell_length_b   9.50192600
_cell_length_c   9.50192600
_cell_angle_alpha   90.00000000
_cell_angle_beta   90.00000000
_cell_angle_gamma   90.00000000
_symmetry_Int_Tables_number   1
_chemical_formula_structural   Sm4Sn3
_chemical_formula_sum   'Sm16 Sn12'
_cell_volume   857.89657023
_cell_formula_units_Z   4
loop_
 _symmetry_equiv_pos_site_id
 _symmetry_equiv_pos_as_xyz
  1  'x, y, z'
loop_
 _atom_site_type_symbol
 _atom_site_label
 _atom_site_symmetry_multiplicity
 _atom_site_fract_x
 _atom_site_fract_y
 _atom_site_fract_z
 _atom_site_occupancy
  Sm  Sm0  1  0.17949400  0.82050600  0.32050600  1
  Sm  Sm1  1  0.92949400  0.07050600  0.57050600  1
  Sm  Sm2  1  0.07050600  0.57050600  0.92949400  1
  Sm  Sm3  1  0.17949400  0.17949400  0.17949400  1
  Sm  Sm4  1  0.82050600  0.32050600  0.17949400  1
  Sm  Sm5  1  0.57050600  0.92949400  0.07050600  1
  Sm  Sm6  1  0.42949400  0.42949400  0.42949400  1
  Sm  Sm7  1  0.32050600  0.17949400  0.82050600  1
  Sm  Sm8  1  0.67949400  0.32050600  0.82050600  1
  Sm  Sm9  1  0.42949400  0.57050600  0.07050600  1
  Sm  Sm10  1  0.57050600  0.07050600  0.42949400  1
  Sm  Sm11  1  0.67949400  0.67949400  0.67949400  1
  Sm  Sm12  1  0.32050600  0.82050600  0.67949400  1
  Sm  Sm13  1  0.07050600  0.42949400  0.57050600  1
  Sm  Sm14  1  0.92949400  0.92949400  0.92949400  1
  Sm  Sm15  1  0.82050600  0.67949400  0.32050600  1
  Sn  Sn16  1  0.50000000  0.25000000  0.12500000  1
  Sn  Sn17  1  0.75000000  0.37500000  0.50000000  1
  Sn  Sn18  1  0.25000000  0.12500000  0.50000000  1
  Sn  Sn19  1  0.50000000  0.75000000  0.37500000  1
  Sn  Sn20  1  0.37500000  0.50000000  0.75000000  1
  Sn  Sn21  1  0.12500000  0.50000000  0.25000000  1
  Sn  Sn22  1  0.00000000  0.75000000  0.62500000  1
  Sn  Sn23  1  0.25000000  0.87500000  0.00000000  1
  Sn  Sn24  1  0.75000000  0.62500000  0.00000000  1
  Sn  Sn25  1  0.00000000  0.25000000  0.87500000  1
  Sn  Sn26  1  0.87500000  0.00000000  0.25000000  1
  Sn  Sn27  1  0.62500000  0.00000000  0.75000000  1
