# generated using pymatgen
data_Sr3Ru2O7
_symmetry_space_group_name_H-M   'P 1'
_cell_length_a   5.59237600
_cell_length_b   20.80426200
_cell_length_c   5.59323700
_cell_angle_alpha   90.00000000
_cell_angle_beta   90.00000000
_cell_angle_gamma   90.00000000
_symmetry_Int_Tables_number   1
_chemical_formula_structural   Sr3Ru2O7
_chemical_formula_sum   'Sr12 Ru8 O28'
_cell_volume   650.74658787
_cell_formula_units_Z   4
loop_
 _symmetry_equiv_pos_site_id
 _symmetry_equiv_pos_as_xyz
  1  'x, y, z'
loop_
 _atom_site_type_symbol
 _atom_site_label
 _atom_site_symmetry_multiplicity
 _atom_site_fract_x
 _atom_site_fract_y
 _atom_site_fract_z
 _atom_site_occupancy
  Sr  Sr0  1  0.00000000  0.81417400  0.00000000  1
  Sr  Sr1  1  0.50000000  0.68582600  0.00000000  1
  Sr  Sr2  1  0.00000000  0.68582600  0.50000000  1
  Sr  Sr3  1  0.00000000  0.00000000  0.00000000  1
  Sr  Sr4  1  0.50000000  0.81417400  0.50000000  1
  Sr  Sr5  1  0.50000000  0.00000000  0.50000000  1
  Sr  Sr6  1  0.50000000  0.31417400  0.00000000  1
  Sr  Sr7  1  0.00000000  0.18582600  0.00000000  1
  Sr  Sr8  1  0.50000000  0.18582600  0.50000000  1
  Sr  Sr9  1  0.50000000  0.50000000  0.00000000  1
  Sr  Sr10  1  0.00000000  0.31417400  0.50000000  1
  Sr  Sr11  1  0.00000000  0.50000000  0.50000000  1
  Ru  Ru12  1  0.50000000  0.59763300  0.50000000  1
  Ru  Ru13  1  0.00000000  0.59763300  0.00000000  1
  Ru  Ru14  1  0.50000000  0.90236700  0.00000000  1
  Ru  Ru15  1  0.00000000  0.90236700  0.50000000  1
  Ru  Ru16  1  0.00000000  0.09763300  0.50000000  1
  Ru  Ru17  1  0.50000000  0.09763300  0.00000000  1
  Ru  Ru18  1  0.00000000  0.40236700  0.00000000  1
  Ru  Ru19  1  0.50000000  0.40236700  0.50000000  1
  O  O20  1  0.78684600  0.59642600  0.28705600  1
  O  O21  1  0.21315400  0.90357400  0.21294400  1
  O  O22  1  0.21315400  0.59642600  0.71294400  1
  O  O23  1  0.28684600  0.90357400  0.71294400  1
  O  O24  1  0.50000000  0.69522200  0.50000000  1
  O  O25  1  0.71315400  0.90357400  0.28705600  1
  O  O26  1  0.00000000  0.80477800  0.50000000  1
  O  O27  1  0.50000000  0.80477800  0.00000000  1
  O  O28  1  0.28684600  0.59642600  0.21294400  1
  O  O29  1  0.00000000  0.69522200  0.00000000  1
  O  O30  1  0.00000000  0.00000000  0.50000000  1
  O  O31  1  0.78684600  0.90357400  0.78705600  1
  O  O32  1  0.50000000  0.00000000  0.00000000  1
  O  O33  1  0.71315400  0.59642600  0.78705600  1
  O  O34  1  0.28684600  0.09642600  0.28705600  1
  O  O35  1  0.71315400  0.40357400  0.21294400  1
  O  O36  1  0.71315400  0.09642600  0.71294400  1
  O  O37  1  0.78684600  0.40357400  0.71294400  1
  O  O38  1  0.00000000  0.19522200  0.50000000  1
  O  O39  1  0.21315400  0.40357400  0.28705600  1
  O  O40  1  0.50000000  0.30477800  0.50000000  1
  O  O41  1  0.00000000  0.30477800  0.00000000  1
  O  O42  1  0.78684600  0.09642600  0.21294400  1
  O  O43  1  0.50000000  0.19522200  0.00000000  1
  O  O44  1  0.50000000  0.50000000  0.50000000  1
  O  O45  1  0.28684600  0.40357400  0.78705600  1
  O  O46  1  0.00000000  0.50000000  0.00000000  1
  O  O47  1  0.21315400  0.09642600  0.78705600  1
