# generated using pymatgen
data_KV(SO4)2
_symmetry_space_group_name_H-M   'P 1'
_cell_length_a   4.88932948
_cell_length_b   4.88932948
_cell_length_c   24.62022888
_cell_angle_alpha   90.00000000
_cell_angle_beta   90.00000000
_cell_angle_gamma   120.00000000
_symmetry_Int_Tables_number   1
_chemical_formula_structural   KV(SO4)2
_chemical_formula_sum   'K3 V3 S6 O24'
_cell_volume   509.70785468
_cell_formula_units_Z   3
loop_
 _symmetry_equiv_pos_site_id
 _symmetry_equiv_pos_as_xyz
  1  'x, y, z'
loop_
 _atom_site_type_symbol
 _atom_site_label
 _atom_site_symmetry_multiplicity
 _atom_site_fract_x
 _atom_site_fract_y
 _atom_site_fract_z
 _atom_site_occupancy
  K  K0  1  0.00000000  0.00000000  0.00000000  1
  K  K1  1  0.66666667  0.33333333  0.33333333  1
  K  K2  1  0.33333333  0.66666667  0.66666667  1
  V  V3  1  0.66666667  0.33333333  0.83333333  1
  V  V4  1  0.33333333  0.66666667  0.16666667  1
  V  V5  1  0.00000000  1.00000000  0.50000000  1
  S  S6  1  0.00000000  0.00000000  0.76339208  1
  S  S7  1  0.33333333  0.66666667  0.90327458  1
  S  S8  1  0.66666667  0.33333333  0.09672542  1
  S  S9  1  1.00000000  0.00000000  0.23660792  1
  S  S10  1  0.33333333  0.66666667  0.43005875  1
  S  S11  1  0.66666667  0.33333333  0.56994125  1
  O  O12  1  0.00000000  0.00000000  0.70405933  1
  O  O13  1  0.33333333  0.66666667  0.96260733  1
  O  O14  1  0.60337033  0.63262617  0.88259817  1
  O  O15  1  0.96595950  0.69592250  0.78406850  1
  O  O16  1  0.02925583  0.39662967  0.88259817  1
  O  O17  1  0.72996300  0.03404050  0.78406850  1
  O  O18  1  0.30407750  0.27003700  0.78406850  1
  O  O19  1  0.36737383  0.97074417  0.88259817  1
  O  O20  1  0.66666667  0.33333333  0.03739267  1
  O  O21  1  1.00000000  0.00000000  0.29594067  1
  O  O22  1  0.27003700  0.96595950  0.21593150  1
  O  O23  1  0.63262617  0.02925583  0.11740183  1
  O  O24  1  0.69592250  0.72996300  0.21593150  1
  O  O25  1  0.39662967  0.36737383  0.11740183  1
  O  O26  1  0.97074417  0.60337033  0.11740183  1
  O  O27  1  0.03404050  0.30407750  0.21593150  1
  O  O28  1  0.33333333  0.66666667  0.37072600  1
  O  O29  1  0.66666667  0.33333333  0.62927400  1
  O  O30  1  0.93670367  0.29929283  0.54926483  1
  O  O31  1  0.29929283  0.36258917  0.45073517  1
  O  O32  1  0.36258917  0.06329633  0.54926483  1
  O  O33  1  0.06329633  0.70070717  0.45073517  1
  O  O34  1  0.63741083  0.93670367  0.45073517  1
  O  O35  1  0.70070717  0.63741083  0.54926483  1
