# generated using pymatgen
data_BaV2(P2O7)2
_symmetry_space_group_name_H-M   'P 1'
_cell_length_a   10.79302600
_cell_length_b   10.68400600
_cell_length_c   9.94840188
_cell_angle_alpha   90.00000000
_cell_angle_beta   103.27505541
_cell_angle_gamma   90.00000000
_symmetry_Int_Tables_number   1
_chemical_formula_structural   BaV2(P2O7)2
_chemical_formula_sum   'Ba4 V8 P16 O56'
_cell_volume   1116.52381775
_cell_formula_units_Z   4
loop_
 _symmetry_equiv_pos_site_id
 _symmetry_equiv_pos_as_xyz
  1  'x, y, z'
loop_
 _atom_site_type_symbol
 _atom_site_label
 _atom_site_symmetry_multiplicity
 _atom_site_fract_x
 _atom_site_fract_y
 _atom_site_fract_z
 _atom_site_occupancy
  Ba  Ba0  1  0.25000000  0.75000000  0.00000000  1
  Ba  Ba1  1  0.75000000  0.75000000  0.50000000  1
  Ba  Ba2  1  0.75000000  0.25000000  0.00000000  1
  Ba  Ba3  1  0.25000000  0.25000000  0.50000000  1
  V  V4  1  0.00000000  0.00000000  0.50000000  1
  V  V5  1  0.00000000  0.00000000  0.00000000  1
  V  V6  1  0.00000000  0.45525000  0.75000000  1
  V  V7  1  0.00000000  0.54475000  0.25000000  1
  V  V8  1  0.50000000  0.50000000  0.50000000  1
  V  V9  1  0.50000000  0.50000000  0.00000000  1
  V  V10  1  0.50000000  0.95525000  0.75000000  1
  V  V11  1  0.50000000  0.04475000  0.25000000  1
  P  P12  1  0.28084950  0.54029550  0.70271600  1
  P  P13  1  0.71915050  0.54029550  0.79728400  1
  P  P14  1  0.71915050  0.45970450  0.29728400  1
  P  P15  1  0.28084950  0.45970450  0.20271600  1
  P  P16  1  0.06331350  0.68764550  0.55470600  1
  P  P17  1  0.93668650  0.68764550  0.94529400  1
  P  P18  1  0.93668650  0.31235450  0.44529400  1
  P  P19  1  0.06331350  0.31235450  0.05470600  1
  P  P20  1  0.78084950  0.04029550  0.70271600  1
  P  P21  1  0.21915050  0.04029550  0.79728400  1
  P  P22  1  0.21915050  0.95970450  0.29728400  1
  P  P23  1  0.78084950  0.95970450  0.20271600  1
  P  P24  1  0.56331350  0.18764550  0.55470600  1
  P  P25  1  0.43668650  0.18764550  0.94529400  1
  P  P26  1  0.43668650  0.81235450  0.44529400  1
  P  P27  1  0.56331350  0.81235450  0.05470600  1
  O  O28  1  0.36491200  0.57947900  0.84191300  1
  O  O29  1  0.63508800  0.57947900  0.65808700  1
  O  O30  1  0.63508800  0.42052100  0.15808700  1
  O  O31  1  0.36491200  0.42052100  0.34191300  1
  O  O32  1  0.18060050  0.44061350  0.70849500  1
  O  O33  1  0.81939950  0.44061350  0.79150500  1
  O  O34  1  0.81939950  0.55938650  0.29150500  1
  O  O35  1  0.18060050  0.55938650  0.20849500  1
  O  O36  1  0.35437950  0.50094150  0.59603400  1
  O  O37  1  0.64562050  0.50094150  0.90396600  1
  O  O38  1  0.64562050  0.49905850  0.40396600  1
  O  O39  1  0.35437950  0.49905850  0.09603400  1
  O  O40  1  0.20387600  0.66978200  0.65330400  1
  O  O41  1  0.79612400  0.66978200  0.84669600  1
  O  O42  1  0.06889600  0.33959100  0.90603700  1
  O  O43  1  0.93110400  0.33959100  0.59396300  1
  O  O44  1  0.93110400  0.66040900  0.09396300  1
  O  O45  1  0.06889600  0.66040900  0.40603700  1
  O  O46  1  0.96921650  0.39702050  0.10866400  1
  O  O47  1  0.03078350  0.39702050  0.39133600  1
  O  O48  1  0.03078350  0.60297950  0.89133600  1
  O  O49  1  0.96921650  0.60297950  0.60866400  1
  O  O50  1  0.03008350  0.17613550  0.07651200  1
  O  O51  1  0.96991650  0.17613550  0.42348800  1
  O  O52  1  0.96991650  0.82386450  0.92348800  1
  O  O53  1  0.03008350  0.82386450  0.57651200  1
  O  O54  1  0.20387600  0.33021800  0.15330400  1
  O  O55  1  0.79612400  0.33021800  0.34669600  1
  O  O56  1  0.86491200  0.07947900  0.84191300  1
  O  O57  1  0.13508800  0.07947900  0.65808700  1
  O  O58  1  0.13508800  0.92052100  0.15808700  1
  O  O59  1  0.86491200  0.92052100  0.34191300  1
  O  O60  1  0.68060050  0.94061350  0.70849500  1
  O  O61  1  0.31939950  0.94061350  0.79150500  1
  O  O62  1  0.31939950  0.05938650  0.29150500  1
  O  O63  1  0.68060050  0.05938650  0.20849500  1
  O  O64  1  0.85437950  0.00094150  0.59603400  1
  O  O65  1  0.14562050  0.00094150  0.90396600  1
  O  O66  1  0.14562050  0.99905850  0.40396600  1
  O  O67  1  0.85437950  0.99905850  0.09603400  1
  O  O68  1  0.70387600  0.16978200  0.65330400  1
  O  O69  1  0.29612400  0.16978200  0.84669600  1
  O  O70  1  0.56889600  0.83959100  0.90603700  1
  O  O71  1  0.43110400  0.83959100  0.59396300  1
  O  O72  1  0.43110400  0.16040900  0.09396300  1
  O  O73  1  0.56889600  0.16040900  0.40603700  1
  O  O74  1  0.46921650  0.89702050  0.10866400  1
  O  O75  1  0.53078350  0.89702050  0.39133600  1
  O  O76  1  0.53078350  0.10297950  0.89133600  1
  O  O77  1  0.46921650  0.10297950  0.60866400  1
  O  O78  1  0.53008350  0.67613550  0.07651200  1
  O  O79  1  0.46991650  0.67613550  0.42348800  1
  O  O80  1  0.46991650  0.32386450  0.92348800  1
  O  O81  1  0.53008350  0.32386450  0.57651200  1
  O  O82  1  0.70387600  0.83021800  0.15330400  1
  O  O83  1  0.29612400  0.83021800  0.34669600  1
