# generated using pymatgen
data_TiFe2O5
_symmetry_space_group_name_H-M   'P 1'
_cell_length_a   22.31388400
_cell_length_b   3.80310600
_cell_length_c   9.93698819
_cell_angle_alpha   90.00000000
_cell_angle_beta   115.54923332
_cell_angle_gamma   90.00000000
_symmetry_Int_Tables_number   1
_chemical_formula_structural   TiFe2O5
_chemical_formula_sum   'Ti8 Fe16 O40'
_cell_volume   760.81388142
_cell_formula_units_Z   8
loop_
 _symmetry_equiv_pos_site_id
 _symmetry_equiv_pos_as_xyz
  1  'x, y, z'
loop_
 _atom_site_type_symbol
 _atom_site_label
 _atom_site_symmetry_multiplicity
 _atom_site_fract_x
 _atom_site_fract_y
 _atom_site_fract_z
 _atom_site_occupancy
  Ti  Ti0  1  0.28082100  0.00000000  0.14857700  1
  Ti  Ti1  1  0.12278000  0.00000000  0.93846100  1
  Ti  Ti2  1  0.37722000  0.50000000  0.06153900  1
  Ti  Ti3  1  0.21917900  0.50000000  0.85142300  1
  Ti  Ti4  1  0.78082100  0.50000000  0.14857700  1
  Ti  Ti5  1  0.62278000  0.50000000  0.93846100  1
  Ti  Ti6  1  0.87722000  0.00000000  0.06153900  1
  Ti  Ti7  1  0.71917900  0.00000000  0.85142300  1
  Fe  Fe8  1  0.46793500  0.50000000  0.82593300  1
  Fe  Fe9  1  0.28277400  0.50000000  0.63909700  1
  Fe  Fe10  1  0.12438000  0.50000000  0.43381200  1
  Fe  Fe11  1  0.03206500  0.00000000  0.17406700  1
  Fe  Fe12  1  0.47251700  0.00000000  0.33641400  1
  Fe  Fe13  1  0.37562000  0.00000000  0.56618800  1
  Fe  Fe14  1  0.21722600  0.00000000  0.36090300  1
  Fe  Fe15  1  0.02748300  0.50000000  0.66358600  1
  Fe  Fe16  1  0.96793500  0.00000000  0.82593300  1
  Fe  Fe17  1  0.78277400  0.00000000  0.63909700  1
  Fe  Fe18  1  0.62438000  0.00000000  0.43381200  1
  Fe  Fe19  1  0.53206500  0.50000000  0.17406700  1
  Fe  Fe20  1  0.97251700  0.50000000  0.33641400  1
  Fe  Fe21  1  0.87562000  0.50000000  0.56618800  1
  Fe  Fe22  1  0.71722600  0.50000000  0.36090300  1
  Fe  Fe23  1  0.52748300  0.00000000  0.66358600  1
  O  O24  1  0.03495100  0.50000000  0.22593500  1
  O  O25  1  0.44102400  0.00000000  0.48864800  1
  O  O26  1  0.46504900  0.00000000  0.77406500  1
  O  O27  1  0.12444700  0.00000000  0.36306100  1
  O  O28  1  0.28532200  0.50000000  0.09802400  1
  O  O29  1  0.28603000  0.00000000  0.59187500  1
  O  O30  1  0.30767900  0.50000000  0.86007800  1
  O  O31  1  0.21467800  0.00000000  0.90197600  1
  O  O32  1  0.43919300  0.50000000  0.98762000  1
  O  O33  1  0.45660300  0.50000000  0.26274900  1
  O  O34  1  0.37555300  0.50000000  0.63693900  1
  O  O35  1  0.19121600  0.50000000  0.65375500  1
  O  O36  1  0.30878400  0.00000000  0.34624500  1
  O  O37  1  0.21397000  0.50000000  0.40812500  1
  O  O38  1  0.05897600  0.50000000  0.51135200  1
  O  O39  1  0.19232100  0.00000000  0.13992200  1
  O  O40  1  0.13175200  0.50000000  0.88517300  1
  O  O41  1  0.04339700  0.00000000  0.73725100  1
  O  O42  1  0.06080700  0.00000000  0.01238000  1
  O  O43  1  0.36824800  0.00000000  0.11482700  1
  O  O44  1  0.53495100  0.00000000  0.22593500  1
  O  O45  1  0.94102400  0.50000000  0.48864800  1
  O  O46  1  0.96504900  0.50000000  0.77406500  1
  O  O47  1  0.62444700  0.50000000  0.36306100  1
  O  O48  1  0.78532200  0.00000000  0.09802400  1
  O  O49  1  0.78603000  0.50000000  0.59187500  1
  O  O50  1  0.80767900  0.00000000  0.86007800  1
  O  O51  1  0.71467800  0.50000000  0.90197600  1
  O  O52  1  0.93919300  0.00000000  0.98762000  1
  O  O53  1  0.95660300  0.00000000  0.26274900  1
  O  O54  1  0.87555300  0.00000000  0.63693900  1
  O  O55  1  0.69121600  0.00000000  0.65375500  1
  O  O56  1  0.80878400  0.50000000  0.34624500  1
  O  O57  1  0.71397000  0.00000000  0.40812500  1
  O  O58  1  0.55897600  0.00000000  0.51135200  1
  O  O59  1  0.69232100  0.50000000  0.13992200  1
  O  O60  1  0.63175200  0.00000000  0.88517300  1
  O  O61  1  0.54339700  0.50000000  0.73725100  1
  O  O62  1  0.56080700  0.50000000  0.01238000  1
  O  O63  1  0.86824800  0.50000000  0.11482700  1
