# generated using pymatgen
data_La10Al5Br4
_symmetry_space_group_name_H-M   'P 1'
_cell_length_a   8.27908000
_cell_length_b   8.27908000
_cell_length_c   33.36409600
_cell_angle_alpha   90.00000000
_cell_angle_beta   90.00000000
_cell_angle_gamma   90.00000000
_symmetry_Int_Tables_number   1
_chemical_formula_structural   La10Al5Br4
_chemical_formula_sum   'La40 Al20 Br16'
_cell_volume   2286.88075877
_cell_formula_units_Z   4
loop_
 _symmetry_equiv_pos_site_id
 _symmetry_equiv_pos_as_xyz
  1  'x, y, z'
loop_
 _atom_site_type_symbol
 _atom_site_label
 _atom_site_symmetry_multiplicity
 _atom_site_fract_x
 _atom_site_fract_y
 _atom_site_fract_z
 _atom_site_occupancy
  La  La0  1  0.50000000  0.50000000  0.15224200  1
  La  La1  1  0.67188100  0.17188100  0.42845650  1
  La  La2  1  0.66832000  0.83168000  0.20353150  1
  La  La3  1  0.33168000  0.16832000  0.20353150  1
  La  La4  1  0.82811900  0.32811900  0.07154350  1
  La  La5  1  0.17188100  0.67188100  0.07154350  1
  La  La6  1  0.83168000  0.66832000  0.29646850  1
  La  La7  1  0.16832000  0.66832000  0.20353150  1
  La  La8  1  0.66832000  0.16832000  0.29646850  1
  La  La9  1  0.00000000  0.00000000  0.34775800  1
  La  La10  1  0.82811900  0.67188100  0.42845650  1
  La  La11  1  0.32811900  0.82811900  0.42845650  1
  La  La12  1  0.17188100  0.32811900  0.42845650  1
  La  La13  1  0.33168000  0.83168000  0.29646850  1
  La  La14  1  0.00000000  0.00000000  0.15224200  1
  La  La15  1  0.50000000  0.50000000  0.34775800  1
  La  La16  1  0.32811900  0.17188100  0.07154350  1
  La  La17  1  0.83168000  0.33168000  0.20353150  1
  La  La18  1  0.16832000  0.33168000  0.29646850  1
  La  La19  1  0.67188100  0.82811900  0.07154350  1
  La  La20  1  0.00000000  0.00000000  0.65224200  1
  La  La21  1  0.17188100  0.67188100  0.92845650  1
  La  La22  1  0.16832000  0.33168000  0.70353150  1
  La  La23  1  0.83168000  0.66832000  0.70353150  1
  La  La24  1  0.32811900  0.82811900  0.57154350  1
  La  La25  1  0.67188100  0.17188100  0.57154350  1
  La  La26  1  0.33168000  0.16832000  0.79646850  1
  La  La27  1  0.66832000  0.16832000  0.70353150  1
  La  La28  1  0.16832000  0.66832000  0.79646850  1
  La  La29  1  0.50000000  0.50000000  0.84775800  1
  La  La30  1  0.32811900  0.17188100  0.92845650  1
  La  La31  1  0.82811900  0.32811900  0.92845650  1
  La  La32  1  0.67188100  0.82811900  0.92845650  1
  La  La33  1  0.83168000  0.33168000  0.79646850  1
  La  La34  1  0.50000000  0.50000000  0.65224200  1
  La  La35  1  0.00000000  0.00000000  0.84775800  1
  La  La36  1  0.82811900  0.67188100  0.57154350  1
  La  La37  1  0.33168000  0.83168000  0.70353150  1
  La  La38  1  0.66832000  0.83168000  0.79646850  1
  La  La39  1  0.17188100  0.32811900  0.57154350  1
  Al  Al40  1  0.61908050  0.11908050  0.13493500  1
  Al  Al41  1  0.38091950  0.11908050  0.36506500  1
  Al  Al42  1  0.11908050  0.38091950  0.13493500  1
  Al  Al43  1  0.61908050  0.88091950  0.36506500  1
  Al  Al44  1  0.50000000  0.50000000  0.25000000  1
  Al  Al45  1  0.88091950  0.38091950  0.36506500  1
  Al  Al46  1  0.88091950  0.61908050  0.13493500  1
  Al  Al47  1  0.38091950  0.88091950  0.13493500  1
  Al  Al48  1  0.11908050  0.61908050  0.36506500  1
  Al  Al49  1  0.00000000  0.00000000  0.25000000  1
  Al  Al50  1  0.11908050  0.61908050  0.63493500  1
  Al  Al51  1  0.88091950  0.61908050  0.86506500  1
  Al  Al52  1  0.61908050  0.88091950  0.63493500  1
  Al  Al53  1  0.11908050  0.38091950  0.86506500  1
  Al  Al54  1  0.00000000  0.00000000  0.75000000  1
  Al  Al55  1  0.38091950  0.88091950  0.86506500  1
  Al  Al56  1  0.38091950  0.11908050  0.63493500  1
  Al  Al57  1  0.88091950  0.38091950  0.63493500  1
  Al  Al58  1  0.61908050  0.11908050  0.86506500  1
  Al  Al59  1  0.50000000  0.50000000  0.75000000  1
  Br  Br60  1  0.64216700  0.14216700  0.00000000  1
  Br  Br61  1  0.14216700  0.35783300  0.00000000  1
  Br  Br62  1  0.85783300  0.64216700  0.00000000  1
  Br  Br63  1  0.00000000  0.00000000  0.44413900  1
  Br  Br64  1  0.50000000  0.50000000  0.44413900  1
  Br  Br65  1  0.50000000  0.50000000  0.05586100  1
  Br  Br66  1  0.00000000  0.00000000  0.05586100  1
  Br  Br67  1  0.85783300  0.35783300  0.50000000  1
  Br  Br68  1  0.14216700  0.64216700  0.50000000  1
  Br  Br69  1  0.64216700  0.85783300  0.50000000  1
  Br  Br70  1  0.35783300  0.14216700  0.50000000  1
  Br  Br71  1  0.50000000  0.50000000  0.94413900  1
  Br  Br72  1  0.00000000  0.00000000  0.94413900  1
  Br  Br73  1  0.00000000  0.00000000  0.55586100  1
  Br  Br74  1  0.50000000  0.50000000  0.55586100  1
  Br  Br75  1  0.35783300  0.85783300  0.00000000  1
