# generated using pymatgen
data_SrIn4
_symmetry_space_group_name_H-M   'P 1'
_cell_length_a   12.17203000
_cell_length_b   5.26759400
_cell_length_c   10.08940568
_cell_angle_alpha   90.00000000
_cell_angle_beta   115.12141061
_cell_angle_gamma   90.00000000
_symmetry_Int_Tables_number   1
_chemical_formula_structural   SrIn4
_chemical_formula_sum   'Sr4 In16'
_cell_volume   585.71491689
_cell_formula_units_Z   4
loop_
 _symmetry_equiv_pos_site_id
 _symmetry_equiv_pos_as_xyz
  1  'x, y, z'
loop_
 _atom_site_type_symbol
 _atom_site_label
 _atom_site_symmetry_multiplicity
 _atom_site_fract_x
 _atom_site_fract_y
 _atom_site_fract_z
 _atom_site_occupancy
  Sr  Sr0  1  0.16604200  0.00000000  0.70883600  1
  Sr  Sr1  1  0.83395800  0.00000000  0.29116400  1
  Sr  Sr2  1  0.66604200  0.50000000  0.70883600  1
  Sr  Sr3  1  0.33395800  0.50000000  0.29116400  1
  In  In4  1  0.84731400  0.00000000  0.64986900  1
  In  In5  1  0.93544900  0.50000000  0.10066600  1
  In  In6  1  0.15268600  0.00000000  0.35013100  1
  In  In7  1  0.07744600  0.50000000  0.42341700  1
  In  In8  1  0.06455100  0.50000000  0.89933400  1
  In  In9  1  0.65044900  0.50000000  0.05201300  1
  In  In10  1  0.92255400  0.50000000  0.57658300  1
  In  In11  1  0.34955100  0.50000000  0.94798700  1
  In  In12  1  0.34731400  0.50000000  0.64986900  1
  In  In13  1  0.43544900  0.00000000  0.10066600  1
  In  In14  1  0.65268600  0.50000000  0.35013100  1
  In  In15  1  0.57744600  0.00000000  0.42341700  1
  In  In16  1  0.56455100  0.00000000  0.89933400  1
  In  In17  1  0.15044900  0.00000000  0.05201300  1
  In  In18  1  0.42255400  0.00000000  0.57658300  1
  In  In19  1  0.84955100  0.00000000  0.94798700  1
