# generated using pymatgen
data_Ba4PrMn3O12
_symmetry_space_group_name_H-M   'P 1'
_cell_length_a   5.91559578
_cell_length_b   5.91559578
_cell_length_c   29.95328707
_cell_angle_alpha   90.00000000
_cell_angle_beta   90.00000000
_cell_angle_gamma   120.00000000
_symmetry_Int_Tables_number   1
_chemical_formula_structural   Ba4PrMn3O12
_chemical_formula_sum   'Ba12 Pr3 Mn9 O36'
_cell_volume   907.76221363
_cell_formula_units_Z   3
loop_
 _symmetry_equiv_pos_site_id
 _symmetry_equiv_pos_as_xyz
  1  'x, y, z'
loop_
 _atom_site_type_symbol
 _atom_site_label
 _atom_site_symmetry_multiplicity
 _atom_site_fract_x
 _atom_site_fract_y
 _atom_site_fract_z
 _atom_site_occupancy
  Ba  Ba0  1  0.00000000  0.00000000  0.27771200  1
  Ba  Ba1  1  0.00000000  0.00000000  0.13058200  1
  Ba  Ba2  1  0.66666667  0.33333333  0.05562133  1
  Ba  Ba3  1  0.66666667  0.33333333  0.20275133  1
  Ba  Ba4  1  0.66666667  0.33333333  0.61104533  1
  Ba  Ba5  1  0.66666667  0.33333333  0.46391533  1
  Ba  Ba6  1  0.33333333  0.66666667  0.38895467  1
  Ba  Ba7  1  0.33333333  0.66666667  0.53608467  1
  Ba  Ba8  1  0.33333333  0.66666667  0.94437867  1
  Ba  Ba9  1  0.33333333  0.66666667  0.79724867  1
  Ba  Ba10  1  0.00000000  0.00000000  0.72228800  1
  Ba  Ba11  1  0.00000000  0.00000000  0.86941800  1
  Pr  Pr12  1  0.00000000  0.00000000  0.00000000  1
  Pr  Pr13  1  0.66666667  0.33333333  0.33333333  1
  Pr  Pr14  1  0.33333333  0.66666667  0.66666667  1
  Mn  Mn15  1  0.33333333  0.66666667  0.25262767  1
  Mn  Mn16  1  0.33333333  0.66666667  0.08070567  1
  Mn  Mn17  1  0.33333333  0.66666667  0.16666667  1
  Mn  Mn18  1  0.00000000  0.00000000  0.58596100  1
  Mn  Mn19  1  0.00000000  0.00000000  0.41403900  1
  Mn  Mn20  1  1.00000000  1.00000000  0.50000000  1
  Mn  Mn21  1  0.66666667  0.33333333  0.91929433  1
  Mn  Mn22  1  0.66666667  0.33333333  0.74737233  1
  Mn  Mn23  1  0.66666667  0.33333333  0.83333333  1
  O  O24  1  0.18677233  0.81322767  0.20733967  1
  O  O25  1  0.04021133  0.52010567  0.12599367  1
  O  O26  1  0.17879867  0.35759733  0.04792133  1
  O  O27  1  0.64240267  0.82120133  0.04792133  1
  O  O28  1  0.62645533  0.81322767  0.20733967  1
  O  O29  1  0.48786800  0.51213200  0.28541200  1
  O  O30  1  0.47989433  0.95978867  0.12599367  1
  O  O31  1  0.17879867  0.82120133  0.04792133  1
  O  O32  1  0.02426400  0.51213200  0.28541200  1
  O  O33  1  0.18677233  0.37354467  0.20733967  1
  O  O34  1  0.47989433  0.52010567  0.12599367  1
  O  O35  1  0.48786800  0.97573600  0.28541200  1
  O  O36  1  0.85343900  0.14656100  0.54067300  1
  O  O37  1  0.70687800  0.85343900  0.45932700  1
  O  O38  1  0.84546533  0.69093067  0.38125467  1
  O  O39  1  0.30906933  0.15453467  0.38125467  1
  O  O40  1  0.29312200  0.14656100  0.54067300  1
  O  O41  1  0.15453467  0.84546533  0.61874533  1
  O  O42  1  0.14656100  0.29312200  0.45932700  1
  O  O43  1  0.84546533  0.15453467  0.38125467  1
  O  O44  1  0.69093067  0.84546533  0.61874533  1
  O  O45  1  0.85343900  0.70687800  0.54067300  1
  O  O46  1  0.14656100  0.85343900  0.45932700  1
  O  O47  1  0.15453467  0.30906933  0.61874533  1
  O  O48  1  0.52010567  0.47989433  0.87400633  1
  O  O49  1  0.37354467  0.18677233  0.79266033  1
  O  O50  1  0.51213200  0.02426400  0.71458800  1
  O  O51  1  0.97573600  0.48786800  0.71458800  1
  O  O52  1  0.95978867  0.47989433  0.87400633  1
  O  O53  1  0.82120133  0.17879867  0.95207867  1
  O  O54  1  0.81322767  0.62645533  0.79266033  1
  O  O55  1  0.51213200  0.48786800  0.71458800  1
  O  O56  1  0.35759733  0.17879867  0.95207867  1
  O  O57  1  0.52010567  0.04021133  0.87400633  1
  O  O58  1  0.81322767  0.18677233  0.79266033  1
  O  O59  1  0.82120133  0.64240267  0.95207867  1
