# generated using pymatgen
data_Sr13Al6Si8O
_symmetry_space_group_name_H-M   'P 1'
_cell_length_a   22.89725000
_cell_length_b   4.84016000
_cell_length_c   17.56056360
_cell_angle_alpha   90.00000000
_cell_angle_beta   125.23991315
_cell_angle_gamma   90.00000000
_symmetry_Int_Tables_number   1
_chemical_formula_structural   Sr13Al6Si8O
_chemical_formula_sum   'Sr26 Al12 Si16 O2'
_cell_volume   1589.52365114
_cell_formula_units_Z   2
loop_
 _symmetry_equiv_pos_site_id
 _symmetry_equiv_pos_as_xyz
  1  'x, y, z'
loop_
 _atom_site_type_symbol
 _atom_site_label
 _atom_site_symmetry_multiplicity
 _atom_site_fract_x
 _atom_site_fract_y
 _atom_site_fract_z
 _atom_site_occupancy
  Sr  Sr0  1  0.30606000  0.50000000  0.85304000  1
  Sr  Sr1  1  0.00226100  0.00000000  0.35908400  1
  Sr  Sr2  1  0.00147800  0.00000000  0.12057900  1
  Sr  Sr3  1  0.80651900  0.00000000  0.60886400  1
  Sr  Sr4  1  0.81515400  0.00000000  0.10857000  1
  Sr  Sr5  1  0.84542000  0.00000000  0.38290300  1
  Sr  Sr6  1  0.00000000  0.50000000  0.50000000  1
  Sr  Sr7  1  0.15458000  0.00000000  0.61709700  1
  Sr  Sr8  1  0.19348100  0.00000000  0.39113600  1
  Sr  Sr9  1  0.18484600  0.00000000  0.89143000  1
  Sr  Sr10  1  0.69394000  0.50000000  0.14696000  1
  Sr  Sr11  1  0.99852200  0.00000000  0.87942100  1
  Sr  Sr12  1  0.99773900  0.00000000  0.64091600  1
  Sr  Sr13  1  0.80606000  0.00000000  0.85304000  1
  Sr  Sr14  1  0.50226100  0.50000000  0.35908400  1
  Sr  Sr15  1  0.50147800  0.50000000  0.12057900  1
  Sr  Sr16  1  0.30651900  0.50000000  0.60886400  1
  Sr  Sr17  1  0.31515400  0.50000000  0.10857000  1
  Sr  Sr18  1  0.34542000  0.50000000  0.38290300  1
  Sr  Sr19  1  0.50000000  0.00000000  0.50000000  1
  Sr  Sr20  1  0.65458000  0.50000000  0.61709700  1
  Sr  Sr21  1  0.69348100  0.50000000  0.39113600  1
  Sr  Sr22  1  0.68484600  0.50000000  0.89143000  1
  Sr  Sr23  1  0.19394000  0.00000000  0.14696000  1
  Sr  Sr24  1  0.49852200  0.50000000  0.87942100  1
  Sr  Sr25  1  0.49773900  0.50000000  0.64091600  1
  Al  Al26  1  0.06610700  0.50000000  0.80912700  1
  Al  Al27  1  0.43066400  0.00000000  0.94750000  1
  Al  Al28  1  0.07246800  0.50000000  0.29488300  1
  Al  Al29  1  0.93389300  0.50000000  0.19087300  1
  Al  Al30  1  0.92753200  0.50000000  0.70511700  1
  Al  Al31  1  0.56933600  0.00000000  0.05250000  1
  Al  Al32  1  0.56610700  0.00000000  0.80912700  1
  Al  Al33  1  0.93066400  0.50000000  0.94750000  1
  Al  Al34  1  0.57246800  0.00000000  0.29488300  1
  Al  Al35  1  0.43389300  0.00000000  0.19087300  1
  Al  Al36  1  0.42753200  0.00000000  0.70511700  1
  Al  Al37  1  0.06933600  0.50000000  0.05250000  1
  Si  Si38  1  0.86087400  0.50000000  0.01622700  1
  Si  Si39  1  0.35524500  0.00000000  0.77143200  1
  Si  Si40  1  0.64475500  0.00000000  0.22856800  1
  Si  Si41  1  0.13074800  0.50000000  0.73387100  1
  Si  Si42  1  0.13292000  0.50000000  0.46584500  1
  Si  Si43  1  0.86708000  0.50000000  0.53415500  1
  Si  Si44  1  0.86925200  0.50000000  0.26612900  1
  Si  Si45  1  0.13912600  0.50000000  0.98377300  1
  Si  Si46  1  0.36087400  0.00000000  0.01622700  1
  Si  Si47  1  0.85524500  0.50000000  0.77143200  1
  Si  Si48  1  0.14475500  0.50000000  0.22856800  1
  Si  Si49  1  0.63074800  0.00000000  0.73387100  1
  Si  Si50  1  0.63292000  0.00000000  0.46584500  1
  Si  Si51  1  0.36708000  0.00000000  0.53415500  1
  Si  Si52  1  0.36925200  0.00000000  0.26612900  1
  Si  Si53  1  0.63912600  0.00000000  0.98377300  1
  O  O54  1  0.00000000  0.00000000  0.50000000  1
  O  O55  1  0.50000000  0.50000000  0.50000000  1
