# generated using pymatgen
data_Na5Lu(WO4)4
_symmetry_space_group_name_H-M   'P 1'
_cell_length_a   11.56829200
_cell_length_b   11.56829200
_cell_length_c   11.38887200
_cell_angle_alpha   90.00000000
_cell_angle_beta   90.00000000
_cell_angle_gamma   90.00000000
_symmetry_Int_Tables_number   1
_chemical_formula_structural   Na5Lu(WO4)4
_chemical_formula_sum   'Na20 Lu4 W16 O64'
_cell_volume   1524.12012086
_cell_formula_units_Z   4
loop_
 _symmetry_equiv_pos_site_id
 _symmetry_equiv_pos_as_xyz
  1  'x, y, z'
loop_
 _atom_site_type_symbol
 _atom_site_label
 _atom_site_symmetry_multiplicity
 _atom_site_fract_x
 _atom_site_fract_y
 _atom_site_fract_z
 _atom_site_occupancy
  Na  Na0  1  0.50000000  0.00000000  0.25000000  1
  Na  Na1  1  0.50000000  0.50000000  0.50000000  1
  Na  Na2  1  0.70623700  0.11870400  0.97057900  1
  Na  Na3  1  0.88129600  0.20623700  0.72057900  1
  Na  Na4  1  0.61870400  0.29376300  0.22057900  1
  Na  Na5  1  0.79376300  0.38129600  0.47057900  1
  Na  Na6  1  0.29376300  0.38129600  0.77942100  1
  Na  Na7  1  0.11870400  0.29376300  0.02942100  1
  Na  Na8  1  0.38129600  0.20623700  0.52942100  1
  Na  Na9  1  0.20623700  0.11870400  0.27942100  1
  Na  Na10  1  0.00000000  0.50000000  0.75000000  1
  Na  Na11  1  0.00000000  0.00000000  0.00000000  1
  Na  Na12  1  0.20623700  0.61870400  0.47057900  1
  Na  Na13  1  0.38129600  0.70623700  0.22057900  1
  Na  Na14  1  0.11870400  0.79376300  0.72057900  1
  Na  Na15  1  0.29376300  0.88129600  0.97057900  1
  Na  Na16  1  0.79376300  0.88129600  0.27942100  1
  Na  Na17  1  0.61870400  0.79376300  0.52942100  1
  Na  Na18  1  0.88129600  0.70623700  0.02942100  1
  Na  Na19  1  0.70623700  0.61870400  0.77942100  1
  Lu  Lu20  1  0.50000000  0.00000000  0.75000000  1
  Lu  Lu21  1  0.00000000  0.00000000  0.50000000  1
  Lu  Lu22  1  0.00000000  0.50000000  0.25000000  1
  Lu  Lu23  1  0.50000000  0.50000000  0.00000000  1
  W  W24  1  0.40910300  0.18321700  0.00779400  1
  W  W25  1  0.81678300  0.90910300  0.75779400  1
  W  W26  1  0.68321700  0.59089700  0.25779400  1
  W  W27  1  0.09089700  0.31678300  0.50779400  1
  W  W28  1  0.59089700  0.31678300  0.74220600  1
  W  W29  1  0.68321700  0.09089700  0.49220600  1
  W  W30  1  0.81678300  0.40910300  0.99220600  1
  W  W31  1  0.90910300  0.18321700  0.24220600  1
  W  W32  1  0.90910300  0.68321700  0.50779400  1
  W  W33  1  0.31678300  0.40910300  0.25779400  1
  W  W34  1  0.18321700  0.09089700  0.75779400  1
  W  W35  1  0.59089700  0.81678300  0.00779400  1
  W  W36  1  0.09089700  0.81678300  0.24220600  1
  W  W37  1  0.18321700  0.59089700  0.99220600  1
  W  W38  1  0.31678300  0.90910300  0.49220600  1
  W  W39  1  0.40910300  0.68321700  0.74220600  1
  O  O40  1  0.28457700  0.18131300  0.10200200  1
  O  O41  1  0.81868700  0.78457700  0.85200200  1
  O  O42  1  0.68131300  0.71542300  0.35200200  1
  O  O43  1  0.21542300  0.31868700  0.60200200  1
  O  O44  1  0.71542300  0.31868700  0.64799800  1
  O  O45  1  0.68131300  0.21542300  0.39799800  1
  O  O46  1  0.81868700  0.28457700  0.89799800  1
  O  O47  1  0.78457700  0.18131300  0.14799800  1
  O  O48  1  0.53140550  0.14683650  0.10052250  1
  O  O49  1  0.85316350  0.03140550  0.85052250  1
  O  O50  1  0.64683650  0.46859450  0.35052250  1
  O  O51  1  0.96859450  0.35316350  0.60052250  1
  O  O52  1  0.46859450  0.35316350  0.64947750  1
  O  O53  1  0.64683650  0.96859450  0.39947750  1
  O  O54  1  0.85316350  0.53140550  0.89947750  1
  O  O55  1  0.03140550  0.14683650  0.14947750  1
  O  O56  1  0.88806850  0.55991250  0.40882350  1
  O  O57  1  0.94008750  0.88806850  0.65882350  1
  O  O58  1  0.05991250  0.11193150  0.65882350  1
  O  O59  1  0.61193150  0.94008750  0.90882350  1
  O  O60  1  0.11193150  0.94008750  0.34117650  1
  O  O61  1  0.55991250  0.11193150  0.59117650  1
  O  O62  1  0.94008750  0.38806850  0.09117650  1
  O  O63  1  0.88806850  0.05991250  0.34117650  1
  O  O64  1  0.92141700  0.82534500  0.43267000  1
  O  O65  1  0.67465500  0.92141700  0.68267000  1
  O  O66  1  0.82534500  0.57858300  0.18267000  1
  O  O67  1  0.07858300  0.17465500  0.43267000  1
  O  O68  1  0.57858300  0.17465500  0.81733000  1
  O  O69  1  0.82534500  0.07858300  0.56733000  1
  O  O70  1  0.17465500  0.92141700  0.56733000  1
  O  O71  1  0.92141700  0.32534500  0.31733000  1
  O  O72  1  0.78457700  0.68131300  0.60200200  1
  O  O73  1  0.31868700  0.28457700  0.35200200  1
  O  O74  1  0.18131300  0.21542300  0.85200200  1
  O  O75  1  0.71542300  0.81868700  0.10200200  1
  O  O76  1  0.21542300  0.81868700  0.14799800  1
  O  O77  1  0.18131300  0.71542300  0.89799800  1
  O  O78  1  0.31868700  0.78457700  0.39799800  1
  O  O79  1  0.28457700  0.68131300  0.64799800  1
  O  O80  1  0.03140550  0.64683650  0.60052250  1
  O  O81  1  0.35316350  0.53140550  0.35052250  1
  O  O82  1  0.14683650  0.96859450  0.85052250  1
  O  O83  1  0.46859450  0.85316350  0.10052250  1
  O  O84  1  0.96859450  0.85316350  0.14947750  1
  O  O85  1  0.14683650  0.46859450  0.89947750  1
  O  O86  1  0.35316350  0.03140550  0.39947750  1
  O  O87  1  0.53140550  0.64683650  0.64947750  1
  O  O88  1  0.38806850  0.05991250  0.90882350  1
  O  O89  1  0.44008750  0.38806850  0.15882350  1
  O  O90  1  0.55991250  0.61193150  0.15882350  1
  O  O91  1  0.11193150  0.44008750  0.40882350  1
  O  O92  1  0.61193150  0.44008750  0.84117650  1
  O  O93  1  0.05991250  0.61193150  0.09117650  1
  O  O94  1  0.44008750  0.88806850  0.59117650  1
  O  O95  1  0.38806850  0.55991250  0.84117650  1
  O  O96  1  0.42141700  0.32534500  0.93267000  1
  O  O97  1  0.17465500  0.42141700  0.18267000  1
  O  O98  1  0.32534500  0.07858300  0.68267000  1
  O  O99  1  0.57858300  0.67465500  0.93267000  1
  O  O100  1  0.07858300  0.67465500  0.31733000  1
  O  O101  1  0.32534500  0.57858300  0.06733000  1
  O  O102  1  0.67465500  0.42141700  0.06733000  1
  O  O103  1  0.42141700  0.82534500  0.81733000  1
