# generated using pymatgen
data_K2P2WO9
_symmetry_space_group_name_H-M   'P 1'
_cell_length_a   14.12306400
_cell_length_b   8.23720600
_cell_length_c   15.75990841
_cell_angle_alpha   90.00000000
_cell_angle_beta   98.85011382
_cell_angle_gamma   90.00000000
_symmetry_Int_Tables_number   1
_chemical_formula_structural   K2P2WO9
_chemical_formula_sum   'K16 P16 W8 O72'
_cell_volume   1811.59407253
_cell_formula_units_Z   8
loop_
 _symmetry_equiv_pos_site_id
 _symmetry_equiv_pos_as_xyz
  1  'x, y, z'
loop_
 _atom_site_type_symbol
 _atom_site_label
 _atom_site_symmetry_multiplicity
 _atom_site_fract_x
 _atom_site_fract_y
 _atom_site_fract_z
 _atom_site_occupancy
  K  K0  1  0.64925000  0.07545300  0.47351000  1
  K  K1  1  0.64925000  0.92454700  0.97351000  1
  K  K2  1  0.35404800  0.84799600  0.26184100  1
  K  K3  1  0.64595200  0.84799600  0.23815900  1
  K  K4  1  0.64595200  0.15200400  0.73815900  1
  K  K5  1  0.35075000  0.92454700  0.52649000  1
  K  K6  1  0.35404800  0.15200400  0.76184100  1
  K  K7  1  0.35075000  0.07545300  0.02649000  1
  K  K8  1  0.14925000  0.57545300  0.47351000  1
  K  K9  1  0.14925000  0.42454700  0.97351000  1
  K  K10  1  0.85404800  0.34799600  0.26184100  1
  K  K11  1  0.14595200  0.34799600  0.23815900  1
  K  K12  1  0.14595200  0.65200400  0.73815900  1
  K  K13  1  0.85075000  0.42454700  0.52649000  1
  K  K14  1  0.85404800  0.65200400  0.76184100  1
  K  K15  1  0.85075000  0.57545300  0.02649000  1
  P  P16  1  0.12744850  0.91864150  0.34497600  1
  P  P17  1  0.46297050  0.69465150  0.07761400  1
  P  P18  1  0.53702950  0.69465150  0.42238600  1
  P  P19  1  0.87255150  0.91864150  0.15502400  1
  P  P20  1  0.87255150  0.08135850  0.65502400  1
  P  P21  1  0.12744850  0.08135850  0.84497600  1
  P  P22  1  0.53702950  0.30534850  0.92238600  1
  P  P23  1  0.46297050  0.30534850  0.57761400  1
  P  P24  1  0.62744850  0.41864150  0.34497600  1
  P  P25  1  0.96297050  0.19465150  0.07761400  1
  P  P26  1  0.03702950  0.19465150  0.42238600  1
  P  P27  1  0.37255150  0.41864150  0.15502400  1
  P  P28  1  0.37255150  0.58135850  0.65502400  1
  P  P29  1  0.62744850  0.58135850  0.84497600  1
  P  P30  1  0.03702950  0.80534850  0.92238600  1
  P  P31  1  0.96297050  0.80534850  0.57761400  1
  W  W32  1  0.38776850  0.35765450  0.36437500  1
  W  W33  1  0.38776850  0.64234550  0.86437500  1
  W  W34  1  0.61223150  0.64234550  0.63562500  1
  W  W35  1  0.61223150  0.35765450  0.13562500  1
  W  W36  1  0.88776850  0.85765450  0.36437500  1
  W  W37  1  0.88776850  0.14234550  0.86437500  1
  W  W38  1  0.11223150  0.14234550  0.63562500  1
  W  W39  1  0.11223150  0.85765450  0.13562500  1
  O  O40  1  0.47445950  0.84623150  0.13095100  1
  O  O41  1  0.35679950  0.16839350  0.31506000  1
  O  O42  1  0.44803950  0.41415550  0.91550300  1
  O  O43  1  0.64320050  0.83160650  0.68494000  1
  O  O44  1  0.87960100  0.02169400  0.75063400  1
  O  O45  1  0.42851200  0.74137600  0.98174600  1
  O  O46  1  0.21986600  0.83646500  0.37963800  1
  O  O47  1  0.87487550  0.08900950  0.10347300  1
  O  O48  1  0.12512450  0.08900950  0.39652700  1
  O  O49  1  0.52554050  0.84623150  0.36904900  1
  O  O50  1  0.46278750  0.67768850  0.64354300  1
  O  O51  1  0.87487550  0.91099050  0.60347300  1
  O  O52  1  0.12039900  0.02169400  0.74936600  1
  O  O53  1  0.53721250  0.32231150  0.35645700  1
  O  O54  1  0.42851200  0.25862400  0.48174600  1
  O  O55  1  0.57148800  0.74137600  0.51825400  1
  O  O56  1  0.78013400  0.83646500  0.12036200  1
  O  O57  1  0.64320050  0.16839350  0.18494000  1
  O  O58  1  0.55196050  0.58584450  0.08449700  1
  O  O59  1  0.77505750  0.07209750  0.88597600  1
  O  O60  1  0.77505750  0.92790250  0.38597600  1
  O  O61  1  0.12512450  0.91099050  0.89652700  1
  O  O62  1  0.47445950  0.15376850  0.63095100  1
  O  O63  1  0.22494250  0.92790250  0.11402400  1
  O  O64  1  0.22494250  0.07209750  0.61402400  1
  O  O65  1  0.57148800  0.25862400  0.01825400  1
  O  O66  1  0.53721250  0.67768850  0.85645700  1
  O  O67  1  0.21986600  0.16353500  0.87963800  1
  O  O68  1  0.55196050  0.41415550  0.58449700  1
  O  O69  1  0.12039900  0.97830600  0.24936600  1
  O  O70  1  0.78013400  0.16353500  0.62036200  1
  O  O71  1  0.44803950  0.58584450  0.41550300  1
  O  O72  1  0.52554050  0.15376850  0.86904900  1
  O  O73  1  0.87960100  0.97830600  0.25063400  1
  O  O74  1  0.35679950  0.83160650  0.81506000  1
  O  O75  1  0.46278750  0.32231150  0.14354300  1
  O  O76  1  0.97445950  0.34623150  0.13095100  1
  O  O77  1  0.85679950  0.66839350  0.31506000  1
  O  O78  1  0.94803950  0.91415550  0.91550300  1
  O  O79  1  0.14320050  0.33160650  0.68494000  1
  O  O80  1  0.37960100  0.52169400  0.75063400  1
  O  O81  1  0.92851200  0.24137600  0.98174600  1
  O  O82  1  0.71986600  0.33646500  0.37963800  1
  O  O83  1  0.37487550  0.58900950  0.10347300  1
  O  O84  1  0.62512450  0.58900950  0.39652700  1
  O  O85  1  0.02554050  0.34623150  0.36904900  1
  O  O86  1  0.96278750  0.17768850  0.64354300  1
  O  O87  1  0.37487550  0.41099050  0.60347300  1
  O  O88  1  0.62039900  0.52169400  0.74936600  1
  O  O89  1  0.03721250  0.82231150  0.35645700  1
  O  O90  1  0.92851200  0.75862400  0.48174600  1
  O  O91  1  0.07148800  0.24137600  0.51825400  1
  O  O92  1  0.28013400  0.33646500  0.12036200  1
  O  O93  1  0.14320050  0.66839350  0.18494000  1
  O  O94  1  0.05196050  0.08584450  0.08449700  1
  O  O95  1  0.27505750  0.57209750  0.88597600  1
  O  O96  1  0.27505750  0.42790250  0.38597600  1
  O  O97  1  0.62512450  0.41099050  0.89652700  1
  O  O98  1  0.97445950  0.65376850  0.63095100  1
  O  O99  1  0.72494250  0.42790250  0.11402400  1
  O  O100  1  0.72494250  0.57209750  0.61402400  1
  O  O101  1  0.07148800  0.75862400  0.01825400  1
  O  O102  1  0.03721250  0.17768850  0.85645700  1
  O  O103  1  0.71986600  0.66353500  0.87963800  1
  O  O104  1  0.05196050  0.91415550  0.58449700  1
  O  O105  1  0.62039900  0.47830600  0.24936600  1
  O  O106  1  0.28013400  0.66353500  0.62036200  1
  O  O107  1  0.94803950  0.08584450  0.41550300  1
  O  O108  1  0.02554050  0.65376850  0.86904900  1
  O  O109  1  0.37960100  0.47830600  0.25063400  1
  O  O110  1  0.85679950  0.33160650  0.81506000  1
  O  O111  1  0.96278750  0.82231150  0.14354300  1
