# generated using pymatgen
data_RbGd(WO4)2
_symmetry_space_group_name_H-M   'P 1'
_cell_length_a   10.98509000
_cell_length_b   10.77818800
_cell_length_c   7.53032625
_cell_angle_alpha   90.00000000
_cell_angle_beta   130.13211569
_cell_angle_gamma   90.00000000
_symmetry_Int_Tables_number   1
_chemical_formula_structural   RbGd(WO4)2
_chemical_formula_sum   'Rb4 Gd4 W8 O32'
_cell_volume   681.67108451
_cell_formula_units_Z   4
loop_
 _symmetry_equiv_pos_site_id
 _symmetry_equiv_pos_as_xyz
  1  'x, y, z'
loop_
 _atom_site_type_symbol
 _atom_site_label
 _atom_site_symmetry_multiplicity
 _atom_site_fract_x
 _atom_site_fract_y
 _atom_site_fract_z
 _atom_site_occupancy
  Rb  Rb0  1  0.00000000  0.79776200  0.25000000  1
  Rb  Rb1  1  0.00000000  0.20223800  0.75000000  1
  Rb  Rb2  1  0.50000000  0.29776200  0.25000000  1
  Rb  Rb3  1  0.50000000  0.70223800  0.75000000  1
  Gd  Gd4  1  0.00000000  0.22418200  0.25000000  1
  Gd  Gd5  1  0.00000000  0.77581800  0.75000000  1
  Gd  Gd6  1  0.50000000  0.72418200  0.25000000  1
  Gd  Gd7  1  0.50000000  0.27581800  0.75000000  1
  W  W8  1  0.19407650  0.49470350  0.21743600  1
  W  W9  1  0.80592350  0.49470350  0.28256400  1
  W  W10  1  0.80592350  0.50529650  0.78256400  1
  W  W11  1  0.19407650  0.50529650  0.71743600  1
  W  W12  1  0.69407650  0.99470350  0.21743600  1
  W  W13  1  0.30592350  0.99470350  0.28256400  1
  W  W14  1  0.30592350  0.00529650  0.78256400  1
  W  W15  1  0.69407650  0.00529650  0.71743600  1
  O  O16  1  0.01884550  0.60897050  0.96773500  1
  O  O17  1  0.98115450  0.60897050  0.53226500  1
  O  O18  1  0.98115450  0.39102950  0.03226500  1
  O  O19  1  0.01884550  0.39102950  0.46773500  1
  O  O20  1  0.28323400  0.34490600  0.37167900  1
  O  O21  1  0.71676600  0.34490600  0.12832100  1
  O  O22  1  0.71676600  0.65509400  0.62832100  1
  O  O23  1  0.28323400  0.65509400  0.87167900  1
  O  O24  1  0.18699850  0.56376250  0.43993300  1
  O  O25  1  0.81300150  0.56376250  0.06006700  1
  O  O26  1  0.81300150  0.43623750  0.56006700  1
  O  O27  1  0.18699850  0.43623750  0.93993300  1
  O  O28  1  0.36618050  0.58637050  0.30649000  1
  O  O29  1  0.63381950  0.58637050  0.19351000  1
  O  O30  1  0.63381950  0.41362950  0.69351000  1
  O  O31  1  0.36618050  0.41362950  0.80649000  1
  O  O32  1  0.51884550  0.10897050  0.96773500  1
  O  O33  1  0.48115450  0.10897050  0.53226500  1
  O  O34  1  0.48115450  0.89102950  0.03226500  1
  O  O35  1  0.51884550  0.89102950  0.46773500  1
  O  O36  1  0.78323400  0.84490600  0.37167900  1
  O  O37  1  0.21676600  0.84490600  0.12832100  1
  O  O38  1  0.21676600  0.15509400  0.62832100  1
  O  O39  1  0.78323400  0.15509400  0.87167900  1
  O  O40  1  0.68699850  0.06376250  0.43993300  1
  O  O41  1  0.31300150  0.06376250  0.06006700  1
  O  O42  1  0.31300150  0.93623750  0.56006700  1
  O  O43  1  0.68699850  0.93623750  0.93993300  1
  O  O44  1  0.86618050  0.08637050  0.30649000  1
  O  O45  1  0.13381950  0.08637050  0.19351000  1
  O  O46  1  0.13381950  0.91362950  0.69351000  1
  O  O47  1  0.86618050  0.91362950  0.80649000  1
