# generated using pymatgen
data_KNi(PO3)3
_symmetry_space_group_name_H-M   'P 1'
_cell_length_a   10.22936548
_cell_length_b   10.22936548
_cell_length_c   7.06776709
_cell_angle_alpha   90.00000000
_cell_angle_beta   90.00000000
_cell_angle_gamma   120.00000000
_symmetry_Int_Tables_number   1
_chemical_formula_structural   KNi(PO3)3
_chemical_formula_sum   'K3 Ni3 P9 O27'
_cell_volume   640.48690169
_cell_formula_units_Z   3
loop_
 _symmetry_equiv_pos_site_id
 _symmetry_equiv_pos_as_xyz
  1  'x, y, z'
loop_
 _atom_site_type_symbol
 _atom_site_label
 _atom_site_symmetry_multiplicity
 _atom_site_fract_x
 _atom_site_fract_y
 _atom_site_fract_z
 _atom_site_occupancy
  K  K0  1  0.00000000  0.00000000  0.49332775  1
  K  K1  1  0.66666667  0.33333333  0.82666108  1
  K  K2  1  0.33333333  0.66666667  0.15999442  1
  Ni  Ni3  1  0.00000000  0.00000000  0.00119075  1
  Ni  Ni4  1  0.66666667  0.33333333  0.33452408  1
  Ni  Ni5  1  0.33333333  0.66666667  0.66785742  1
  P  P6  1  0.56241350  0.99036775  0.46970400  1
  P  P7  1  0.42795425  0.43758650  0.46970400  1
  P  P8  1  0.00963225  0.57204575  0.46970400  1
  P  P9  1  0.22908017  0.32370108  0.80303733  1
  P  P10  1  0.09462092  0.77091983  0.80303733  1
  P  P11  1  0.67629892  0.90537908  0.80303733  1
  P  P12  1  0.89574683  0.65703442  0.13637067  1
  P  P13  1  0.76128758  0.10425317  0.13637067  1
  P  P14  1  0.34296558  0.23871242  0.13637067  1
  O  O15  1  0.18792717  0.10938758  0.17673008  1
  O  O16  1  0.89061242  0.07853958  0.17673008  1
  O  O17  1  0.92146042  0.81207283  0.17673008  1
  O  O18  1  0.68639933  0.96806567  0.59041942  1
  O  O19  1  0.28166633  0.31360067  0.59041942  1
  O  O20  1  0.03193433  0.71833367  0.59041942  1
  O  O21  1  0.07503083  0.18845442  0.82726992  1
  O  O22  1  0.11342358  0.92496917  0.82726992  1
  O  O23  1  0.81154558  0.88657642  0.82726992  1
  O  O24  1  0.85459383  0.44272092  0.51006342  1
  O  O25  1  0.55727908  0.41187292  0.51006342  1
  O  O26  1  0.58812708  0.14540617  0.51006342  1
  O  O27  1  0.35306600  0.30139900  0.92375275  1
  O  O28  1  0.94833300  0.64693400  0.92375275  1
  O  O29  1  0.69860100  0.05166700  0.92375275  1
  O  O30  1  0.74169750  0.52178775  0.16060325  1
  O  O31  1  0.78009025  0.25830250  0.16060325  1
  O  O32  1  0.47821225  0.21990975  0.16060325  1
  O  O33  1  0.52126050  0.77605425  0.84339675  1
  O  O34  1  0.22394575  0.74520625  0.84339675  1
  O  O35  1  0.25479375  0.47873950  0.84339675  1
  O  O36  1  0.01973267  0.63473233  0.25708608  1
  O  O37  1  0.61499967  0.98026733  0.25708608  1
  O  O38  1  0.36526767  0.38500033  0.25708608  1
  O  O39  1  0.40836417  0.85512108  0.49393658  1
  O  O40  1  0.44675692  0.59163583  0.49393658  1
  O  O41  1  0.14487892  0.55324308  0.49393658  1
