# generated using pymatgen
data_La2AlNi9
_symmetry_space_group_name_H-M   'P 1'
_cell_length_a   5.04786600
_cell_length_b   8.59887000
_cell_length_c   8.03450300
_cell_angle_alpha   90.00000000
_cell_angle_beta   90.00000000
_cell_angle_gamma   90.00000000
_symmetry_Int_Tables_number   1
_chemical_formula_structural   La2AlNi9
_chemical_formula_sum   'La4 Al2 Ni18'
_cell_volume   348.74518336
_cell_formula_units_Z   2
loop_
 _symmetry_equiv_pos_site_id
 _symmetry_equiv_pos_as_xyz
  1  'x, y, z'
loop_
 _atom_site_type_symbol
 _atom_site_label
 _atom_site_symmetry_multiplicity
 _atom_site_fract_x
 _atom_site_fract_y
 _atom_site_fract_z
 _atom_site_occupancy
  La  La0  1  0.00000000  0.00000000  0.76549800  1
  La  La1  1  0.00000000  0.00000000  0.23450200  1
  La  La2  1  0.50000000  0.50000000  0.76549800  1
  La  La3  1  0.50000000  0.50000000  0.23450200  1
  Al  Al4  1  0.50000000  0.00000000  0.50000000  1
  Al  Al5  1  0.00000000  0.50000000  0.50000000  1
  Ni  Ni6  1  0.50000000  0.83124600  0.74948300  1
  Ni  Ni7  1  0.50000000  0.83124600  0.25051700  1
  Ni  Ni8  1  0.50000000  0.00000000  0.00000000  1
  Ni  Ni9  1  0.50000000  0.16875400  0.74948300  1
  Ni  Ni10  1  0.25000000  0.75000000  0.50000000  1
  Ni  Ni11  1  0.25000000  0.25000000  0.00000000  1
  Ni  Ni12  1  0.25000000  0.75000000  0.00000000  1
  Ni  Ni13  1  0.50000000  0.16875400  0.25051700  1
  Ni  Ni14  1  0.25000000  0.25000000  0.50000000  1
  Ni  Ni15  1  0.00000000  0.33124600  0.74948300  1
  Ni  Ni16  1  0.00000000  0.33124600  0.25051700  1
  Ni  Ni17  1  0.00000000  0.50000000  0.00000000  1
  Ni  Ni18  1  0.00000000  0.66875400  0.74948300  1
  Ni  Ni19  1  0.75000000  0.25000000  0.50000000  1
  Ni  Ni20  1  0.75000000  0.75000000  0.00000000  1
  Ni  Ni21  1  0.75000000  0.25000000  0.00000000  1
  Ni  Ni22  1  0.00000000  0.66875400  0.25051700  1
  Ni  Ni23  1  0.75000000  0.75000000  0.50000000  1
