# generated using pymatgen
data_Ba11Sb10
_symmetry_space_group_name_H-M   'P 1'
_cell_length_a   12.84344200
_cell_length_b   13.37461000
_cell_length_c   19.83669000
_cell_angle_alpha   90.00000000
_cell_angle_beta   90.00000000
_cell_angle_gamma   90.00000000
_symmetry_Int_Tables_number   1
_chemical_formula_structural   Ba11Sb10
_chemical_formula_sum   'Ba44 Sb40'
_cell_volume   3407.46781305
_cell_formula_units_Z   4
loop_
 _symmetry_equiv_pos_site_id
 _symmetry_equiv_pos_as_xyz
  1  'x, y, z'
loop_
 _atom_site_type_symbol
 _atom_site_label
 _atom_site_symmetry_multiplicity
 _atom_site_fract_x
 _atom_site_fract_y
 _atom_site_fract_z
 _atom_site_occupancy
  Ba  Ba0  1  0.50000000  0.82283700  0.61006000  1
  Ba  Ba1  1  0.00000000  0.67716300  0.88994000  1
  Ba  Ba2  1  0.00000000  0.32283700  0.88994000  1
  Ba  Ba3  1  0.50000000  0.17716300  0.61006000  1
  Ba  Ba4  1  0.50000000  0.50000000  0.64889600  1
  Ba  Ba5  1  0.00000000  0.00000000  0.85110400  1
  Ba  Ba6  1  0.50000000  0.75216800  0.81315400  1
  Ba  Ba7  1  0.00000000  0.74783200  0.68684600  1
  Ba  Ba8  1  0.00000000  0.25216800  0.68684600  1
  Ba  Ba9  1  0.50000000  0.24783200  0.81315400  1
  Ba  Ba10  1  0.82811300  0.50000000  0.60018200  1
  Ba  Ba11  1  0.32811300  0.00000000  0.89981800  1
  Ba  Ba12  1  0.67188700  0.00000000  0.89981800  1
  Ba  Ba13  1  0.17188700  0.50000000  0.60018200  1
  Ba  Ba14  1  0.74958800  0.50000000  0.80408800  1
  Ba  Ba15  1  0.24958800  0.00000000  0.69591200  1
  Ba  Ba16  1  0.75041200  0.00000000  0.69591200  1
  Ba  Ba17  1  0.25041200  0.50000000  0.80408800  1
  Ba  Ba18  1  0.32602000  0.33523800  0.00000000  1
  Ba  Ba19  1  0.32602000  0.66476200  0.00000000  1
  Ba  Ba20  1  0.67398000  0.33523800  0.00000000  1
  Ba  Ba21  1  0.67398000  0.66476200  0.00000000  1
  Ba  Ba22  1  0.00000000  0.32283700  0.11006000  1
  Ba  Ba23  1  0.50000000  0.17716300  0.38994000  1
  Ba  Ba24  1  0.50000000  0.82283700  0.38994000  1
  Ba  Ba25  1  0.00000000  0.67716300  0.11006000  1
  Ba  Ba26  1  0.00000000  0.00000000  0.14889600  1
  Ba  Ba27  1  0.50000000  0.50000000  0.35110400  1
  Ba  Ba28  1  0.00000000  0.25216800  0.31315400  1
  Ba  Ba29  1  0.50000000  0.24783200  0.18684600  1
  Ba  Ba30  1  0.50000000  0.75216800  0.18684600  1
  Ba  Ba31  1  0.00000000  0.74783200  0.31315400  1
  Ba  Ba32  1  0.32811300  0.00000000  0.10018200  1
  Ba  Ba33  1  0.82811300  0.50000000  0.39981800  1
  Ba  Ba34  1  0.17188700  0.50000000  0.39981800  1
  Ba  Ba35  1  0.67188700  0.00000000  0.10018200  1
  Ba  Ba36  1  0.24958800  0.00000000  0.30408800  1
  Ba  Ba37  1  0.74958800  0.50000000  0.19591200  1
  Ba  Ba38  1  0.25041200  0.50000000  0.19591200  1
  Ba  Ba39  1  0.75041200  0.00000000  0.30408800  1
  Ba  Ba40  1  0.82602000  0.83523800  0.50000000  1
  Ba  Ba41  1  0.82602000  0.16476200  0.50000000  1
  Ba  Ba42  1  0.17398000  0.83523800  0.50000000  1
  Ba  Ba43  1  0.17398000  0.16476200  0.50000000  1
  Sb  Sb44  1  0.50000000  0.50000000  0.88575200  1
  Sb  Sb45  1  0.00000000  0.00000000  0.61424800  1
  Sb  Sb46  1  0.00000000  0.50000000  0.74489700  1
  Sb  Sb47  1  0.50000000  0.00000000  0.75510300  1
  Sb  Sb48  1  0.50000000  0.84883800  0.00000000  1
  Sb  Sb49  1  0.50000000  0.15116200  0.00000000  1
  Sb  Sb50  1  0.11482000  0.50000000  0.00000000  1
  Sb  Sb51  1  0.88518000  0.50000000  0.00000000  1
  Sb  Sb52  1  0.71372450  0.71066450  0.68455050  1
  Sb  Sb53  1  0.21372450  0.78933550  0.81544950  1
  Sb  Sb54  1  0.78627550  0.21066450  0.81544950  1
  Sb  Sb55  1  0.28627550  0.28933550  0.68455050  1
  Sb  Sb56  1  0.78627550  0.78933550  0.81544950  1
  Sb  Sb57  1  0.28627550  0.71066450  0.68455050  1
  Sb  Sb58  1  0.71372450  0.28933550  0.68455050  1
  Sb  Sb59  1  0.21372450  0.21066450  0.81544950  1
  Sb  Sb60  1  0.10953300  0.12990200  0.00000000  1
  Sb  Sb61  1  0.60953300  0.37009800  0.50000000  1
  Sb  Sb62  1  0.89046700  0.12990200  0.00000000  1
  Sb  Sb63  1  0.89046700  0.87009800  0.00000000  1
  Sb  Sb64  1  0.00000000  0.00000000  0.38575200  1
  Sb  Sb65  1  0.50000000  0.50000000  0.11424800  1
  Sb  Sb66  1  0.50000000  0.00000000  0.24489700  1
  Sb  Sb67  1  0.00000000  0.50000000  0.25510300  1
  Sb  Sb68  1  0.00000000  0.34883800  0.50000000  1
  Sb  Sb69  1  0.00000000  0.65116200  0.50000000  1
  Sb  Sb70  1  0.61482000  0.00000000  0.50000000  1
  Sb  Sb71  1  0.38518000  0.00000000  0.50000000  1
  Sb  Sb72  1  0.21372450  0.21066450  0.18455050  1
  Sb  Sb73  1  0.71372450  0.28933550  0.31544950  1
  Sb  Sb74  1  0.28627550  0.71066450  0.31544950  1
  Sb  Sb75  1  0.78627550  0.78933550  0.18455050  1
  Sb  Sb76  1  0.28627550  0.28933550  0.31544950  1
  Sb  Sb77  1  0.78627550  0.21066450  0.18455050  1
  Sb  Sb78  1  0.21372450  0.78933550  0.18455050  1
  Sb  Sb79  1  0.71372450  0.71066450  0.31544950  1
  Sb  Sb80  1  0.60953300  0.62990200  0.50000000  1
  Sb  Sb81  1  0.10953300  0.87009800  0.00000000  1
  Sb  Sb82  1  0.39046700  0.62990200  0.50000000  1
  Sb  Sb83  1  0.39046700  0.37009800  0.50000000  1
