# generated using pymatgen
data_MnPO4
_symmetry_space_group_name_H-M   'P 1'
_cell_length_a   4.92537700
_cell_length_b   6.05177800
_cell_length_c   9.87485100
_cell_angle_alpha   90.00000000
_cell_angle_beta   90.00000000
_cell_angle_gamma   90.00000000
_symmetry_Int_Tables_number   1
_chemical_formula_structural   MnPO4
_chemical_formula_sum   'Mn4 P4 O16'
_cell_volume   294.34252940
_cell_formula_units_Z   4
loop_
 _symmetry_equiv_pos_site_id
 _symmetry_equiv_pos_as_xyz
  1  'x, y, z'
loop_
 _atom_site_type_symbol
 _atom_site_label
 _atom_site_symmetry_multiplicity
 _atom_site_fract_x
 _atom_site_fract_y
 _atom_site_fract_z
 _atom_site_occupancy
  Mn  Mn0  1  0.42235700  0.75000000  0.78897000  1
  Mn  Mn1  1  0.07764300  0.75000000  0.28897000  1
  Mn  Mn2  1  0.92235700  0.25000000  0.71103000  1
  Mn  Mn3  1  0.57764300  0.25000000  0.21103000  1
  P  P4  1  0.41341100  0.25000000  0.89845000  1
  P  P5  1  0.08658900  0.25000000  0.39845000  1
  P  P6  1  0.91341100  0.75000000  0.60155000  1
  P  P7  1  0.58658900  0.75000000  0.10155000  1
  O  O8  1  0.72369200  0.25000000  0.87642600  1
  O  O9  1  0.77630800  0.25000000  0.37642600  1
  O  O10  1  0.22369200  0.75000000  0.62357400  1
  O  O11  1  0.27630800  0.75000000  0.12357400  1
  O  O12  1  0.14158200  0.25000000  0.55216600  1
  O  O13  1  0.35841800  0.25000000  0.05216600  1
  O  O14  1  0.85841800  0.75000000  0.44783400  1
  O  O15  1  0.64158200  0.75000000  0.94783400  1
  O  O16  1  0.26959300  0.05011200  0.82856800  1
  O  O17  1  0.23040700  0.05011200  0.32856800  1
  O  O18  1  0.26959300  0.44988800  0.82856800  1
  O  O19  1  0.23040700  0.44988800  0.32856800  1
  O  O20  1  0.73040700  0.55011200  0.17143200  1
  O  O21  1  0.76959300  0.55011200  0.67143200  1
  O  O22  1  0.76959300  0.94988800  0.67143200  1
  O  O23  1  0.73040700  0.94988800  0.17143200  1
