# generated using pymatgen
data_KNa3WO5
_symmetry_space_group_name_H-M   'P 1'
_cell_length_a   9.16371600
_cell_length_b   7.57463000
_cell_length_c   9.20817813
_cell_angle_alpha   90.00000000
_cell_angle_beta   104.14150330
_cell_angle_gamma   90.00000000
_symmetry_Int_Tables_number   1
_chemical_formula_structural   KNa3WO5
_chemical_formula_sum   'K4 Na12 W4 O20'
_cell_volume   619.78640359
_cell_formula_units_Z   4
loop_
 _symmetry_equiv_pos_site_id
 _symmetry_equiv_pos_as_xyz
  1  'x, y, z'
loop_
 _atom_site_type_symbol
 _atom_site_label
 _atom_site_symmetry_multiplicity
 _atom_site_fract_x
 _atom_site_fract_y
 _atom_site_fract_z
 _atom_site_occupancy
  K  K0  1  0.00000000  0.74888000  0.50000000  1
  K  K1  1  0.00000000  0.25112000  0.50000000  1
  K  K2  1  0.50000000  0.24888000  0.50000000  1
  K  K3  1  0.50000000  0.75112000  0.50000000  1
  Na  Na4  1  0.90296300  0.74513400  0.11283200  1
  Na  Na5  1  0.09703700  0.74513400  0.88716800  1
  Na  Na6  1  0.09703700  0.25486600  0.88716800  1
  Na  Na7  1  0.68974200  0.50000000  0.27358800  1
  Na  Na8  1  0.90296300  0.25486600  0.11283200  1
  Na  Na9  1  0.31025800  0.50000000  0.72641200  1
  Na  Na10  1  0.40296300  0.24513400  0.11283200  1
  Na  Na11  1  0.59703700  0.24513400  0.88716800  1
  Na  Na12  1  0.59703700  0.75486600  0.88716800  1
  Na  Na13  1  0.18974200  0.00000000  0.27358800  1
  Na  Na14  1  0.40296300  0.75486600  0.11283200  1
  Na  Na15  1  0.81025800  0.00000000  0.72641200  1
  W  W16  1  0.19124300  0.50000000  0.25809300  1
  W  W17  1  0.80875700  0.50000000  0.74190700  1
  W  W18  1  0.69124300  0.00000000  0.25809300  1
  W  W19  1  0.30875700  0.00000000  0.74190700  1
  O  O20  1  0.75371200  0.50000000  0.53380200  1
  O  O21  1  0.24628800  0.50000000  0.46619800  1
  O  O22  1  0.16389100  0.28072500  0.15462700  1
  O  O23  1  0.59907900  0.50000000  0.75086400  1
  O  O24  1  0.97920700  0.50000000  0.25810900  1
  O  O25  1  0.16389100  0.71927500  0.15462700  1
  O  O26  1  0.83610900  0.28072500  0.84537300  1
  O  O27  1  0.02079300  0.50000000  0.74189100  1
  O  O28  1  0.40092100  0.50000000  0.24913600  1
  O  O29  1  0.83610900  0.71927500  0.84537300  1
  O  O30  1  0.25371200  0.00000000  0.53380200  1
  O  O31  1  0.74628800  0.00000000  0.46619800  1
  O  O32  1  0.66389100  0.78072500  0.15462700  1
  O  O33  1  0.09907900  0.00000000  0.75086400  1
  O  O34  1  0.47920700  0.00000000  0.25810900  1
  O  O35  1  0.66389100  0.21927500  0.15462700  1
  O  O36  1  0.33610900  0.78072500  0.84537300  1
  O  O37  1  0.52079300  0.00000000  0.74189100  1
  O  O38  1  0.90092100  0.00000000  0.24913600  1
  O  O39  1  0.33610900  0.21927500  0.84537300  1
