# generated using pymatgen
data_Fe2PO5
_symmetry_space_group_name_H-M   'P 1'
_cell_length_a   7.68266561
_cell_length_b   7.70438501
_cell_length_c   7.32794212
_cell_angle_alpha   90.00000000
_cell_angle_beta   121.19131622
_cell_angle_gamma   90.00000000
_symmetry_Int_Tables_number   1
_chemical_formula_structural   Fe2PO5
_chemical_formula_sum   'Fe8 P4 O20'
_cell_volume   371.04184905
_cell_formula_units_Z   4
loop_
 _symmetry_equiv_pos_site_id
 _symmetry_equiv_pos_as_xyz
  1  'x, y, z'
loop_
 _atom_site_type_symbol
 _atom_site_label
 _atom_site_symmetry_multiplicity
 _atom_site_fract_x
 _atom_site_fract_y
 _atom_site_fract_z
 _atom_site_occupancy
  Fe  Fe0  1  0.25000000  0.75000000  0.50000000  1
  Fe  Fe1  1  0.50000000  0.00000000  0.50000000  1
  Fe  Fe2  1  0.25000000  0.25000000  0.00000000  1
  Fe  Fe3  1  0.50000000  0.00000000  0.00000000  1
  Fe  Fe4  1  0.75000000  0.25000000  0.50000000  1
  Fe  Fe5  1  0.00000000  0.50000000  0.50000000  1
  Fe  Fe6  1  0.75000000  0.75000000  0.00000000  1
  Fe  Fe7  1  0.00000000  0.50000000  0.00000000  1
  P  P8  1  0.50000000  0.62716300  0.25000000  1
  P  P9  1  0.50000000  0.37283700  0.75000000  1
  P  P10  1  0.00000000  0.12716300  0.25000000  1
  P  P11  1  0.00000000  0.87283700  0.75000000  1
  O  O12  1  0.50000000  0.89201450  0.75000000  1
  O  O13  1  0.50000000  0.10798550  0.25000000  1
  O  O14  1  0.18791850  0.00775650  0.37224000  1
  O  O15  1  0.81208150  0.00775650  0.12776000  1
  O  O16  1  0.53735550  0.74577950  0.10287400  1
  O  O17  1  0.81208150  0.99224350  0.62776000  1
  O  O18  1  0.46264450  0.74577950  0.39712600  1
  O  O19  1  0.46264450  0.25422050  0.89712600  1
  O  O20  1  0.18791850  0.99224350  0.87224000  1
  O  O21  1  0.53735550  0.25422050  0.60287400  1
  O  O22  1  0.00000000  0.39201450  0.75000000  1
  O  O23  1  0.00000000  0.60798550  0.25000000  1
  O  O24  1  0.68791850  0.50775650  0.37224000  1
  O  O25  1  0.31208150  0.50775650  0.12776000  1
  O  O26  1  0.03735550  0.24577950  0.10287400  1
  O  O27  1  0.31208150  0.49224350  0.62776000  1
  O  O28  1  0.96264450  0.24577950  0.39712600  1
  O  O29  1  0.96264450  0.75422050  0.89712600  1
  O  O30  1  0.68791850  0.49224350  0.87224000  1
  O  O31  1  0.03735550  0.75422050  0.60287400  1
