# generated using pymatgen
data_Na2FeCuF7
_symmetry_space_group_name_H-M   'P 1'
_cell_length_a   12.59581200
_cell_length_b   7.46376400
_cell_length_c   13.10348828
_cell_angle_alpha   90.00000000
_cell_angle_beta   109.68262734
_cell_angle_gamma   90.00000000
_symmetry_Int_Tables_number   1
_chemical_formula_structural   Na2FeCuF7
_chemical_formula_sum   'Na16 Fe8 Cu8 F56'
_cell_volume   1159.91150734
_cell_formula_units_Z   8
loop_
 _symmetry_equiv_pos_site_id
 _symmetry_equiv_pos_as_xyz
  1  'x, y, z'
loop_
 _atom_site_type_symbol
 _atom_site_label
 _atom_site_symmetry_multiplicity
 _atom_site_fract_x
 _atom_site_fract_y
 _atom_site_fract_z
 _atom_site_occupancy
  Na  Na0  1  0.00000000  0.50000000  0.00000000  1
  Na  Na1  1  0.50000000  0.00000000  0.50000000  1
  Na  Na2  1  0.00000000  0.72856900  0.75000000  1
  Na  Na3  1  0.50000000  0.77143100  0.25000000  1
  Na  Na4  1  0.75336500  0.03906600  0.25427500  1
  Na  Na5  1  0.75336500  0.96093400  0.75427500  1
  Na  Na6  1  0.74663500  0.46093400  0.74572500  1
  Na  Na7  1  0.74663500  0.53906600  0.24572500  1
  Na  Na8  1  0.50000000  0.00000000  0.00000000  1
  Na  Na9  1  0.00000000  0.50000000  0.50000000  1
  Na  Na10  1  0.50000000  0.22856900  0.75000000  1
  Na  Na11  1  0.00000000  0.27143100  0.25000000  1
  Na  Na12  1  0.25336500  0.53906600  0.25427500  1
  Na  Na13  1  0.25336500  0.46093400  0.75427500  1
  Na  Na14  1  0.24663500  0.96093400  0.74572500  1
  Na  Na15  1  0.24663500  0.03906600  0.24572500  1
  Fe  Fe16  1  0.25000000  0.75000000  0.00000000  1
  Fe  Fe17  1  0.50000000  0.24255100  0.25000000  1
  Fe  Fe18  1  0.75000000  0.75000000  0.50000000  1
  Fe  Fe19  1  0.00000000  0.25744900  0.75000000  1
  Fe  Fe20  1  0.75000000  0.25000000  0.00000000  1
  Fe  Fe21  1  0.00000000  0.74255100  0.25000000  1
  Fe  Fe22  1  0.25000000  0.25000000  0.50000000  1
  Fe  Fe23  1  0.50000000  0.75744900  0.75000000  1
  Cu  Cu24  1  0.75000000  0.75000000  0.00000000  1
  Cu  Cu25  1  0.75000000  0.25000000  0.50000000  1
  Cu  Cu26  1  0.00000000  0.00000000  0.50000000  1
  Cu  Cu27  1  0.00000000  0.00000000  0.00000000  1
  Cu  Cu28  1  0.25000000  0.25000000  0.00000000  1
  Cu  Cu29  1  0.25000000  0.75000000  0.50000000  1
  Cu  Cu30  1  0.50000000  0.50000000  0.50000000  1
  Cu  Cu31  1  0.50000000  0.50000000  0.00000000  1
  F  F32  1  0.65837300  0.76339800  0.84799200  1
  F  F33  1  0.84162700  0.26339800  0.65200800  1
  F  F34  1  0.84162700  0.73660200  0.15200800  1
  F  F35  1  0.65837300  0.23660200  0.34799200  1
  F  F36  1  0.04808600  0.45075600  0.67416900  1
  F  F37  1  0.95191400  0.45075600  0.82583100  1
  F  F38  1  0.45191400  0.04924400  0.32583100  1
  F  F39  1  0.54808600  0.04924400  0.17416900  1
  F  F40  1  0.87391100  0.83237600  0.95079700  1
  F  F41  1  0.12608900  0.83237600  0.54920300  1
  F  F42  1  0.62608900  0.66762400  0.04920300  1
  F  F43  1  0.37391100  0.66762400  0.45079700  1
  F  F44  1  0.91208600  0.80872700  0.53500800  1
  F  F45  1  0.08791400  0.80872700  0.96499200  1
  F  F46  1  0.58791400  0.69127300  0.46499200  1
  F  F47  1  0.41208600  0.69127300  0.03500800  1
  F  F48  1  0.20748900  0.70552400  0.84206300  1
  F  F49  1  0.79251100  0.70552400  0.65793700  1
  F  F50  1  0.29251100  0.79447600  0.15793700  1
  F  F51  1  0.70748900  0.79447600  0.34206300  1
  F  F52  1  0.44727150  0.56646750  0.82259300  1
  F  F53  1  0.55272850  0.56646750  0.67740700  1
  F  F54  1  0.05272850  0.93353250  0.17740700  1
  F  F55  1  0.94727150  0.93353250  0.32259300  1
  F  F56  1  0.70310450  0.01496950  0.03153100  1
  F  F57  1  0.79689550  0.51496950  0.46846900  1
  F  F58  1  0.79689550  0.48503050  0.96846900  1
  F  F59  1  0.70310450  0.98503050  0.53153100  1
  F  F60  1  0.15837300  0.26339800  0.84799200  1
  F  F61  1  0.34162700  0.76339800  0.65200800  1
  F  F62  1  0.34162700  0.23660200  0.15200800  1
  F  F63  1  0.15837300  0.73660200  0.34799200  1
  F  F64  1  0.54808600  0.95075600  0.67416900  1
  F  F65  1  0.45191400  0.95075600  0.82583100  1
  F  F66  1  0.95191400  0.54924400  0.32583100  1
  F  F67  1  0.04808600  0.54924400  0.17416900  1
  F  F68  1  0.37391100  0.33237600  0.95079700  1
  F  F69  1  0.62608900  0.33237600  0.54920300  1
  F  F70  1  0.12608900  0.16762400  0.04920300  1
  F  F71  1  0.87391100  0.16762400  0.45079700  1
  F  F72  1  0.41208600  0.30872700  0.53500800  1
  F  F73  1  0.58791400  0.30872700  0.96499200  1
  F  F74  1  0.08791400  0.19127300  0.46499200  1
  F  F75  1  0.91208600  0.19127300  0.03500800  1
  F  F76  1  0.70748900  0.20552400  0.84206300  1
  F  F77  1  0.29251100  0.20552400  0.65793700  1
  F  F78  1  0.79251100  0.29447600  0.15793700  1
  F  F79  1  0.20748900  0.29447600  0.34206300  1
  F  F80  1  0.94727150  0.06646750  0.82259300  1
  F  F81  1  0.05272850  0.06646750  0.67740700  1
  F  F82  1  0.55272850  0.43353250  0.17740700  1
  F  F83  1  0.44727150  0.43353250  0.32259300  1
  F  F84  1  0.20310450  0.51496950  0.03153100  1
  F  F85  1  0.29689550  0.01496950  0.46846900  1
  F  F86  1  0.29689550  0.98503050  0.96846900  1
  F  F87  1  0.20310450  0.48503050  0.53153100  1
