# generated using pymatgen
data_TbMoClO4
_symmetry_space_group_name_H-M   'P 1'
_cell_length_a   10.34646200
_cell_length_b   7.36002200
_cell_length_c   6.93922215
_cell_angle_alpha   90.00000000
_cell_angle_beta   107.14952237
_cell_angle_gamma   90.00000000
_symmetry_Int_Tables_number   1
_chemical_formula_structural   TbMoClO4
_chemical_formula_sum   'Tb4 Mo4 Cl4 O16'
_cell_volume   504.92859429
_cell_formula_units_Z   4
loop_
 _symmetry_equiv_pos_site_id
 _symmetry_equiv_pos_as_xyz
  1  'x, y, z'
loop_
 _atom_site_type_symbol
 _atom_site_label
 _atom_site_symmetry_multiplicity
 _atom_site_fract_x
 _atom_site_fract_y
 _atom_site_fract_z
 _atom_site_occupancy
  Tb  Tb0  1  0.77833000  0.00000000  0.88765200  1
  Tb  Tb1  1  0.22167000  0.00000000  0.11234800  1
  Tb  Tb2  1  0.27833000  0.50000000  0.88765200  1
  Tb  Tb3  1  0.72167000  0.50000000  0.11234800  1
  Mo  Mo4  1  0.63752000  0.00000000  0.26887700  1
  Mo  Mo5  1  0.36248000  0.00000000  0.73112300  1
  Mo  Mo6  1  0.13752000  0.50000000  0.26887700  1
  Mo  Mo7  1  0.86248000  0.50000000  0.73112300  1
  Cl  Cl8  1  0.98962300  0.00000000  0.23352500  1
  Cl  Cl9  1  0.01037700  0.00000000  0.76647500  1
  Cl  Cl10  1  0.48962300  0.50000000  0.23352500  1
  Cl  Cl11  1  0.51037700  0.50000000  0.76647500  1
  O  O12  1  0.70648800  0.00000000  0.53465200  1
  O  O13  1  0.30116750  0.81019050  0.84755300  1
  O  O14  1  0.29351200  0.00000000  0.46534800  1
  O  O15  1  0.54222000  0.00000000  0.79670400  1
  O  O16  1  0.69883250  0.81019050  0.15244700  1
  O  O17  1  0.30116750  0.18980950  0.84755300  1
  O  O18  1  0.69883250  0.18980950  0.15244700  1
  O  O19  1  0.45778000  0.00000000  0.20329600  1
  O  O20  1  0.20648800  0.50000000  0.53465200  1
  O  O21  1  0.80116750  0.31019050  0.84755300  1
  O  O22  1  0.79351200  0.50000000  0.46534800  1
  O  O23  1  0.04222000  0.50000000  0.79670400  1
  O  O24  1  0.19883250  0.31019050  0.15244700  1
  O  O25  1  0.80116750  0.68980950  0.84755300  1
  O  O26  1  0.19883250  0.68980950  0.15244700  1
  O  O27  1  0.95778000  0.50000000  0.20329600  1
