# generated using pymatgen
data_Ce5Pb3O
_symmetry_space_group_name_H-M   'P 1'
_cell_length_a   8.60008800
_cell_length_b   8.60008800
_cell_length_c   14.36326400
_cell_angle_alpha   90.00000000
_cell_angle_beta   90.00000000
_cell_angle_gamma   90.00000000
_symmetry_Int_Tables_number   1
_chemical_formula_structural   Ce5Pb3O
_chemical_formula_sum   'Ce20 Pb12 O4'
_cell_volume   1062.32874579
_cell_formula_units_Z   4
loop_
 _symmetry_equiv_pos_site_id
 _symmetry_equiv_pos_as_xyz
  1  'x, y, z'
loop_
 _atom_site_type_symbol
 _atom_site_label
 _atom_site_symmetry_multiplicity
 _atom_site_fract_x
 _atom_site_fract_y
 _atom_site_fract_z
 _atom_site_occupancy
  Ce  Ce0  1  0.84547500  0.65452500  0.34768600  1
  Ce  Ce1  1  0.15452500  0.65452500  0.15231400  1
  Ce  Ce2  1  0.65452500  0.15452500  0.34768600  1
  Ce  Ce3  1  0.84547500  0.34547500  0.15231400  1
  Ce  Ce4  1  0.65452500  0.84547500  0.15231400  1
  Ce  Ce5  1  0.50000000  0.50000000  0.00000000  1
  Ce  Ce6  1  0.34547500  0.84547500  0.34768600  1
  Ce  Ce7  1  0.15452500  0.34547500  0.34768600  1
  Ce  Ce8  1  0.34547500  0.15452500  0.15231400  1
  Ce  Ce9  1  0.00000000  0.00000000  0.00000000  1
  Ce  Ce10  1  0.34547500  0.15452500  0.84768600  1
  Ce  Ce11  1  0.65452500  0.15452500  0.65231400  1
  Ce  Ce12  1  0.15452500  0.65452500  0.84768600  1
  Ce  Ce13  1  0.34547500  0.84547500  0.65231400  1
  Ce  Ce14  1  0.15452500  0.34547500  0.65231400  1
  Ce  Ce15  1  0.00000000  0.00000000  0.50000000  1
  Ce  Ce16  1  0.84547500  0.34547500  0.84768600  1
  Ce  Ce17  1  0.65452500  0.84547500  0.84768600  1
  Ce  Ce18  1  0.84547500  0.65452500  0.65231400  1
  Ce  Ce19  1  0.50000000  0.50000000  0.50000000  1
  Pb  Pb20  1  0.35548900  0.85548900  0.00000000  1
  Pb  Pb21  1  0.64451100  0.14451100  0.00000000  1
  Pb  Pb22  1  0.14451100  0.35548900  0.00000000  1
  Pb  Pb23  1  0.50000000  0.50000000  0.25000000  1
  Pb  Pb24  1  0.85548900  0.64451100  0.00000000  1
  Pb  Pb25  1  0.00000000  0.00000000  0.25000000  1
  Pb  Pb26  1  0.85548900  0.35548900  0.50000000  1
  Pb  Pb27  1  0.14451100  0.64451100  0.50000000  1
  Pb  Pb28  1  0.64451100  0.85548900  0.50000000  1
  Pb  Pb29  1  0.00000000  0.00000000  0.75000000  1
  Pb  Pb30  1  0.35548900  0.14451100  0.50000000  1
  Pb  Pb31  1  0.50000000  0.50000000  0.75000000  1
  O  O32  1  0.00000000  0.50000000  0.25000000  1
  O  O33  1  0.50000000  0.00000000  0.25000000  1
  O  O34  1  0.50000000  0.00000000  0.75000000  1
  O  O35  1  0.00000000  0.50000000  0.75000000  1
