# generated using pymatgen
data_Ba4Tl2Cu2HgO10
_symmetry_space_group_name_H-M   'P 1'
_cell_length_a   3.92075200
_cell_length_b   3.92075200
_cell_length_c   43.52467000
_cell_angle_alpha   90.00000000
_cell_angle_beta   90.00000000
_cell_angle_gamma   90.00000000
_symmetry_Int_Tables_number   1
_chemical_formula_structural   Ba4Tl2Cu2HgO10
_chemical_formula_sum   'Ba8 Tl4 Cu4 Hg2 O20'
_cell_volume   669.07412123
_cell_formula_units_Z   2
loop_
 _symmetry_equiv_pos_site_id
 _symmetry_equiv_pos_as_xyz
  1  'x, y, z'
loop_
 _atom_site_type_symbol
 _atom_site_label
 _atom_site_symmetry_multiplicity
 _atom_site_fract_x
 _atom_site_fract_y
 _atom_site_fract_z
 _atom_site_occupancy
  Ba  Ba0  1  0.00000000  0.00000000  0.34196300  1
  Ba  Ba1  1  0.50000000  0.50000000  0.06909500  1
  Ba  Ba2  1  0.00000000  0.00000000  0.43090500  1
  Ba  Ba3  1  0.50000000  0.50000000  0.15803700  1
  Ba  Ba4  1  0.50000000  0.50000000  0.84196300  1
  Ba  Ba5  1  0.00000000  0.00000000  0.56909500  1
  Ba  Ba6  1  0.50000000  0.50000000  0.93090500  1
  Ba  Ba7  1  0.00000000  0.00000000  0.65803700  1
  Tl  Tl8  1  0.00000000  0.00000000  0.22390700  1
  Tl  Tl9  1  0.50000000  0.50000000  0.27609300  1
  Tl  Tl10  1  0.50000000  0.50000000  0.72390700  1
  Tl  Tl11  1  0.00000000  0.00000000  0.77609300  1
  Cu  Cu12  1  0.00000000  0.00000000  0.11392500  1
  Cu  Cu13  1  0.50000000  0.50000000  0.38607500  1
  Cu  Cu14  1  0.50000000  0.50000000  0.61392500  1
  Cu  Cu15  1  0.00000000  0.00000000  0.88607500  1
  Hg  Hg16  1  0.00000000  0.00000000  0.00000000  1
  Hg  Hg17  1  0.50000000  0.50000000  0.50000000  1
  O  O18  1  0.50000000  0.00000000  0.38670100  1
  O  O19  1  0.50000000  0.50000000  0.45369800  1
  O  O20  1  0.50000000  0.50000000  0.22842100  1
  O  O21  1  0.00000000  0.00000000  0.04630200  1
  O  O22  1  0.50000000  0.50000000  0.32268600  1
  O  O23  1  0.00000000  0.50000000  0.11329900  1
  O  O24  1  0.00000000  0.50000000  0.38670100  1
  O  O25  1  0.00000000  0.00000000  0.27157900  1
  O  O26  1  0.00000000  0.00000000  0.17731400  1
  O  O27  1  0.50000000  0.00000000  0.11329900  1
  O  O28  1  0.00000000  0.50000000  0.88670100  1
  O  O29  1  0.00000000  0.00000000  0.95369800  1
  O  O30  1  0.00000000  0.00000000  0.72842100  1
  O  O31  1  0.50000000  0.50000000  0.54630200  1
  O  O32  1  0.00000000  0.00000000  0.82268600  1
  O  O33  1  0.50000000  0.00000000  0.61329900  1
  O  O34  1  0.50000000  0.00000000  0.88670100  1
  O  O35  1  0.50000000  0.50000000  0.77157900  1
  O  O36  1  0.50000000  0.50000000  0.67731400  1
  O  O37  1  0.00000000  0.50000000  0.61329900  1
