# generated using pymatgen
data_GdCBr
_symmetry_space_group_name_H-M   'P 1'
_cell_length_a   7.12451400
_cell_length_b   3.87542000
_cell_length_c   10.12869446
_cell_angle_alpha   90.00000000
_cell_angle_beta   94.85710245
_cell_angle_gamma   90.00000000
_symmetry_Int_Tables_number   1
_chemical_formula_structural   GdCBr
_chemical_formula_sum   'Gd4 C4 Br4'
_cell_volume   278.65389557
_cell_formula_units_Z   4
loop_
 _symmetry_equiv_pos_site_id
 _symmetry_equiv_pos_as_xyz
  1  'x, y, z'
loop_
 _atom_site_type_symbol
 _atom_site_label
 _atom_site_symmetry_multiplicity
 _atom_site_fract_x
 _atom_site_fract_y
 _atom_site_fract_z
 _atom_site_occupancy
  Gd  Gd0  1  0.85526900  0.00000000  0.85472300  1
  Gd  Gd1  1  0.64473100  0.50000000  0.14527700  1
  Gd  Gd2  1  0.35526900  0.50000000  0.85472300  1
  Gd  Gd3  1  0.14473100  0.00000000  0.14527700  1
  C  C4  1  0.57476900  0.00000000  0.96484800  1
  C  C5  1  0.92523100  0.50000000  0.03515200  1
  C  C6  1  0.07476900  0.50000000  0.96484800  1
  C  C7  1  0.42523100  0.00000000  0.03515200  1
  Br  Br8  1  0.82456900  0.00000000  0.33234800  1
  Br  Br9  1  0.67543100  0.50000000  0.66765200  1
  Br  Br10  1  0.32456900  0.50000000  0.33234800  1
  Br  Br11  1  0.17543100  0.00000000  0.66765200  1
