# generated using pymatgen
data_NaMo2(PO4)3
_symmetry_space_group_name_H-M   'P 1'
_cell_length_a   8.82149172
_cell_length_b   8.82149172
_cell_length_c   22.49981354
_cell_angle_alpha   90.00000000
_cell_angle_beta   90.00000000
_cell_angle_gamma   120.00000000
_symmetry_Int_Tables_number   1
_chemical_formula_structural   NaMo2(PO4)3
_chemical_formula_sum   'Na6 Mo12 P18 O72'
_cell_volume   1516.32959658
_cell_formula_units_Z   6
loop_
 _symmetry_equiv_pos_site_id
 _symmetry_equiv_pos_as_xyz
  1  'x, y, z'
loop_
 _atom_site_type_symbol
 _atom_site_label
 _atom_site_symmetry_multiplicity
 _atom_site_fract_x
 _atom_site_fract_y
 _atom_site_fract_z
 _atom_site_occupancy
  Na  Na0  1  0.00000000  0.00000000  0.00000000  1
  Na  Na1  1  0.33333333  0.66666667  0.16666667  1
  Na  Na2  1  0.66666667  0.33333333  0.33333333  1
  Na  Na3  1  0.00000000  0.00000000  0.50000000  1
  Na  Na4  1  0.33333333  0.66666667  0.66666667  1
  Na  Na5  1  0.66666667  0.33333333  0.83333333  1
  Mo  Mo6  1  0.00000000  0.00000000  0.14433900  1
  Mo  Mo7  1  0.33333333  0.66666667  0.02232767  1
  Mo  Mo8  1  0.66666667  0.33333333  0.18899433  1
  Mo  Mo9  1  0.33333333  0.66666667  0.31100567  1
  Mo  Mo10  1  0.66666667  0.33333333  0.47767233  1
  Mo  Mo11  1  0.00000000  0.00000000  0.35566100  1
  Mo  Mo12  1  0.33333333  0.66666667  0.52232767  1
  Mo  Mo13  1  0.00000000  0.00000000  0.64433900  1
  Mo  Mo14  1  0.33333333  0.66666667  0.81100567  1
  Mo  Mo15  1  0.66666667  0.33333333  0.68899433  1
  Mo  Mo16  1  0.00000000  0.00000000  0.85566100  1
  Mo  Mo17  1  0.66666667  0.33333333  0.97767233  1
  P  P18  1  0.28940000  0.00000000  0.25000000  1
  P  P19  1  0.71060000  0.71060000  0.25000000  1
  P  P20  1  0.00000000  0.28940000  0.25000000  1
  P  P21  1  0.37726667  0.33333333  0.08333333  1
  P  P22  1  0.95606667  0.62273333  0.08333333  1
  P  P23  1  0.66666667  0.04393333  0.08333333  1
  P  P24  1  0.95606667  0.33333333  0.58333333  1
  P  P25  1  0.37726667  0.04393333  0.58333333  1
  P  P26  1  0.66666667  0.62273333  0.58333333  1
  P  P27  1  0.04393333  0.66666667  0.41666667  1
  P  P28  1  0.62273333  0.95606667  0.41666667  1
  P  P29  1  0.33333333  0.37726667  0.41666667  1
  P  P30  1  0.62273333  0.66666667  0.91666667  1
  P  P31  1  0.04393333  0.37726667  0.91666667  1
  P  P32  1  0.33333333  0.95606667  0.91666667  1
  P  P33  1  0.71060000  0.00000000  0.75000000  1
  P  P34  1  0.28940000  0.28940000  0.75000000  1
  P  P35  1  0.00000000  0.71060000  0.75000000  1
  O  O36  1  0.19303433  0.16888067  0.08630767  1
  O  O37  1  0.97584633  0.80696567  0.08630767  1
  O  O38  1  0.83111933  0.02415367  0.08630767  1
  O  O39  1  0.50221400  0.85970100  0.08035900  1
  O  O40  1  0.35748700  0.49778600  0.08035900  1
  O  O41  1  0.14029900  0.64251300  0.08035900  1
  O  O42  1  0.47363233  0.16445267  0.24702567  1
  O  O43  1  0.69082033  0.52636767  0.24702567  1
  O  O44  1  0.83554733  0.30917967  0.24702567  1
  O  O45  1  0.16445267  0.47363233  0.25297433  1
  O  O46  1  0.30917967  0.83554733  0.25297433  1
  O  O47  1  0.52636767  0.69082033  0.25297433  1
  O  O48  1  0.01875733  0.20245467  0.19340267  1
  O  O49  1  0.18369733  0.98124267  0.19340267  1
  O  O50  1  0.79754533  0.81630267  0.19340267  1
  O  O51  1  0.20245467  0.01875733  0.30659733  1
  O  O52  1  0.81630267  0.79754533  0.30659733  1
  O  O53  1  0.98124267  0.18369733  0.30659733  1
  O  O54  1  0.64790933  0.13087867  0.13993067  1
  O  O55  1  0.48296933  0.35209067  0.13993067  1
  O  O56  1  0.86912133  0.51703067  0.13993067  1
  O  O57  1  0.46421200  0.31457600  0.02673600  1
  O  O58  1  0.85036400  0.53578800  0.02673600  1
  O  O59  1  0.68542400  0.14963600  0.02673600  1
  O  O60  1  0.85970100  0.50221400  0.41964100  1
  O  O61  1  0.64251300  0.14029900  0.41964100  1
  O  O62  1  0.49778600  0.35748700  0.41964100  1
  O  O63  1  0.16888067  0.19303433  0.41369233  1
  O  O64  1  0.02415367  0.83111933  0.41369233  1
  O  O65  1  0.80696567  0.97584633  0.41369233  1
  O  O66  1  0.14029900  0.49778600  0.58035900  1
  O  O67  1  0.35748700  0.85970100  0.58035900  1
  O  O68  1  0.50221400  0.64251300  0.58035900  1
  O  O69  1  0.83111933  0.80696567  0.58630767  1
  O  O70  1  0.97584633  0.16888067  0.58630767  1
  O  O71  1  0.19303433  0.02415367  0.58630767  1
  O  O72  1  0.68542400  0.53578800  0.52673600  1
  O  O73  1  0.85036400  0.31457600  0.52673600  1
  O  O74  1  0.46421200  0.14963600  0.52673600  1
  O  O75  1  0.86912133  0.35209067  0.63993067  1
  O  O76  1  0.48296933  0.13087867  0.63993067  1
  O  O77  1  0.64790933  0.51703067  0.63993067  1
  O  O78  1  0.31457600  0.46421200  0.47326400  1
  O  O79  1  0.14963600  0.68542400  0.47326400  1
  O  O80  1  0.53578800  0.85036400  0.47326400  1
  O  O81  1  0.13087867  0.64790933  0.36006933  1
  O  O82  1  0.51703067  0.86912133  0.36006933  1
  O  O83  1  0.35209067  0.48296933  0.36006933  1
  O  O84  1  0.52636767  0.83554733  0.75297433  1
  O  O85  1  0.30917967  0.47363233  0.75297433  1
  O  O86  1  0.16445267  0.69082033  0.75297433  1
  O  O87  1  0.83554733  0.52636767  0.74702567  1
  O  O88  1  0.69082033  0.16445267  0.74702567  1
  O  O89  1  0.47363233  0.30917967  0.74702567  1
  O  O90  1  0.80696567  0.83111933  0.91369233  1
  O  O91  1  0.02415367  0.19303433  0.91369233  1
  O  O92  1  0.16888067  0.97584633  0.91369233  1
  O  O93  1  0.49778600  0.14029900  0.91964100  1
  O  O94  1  0.64251300  0.50221400  0.91964100  1
  O  O95  1  0.85970100  0.35748700  0.91964100  1
  O  O96  1  0.35209067  0.86912133  0.86006933  1
  O  O97  1  0.51703067  0.64790933  0.86006933  1
  O  O98  1  0.13087867  0.48296933  0.86006933  1
  O  O99  1  0.53578800  0.68542400  0.97326400  1
  O  O100  1  0.14963600  0.46421200  0.97326400  1
  O  O101  1  0.31457600  0.85036400  0.97326400  1
  O  O102  1  0.98124267  0.79754533  0.80659733  1
  O  O103  1  0.81630267  0.01875733  0.80659733  1
  O  O104  1  0.20245467  0.18369733  0.80659733  1
  O  O105  1  0.79754533  0.98124267  0.69340267  1
  O  O106  1  0.18369733  0.20245467  0.69340267  1
  O  O107  1  0.01875733  0.81630267  0.69340267  1
