# generated using pymatgen
data_Mg3Ga7Co2
_symmetry_space_group_name_H-M   'P 1'
_cell_length_a   9.08057200
_cell_length_b   9.43506600
_cell_length_c   9.43177200
_cell_angle_alpha   90.00000000
_cell_angle_beta   93.49520473
_cell_angle_gamma   90.00000000
_symmetry_Int_Tables_number   1
_chemical_formula_structural   Mg3Ga7Co2
_chemical_formula_sum   'Mg12 Ga28 Co8'
_cell_volume   806.57147892
_cell_formula_units_Z   4
loop_
 _symmetry_equiv_pos_site_id
 _symmetry_equiv_pos_as_xyz
  1  'x, y, z'
loop_
 _atom_site_type_symbol
 _atom_site_label
 _atom_site_symmetry_multiplicity
 _atom_site_fract_x
 _atom_site_fract_y
 _atom_site_fract_z
 _atom_site_occupancy
  Mg  Mg0  1  0.69228500  0.05259600  0.30238800  1
  Mg  Mg1  1  0.50000000  0.35217500  0.25000000  1
  Mg  Mg2  1  0.30771500  0.05259600  0.19761200  1
  Mg  Mg3  1  0.50000000  0.64782500  0.75000000  1
  Mg  Mg4  1  0.69228500  0.94740400  0.80238800  1
  Mg  Mg5  1  0.30771500  0.94740400  0.69761200  1
  Mg  Mg6  1  0.19228500  0.55259600  0.30238800  1
  Mg  Mg7  1  0.00000000  0.85217500  0.25000000  1
  Mg  Mg8  1  0.80771500  0.55259600  0.19761200  1
  Mg  Mg9  1  0.00000000  0.14782500  0.75000000  1
  Mg  Mg10  1  0.19228500  0.44740400  0.80238800  1
  Mg  Mg11  1  0.80771500  0.44740400  0.69761200  1
  Ga  Ga12  1  0.50000000  0.72833800  0.25000000  1
  Ga  Ga13  1  0.56487250  0.87170750  0.51851300  1
  Ga  Ga14  1  0.72308300  0.83205400  0.10287100  1
  Ga  Ga15  1  0.72308300  0.16794600  0.60287100  1
  Ga  Ga16  1  0.56487250  0.12829250  0.01851300  1
  Ga  Ga17  1  0.87752500  0.06802700  0.02593500  1
  Ga  Ga18  1  0.12247500  0.06802700  0.47406500  1
  Ga  Ga19  1  0.27691700  0.83205400  0.39712900  1
  Ga  Ga20  1  0.27691700  0.16794600  0.89712900  1
  Ga  Ga21  1  0.87752500  0.93197300  0.52593500  1
  Ga  Ga22  1  0.12247500  0.93197300  0.97406500  1
  Ga  Ga23  1  0.43512750  0.12829250  0.48148700  1
  Ga  Ga24  1  0.43512750  0.87170750  0.98148700  1
  Ga  Ga25  1  0.50000000  0.27166200  0.75000000  1
  Ga  Ga26  1  0.00000000  0.22833800  0.25000000  1
  Ga  Ga27  1  0.06487250  0.37170750  0.51851300  1
  Ga  Ga28  1  0.22308300  0.33205400  0.10287100  1
  Ga  Ga29  1  0.22308300  0.66794600  0.60287100  1
  Ga  Ga30  1  0.06487250  0.62829250  0.01851300  1
  Ga  Ga31  1  0.37752500  0.56802700  0.02593500  1
  Ga  Ga32  1  0.62247500  0.56802700  0.47406500  1
  Ga  Ga33  1  0.77691700  0.33205400  0.39712900  1
  Ga  Ga34  1  0.77691700  0.66794600  0.89712900  1
  Ga  Ga35  1  0.37752500  0.43197300  0.52593500  1
  Ga  Ga36  1  0.62247500  0.43197300  0.97406500  1
  Ga  Ga37  1  0.93512750  0.62829250  0.48148700  1
  Ga  Ga38  1  0.93512750  0.37170750  0.98148700  1
  Ga  Ga39  1  0.00000000  0.77166200  0.75000000  1
  Co  Co40  1  0.25767000  0.22641900  0.64496900  1
  Co  Co41  1  0.74233000  0.22641900  0.85503100  1
  Co  Co42  1  0.74233000  0.77358100  0.35503100  1
  Co  Co43  1  0.25767000  0.77358100  0.14496900  1
  Co  Co44  1  0.75767000  0.72641900  0.64496900  1
  Co  Co45  1  0.24233000  0.72641900  0.85503100  1
  Co  Co46  1  0.24233000  0.27358100  0.35503100  1
  Co  Co47  1  0.75767000  0.27358100  0.14496900  1
