# generated using pymatgen
data_Ba3NiIr2O9
_symmetry_space_group_name_H-M   'P 1'
_cell_length_a   5.82433042
_cell_length_b   5.82433042
_cell_length_c   14.35731744
_cell_angle_alpha   90.00000000
_cell_angle_beta   90.00000000
_cell_angle_gamma   120.00000000
_symmetry_Int_Tables_number   1
_chemical_formula_structural   Ba3NiIr2O9
_chemical_formula_sum   'Ba6 Ni2 Ir4 O18'
_cell_volume   421.78967413
_cell_formula_units_Z   2
loop_
 _symmetry_equiv_pos_site_id
 _symmetry_equiv_pos_as_xyz
  1  'x, y, z'
loop_
 _atom_site_type_symbol
 _atom_site_label
 _atom_site_symmetry_multiplicity
 _atom_site_fract_x
 _atom_site_fract_y
 _atom_site_fract_z
 _atom_site_occupancy
  Ba  Ba0  1  0.00000000  0.00000000  0.75000000  1
  Ba  Ba1  1  0.00000000  0.00000000  0.25000000  1
  Ba  Ba2  1  0.33333333  0.66666667  0.41661400  1
  Ba  Ba3  1  0.66666667  0.33333333  0.91661400  1
  Ba  Ba4  1  0.66666667  0.33333333  0.58338600  1
  Ba  Ba5  1  0.33333333  0.66666667  0.08338600  1
  Ni  Ni6  1  0.00000000  0.00000000  0.00000000  1
  Ni  Ni7  1  0.00000000  0.00000000  0.50000000  1
  Ir  Ir8  1  0.33333333  0.66666667  0.65985200  1
  Ir  Ir9  1  0.66666667  0.33333333  0.15985200  1
  Ir  Ir10  1  0.66666667  0.33333333  0.34014800  1
  Ir  Ir11  1  0.33333333  0.66666667  0.84014800  1
  O  O12  1  0.48941300  0.97882600  0.75000000  1
  O  O13  1  0.51058700  0.48941300  0.25000000  1
  O  O14  1  0.97882600  0.48941300  0.25000000  1
  O  O15  1  0.02117400  0.51058700  0.75000000  1
  O  O16  1  0.48941300  0.51058700  0.75000000  1
  O  O17  1  0.51058700  0.02117400  0.25000000  1
  O  O18  1  0.17206550  0.34413100  0.91726900  1
  O  O19  1  0.82793450  0.17206550  0.41726900  1
  O  O20  1  0.34413100  0.17206550  0.41726900  1
  O  O21  1  0.65586900  0.82793450  0.91726900  1
  O  O22  1  0.17206550  0.82793450  0.91726900  1
  O  O23  1  0.82793450  0.65586900  0.08273100  1
  O  O24  1  0.82793450  0.17206550  0.08273100  1
  O  O25  1  0.82793450  0.65586900  0.41726900  1
  O  O26  1  0.34413100  0.17206550  0.08273100  1
  O  O27  1  0.65586900  0.82793450  0.58273100  1
  O  O28  1  0.17206550  0.34413100  0.58273100  1
  O  O29  1  0.17206550  0.82793450  0.58273100  1
