# generated using pymatgen
data_SrSi
_symmetry_space_group_name_H-M   'P 1'
_cell_length_a   4.81892600
_cell_length_b   12.96647400
_cell_length_c   18.01510200
_cell_angle_alpha   90.00000000
_cell_angle_beta   90.00000000
_cell_angle_gamma   90.00000000
_symmetry_Int_Tables_number   1
_chemical_formula_structural   SrSi
_chemical_formula_sum   'Sr20 Si20'
_cell_volume   1125.66425696
_cell_formula_units_Z   20
loop_
 _symmetry_equiv_pos_site_id
 _symmetry_equiv_pos_as_xyz
  1  'x, y, z'
loop_
 _atom_site_type_symbol
 _atom_site_label
 _atom_site_symmetry_multiplicity
 _atom_site_fract_x
 _atom_site_fract_y
 _atom_site_fract_z
 _atom_site_occupancy
  Sr  Sr0  1  0.50000000  0.33425800  0.31170200  1
  Sr  Sr1  1  0.50000000  0.33425800  0.68829800  1
  Sr  Sr2  1  0.50000000  0.66574200  0.68829800  1
  Sr  Sr3  1  0.00000000  0.70864950  0.00000000  1
  Sr  Sr4  1  0.50000000  0.66574200  0.31170200  1
  Sr  Sr5  1  0.00000000  0.00000000  0.00000000  1
  Sr  Sr6  1  0.00000000  0.50000000  0.83104650  1
  Sr  Sr7  1  0.00000000  0.29135050  0.00000000  1
  Sr  Sr8  1  0.50000000  0.50000000  0.00000000  1
  Sr  Sr9  1  0.00000000  0.50000000  0.16895350  1
  Sr  Sr10  1  0.00000000  0.83425800  0.81170200  1
  Sr  Sr11  1  0.00000000  0.83425800  0.18829800  1
  Sr  Sr12  1  0.00000000  0.16574200  0.18829800  1
  Sr  Sr13  1  0.50000000  0.20864950  0.50000000  1
  Sr  Sr14  1  0.00000000  0.16574200  0.81170200  1
  Sr  Sr15  1  0.50000000  0.50000000  0.50000000  1
  Sr  Sr16  1  0.50000000  0.00000000  0.33104650  1
  Sr  Sr17  1  0.50000000  0.79135050  0.50000000  1
  Sr  Sr18  1  0.00000000  0.00000000  0.50000000  1
  Sr  Sr19  1  0.50000000  0.00000000  0.66895350  1
  Si  Si20  1  0.50000000  0.67992600  0.87109900  1
  Si  Si21  1  0.50000000  0.15494100  0.06807300  1
  Si  Si22  1  0.50000000  0.84505900  0.06807300  1
  Si  Si23  1  0.00000000  0.50000000  0.64199050  1
  Si  Si24  1  0.50000000  0.67992600  0.12890100  1
  Si  Si25  1  0.50000000  0.15494100  0.93192700  1
  Si  Si26  1  0.50000000  0.32007400  0.87109900  1
  Si  Si27  1  0.50000000  0.32007400  0.12890100  1
  Si  Si28  1  0.00000000  0.50000000  0.35800950  1
  Si  Si29  1  0.50000000  0.84505900  0.93192700  1
  Si  Si30  1  0.00000000  0.17992600  0.37109900  1
  Si  Si31  1  0.00000000  0.65494100  0.56807300  1
  Si  Si32  1  0.00000000  0.34505900  0.56807300  1
  Si  Si33  1  0.50000000  0.00000000  0.14199050  1
  Si  Si34  1  0.00000000  0.17992600  0.62890100  1
  Si  Si35  1  0.00000000  0.65494100  0.43192700  1
  Si  Si36  1  0.00000000  0.82007400  0.37109900  1
  Si  Si37  1  0.00000000  0.82007400  0.62890100  1
  Si  Si38  1  0.50000000  0.00000000  0.85800950  1
  Si  Si39  1  0.00000000  0.34505900  0.43192700  1
