# generated using pymatgen
data_Ba5Fe5O14
_symmetry_space_group_name_H-M   'P 1'
_cell_length_a   5.87124800
_cell_length_b   10.23178200
_cell_length_c   24.71525800
_cell_angle_alpha   90.00000000
_cell_angle_beta   90.00000000
_cell_angle_gamma   90.00000000
_symmetry_Int_Tables_number   1
_chemical_formula_structural   Ba5Fe5O14
_chemical_formula_sum   'Ba20 Fe20 O56'
_cell_volume   1484.72784008
_cell_formula_units_Z   4
loop_
 _symmetry_equiv_pos_site_id
 _symmetry_equiv_pos_as_xyz
  1  'x, y, z'
loop_
 _atom_site_type_symbol
 _atom_site_label
 _atom_site_symmetry_multiplicity
 _atom_site_fract_x
 _atom_site_fract_y
 _atom_site_fract_z
 _atom_site_occupancy
  Ba  Ba0  1  0.50000000  0.16705600  0.46109800  1
  Ba  Ba1  1  0.00000000  0.33294400  0.96109800  1
  Ba  Ba2  1  0.00000000  0.33294400  0.53890200  1
  Ba  Ba3  1  0.50000000  0.16705600  0.03890200  1
  Ba  Ba4  1  0.00000000  0.03440100  0.25000000  1
  Ba  Ba5  1  0.50000000  0.46559900  0.75000000  1
  Ba  Ba6  1  0.00000000  0.34505300  0.36093100  1
  Ba  Ba7  1  0.50000000  0.15494700  0.86093100  1
  Ba  Ba8  1  0.50000000  0.15494700  0.63906900  1
  Ba  Ba9  1  0.00000000  0.34505300  0.13906900  1
  Ba  Ba10  1  0.00000000  0.66705600  0.46109800  1
  Ba  Ba11  1  0.50000000  0.83294400  0.96109800  1
  Ba  Ba12  1  0.50000000  0.83294400  0.53890200  1
  Ba  Ba13  1  0.00000000  0.66705600  0.03890200  1
  Ba  Ba14  1  0.50000000  0.53440100  0.25000000  1
  Ba  Ba15  1  0.00000000  0.96559900  0.75000000  1
  Ba  Ba16  1  0.50000000  0.84505300  0.36093100  1
  Ba  Ba17  1  0.00000000  0.65494700  0.86093100  1
  Ba  Ba18  1  0.00000000  0.65494700  0.63906900  1
  Ba  Ba19  1  0.50000000  0.84505300  0.13906900  1
  Fe  Fe20  1  0.00000000  0.01060300  0.39315600  1
  Fe  Fe21  1  0.50000000  0.48939700  0.89315600  1
  Fe  Fe22  1  0.50000000  0.48939700  0.60684400  1
  Fe  Fe23  1  0.00000000  0.01060300  0.10684400  1
  Fe  Fe24  1  0.00000000  0.00000000  0.50000000  1
  Fe  Fe25  1  0.00000000  0.00000000  0.00000000  1
  Fe  Fe26  1  0.50000000  0.18153900  0.32163700  1
  Fe  Fe27  1  0.00000000  0.31846100  0.82163700  1
  Fe  Fe28  1  0.00000000  0.31846100  0.67836300  1
  Fe  Fe29  1  0.50000000  0.18153900  0.17836300  1
  Fe  Fe30  1  0.50000000  0.51060300  0.39315600  1
  Fe  Fe31  1  0.00000000  0.98939700  0.89315600  1
  Fe  Fe32  1  0.00000000  0.98939700  0.60684400  1
  Fe  Fe33  1  0.50000000  0.51060300  0.10684400  1
  Fe  Fe34  1  0.50000000  0.50000000  0.50000000  1
  Fe  Fe35  1  0.50000000  0.50000000  0.00000000  1
  Fe  Fe36  1  0.00000000  0.68153900  0.32163700  1
  Fe  Fe37  1  0.50000000  0.81846100  0.82163700  1
  Fe  Fe38  1  0.50000000  0.81846100  0.67836300  1
  Fe  Fe39  1  0.00000000  0.68153900  0.17836300  1
  O  O40  1  0.50000000  0.12310800  0.25000000  1
  O  O41  1  0.00000000  0.37689200  0.75000000  1
  O  O42  1  0.00000000  0.29378400  0.25000000  1
  O  O43  1  0.50000000  0.20621600  0.75000000  1
  O  O44  1  0.00000000  0.15158600  0.45593400  1
  O  O45  1  0.50000000  0.34841400  0.95593400  1
  O  O46  1  0.50000000  0.34841400  0.54406600  1
  O  O47  1  0.00000000  0.15158600  0.04406600  1
  O  O48  1  0.27812200  0.42957600  0.45095400  1
  O  O49  1  0.22187800  0.07042400  0.95095400  1
  O  O50  1  0.77812200  0.07042400  0.54904600  1
  O  O51  1  0.72187800  0.42957600  0.04904600  1
  O  O52  1  0.22187800  0.07042400  0.54904600  1
  O  O53  1  0.27812200  0.42957600  0.04904600  1
  O  O54  1  0.72187800  0.42957600  0.45095400  1
  O  O55  1  0.77812200  0.07042400  0.95095400  1
  O  O56  1  0.75415150  0.10332450  0.35488200  1
  O  O57  1  0.74584850  0.39667550  0.85488200  1
  O  O58  1  0.25415150  0.39667550  0.64511800  1
  O  O59  1  0.24584850  0.10332450  0.14511800  1
  O  O60  1  0.74584850  0.39667550  0.64511800  1
  O  O61  1  0.75415150  0.10332450  0.14511800  1
  O  O62  1  0.24584850  0.10332450  0.35488200  1
  O  O63  1  0.25415150  0.39667550  0.85488200  1
  O  O64  1  0.50000000  0.36054300  0.34056300  1
  O  O65  1  0.00000000  0.13945700  0.84056300  1
  O  O66  1  0.00000000  0.13945700  0.65943700  1
  O  O67  1  0.50000000  0.36054300  0.15943700  1
  O  O68  1  0.00000000  0.62310800  0.25000000  1
  O  O69  1  0.50000000  0.87689200  0.75000000  1
  O  O70  1  0.50000000  0.79378400  0.25000000  1
  O  O71  1  0.00000000  0.70621600  0.75000000  1
  O  O72  1  0.50000000  0.65158600  0.45593400  1
  O  O73  1  0.00000000  0.84841400  0.95593400  1
  O  O74  1  0.00000000  0.84841400  0.54406600  1
  O  O75  1  0.50000000  0.65158600  0.04406600  1
  O  O76  1  0.77812200  0.92957600  0.45095400  1
  O  O77  1  0.72187800  0.57042400  0.95095400  1
  O  O78  1  0.27812200  0.57042400  0.54904600  1
  O  O79  1  0.22187800  0.92957600  0.04904600  1
  O  O80  1  0.72187800  0.57042400  0.54904600  1
  O  O81  1  0.77812200  0.92957600  0.04904600  1
  O  O82  1  0.22187800  0.92957600  0.45095400  1
  O  O83  1  0.27812200  0.57042400  0.95095400  1
  O  O84  1  0.25415150  0.60332450  0.35488200  1
  O  O85  1  0.24584850  0.89667550  0.85488200  1
  O  O86  1  0.75415150  0.89667550  0.64511800  1
  O  O87  1  0.74584850  0.60332450  0.14511800  1
  O  O88  1  0.24584850  0.89667550  0.64511800  1
  O  O89  1  0.25415150  0.60332450  0.14511800  1
  O  O90  1  0.74584850  0.60332450  0.35488200  1
  O  O91  1  0.75415150  0.89667550  0.85488200  1
  O  O92  1  0.00000000  0.86054300  0.34056300  1
  O  O93  1  0.50000000  0.63945700  0.84056300  1
  O  O94  1  0.50000000  0.63945700  0.65943700  1
  O  O95  1  0.00000000  0.86054300  0.15943700  1
