# generated using pymatgen
data_Bi(PO3)4
_symmetry_space_group_name_H-M   'P 1'
_cell_length_a   7.28439000
_cell_length_b   8.61187500
_cell_length_c   8.02264890
_cell_angle_alpha   90.00000000
_cell_angle_beta   92.37491305
_cell_angle_gamma   90.00000000
_symmetry_Int_Tables_number   1
_chemical_formula_structural   Bi(PO3)4
_chemical_formula_sum   'Bi2 P8 O24'
_cell_volume   502.84658394
_cell_formula_units_Z   2
loop_
 _symmetry_equiv_pos_site_id
 _symmetry_equiv_pos_as_xyz
  1  'x, y, z'
loop_
 _atom_site_type_symbol
 _atom_site_label
 _atom_site_symmetry_multiplicity
 _atom_site_fract_x
 _atom_site_fract_y
 _atom_site_fract_z
 _atom_site_occupancy
  Bi  Bi0  1  0.74823900  0.75227600  0.74603100  1
  Bi  Bi1  1  0.25176100  0.25227600  0.25396900  1
  P  P2  1  0.89939200  0.33086800  0.89008300  1
  P  P3  1  0.56352300  0.12725600  0.90271400  1
  P  P4  1  0.00956800  0.60453200  0.39311600  1
  P  P5  1  0.43647700  0.62725600  0.09728600  1
  P  P6  1  0.62285300  0.50181800  0.40141900  1
  P  P7  1  0.10060800  0.83086800  0.10991700  1
  P  P8  1  0.37714700  0.00181800  0.59858100  1
  P  P9  1  0.99043200  0.10453200  0.60688400  1
  O  O10  1  0.99792400  0.71278000  0.22829200  1
  O  O11  1  0.60759700  0.55915700  0.57709400  1
  O  O12  1  0.82069900  0.00543800  0.61125300  1
  O  O13  1  0.68726900  0.27901400  0.88159300  1
  O  O14  1  0.56717200  0.64993100  0.95967300  1
  O  O15  1  0.32023500  0.48282000  0.07736400  1
  O  O16  1  0.39240300  0.05915700  0.42290600  1
  O  O17  1  0.01964600  0.80960600  0.93591900  1
  O  O18  1  0.31273100  0.77901400  0.11840700  1
  O  O19  1  0.09321700  0.99265800  0.17947500  1
  O  O20  1  0.83577500  0.49435400  0.35540900  1
  O  O21  1  0.54053400  0.34756200  0.35626100  1
  O  O22  1  0.00207600  0.21278000  0.77170800  1
  O  O23  1  0.67976500  0.98282000  0.92263600  1
  O  O24  1  0.43282800  0.14993100  0.04032700  1
  O  O25  1  0.45946600  0.84756200  0.64373900  1
  O  O26  1  0.01782700  0.20615600  0.45782200  1
  O  O27  1  0.98035400  0.30960600  0.06408100  1
  O  O28  1  0.98217300  0.70615600  0.54217800  1
  O  O29  1  0.54733900  0.63523100  0.27431700  1
  O  O30  1  0.90678300  0.49265800  0.82052500  1
  O  O31  1  0.16422500  0.99435400  0.64459100  1
  O  O32  1  0.17930100  0.50543800  0.38874700  1
  O  O33  1  0.45266100  0.13523100  0.72568300  1
