# generated using pymatgen
data_VTeO4
_symmetry_space_group_name_H-M   'P 1'
_cell_length_a   4.59964529
_cell_length_b   13.68443000
_cell_length_c   5.48636023
_cell_angle_alpha   90.00000000
_cell_angle_beta   90.94988158
_cell_angle_gamma   90.00000000
_symmetry_Int_Tables_number   1
_chemical_formula_structural   VTeO4
_chemical_formula_sum   'V4 Te4 O16'
_cell_volume   345.28339050
_cell_formula_units_Z   4
loop_
 _symmetry_equiv_pos_site_id
 _symmetry_equiv_pos_as_xyz
  1  'x, y, z'
loop_
 _atom_site_type_symbol
 _atom_site_label
 _atom_site_symmetry_multiplicity
 _atom_site_fract_x
 _atom_site_fract_y
 _atom_site_fract_z
 _atom_site_occupancy
  V  V0  1  0.67908650  0.66070800  0.66623650  1
  V  V1  1  0.32091350  0.33929200  0.33376350  1
  V  V2  1  0.32091350  0.16070800  0.83376350  1
  V  V3  1  0.67908650  0.83929200  0.16623650  1
  Te  Te4  1  0.96167750  0.38996800  0.85685350  1
  Te  Te5  1  0.96167750  0.11003200  0.35685350  1
  Te  Te6  1  0.03832250  0.88996800  0.64314650  1
  Te  Te7  1  0.03832250  0.61003200  0.14314650  1
  O  O8  1  0.83194150  0.54797200  0.86732950  1
  O  O9  1  0.24606050  0.41781700  0.62541750  1
  O  O10  1  0.31921850  0.66581800  0.68108650  1
  O  O11  1  0.81328150  0.77683900  0.48304550  1
  O  O12  1  0.18671850  0.22316100  0.51695450  1
  O  O13  1  0.16805850  0.45202800  0.13267050  1
  O  O14  1  0.81328150  0.72316100  0.98304550  1
  O  O15  1  0.18671850  0.27683900  0.01695450  1
  O  O16  1  0.75393950  0.91781700  0.87458250  1
  O  O17  1  0.24606050  0.08218300  0.12541750  1
  O  O18  1  0.68078150  0.33418200  0.31891350  1
  O  O19  1  0.68078150  0.16581800  0.81891350  1
  O  O20  1  0.83194150  0.95202800  0.36732950  1
  O  O21  1  0.31921850  0.83418200  0.18108650  1
  O  O22  1  0.16805850  0.04797200  0.63267050  1
  O  O23  1  0.75393950  0.58218300  0.37458250  1
