# generated using pymatgen
data_CaCr2O4
_symmetry_space_group_name_H-M   'P 1'
_cell_length_a   5.13811700
_cell_length_b   5.98289600
_cell_length_c   11.16743200
_cell_angle_alpha   90.00000000
_cell_angle_beta   90.00000000
_cell_angle_gamma   90.00000000
_symmetry_Int_Tables_number   1
_chemical_formula_structural   CaCr2O4
_chemical_formula_sum   'Ca4 Cr8 O16'
_cell_volume   343.29601304
_cell_formula_units_Z   4
loop_
 _symmetry_equiv_pos_site_id
 _symmetry_equiv_pos_as_xyz
  1  'x, y, z'
loop_
 _atom_site_type_symbol
 _atom_site_label
 _atom_site_symmetry_multiplicity
 _atom_site_fract_x
 _atom_site_fract_y
 _atom_site_fract_z
 _atom_site_occupancy
  Ca  Ca0  1  0.35269250  0.00000000  0.50000000  1
  Ca  Ca1  1  0.64730750  0.50000000  0.00000000  1
  Ca  Ca2  1  0.03767650  0.00000000  0.00000000  1
  Ca  Ca3  1  0.96232350  0.50000000  0.50000000  1
  Cr  Cr4  1  0.00777250  0.50000000  0.75904600  1
  Cr  Cr5  1  0.99222750  0.00000000  0.74095400  1
  Cr  Cr6  1  0.50000000  0.25000000  0.25000000  1
  Cr  Cr7  1  0.50000000  0.75000000  0.25000000  1
  Cr  Cr8  1  0.00777250  0.50000000  0.24095400  1
  Cr  Cr9  1  0.99222750  0.00000000  0.25904600  1
  Cr  Cr10  1  0.50000000  0.75000000  0.75000000  1
  Cr  Cr11  1  0.50000000  0.25000000  0.75000000  1
  O  O12  1  0.34478450  0.50000000  0.15144800  1
  O  O13  1  0.34478450  0.50000000  0.84855200  1
  O  O14  1  0.65521550  0.00000000  0.34855200  1
  O  O15  1  0.65521550  0.00000000  0.65144800  1
  O  O16  1  0.67834350  0.50000000  0.34006800  1
  O  O17  1  0.67834350  0.50000000  0.65993200  1
  O  O18  1  0.32165650  0.00000000  0.15993200  1
  O  O19  1  0.32165650  0.00000000  0.84006800  1
  O  O20  1  0.16321850  0.25336400  0.35121100  1
  O  O21  1  0.16321850  0.74663600  0.64878900  1
  O  O22  1  0.83678150  0.75336400  0.14878900  1
  O  O23  1  0.83678150  0.24663600  0.85121100  1
  O  O24  1  0.83678150  0.24663600  0.14878900  1
  O  O25  1  0.83678150  0.75336400  0.85121100  1
  O  O26  1  0.16321850  0.74663600  0.35121100  1
  O  O27  1  0.16321850  0.25336400  0.64878900  1
