# generated using pymatgen
data_LiMo(PO4)2
_symmetry_space_group_name_H-M   'P 1'
_cell_length_a   9.16532600
_cell_length_b   4.76318200
_cell_length_c   14.13357401
_cell_angle_alpha   90.00000000
_cell_angle_beta   95.39623830
_cell_angle_gamma   90.00000000
_symmetry_Int_Tables_number   1
_chemical_formula_structural   LiMo(PO4)2
_chemical_formula_sum   'Li4 Mo4 P8 O32'
_cell_volume   614.28241181
_cell_formula_units_Z   4
loop_
 _symmetry_equiv_pos_site_id
 _symmetry_equiv_pos_as_xyz
  1  'x, y, z'
loop_
 _atom_site_type_symbol
 _atom_site_label
 _atom_site_symmetry_multiplicity
 _atom_site_fract_x
 _atom_site_fract_y
 _atom_site_fract_z
 _atom_site_occupancy
  Li  Li0  1  0.00000000  0.91266500  0.25000000  1
  Li  Li1  1  0.00000000  0.08733500  0.75000000  1
  Li  Li2  1  0.50000000  0.41266500  0.25000000  1
  Li  Li3  1  0.50000000  0.58733500  0.75000000  1
  Mo  Mo4  1  0.00000000  0.00000000  0.00000000  1
  Mo  Mo5  1  0.00000000  0.00000000  0.50000000  1
  Mo  Mo6  1  0.50000000  0.50000000  0.00000000  1
  Mo  Mo7  1  0.50000000  0.50000000  0.50000000  1
  P  P8  1  0.66045300  0.97863700  0.38204200  1
  P  P9  1  0.66045300  0.02136300  0.88204200  1
  P  P10  1  0.83954700  0.52136300  0.61795800  1
  P  P11  1  0.83954700  0.47863700  0.11795800  1
  P  P12  1  0.16045300  0.47863700  0.38204200  1
  P  P13  1  0.16045300  0.52136300  0.88204200  1
  P  P14  1  0.33954700  0.02136300  0.61795800  1
  P  P15  1  0.33954700  0.97863700  0.11795800  1
  O  O16  1  0.56535500  0.70306600  0.38409200  1
  O  O17  1  0.60170400  0.82655900  0.96153000  1
  O  O18  1  0.93464500  0.79693400  0.61590800  1
  O  O19  1  0.89829600  0.67344100  0.03847000  1
  O  O20  1  0.84989750  0.62610050  0.21102100  1
  O  O21  1  0.68013350  0.60654950  0.58017300  1
  O  O22  1  0.68013350  0.39345050  0.08017300  1
  O  O23  1  0.84989750  0.37389950  0.71102100  1
  O  O24  1  0.89829600  0.32655900  0.53847000  1
  O  O25  1  0.56535500  0.29693400  0.88409200  1
  O  O26  1  0.93464500  0.20306600  0.11590800  1
  O  O27  1  0.60170400  0.17344100  0.46153000  1
  O  O28  1  0.65010250  0.12610050  0.28897900  1
  O  O29  1  0.81986650  0.10654950  0.91982700  1
  O  O30  1  0.81986650  0.89345050  0.41982700  1
  O  O31  1  0.65010250  0.87389950  0.78897900  1
  O  O32  1  0.06535500  0.20306600  0.38409200  1
  O  O33  1  0.10170400  0.32655900  0.96153000  1
  O  O34  1  0.43464500  0.29693400  0.61590800  1
  O  O35  1  0.39829600  0.17344100  0.03847000  1
  O  O36  1  0.34989750  0.12610050  0.21102100  1
  O  O37  1  0.18013350  0.10654950  0.58017300  1
  O  O38  1  0.18013350  0.89345050  0.08017300  1
  O  O39  1  0.34989750  0.87389950  0.71102100  1
  O  O40  1  0.39829600  0.82655900  0.53847000  1
  O  O41  1  0.06535500  0.79693400  0.88409200  1
  O  O42  1  0.43464500  0.70306600  0.11590800  1
  O  O43  1  0.10170400  0.67344100  0.46153000  1
  O  O44  1  0.15010250  0.62610050  0.28897900  1
  O  O45  1  0.31986650  0.60654950  0.91982700  1
  O  O46  1  0.31986650  0.39345050  0.41982700  1
  O  O47  1  0.15010250  0.37389950  0.78897900  1
