# generated using pymatgen
data_MnAs2S2(OF3)4
_symmetry_space_group_name_H-M   'P 1'
_cell_length_a   9.48323000
_cell_length_b   15.51821200
_cell_length_c   18.29532600
_cell_angle_alpha   90.00000000
_cell_angle_beta   90.00000000
_cell_angle_gamma   90.00000000
_symmetry_Int_Tables_number   1
_chemical_formula_structural   MnAs2S2(OF3)4
_chemical_formula_sum   'Mn8 As16 S16 O32 F96'
_cell_volume   2692.39091780
_cell_formula_units_Z   8
loop_
 _symmetry_equiv_pos_site_id
 _symmetry_equiv_pos_as_xyz
  1  'x, y, z'
loop_
 _atom_site_type_symbol
 _atom_site_label
 _atom_site_symmetry_multiplicity
 _atom_site_fract_x
 _atom_site_fract_y
 _atom_site_fract_z
 _atom_site_occupancy
  Mn  Mn0  1  0.28860200  0.25000000  0.75000000  1
  Mn  Mn1  1  0.03860200  0.00000000  0.50000000  1
  Mn  Mn2  1  0.78860200  0.25000000  0.25000000  1
  Mn  Mn3  1  0.53860200  0.00000000  0.00000000  1
  Mn  Mn4  1  0.78860200  0.75000000  0.75000000  1
  Mn  Mn5  1  0.53860200  0.50000000  0.50000000  1
  Mn  Mn6  1  0.28860200  0.75000000  0.25000000  1
  Mn  Mn7  1  0.03860200  0.50000000  0.00000000  1
  As  As8  1  0.73532850  0.84249350  0.55630800  1
  As  As9  1  0.23532850  0.15750650  0.94369200  1
  As  As10  1  0.48532850  0.90750650  0.80630800  1
  As  As11  1  0.98532850  0.09249350  0.69369200  1
  As  As12  1  0.23532850  0.84249350  0.05630800  1
  As  As13  1  0.73532850  0.15750650  0.44369200  1
  As  As14  1  0.98532850  0.90750650  0.30630800  1
  As  As15  1  0.48532850  0.09249350  0.19369200  1
  As  As16  1  0.23532850  0.34249350  0.55630800  1
  As  As17  1  0.73532850  0.65750650  0.94369200  1
  As  As18  1  0.98532850  0.40750650  0.80630800  1
  As  As19  1  0.48532850  0.59249350  0.69369200  1
  As  As20  1  0.73532850  0.34249350  0.05630800  1
  As  As21  1  0.23532850  0.65750650  0.44369200  1
  As  As22  1  0.48532850  0.40750650  0.30630800  1
  As  As23  1  0.98532850  0.59249350  0.19369200  1
  S  S24  1  0.99910950  0.90065700  0.84533550  1
  S  S25  1  0.49910950  0.09934300  0.65466450  1
  S  S26  1  0.24910950  0.84934300  0.59533550  1
  S  S27  1  0.74910950  0.15065700  0.90466450  1
  S  S28  1  0.49910950  0.90065700  0.34533550  1
  S  S29  1  0.99910950  0.09934300  0.15466450  1
  S  S30  1  0.74910950  0.84934300  0.09533550  1
  S  S31  1  0.24910950  0.15065700  0.40466450  1
  S  S32  1  0.49910950  0.40065700  0.84533550  1
  S  S33  1  0.99910950  0.59934300  0.65466450  1
  S  S34  1  0.74910950  0.34934300  0.59533550  1
  S  S35  1  0.24910950  0.65065700  0.90466450  1
  S  S36  1  0.99910950  0.40065700  0.34533550  1
  S  S37  1  0.49910950  0.59934300  0.15466450  1
  S  S38  1  0.24910950  0.34934300  0.09533550  1
  S  S39  1  0.74910950  0.65065700  0.40466450  1
  O  O40  1  0.45400450  0.33332700  0.79391650  1
  O  O41  1  0.45400450  0.16667300  0.70608350  1
  O  O42  1  0.20400450  0.91667300  0.54391650  1
  O  O43  1  0.70400450  0.08332700  0.95608350  1
  O  O44  1  0.39312300  0.43395800  0.89395300  1
  O  O45  1  0.39312300  0.06604200  0.60604700  1
  O  O46  1  0.14312300  0.81604200  0.64395300  1
  O  O47  1  0.64312300  0.18395800  0.85604700  1
  O  O48  1  0.95400450  0.33332700  0.29391650  1
  O  O49  1  0.95400450  0.16667300  0.20608350  1
  O  O50  1  0.70400450  0.91667300  0.04391650  1
  O  O51  1  0.20400450  0.08332700  0.45608350  1
  O  O52  1  0.89312300  0.43395800  0.39395300  1
  O  O53  1  0.89312300  0.06604200  0.10604700  1
  O  O54  1  0.64312300  0.81604200  0.14395300  1
  O  O55  1  0.14312300  0.18395800  0.35604700  1
  O  O56  1  0.95400450  0.83332700  0.79391650  1
  O  O57  1  0.95400450  0.66667300  0.70608350  1
  O  O58  1  0.70400450  0.41667300  0.54391650  1
  O  O59  1  0.20400450  0.58332700  0.95608350  1
  O  O60  1  0.89312300  0.93395800  0.89395300  1
  O  O61  1  0.89312300  0.56604200  0.60604700  1
  O  O62  1  0.64312300  0.31604200  0.64395300  1
  O  O63  1  0.14312300  0.68395800  0.85604700  1
  O  O64  1  0.45400450  0.83332700  0.29391650  1
  O  O65  1  0.45400450  0.66667300  0.20608350  1
  O  O66  1  0.20400450  0.41667300  0.04391650  1
  O  O67  1  0.70400450  0.58332700  0.45608350  1
  O  O68  1  0.39312300  0.93395800  0.39395300  1
  O  O69  1  0.39312300  0.56604200  0.10604700  1
  O  O70  1  0.14312300  0.31604200  0.14395300  1
  O  O71  1  0.64312300  0.68395800  0.35604700  1
  F  F72  1  0.27493750  0.33269750  0.65420700  1
  F  F73  1  0.27493750  0.16730250  0.84579300  1
  F  F74  1  0.52493750  0.91730250  0.90420700  1
  F  F75  1  0.02493750  0.08269750  0.59579300  1
  F  F76  1  0.88725200  0.91551550  0.55058850  1
  F  F77  1  0.38725200  0.08448450  0.94941150  1
  F  F78  1  0.13725200  0.33448450  0.80058850  1
  F  F79  1  0.13725200  0.16551550  0.69941150  1
  F  F80  1  0.09324300  0.27190900  0.56558600  1
  F  F81  1  0.59324300  0.72809100  0.93441400  1
  F  F82  1  0.34324300  0.97809100  0.81558600  1
  F  F83  1  0.84324300  0.02190900  0.68441400  1
  F  F84  1  0.13077800  0.43205850  0.57554650  1
  F  F85  1  0.13077800  0.06794150  0.92445350  1
  F  F86  1  0.38077800  0.81794150  0.82554650  1
  F  F87  1  0.88077800  0.18205850  0.67445350  1
  F  F88  1  0.85313200  0.75651850  0.54180650  1
  F  F89  1  0.35313200  0.24348150  0.95819350  1
  F  F90  1  0.60313200  0.99348150  0.79180650  1
  F  F91  1  0.10313200  0.00651850  0.70819350  1
  F  F92  1  0.20906650  0.85360000  0.96165650  1
  F  F93  1  0.70906650  0.14640000  0.53834350  1
  F  F94  1  0.45906650  0.89640000  0.71165650  1
  F  F95  1  0.95906650  0.10360000  0.78834350  1
  F  F96  1  0.77493750  0.33269750  0.15420700  1
  F  F97  1  0.77493750  0.16730250  0.34579300  1
  F  F98  1  0.02493750  0.91730250  0.40420700  1
  F  F99  1  0.52493750  0.08269750  0.09579300  1
  F  F100  1  0.38725200  0.91551550  0.05058850  1
  F  F101  1  0.88725200  0.08448450  0.44941150  1
  F  F102  1  0.63725200  0.33448450  0.30058850  1
  F  F103  1  0.63725200  0.16551550  0.19941150  1
  F  F104  1  0.59324300  0.27190900  0.06558600  1
  F  F105  1  0.09324300  0.72809100  0.43441400  1
  F  F106  1  0.84324300  0.97809100  0.31558600  1
  F  F107  1  0.34324300  0.02190900  0.18441400  1
  F  F108  1  0.63077800  0.43205850  0.07554650  1
  F  F109  1  0.63077800  0.06794150  0.42445350  1
  F  F110  1  0.88077800  0.81794150  0.32554650  1
  F  F111  1  0.38077800  0.18205850  0.17445350  1
  F  F112  1  0.35313200  0.75651850  0.04180650  1
  F  F113  1  0.85313200  0.24348150  0.45819350  1
  F  F114  1  0.10313200  0.99348150  0.29180650  1
  F  F115  1  0.60313200  0.00651850  0.20819350  1
  F  F116  1  0.70906650  0.85360000  0.46165650  1
  F  F117  1  0.20906650  0.14640000  0.03834350  1
  F  F118  1  0.95906650  0.89640000  0.21165650  1
  F  F119  1  0.45906650  0.10360000  0.28834350  1
  F  F120  1  0.77493750  0.83269750  0.65420700  1
  F  F121  1  0.77493750  0.66730250  0.84579300  1
  F  F122  1  0.02493750  0.41730250  0.90420700  1
  F  F123  1  0.52493750  0.58269750  0.59579300  1
  F  F124  1  0.38725200  0.41551550  0.55058850  1
  F  F125  1  0.88725200  0.58448450  0.94941150  1
  F  F126  1  0.63725200  0.83448450  0.80058850  1
  F  F127  1  0.63725200  0.66551550  0.69941150  1
  F  F128  1  0.59324300  0.77190900  0.56558600  1
  F  F129  1  0.09324300  0.22809100  0.93441400  1
  F  F130  1  0.84324300  0.47809100  0.81558600  1
  F  F131  1  0.34324300  0.52190900  0.68441400  1
  F  F132  1  0.63077800  0.93205850  0.57554650  1
  F  F133  1  0.63077800  0.56794150  0.92445350  1
  F  F134  1  0.88077800  0.31794150  0.82554650  1
  F  F135  1  0.38077800  0.68205850  0.67445350  1
  F  F136  1  0.35313200  0.25651850  0.54180650  1
  F  F137  1  0.85313200  0.74348150  0.95819350  1
  F  F138  1  0.10313200  0.49348150  0.79180650  1
  F  F139  1  0.60313200  0.50651850  0.70819350  1
  F  F140  1  0.70906650  0.35360000  0.96165650  1
  F  F141  1  0.20906650  0.64640000  0.53834350  1
  F  F142  1  0.95906650  0.39640000  0.71165650  1
  F  F143  1  0.45906650  0.60360000  0.78834350  1
  F  F144  1  0.27493750  0.83269750  0.15420700  1
  F  F145  1  0.27493750  0.66730250  0.34579300  1
  F  F146  1  0.52493750  0.41730250  0.40420700  1
  F  F147  1  0.02493750  0.58269750  0.09579300  1
  F  F148  1  0.88725200  0.41551550  0.05058850  1
  F  F149  1  0.38725200  0.58448450  0.44941150  1
  F  F150  1  0.13725200  0.83448450  0.30058850  1
  F  F151  1  0.13725200  0.66551550  0.19941150  1
  F  F152  1  0.09324300  0.77190900  0.06558600  1
  F  F153  1  0.59324300  0.22809100  0.43441400  1
  F  F154  1  0.34324300  0.47809100  0.31558600  1
  F  F155  1  0.84324300  0.52190900  0.18441400  1
  F  F156  1  0.13077800  0.93205850  0.07554650  1
  F  F157  1  0.13077800  0.56794150  0.42445350  1
  F  F158  1  0.38077800  0.31794150  0.32554650  1
  F  F159  1  0.88077800  0.68205850  0.17445350  1
  F  F160  1  0.85313200  0.25651850  0.04180650  1
  F  F161  1  0.35313200  0.74348150  0.45819350  1
  F  F162  1  0.60313200  0.49348150  0.29180650  1
  F  F163  1  0.10313200  0.50651850  0.20819350  1
  F  F164  1  0.20906650  0.35360000  0.46165650  1
  F  F165  1  0.70906650  0.64640000  0.03834350  1
  F  F166  1  0.45906650  0.39640000  0.21165650  1
  F  F167  1  0.95906650  0.60360000  0.28834350  1
