# generated using pymatgen
data_U3Cu2Se7
_symmetry_space_group_name_H-M   'P 1'
_cell_length_a   10.15901771
_cell_length_b   10.15901771
_cell_length_c   5.97038700
_cell_angle_alpha   90.00000000
_cell_angle_beta   90.00000000
_cell_angle_gamma   120.00000000
_symmetry_Int_Tables_number   1
_chemical_formula_structural   U3Cu2Se7
_chemical_formula_sum   'U6 Cu4 Se14'
_cell_volume   533.62546920
_cell_formula_units_Z   2
loop_
 _symmetry_equiv_pos_site_id
 _symmetry_equiv_pos_as_xyz
  1  'x, y, z'
loop_
 _atom_site_type_symbol
 _atom_site_label
 _atom_site_symmetry_multiplicity
 _atom_site_fract_x
 _atom_site_fract_y
 _atom_site_fract_z
 _atom_site_occupancy
  U  U0  1  0.62139200  0.77362400  0.02672700  1
  U  U1  1  0.84776800  0.62139200  0.52672700  1
  U  U2  1  0.37860800  0.22637600  0.52672700  1
  U  U3  1  0.22637600  0.84776800  0.02672700  1
  U  U4  1  0.77362400  0.15223200  0.52672700  1
  U  U5  1  0.15223200  0.37860800  0.02672700  1
  Cu  Cu6  1  0.33333333  0.66666667  0.65912500  1
  Cu  Cu7  1  0.00000000  0.00000000  0.50017500  1
  Cu  Cu8  1  0.66666667  0.33333333  0.15912500  1
  Cu  Cu9  1  0.00000000  0.00000000  0.00017500  1
  Se  Se10  1  0.56444500  0.48798900  0.27919100  1
  Se  Se11  1  0.15444500  0.88988700  0.51364500  1
  Se  Se12  1  0.51201100  0.07645600  0.27919100  1
  Se  Se13  1  0.33333333  0.66666667  0.25311000  1
  Se  Se14  1  0.88988700  0.73544200  0.01364500  1
  Se  Se15  1  0.73544200  0.84555500  0.51364500  1
  Se  Se16  1  0.66666667  0.33333333  0.75311000  1
  Se  Se17  1  0.26455800  0.15444500  0.01364500  1
  Se  Se18  1  0.07645600  0.56444500  0.77919100  1
  Se  Se19  1  0.43555500  0.51201100  0.77919100  1
  Se  Se20  1  0.48798900  0.92354400  0.77919100  1
  Se  Se21  1  0.84555500  0.11011300  0.01364500  1
  Se  Se22  1  0.92354400  0.43555500  0.27919100  1
  Se  Se23  1  0.11011300  0.26455800  0.51364500  1
