# generated using pymatgen
data_Tl3(MoO3)10
_symmetry_space_group_name_H-M   'P 1'
_cell_length_a   19.32841600
_cell_length_b   7.69428400
_cell_length_c   10.45588354
_cell_angle_alpha   90.00000000
_cell_angle_beta   120.12107595
_cell_angle_gamma   90.00000000
_symmetry_Int_Tables_number   1
_chemical_formula_structural   Tl3(MoO3)10
_chemical_formula_sum   'Tl6 Mo20 O60'
_cell_volume   1345.00746291
_cell_formula_units_Z   2
loop_
 _symmetry_equiv_pos_site_id
 _symmetry_equiv_pos_as_xyz
  1  'x, y, z'
loop_
 _atom_site_type_symbol
 _atom_site_label
 _atom_site_symmetry_multiplicity
 _atom_site_fract_x
 _atom_site_fract_y
 _atom_site_fract_z
 _atom_site_occupancy
  Tl  Tl0  1  0.31151800  0.50000000  0.25932700  1
  Tl  Tl1  1  0.18848200  0.00000000  0.74067300  1
  Tl  Tl2  1  0.00000000  0.50000000  0.50000000  1
  Tl  Tl3  1  0.81151800  0.00000000  0.25932700  1
  Tl  Tl4  1  0.68848200  0.50000000  0.74067300  1
  Tl  Tl5  1  0.50000000  0.00000000  0.50000000  1
  Mo  Mo6  1  0.07616500  0.25569600  0.95965100  1
  Mo  Mo7  1  0.14042900  0.75030700  0.34298400  1
  Mo  Mo8  1  0.14042900  0.24969300  0.34298400  1
  Mo  Mo9  1  0.42383500  0.24430400  0.04034900  1
  Mo  Mo10  1  0.27836300  0.50000000  0.82813300  1
  Mo  Mo11  1  0.35957100  0.74969300  0.65701600  1
  Mo  Mo12  1  0.35957100  0.25030700  0.65701600  1
  Mo  Mo13  1  0.42383500  0.75569600  0.04034900  1
  Mo  Mo14  1  0.07616500  0.74430400  0.95965100  1
  Mo  Mo15  1  0.22163700  0.00000000  0.17186700  1
  Mo  Mo16  1  0.57616500  0.75569600  0.95965100  1
  Mo  Mo17  1  0.64042900  0.25030700  0.34298400  1
  Mo  Mo18  1  0.64042900  0.74969300  0.34298400  1
  Mo  Mo19  1  0.92383500  0.74430400  0.04034900  1
  Mo  Mo20  1  0.77836300  0.00000000  0.82813300  1
  Mo  Mo21  1  0.85957100  0.24969300  0.65701600  1
  Mo  Mo22  1  0.85957100  0.75030700  0.65701600  1
  Mo  Mo23  1  0.92383500  0.25569600  0.04034900  1
  Mo  Mo24  1  0.57616500  0.24430400  0.95965100  1
  Mo  Mo25  1  0.72163700  0.50000000  0.17186700  1
  O  O26  1  0.15692200  0.00000000  0.30908000  1
  O  O27  1  0.40454350  0.75666750  0.18460700  1
  O  O28  1  0.07648300  0.50000000  0.98736300  1
  O  O29  1  0.09223850  0.77835050  0.44185600  1
  O  O30  1  0.41285900  0.50000000  0.00597200  1
  O  O31  1  0.25558300  0.50000000  0.97013100  1
  O  O32  1  0.40776150  0.72164950  0.55814400  1
  O  O33  1  0.14310100  0.50000000  0.32767000  1
  O  O34  1  0.45903500  0.25514400  0.85578900  1
  O  O35  1  0.45903500  0.74485600  0.85578900  1
  O  O36  1  0.34307800  0.50000000  0.69092000  1
  O  O37  1  0.09223850  0.22164950  0.44185600  1
  O  O38  1  0.40776150  0.27835050  0.55814400  1
  O  O39  1  0.04096500  0.24485600  0.14421100  1
  O  O40  1  0.04096500  0.75514400  0.14421100  1
  O  O41  1  0.35689900  0.00000000  0.67233000  1
  O  O42  1  0.31630650  0.25752550  0.84087100  1
  O  O43  1  0.18369350  0.24247450  0.15912900  1
  O  O44  1  0.42351700  0.00000000  0.01263700  1
  O  O45  1  0.08714100  0.00000000  0.99402800  1
  O  O46  1  0.18575200  0.50000000  0.66778600  1
  O  O47  1  0.31424800  0.00000000  0.33221400  1
  O  O48  1  0.24441700  0.00000000  0.02986900  1
  O  O49  1  0.09545650  0.25666750  0.81539300  1
  O  O50  1  0.31630650  0.74247450  0.84087100  1
  O  O51  1  0.09545650  0.74333250  0.81539300  1
  O  O52  1  0.25000000  0.25000000  0.50000000  1
  O  O53  1  0.40454350  0.24333250  0.18460700  1
  O  O54  1  0.18369350  0.75752550  0.15912900  1
  O  O55  1  0.25000000  0.75000000  0.50000000  1
  O  O56  1  0.65692200  0.50000000  0.30908000  1
  O  O57  1  0.90454350  0.25666750  0.18460700  1
  O  O58  1  0.57648300  0.00000000  0.98736300  1
  O  O59  1  0.59223850  0.27835050  0.44185600  1
  O  O60  1  0.91285900  0.00000000  0.00597200  1
  O  O61  1  0.75558300  0.00000000  0.97013100  1
  O  O62  1  0.90776150  0.22164950  0.55814400  1
  O  O63  1  0.64310100  0.00000000  0.32767000  1
  O  O64  1  0.95903500  0.75514400  0.85578900  1
  O  O65  1  0.95903500  0.24485600  0.85578900  1
  O  O66  1  0.84307800  0.00000000  0.69092000  1
  O  O67  1  0.59223850  0.72164950  0.44185600  1
  O  O68  1  0.90776150  0.77835050  0.55814400  1
  O  O69  1  0.54096500  0.74485600  0.14421100  1
  O  O70  1  0.54096500  0.25514400  0.14421100  1
  O  O71  1  0.85689900  0.50000000  0.67233000  1
  O  O72  1  0.81630650  0.75752550  0.84087100  1
  O  O73  1  0.68369350  0.74247450  0.15912900  1
  O  O74  1  0.92351700  0.50000000  0.01263700  1
  O  O75  1  0.58714100  0.50000000  0.99402800  1
  O  O76  1  0.68575200  0.00000000  0.66778600  1
  O  O77  1  0.81424800  0.50000000  0.33221400  1
  O  O78  1  0.74441700  0.50000000  0.02986900  1
  O  O79  1  0.59545650  0.75666750  0.81539300  1
  O  O80  1  0.81630650  0.24247450  0.84087100  1
  O  O81  1  0.59545650  0.24333250  0.81539300  1
  O  O82  1  0.75000000  0.75000000  0.50000000  1
  O  O83  1  0.90454350  0.74333250  0.18460700  1
  O  O84  1  0.68369350  0.25752550  0.15912900  1
  O  O85  1  0.75000000  0.25000000  0.50000000  1
