# generated using pymatgen
data_Tb3P4Pd7
_symmetry_space_group_name_H-M   'P 1'
_cell_length_a   15.42925400
_cell_length_b   4.02176000
_cell_length_c   9.42445720
_cell_angle_alpha   90.00000000
_cell_angle_beta   125.56657012
_cell_angle_gamma   90.00000000
_symmetry_Int_Tables_number   1
_chemical_formula_structural   Tb3P4Pd7
_chemical_formula_sum   'Tb6 P8 Pd14'
_cell_volume   475.71089014
_cell_formula_units_Z   2
loop_
 _symmetry_equiv_pos_site_id
 _symmetry_equiv_pos_as_xyz
  1  'x, y, z'
loop_
 _atom_site_type_symbol
 _atom_site_label
 _atom_site_symmetry_multiplicity
 _atom_site_fract_x
 _atom_site_fract_y
 _atom_site_fract_z
 _atom_site_occupancy
  Tb  Tb0  1  0.81939800  0.50000000  0.32233300  1
  Tb  Tb1  1  0.18060200  0.50000000  0.67766700  1
  Tb  Tb2  1  0.00000000  0.00000000  0.00000000  1
  Tb  Tb3  1  0.31939800  0.00000000  0.32233300  1
  Tb  Tb4  1  0.68060200  0.00000000  0.67766700  1
  Tb  Tb5  1  0.50000000  0.50000000  0.00000000  1
  P  P6  1  0.65941400  0.00000000  0.25418200  1
  P  P7  1  0.34058600  0.00000000  0.74581800  1
  P  P8  1  0.10596600  0.00000000  0.81996000  1
  P  P9  1  0.89403400  0.00000000  0.18004000  1
  P  P10  1  0.15941400  0.50000000  0.25418200  1
  P  P11  1  0.84058600  0.50000000  0.74581800  1
  P  P12  1  0.60596600  0.50000000  0.81996000  1
  P  P13  1  0.39403400  0.50000000  0.18004000  1
  Pd  Pd14  1  0.69472000  0.00000000  0.02954600  1
  Pd  Pd15  1  0.30528000  0.00000000  0.97045400  1
  Pd  Pd16  1  0.99020500  0.50000000  0.71679100  1
  Pd  Pd17  1  0.16762900  0.00000000  0.42069600  1
  Pd  Pd18  1  0.00979500  0.50000000  0.28320900  1
  Pd  Pd19  1  0.83237100  0.00000000  0.57930400  1
  Pd  Pd20  1  0.00000000  0.00000000  0.50000000  1
  Pd  Pd21  1  0.19472000  0.50000000  0.02954600  1
  Pd  Pd22  1  0.80528000  0.50000000  0.97045400  1
  Pd  Pd23  1  0.49020500  0.00000000  0.71679100  1
  Pd  Pd24  1  0.66762900  0.50000000  0.42069600  1
  Pd  Pd25  1  0.50979500  0.00000000  0.28320900  1
  Pd  Pd26  1  0.33237100  0.50000000  0.57930400  1
  Pd  Pd27  1  0.50000000  0.50000000  0.50000000  1
