# generated using pymatgen
data_Ti4P3
_symmetry_space_group_name_H-M   'P 1'
_cell_length_a   7.42499400
_cell_length_b   7.42499400
_cell_length_c   7.42499400
_cell_angle_alpha   90.00000000
_cell_angle_beta   90.00000000
_cell_angle_gamma   90.00000000
_symmetry_Int_Tables_number   1
_chemical_formula_structural   Ti4P3
_chemical_formula_sum   'Ti16 P12'
_cell_volume   409.34389827
_cell_formula_units_Z   4
loop_
 _symmetry_equiv_pos_site_id
 _symmetry_equiv_pos_as_xyz
  1  'x, y, z'
loop_
 _atom_site_type_symbol
 _atom_site_label
 _atom_site_symmetry_multiplicity
 _atom_site_fract_x
 _atom_site_fract_y
 _atom_site_fract_z
 _atom_site_occupancy
  Ti  Ti0  1  0.18051700  0.81948300  0.31948300  1
  Ti  Ti1  1  0.93051700  0.06948300  0.56948300  1
  Ti  Ti2  1  0.06948300  0.56948300  0.93051700  1
  Ti  Ti3  1  0.18051700  0.18051700  0.18051700  1
  Ti  Ti4  1  0.81948300  0.31948300  0.18051700  1
  Ti  Ti5  1  0.56948300  0.93051700  0.06948300  1
  Ti  Ti6  1  0.43051700  0.43051700  0.43051700  1
  Ti  Ti7  1  0.31948300  0.18051700  0.81948300  1
  Ti  Ti8  1  0.68051700  0.31948300  0.81948300  1
  Ti  Ti9  1  0.43051700  0.56948300  0.06948300  1
  Ti  Ti10  1  0.56948300  0.06948300  0.43051700  1
  Ti  Ti11  1  0.68051700  0.68051700  0.68051700  1
  Ti  Ti12  1  0.31948300  0.81948300  0.68051700  1
  Ti  Ti13  1  0.06948300  0.43051700  0.56948300  1
  Ti  Ti14  1  0.93051700  0.93051700  0.93051700  1
  Ti  Ti15  1  0.81948300  0.68051700  0.31948300  1
  P  P16  1  0.50000000  0.25000000  0.12500000  1
  P  P17  1  0.75000000  0.37500000  0.50000000  1
  P  P18  1  0.25000000  0.12500000  0.50000000  1
  P  P19  1  0.50000000  0.75000000  0.37500000  1
  P  P20  1  0.37500000  0.50000000  0.75000000  1
  P  P21  1  0.12500000  0.50000000  0.25000000  1
  P  P22  1  0.00000000  0.75000000  0.62500000  1
  P  P23  1  0.25000000  0.87500000  0.00000000  1
  P  P24  1  0.75000000  0.62500000  0.00000000  1
  P  P25  1  0.00000000  0.25000000  0.87500000  1
  P  P26  1  0.87500000  0.00000000  0.25000000  1
  P  P27  1  0.62500000  0.00000000  0.75000000  1
