# generated using pymatgen
data_Tb4MgIr
_symmetry_space_group_name_H-M   'P 1'
_cell_length_a   13.79192800
_cell_length_b   13.79192800
_cell_length_c   13.79192800
_cell_angle_alpha   90.00000000
_cell_angle_beta   90.00000000
_cell_angle_gamma   90.00000000
_symmetry_Int_Tables_number   1
_chemical_formula_structural   Tb4MgIr
_chemical_formula_sum   'Tb64 Mg16 Ir16'
_cell_volume   2623.46300194
_cell_formula_units_Z   16
loop_
 _symmetry_equiv_pos_site_id
 _symmetry_equiv_pos_as_xyz
  1  'x, y, z'
loop_
 _atom_site_type_symbol
 _atom_site_label
 _atom_site_symmetry_multiplicity
 _atom_site_fract_x
 _atom_site_fract_y
 _atom_site_fract_z
 _atom_site_occupancy
  Tb  Tb0  1  0.31173975  0.00000000  0.50000000  1
  Tb  Tb1  1  0.68826025  0.00000000  0.50000000  1
  Tb  Tb2  1  0.75000000  0.25000000  0.06304275  1
  Tb  Tb3  1  0.15361175  0.15361175  0.34638825  1
  Tb  Tb4  1  0.65361175  0.34638825  0.65361175  1
  Tb  Tb5  1  0.75000000  0.43695725  0.25000000  1
  Tb  Tb6  1  0.00000000  0.00000000  0.18826025  1
  Tb  Tb7  1  0.50000000  0.18826025  0.50000000  1
  Tb  Tb8  1  0.00000000  0.00000000  0.81173975  1
  Tb  Tb9  1  0.75000000  0.25000000  0.43695725  1
  Tb  Tb10  1  0.75000000  0.06304275  0.25000000  1
  Tb  Tb11  1  0.56304275  0.25000000  0.25000000  1
  Tb  Tb12  1  0.93695725  0.25000000  0.25000000  1
  Tb  Tb13  1  0.00000000  0.31173975  0.50000000  1
  Tb  Tb14  1  0.34638825  0.34638825  0.34638825  1
  Tb  Tb15  1  0.84638825  0.15361175  0.65361175  1
  Tb  Tb16  1  0.31173975  0.50000000  0.00000000  1
  Tb  Tb17  1  0.68826025  0.50000000  0.00000000  1
  Tb  Tb18  1  0.75000000  0.75000000  0.56304275  1
  Tb  Tb19  1  0.15361175  0.65361175  0.84638825  1
  Tb  Tb20  1  0.65361175  0.84638825  0.15361175  1
  Tb  Tb21  1  0.75000000  0.93695725  0.75000000  1
  Tb  Tb22  1  0.00000000  0.50000000  0.68826025  1
  Tb  Tb23  1  0.50000000  0.68826025  0.00000000  1
  Tb  Tb24  1  0.00000000  0.50000000  0.31173975  1
  Tb  Tb25  1  0.75000000  0.75000000  0.93695725  1
  Tb  Tb26  1  0.75000000  0.56304275  0.75000000  1
  Tb  Tb27  1  0.56304275  0.75000000  0.75000000  1
  Tb  Tb28  1  0.93695725  0.75000000  0.75000000  1
  Tb  Tb29  1  0.00000000  0.81173975  0.00000000  1
  Tb  Tb30  1  0.34638825  0.84638825  0.84638825  1
  Tb  Tb31  1  0.84638825  0.65361175  0.15361175  1
  Tb  Tb32  1  0.81173975  0.00000000  0.00000000  1
  Tb  Tb33  1  0.18826025  0.00000000  0.00000000  1
  Tb  Tb34  1  0.25000000  0.25000000  0.56304275  1
  Tb  Tb35  1  0.65361175  0.15361175  0.84638825  1
  Tb  Tb36  1  0.15361175  0.34638825  0.15361175  1
  Tb  Tb37  1  0.25000000  0.43695725  0.75000000  1
  Tb  Tb38  1  0.50000000  0.00000000  0.68826025  1
  Tb  Tb39  1  0.00000000  0.18826025  0.00000000  1
  Tb  Tb40  1  0.50000000  0.00000000  0.31173975  1
  Tb  Tb41  1  0.25000000  0.25000000  0.93695725  1
  Tb  Tb42  1  0.25000000  0.06304275  0.75000000  1
  Tb  Tb43  1  0.06304275  0.25000000  0.75000000  1
  Tb  Tb44  1  0.43695725  0.25000000  0.75000000  1
  Tb  Tb45  1  0.50000000  0.31173975  0.00000000  1
  Tb  Tb46  1  0.84638825  0.34638825  0.84638825  1
  Tb  Tb47  1  0.34638825  0.15361175  0.15361175  1
  Tb  Tb48  1  0.81173975  0.50000000  0.50000000  1
  Tb  Tb49  1  0.18826025  0.50000000  0.50000000  1
  Tb  Tb50  1  0.25000000  0.75000000  0.06304275  1
  Tb  Tb51  1  0.65361175  0.65361175  0.34638825  1
  Tb  Tb52  1  0.15361175  0.84638825  0.65361175  1
  Tb  Tb53  1  0.25000000  0.93695725  0.25000000  1
  Tb  Tb54  1  0.50000000  0.50000000  0.18826025  1
  Tb  Tb55  1  0.00000000  0.68826025  0.50000000  1
  Tb  Tb56  1  0.50000000  0.50000000  0.81173975  1
  Tb  Tb57  1  0.25000000  0.75000000  0.43695725  1
  Tb  Tb58  1  0.25000000  0.56304275  0.25000000  1
  Tb  Tb59  1  0.06304275  0.75000000  0.25000000  1
  Tb  Tb60  1  0.43695725  0.75000000  0.25000000  1
  Tb  Tb61  1  0.50000000  0.81173975  0.50000000  1
  Tb  Tb62  1  0.84638825  0.84638825  0.34638825  1
  Tb  Tb63  1  0.34638825  0.65361175  0.65361175  1
  Mg  Mg64  1  0.07942125  0.07942125  0.57942125  1
  Mg  Mg65  1  0.57942125  0.42057875  0.42057875  1
  Mg  Mg66  1  0.92057875  0.07942125  0.42057875  1
  Mg  Mg67  1  0.42057875  0.42057875  0.57942125  1
  Mg  Mg68  1  0.07942125  0.57942125  0.07942125  1
  Mg  Mg69  1  0.57942125  0.92057875  0.92057875  1
  Mg  Mg70  1  0.92057875  0.57942125  0.92057875  1
  Mg  Mg71  1  0.42057875  0.92057875  0.07942125  1
  Mg  Mg72  1  0.57942125  0.07942125  0.07942125  1
  Mg  Mg73  1  0.07942125  0.42057875  0.92057875  1
  Mg  Mg74  1  0.42057875  0.07942125  0.92057875  1
  Mg  Mg75  1  0.92057875  0.42057875  0.07942125  1
  Mg  Mg76  1  0.57942125  0.57942125  0.57942125  1
  Mg  Mg77  1  0.07942125  0.92057875  0.42057875  1
  Mg  Mg78  1  0.42057875  0.57942125  0.42057875  1
  Mg  Mg79  1  0.92057875  0.92057875  0.57942125  1
  Ir  Ir80  1  0.64127925  0.14127925  0.64127925  1
  Ir  Ir81  1  0.64127925  0.35872075  0.85872075  1
  Ir  Ir82  1  0.85872075  0.14127925  0.85872075  1
  Ir  Ir83  1  0.85872075  0.35872075  0.64127925  1
  Ir  Ir84  1  0.64127925  0.64127925  0.14127925  1
  Ir  Ir85  1  0.64127925  0.85872075  0.35872075  1
  Ir  Ir86  1  0.85872075  0.64127925  0.35872075  1
  Ir  Ir87  1  0.85872075  0.85872075  0.14127925  1
  Ir  Ir88  1  0.14127925  0.14127925  0.14127925  1
  Ir  Ir89  1  0.14127925  0.35872075  0.35872075  1
  Ir  Ir90  1  0.35872075  0.14127925  0.35872075  1
  Ir  Ir91  1  0.35872075  0.35872075  0.14127925  1
  Ir  Ir92  1  0.14127925  0.64127925  0.64127925  1
  Ir  Ir93  1  0.14127925  0.85872075  0.85872075  1
  Ir  Ir94  1  0.35872075  0.64127925  0.85872075  1
  Ir  Ir95  1  0.35872075  0.85872075  0.64127925  1
