# generated using pymatgen
data_VSbO4
_symmetry_space_group_name_H-M   'P 1'
_cell_length_a   6.62812102
_cell_length_b   6.62812102
_cell_length_c   6.30750202
_cell_angle_alpha   90.00000000
_cell_angle_beta   90.00000000
_cell_angle_gamma   90.00000000
_symmetry_Int_Tables_number   1
_chemical_formula_structural   VSbO4
_chemical_formula_sum   'V4 Sb4 O16'
_cell_volume   277.10110408
_cell_formula_units_Z   4
loop_
 _symmetry_equiv_pos_site_id
 _symmetry_equiv_pos_as_xyz
  1  'x, y, z'
loop_
 _atom_site_type_symbol
 _atom_site_label
 _atom_site_symmetry_multiplicity
 _atom_site_fract_x
 _atom_site_fract_y
 _atom_site_fract_z
 _atom_site_occupancy
  V  V0  1  0.00000000  0.00000000  0.99286425  1
  V  V1  1  0.50000000  0.00000000  0.24286425  1
  V  V2  1  0.50000000  0.50000000  0.49286425  1
  V  V3  1  0.00000000  0.50000000  0.74286425  1
  Sb  Sb4  1  0.50000000  0.50000000  0.00682000  1
  Sb  Sb5  1  0.00000000  0.50000000  0.25682000  1
  Sb  Sb6  1  0.00000000  0.00000000  0.50682000  1
  Sb  Sb7  1  0.50000000  0.00000000  0.75682000  1
  O  O8  1  0.80254425  0.50000000  0.49493025  1
  O  O9  1  0.50000000  0.69745575  0.24493025  1
  O  O10  1  0.00000000  0.80254425  0.74493025  1
  O  O11  1  0.19745575  0.50000000  0.49493025  1
  O  O12  1  0.19139575  0.50000000  0.00569275  1
  O  O13  1  0.00000000  0.80860425  0.25569275  1
  O  O14  1  0.50000000  0.69139575  0.75569275  1
  O  O15  1  0.30860425  0.00000000  0.50569275  1
  O  O16  1  0.30254425  0.00000000  0.99493025  1
  O  O17  1  0.00000000  0.19745575  0.74493025  1
  O  O18  1  0.50000000  0.30254425  0.24493025  1
  O  O19  1  0.69745575  0.00000000  0.99493025  1
  O  O20  1  0.69139575  0.00000000  0.50569275  1
  O  O21  1  0.50000000  0.30860425  0.75569275  1
  O  O22  1  0.00000000  0.19139575  0.25569275  1
  O  O23  1  0.80860425  0.50000000  0.00569275  1
