# generated using pymatgen
data_Ce2ZnNi2
_symmetry_space_group_name_H-M   'P 1'
_cell_length_a   4.40117000
_cell_length_b   5.45300800
_cell_length_c   7.80485400
_cell_angle_alpha   90.00000000
_cell_angle_beta   90.00000000
_cell_angle_gamma   90.00000000
_symmetry_Int_Tables_number   1
_chemical_formula_structural   Ce2ZnNi2
_chemical_formula_sum   'Ce4 Zn2 Ni4'
_cell_volume   187.31349284
_cell_formula_units_Z   2
loop_
 _symmetry_equiv_pos_site_id
 _symmetry_equiv_pos_as_xyz
  1  'x, y, z'
loop_
 _atom_site_type_symbol
 _atom_site_label
 _atom_site_symmetry_multiplicity
 _atom_site_fract_x
 _atom_site_fract_y
 _atom_site_fract_z
 _atom_site_occupancy
  Ce  Ce0  1  0.00000000  0.50000000  0.20130800  1
  Ce  Ce1  1  0.00000000  0.50000000  0.79869200  1
  Ce  Ce2  1  0.50000000  0.00000000  0.70130800  1
  Ce  Ce3  1  0.50000000  0.00000000  0.29869200  1
  Zn  Zn4  1  0.00000000  0.00000000  0.00000000  1
  Zn  Zn5  1  0.50000000  0.50000000  0.50000000  1
  Ni  Ni6  1  0.50000000  0.73372700  0.00000000  1
  Ni  Ni7  1  0.50000000  0.26627300  0.00000000  1
  Ni  Ni8  1  0.00000000  0.23372700  0.50000000  1
  Ni  Ni9  1  0.00000000  0.76627300  0.50000000  1
