# generated using pymatgen
data_Na2YbC2O6F
_symmetry_space_group_name_H-M   'P 1'
_cell_length_a   17.61248800
_cell_length_b   6.16925400
_cell_length_c   11.50340479
_cell_angle_alpha   90.00000000
_cell_angle_beta   94.57945475
_cell_angle_gamma   90.00000000
_symmetry_Int_Tables_number   1
_chemical_formula_structural   Na2YbC2O6F
_chemical_formula_sum   'Na16 Yb8 C16 O48 F8'
_cell_volume   1245.92268217
_cell_formula_units_Z   8
loop_
 _symmetry_equiv_pos_site_id
 _symmetry_equiv_pos_as_xyz
  1  'x, y, z'
loop_
 _atom_site_type_symbol
 _atom_site_label
 _atom_site_symmetry_multiplicity
 _atom_site_fract_x
 _atom_site_fract_y
 _atom_site_fract_z
 _atom_site_occupancy
  Na  Na0  1  0.74096750  0.90705350  0.14067800  1
  Na  Na1  1  0.75903250  0.40705350  0.35932200  1
  Na  Na2  1  0.75903250  0.59294650  0.85932200  1
  Na  Na3  1  0.89157500  0.41336900  0.11753800  1
  Na  Na4  1  0.60842500  0.08663100  0.88246200  1
  Na  Na5  1  0.60842500  0.91336900  0.38246200  1
  Na  Na6  1  0.74096750  0.09294650  0.64067800  1
  Na  Na7  1  0.89157500  0.58663100  0.61753800  1
  Na  Na8  1  0.24096750  0.40705350  0.14067800  1
  Na  Na9  1  0.25903250  0.90705350  0.35932200  1
  Na  Na10  1  0.25903250  0.09294650  0.85932200  1
  Na  Na11  1  0.39157500  0.91336900  0.11753800  1
  Na  Na12  1  0.10842500  0.58663100  0.88246200  1
  Na  Na13  1  0.10842500  0.41336900  0.38246200  1
  Na  Na14  1  0.24096750  0.59294650  0.64067800  1
  Na  Na15  1  0.39157500  0.08663100  0.61753800  1
  Yb  Yb16  1  0.94699600  0.16392000  0.86766300  1
  Yb  Yb17  1  0.55300400  0.33608000  0.13233700  1
  Yb  Yb18  1  0.94699600  0.83608000  0.36766300  1
  Yb  Yb19  1  0.55300400  0.66392000  0.63233700  1
  Yb  Yb20  1  0.44699600  0.66392000  0.86766300  1
  Yb  Yb21  1  0.05300400  0.83608000  0.13233700  1
  Yb  Yb22  1  0.44699600  0.33608000  0.36766300  1
  Yb  Yb23  1  0.05300400  0.16392000  0.63233700  1
  C  C24  1  0.79063350  0.91271450  0.41806200  1
  C  C25  1  0.56693300  0.20338500  0.61606300  1
  C  C26  1  0.56693300  0.79661500  0.11606300  1
  C  C27  1  0.93306700  0.29661500  0.38393700  1
  C  C28  1  0.79063350  0.08728550  0.91806200  1
  C  C29  1  0.70936650  0.58728550  0.58193800  1
  C  C30  1  0.70936650  0.41271450  0.08193800  1
  C  C31  1  0.93306700  0.70338500  0.88393700  1
  C  C32  1  0.29063350  0.41271450  0.41806200  1
  C  C33  1  0.06693300  0.70338500  0.61606300  1
  C  C34  1  0.06693300  0.29661500  0.11606300  1
  C  C35  1  0.43306700  0.79661500  0.38393700  1
  C  C36  1  0.29063350  0.58728550  0.91806200  1
  C  C37  1  0.20936650  0.08728550  0.58193800  1
  C  C38  1  0.20936650  0.91271450  0.08193800  1
  C  C39  1  0.43306700  0.20338500  0.88393700  1
  O  O40  1  0.76546750  0.54452650  0.07578700  1
  O  O41  1  0.84399000  0.09728700  0.00110800  1
  O  O42  1  0.65601000  0.40271300  0.99889200  1
  O  O43  1  0.70537650  0.29017150  0.17242700  1
  O  O44  1  0.65601000  0.59728700  0.49889200  1
  O  O45  1  0.70537650  0.70982850  0.67242700  1
  O  O46  1  0.58831550  0.98537150  0.08347800  1
  O  O47  1  0.84399000  0.90271300  0.50110800  1
  O  O48  1  0.79462350  0.20982850  0.82757300  1
  O  O49  1  0.91168450  0.48537150  0.41652200  1
  O  O50  1  0.76546750  0.45547350  0.57578700  1
  O  O51  1  0.79462350  0.79017150  0.32757300  1
  O  O52  1  0.89409100  0.19660200  0.30062700  1
  O  O53  1  0.73453250  0.95547350  0.92421300  1
  O  O54  1  0.50691400  0.29673500  0.56657700  1
  O  O55  1  0.73453250  0.04452650  0.42421300  1
  O  O56  1  0.60590900  0.30339800  0.69937300  1
  O  O57  1  0.89409100  0.80339800  0.80062700  1
  O  O58  1  0.99308600  0.79673500  0.93342300  1
  O  O59  1  0.58831550  0.01462850  0.58347800  1
  O  O60  1  0.50691400  0.70326500  0.06657700  1
  O  O61  1  0.91168450  0.51462850  0.91652200  1
  O  O62  1  0.60590900  0.69660200  0.19937300  1
  O  O63  1  0.99308600  0.20326500  0.43342300  1
  O  O64  1  0.26546750  0.04452650  0.07578700  1
  O  O65  1  0.34399000  0.59728700  0.00110800  1
  O  O66  1  0.15601000  0.90271300  0.99889200  1
  O  O67  1  0.20537650  0.79017150  0.17242700  1
  O  O68  1  0.15601000  0.09728700  0.49889200  1
  O  O69  1  0.20537650  0.20982850  0.67242700  1
  O  O70  1  0.08831550  0.48537150  0.08347800  1
  O  O71  1  0.34399000  0.40271300  0.50110800  1
  O  O72  1  0.29462350  0.70982850  0.82757300  1
  O  O73  1  0.41168450  0.98537150  0.41652200  1
  O  O74  1  0.26546750  0.95547350  0.57578700  1
  O  O75  1  0.29462350  0.29017150  0.32757300  1
  O  O76  1  0.39409100  0.69660200  0.30062700  1
  O  O77  1  0.23453250  0.45547350  0.92421300  1
  O  O78  1  0.00691400  0.79673500  0.56657700  1
  O  O79  1  0.23453250  0.54452650  0.42421300  1
  O  O80  1  0.10590900  0.80339800  0.69937300  1
  O  O81  1  0.39409100  0.30339800  0.80062700  1
  O  O82  1  0.49308600  0.29673500  0.93342300  1
  O  O83  1  0.08831550  0.51462850  0.58347800  1
  O  O84  1  0.00691400  0.20326500  0.06657700  1
  O  O85  1  0.41168450  0.01462850  0.91652200  1
  O  O86  1  0.10590900  0.19660200  0.19937300  1
  O  O87  1  0.49308600  0.70326500  0.43342300  1
  F  F88  1  0.93853050  0.25756450  0.68103800  1
  F  F89  1  0.56146950  0.75756450  0.81896200  1
  F  F90  1  0.56146950  0.24243550  0.31896200  1
  F  F91  1  0.93853050  0.74243550  0.18103800  1
  F  F92  1  0.43853050  0.75756450  0.68103800  1
  F  F93  1  0.06146950  0.25756450  0.81896200  1
  F  F94  1  0.06146950  0.74243550  0.31896200  1
  F  F95  1  0.43853050  0.24243550  0.18103800  1
