# generated using pymatgen
data_Mn(PO3)3
_symmetry_space_group_name_H-M   'P 1'
_cell_length_a   11.59460113
_cell_length_b   6.63544385
_cell_length_c   9.78611156
_cell_angle_alpha   90.00000000
_cell_angle_beta   92.89308722
_cell_angle_gamma   90.00000000
_symmetry_Int_Tables_number   1
_chemical_formula_structural   Mn(PO3)3
_chemical_formula_sum   'Mn4 P12 O36'
_cell_volume   751.93806876
_cell_formula_units_Z   4
loop_
 _symmetry_equiv_pos_site_id
 _symmetry_equiv_pos_as_xyz
  1  'x, y, z'
loop_
 _atom_site_type_symbol
 _atom_site_label
 _atom_site_symmetry_multiplicity
 _atom_site_fract_x
 _atom_site_fract_y
 _atom_site_fract_z
 _atom_site_occupancy
  Mn  Mn0  1  0.66670100  0.98596900  0.99993100  1
  Mn  Mn1  1  0.66670100  0.01403100  0.49993100  1
  Mn  Mn2  1  0.16670100  0.48596900  0.99993100  1
  Mn  Mn3  1  0.16670100  0.51403100  0.49993100  1
  P  P4  1  0.53243200  0.25398900  0.25434300  1
  P  P5  1  0.53243200  0.74601100  0.75434300  1
  P  P6  1  0.60857100  0.31712700  0.75067700  1
  P  P7  1  0.60857100  0.68287300  0.25067700  1
  P  P8  1  0.85757950  0.08419250  0.24490300  1
  P  P9  1  0.85757950  0.91580750  0.74490300  1
  P  P10  1  0.03243200  0.75398900  0.25434300  1
  P  P11  1  0.03243200  0.24601100  0.75434300  1
  P  P12  1  0.10857100  0.81712700  0.75067700  1
  P  P13  1  0.10857100  0.18287300  0.25067700  1
  P  P14  1  0.35757950  0.58419250  0.24490300  1
  P  P15  1  0.35757950  0.41580750  0.74490300  1
  O  O16  1  0.62031350  0.55625350  0.75954800  1
  O  O17  1  0.62031350  0.44374650  0.25954800  1
  O  O18  1  0.54432400  0.13625600  0.12688000  1
  O  O19  1  0.54432400  0.86374400  0.62688000  1
  O  O20  1  0.54477350  0.14352050  0.39018200  1
  O  O21  1  0.54477350  0.85647950  0.89018200  1
  O  O22  1  0.65777550  0.23227050  0.88339400  1
  O  O23  1  0.65777550  0.76772950  0.38339400  1
  O  O24  1  0.66421400  0.25176900  0.62192700  1
  O  O25  1  0.66421400  0.74823100  0.12192700  1
  O  O26  1  0.90799550  0.85783350  0.25433800  1
  O  O27  1  0.90799550  0.14216650  0.75433800  1
  O  O28  1  0.97164400  0.77928300  0.73614300  1
  O  O29  1  0.97164400  0.22071700  0.23614300  1
  O  O30  1  0.79670350  0.13459550  0.37058800  1
  O  O31  1  0.79670350  0.86540450  0.87058800  1
  O  O32  1  0.79336150  0.11038250  0.10729600  1
  O  O33  1  0.79336150  0.88961750  0.60729600  1
  O  O34  1  0.12031350  0.05625350  0.75954800  1
  O  O35  1  0.12031350  0.94374650  0.25954800  1
  O  O36  1  0.04432400  0.63625600  0.12688000  1
  O  O37  1  0.04432400  0.36374400  0.62688000  1
  O  O38  1  0.04477350  0.64352050  0.39018200  1
  O  O39  1  0.04477350  0.35647950  0.89018200  1
  O  O40  1  0.15777550  0.73227050  0.88339400  1
  O  O41  1  0.15777550  0.26772950  0.38339400  1
  O  O42  1  0.16421400  0.75176900  0.62192700  1
  O  O43  1  0.16421400  0.24823100  0.12192700  1
  O  O44  1  0.40799550  0.35783350  0.25433800  1
  O  O45  1  0.40799550  0.64216650  0.75433800  1
  O  O46  1  0.47164400  0.27928300  0.73614300  1
  O  O47  1  0.47164400  0.72071700  0.23614300  1
  O  O48  1  0.29670350  0.63459550  0.37058800  1
  O  O49  1  0.29670350  0.36540450  0.87058800  1
  O  O50  1  0.29336150  0.61038250  0.10729600  1
  O  O51  1  0.29336150  0.38961750  0.60729600  1
