# generated using pymatgen
data_SiMoP3O11
_symmetry_space_group_name_H-M   'P 1'
_cell_length_a   8.63528000
_cell_length_b   8.63528000
_cell_length_c   40.73214559
_cell_angle_alpha   90.00000000
_cell_angle_beta   90.00000000
_cell_angle_gamma   120.00000000
_symmetry_Int_Tables_number   1
_chemical_formula_structural   SiMoP3O11
_chemical_formula_sum   'Si12 Mo12 P36 O132'
_cell_volume   2630.39377243
_cell_formula_units_Z   12
loop_
 _symmetry_equiv_pos_site_id
 _symmetry_equiv_pos_as_xyz
  1  'x, y, z'
loop_
 _atom_site_type_symbol
 _atom_site_label
 _atom_site_symmetry_multiplicity
 _atom_site_fract_x
 _atom_site_fract_y
 _atom_site_fract_z
 _atom_site_occupancy
  Si  Si0  1  0.00000000  0.00000000  0.03924600  1
  Si  Si1  1  0.33333333  0.66666667  0.20591267  1
  Si  Si2  1  0.33333333  0.66666667  0.12742067  1
  Si  Si3  1  0.66666667  0.33333333  0.29408733  1
  Si  Si4  1  0.66666667  0.33333333  0.37257933  1
  Si  Si5  1  0.00000000  0.00000000  0.53924600  1
  Si  Si6  1  0.00000000  0.00000000  0.46075400  1
  Si  Si7  1  0.33333333  0.66666667  0.62742067  1
  Si  Si8  1  0.33333333  0.66666667  0.70591267  1
  Si  Si9  1  0.66666667  0.33333333  0.87257933  1
  Si  Si10  1  0.66666667  0.33333333  0.79408733  1
  Si  Si11  1  0.00000000  0.00000000  0.96075400  1
  Mo  Mo12  1  0.00000000  0.00000000  0.15949200  1
  Mo  Mo13  1  0.33333333  0.66666667  0.00717467  1
  Mo  Mo14  1  0.66666667  0.33333333  0.17384133  1
  Mo  Mo15  1  0.33333333  0.66666667  0.32615867  1
  Mo  Mo16  1  0.66666667  0.33333333  0.49282533  1
  Mo  Mo17  1  0.00000000  0.00000000  0.34050800  1
  Mo  Mo18  1  0.33333333  0.66666667  0.50717467  1
  Mo  Mo19  1  0.00000000  0.00000000  0.65949200  1
  Mo  Mo20  1  0.33333333  0.66666667  0.82615867  1
  Mo  Mo21  1  0.66666667  0.33333333  0.67384133  1
  Mo  Mo22  1  0.00000000  0.00000000  0.84050800  1
  Mo  Mo23  1  0.66666667  0.33333333  0.99282533  1
  P  P24  1  0.36930100  0.03052500  0.11931200  1
  P  P25  1  0.99455733  0.69719167  0.28597867  1
  P  P26  1  0.96947500  0.33877600  0.11931200  1
  P  P27  1  0.36385833  0.03596767  0.04735467  1
  P  P28  1  0.67210933  0.63614167  0.04735467  1
  P  P29  1  0.96403233  0.32789067  0.04735467  1
  P  P30  1  0.66122400  0.63069900  0.11931200  1
  P  P31  1  0.30280833  0.29736567  0.28597867  1
  P  P32  1  0.00544267  0.70263433  0.21402133  1
  P  P33  1  0.29736567  0.30280833  0.21402133  1
  P  P34  1  0.69719167  0.99455733  0.21402133  1
  P  P35  1  0.70263433  0.00544267  0.28597867  1
  P  P36  1  0.03596767  0.36385833  0.45264533  1
  P  P37  1  0.66122400  0.03052500  0.61931200  1
  P  P38  1  0.63614167  0.67210933  0.45264533  1
  P  P39  1  0.03052500  0.36930100  0.38068800  1
  P  P40  1  0.33877600  0.96947500  0.38068800  1
  P  P41  1  0.63069900  0.66122400  0.38068800  1
  P  P42  1  0.32789067  0.96403233  0.45264533  1
  P  P43  1  0.96947500  0.63069900  0.61931200  1
  P  P44  1  0.67210933  0.03596767  0.54735467  1
  P  P45  1  0.96403233  0.63614167  0.54735467  1
  P  P46  1  0.36385833  0.32789067  0.54735467  1
  P  P47  1  0.36930100  0.33877600  0.61931200  1
  P  P48  1  0.70263433  0.69719167  0.78597867  1
  P  P49  1  0.32789067  0.36385833  0.95264533  1
  P  P50  1  0.30280833  0.00544267  0.78597867  1
  P  P51  1  0.69719167  0.70263433  0.71402133  1
  P  P52  1  0.00544267  0.30280833  0.71402133  1
  P  P53  1  0.29736567  0.99455733  0.71402133  1
  P  P54  1  0.99455733  0.29736567  0.78597867  1
  P  P55  1  0.63614167  0.96403233  0.95264533  1
  P  P56  1  0.33877600  0.36930100  0.88068800  1
  P  P57  1  0.63069900  0.96947500  0.88068800  1
  P  P58  1  0.03052500  0.66122400  0.88068800  1
  P  P59  1  0.03596767  0.67210933  0.95264533  1
  O  O60  1  0.26721833  0.44632567  0.29385467  1
  O  O61  1  0.57648400  0.47359600  0.14248900  1
  O  O62  1  0.93388500  0.15422600  0.12718800  1
  O  O63  1  0.09018267  0.85973733  0.19084433  1
  O  O64  1  0.29401867  0.82207933  0.11396033  1
  O  O65  1  0.73278167  0.17910733  0.20614533  1
  O  O66  1  0.44632567  0.26721833  0.20614533  1
  O  O67  1  0.39944833  0.88700767  0.03947867  1
  O  O68  1  0.52640400  0.10288800  0.14248900  1
  O  O69  1  0.77788800  0.00000000  0.25000000  1
  O  O70  1  0.03931467  0.19472733  0.05270633  1
  O  O71  1  0.88877867  0.33333333  0.08333333  1
  O  O72  1  0.55367433  0.82089267  0.29385467  1
  O  O73  1  0.17910733  0.73278167  0.29385467  1
  O  O74  1  0.37264800  0.51125400  0.21937300  1
  O  O75  1  0.22034100  0.06611500  0.12718800  1
  O  O76  1  0.86139400  0.48874600  0.28062700  1
  O  O77  1  0.48874600  0.86139400  0.21937300  1
  O  O78  1  0.85973733  0.09018267  0.30915567  1
  O  O79  1  0.80692933  0.24315067  0.02417767  1
  O  O80  1  0.89711200  0.42351600  0.14248900  1
  O  O81  1  0.44455467  0.11122133  0.08333333  1
  O  O82  1  0.51125400  0.37264800  0.28062700  1
  O  O83  1  0.14026267  0.23044533  0.19084433  1
  O  O84  1  0.11299233  0.51244067  0.03947867  1
  O  O85  1  0.23044533  0.14026267  0.30915567  1
  O  O86  1  0.84577400  0.77965900  0.12718800  1
  O  O87  1  0.00000000  0.77788800  0.25000000  1
  O  O88  1  0.13860600  0.62735200  0.21937300  1
  O  O89  1  0.76955467  0.90981733  0.19084433  1
  O  O90  1  0.43622133  0.19307067  0.02417767  1
  O  O91  1  0.22211200  0.22211200  0.25000000  1
  O  O92  1  0.75684933  0.56377867  0.02417767  1
  O  O93  1  0.66666667  0.55544533  0.08333333  1
  O  O94  1  0.00000000  0.00000000  0.00000000  1
  O  O95  1  0.90981733  0.76955467  0.30915567  1
  O  O96  1  0.52806067  0.70598133  0.11396033  1
  O  O97  1  0.62735200  0.13860600  0.28062700  1
  O  O98  1  0.17792067  0.47193933  0.11396033  1
  O  O99  1  0.15541267  0.96068533  0.05270633  1
  O  O100  1  0.80527267  0.84458733  0.05270633  1
  O  O101  1  0.33333333  0.66666667  0.16666667  1
  O  O102  1  0.82089267  0.55367433  0.20614533  1
  O  O103  1  0.48755933  0.60055167  0.03947867  1
  O  O104  1  0.93388500  0.77965900  0.62718800  1
  O  O105  1  0.24315067  0.80692933  0.47582233  1
  O  O106  1  0.60055167  0.48755933  0.46052133  1
  O  O107  1  0.75684933  0.19307067  0.52417767  1
  O  O108  1  0.96068533  0.15541267  0.44729367  1
  O  O109  1  0.39944833  0.51244067  0.53947867  1
  O  O110  1  0.11299233  0.60055167  0.53947867  1
  O  O111  1  0.06611500  0.22034100  0.37281200  1
  O  O112  1  0.19307067  0.43622133  0.47582233  1
  O  O113  1  0.44455467  0.33333333  0.58333333  1
  O  O114  1  0.70598133  0.52806067  0.38603967  1
  O  O115  1  0.55544533  0.66666667  0.41666667  1
  O  O116  1  0.22034100  0.15422600  0.62718800  1
  O  O117  1  0.84577400  0.06611500  0.62718800  1
  O  O118  1  0.03931467  0.84458733  0.55270633  1
  O  O119  1  0.88700767  0.39944833  0.46052133  1
  O  O120  1  0.52806067  0.82207933  0.61396033  1
  O  O121  1  0.15541267  0.19472733  0.55270633  1
  O  O122  1  0.52640400  0.42351600  0.64248900  1
  O  O123  1  0.47359600  0.57648400  0.35751100  1
  O  O124  1  0.56377867  0.75684933  0.47582233  1
  O  O125  1  0.11122133  0.44455467  0.41666667  1
  O  O126  1  0.17792067  0.70598133  0.61396033  1
  O  O127  1  0.80692933  0.56377867  0.52417767  1
  O  O128  1  0.77965900  0.84577400  0.37281200  1
  O  O129  1  0.89711200  0.47359600  0.64248900  1
  O  O130  1  0.51244067  0.11299233  0.46052133  1
  O  O131  1  0.66666667  0.11122133  0.58333333  1
  O  O132  1  0.80527267  0.96068533  0.55270633  1
  O  O133  1  0.43622133  0.24315067  0.52417767  1
  O  O134  1  0.10288800  0.52640400  0.35751100  1
  O  O135  1  0.88877867  0.55544533  0.58333333  1
  O  O136  1  0.42351600  0.89711200  0.35751100  1
  O  O137  1  0.33333333  0.88877867  0.41666667  1
  O  O138  1  0.66666667  0.33333333  0.33333333  1
  O  O139  1  0.57648400  0.10288800  0.64248900  1
  O  O140  1  0.19472733  0.03931467  0.44729367  1
  O  O141  1  0.29401867  0.47193933  0.61396033  1
  O  O142  1  0.84458733  0.80527267  0.44729367  1
  O  O143  1  0.82207933  0.29401867  0.38603967  1
  O  O144  1  0.47193933  0.17792067  0.38603967  1
  O  O145  1  0.00000000  0.00000000  0.50000000  1
  O  O146  1  0.48755933  0.88700767  0.53947867  1
  O  O147  1  0.15422600  0.93388500  0.37281200  1
  O  O148  1  0.60055167  0.11299233  0.96052133  1
  O  O149  1  0.90981733  0.14026267  0.80915567  1
  O  O150  1  0.26721833  0.82089267  0.79385467  1
  O  O151  1  0.42351600  0.52640400  0.85751100  1
  O  O152  1  0.62735200  0.48874600  0.78062700  1
  O  O153  1  0.06611500  0.84577400  0.87281200  1
  O  O154  1  0.77965900  0.93388500  0.87281200  1
  O  O155  1  0.73278167  0.55367433  0.70614533  1
  O  O156  1  0.85973733  0.76955467  0.80915567  1
  O  O157  1  0.11122133  0.66666667  0.91666667  1
  O  O158  1  0.37264800  0.86139400  0.71937300  1
  O  O159  1  0.22211200  0.00000000  0.75000000  1
  O  O160  1  0.88700767  0.48755933  0.96052133  1
  O  O161  1  0.51244067  0.39944833  0.96052133  1
  O  O162  1  0.70598133  0.17792067  0.88603967  1
  O  O163  1  0.55367433  0.73278167  0.79385467  1
  O  O164  1  0.19472733  0.15541267  0.94729367  1
  O  O165  1  0.82207933  0.52806067  0.88603967  1
  O  O166  1  0.19307067  0.75684933  0.97582233  1
  O  O167  1  0.14026267  0.90981733  0.69084433  1
  O  O168  1  0.23044533  0.09018267  0.80915567  1
  O  O169  1  0.77788800  0.77788800  0.75000000  1
  O  O170  1  0.84458733  0.03931467  0.94729367  1
  O  O171  1  0.47359600  0.89711200  0.85751100  1
  O  O172  1  0.44632567  0.17910733  0.70614533  1
  O  O173  1  0.56377867  0.80692933  0.97582233  1
  O  O174  1  0.17910733  0.44632567  0.79385467  1
  O  O175  1  0.33333333  0.44455467  0.91666667  1
  O  O176  1  0.47193933  0.29401867  0.88603967  1
  O  O177  1  0.10288800  0.57648400  0.85751100  1
  O  O178  1  0.76955467  0.85973733  0.69084433  1
  O  O179  1  0.55544533  0.88877867  0.91666667  1
  O  O180  1  0.09018267  0.23044533  0.69084433  1
  O  O181  1  0.00000000  0.22211200  0.75000000  1
  O  O182  1  0.33333333  0.66666667  0.66666667  1
  O  O183  1  0.24315067  0.43622133  0.97582233  1
  O  O184  1  0.86139400  0.37264800  0.78062700  1
  O  O185  1  0.96068533  0.80527267  0.94729367  1
  O  O186  1  0.51125400  0.13860600  0.78062700  1
  O  O187  1  0.48874600  0.62735200  0.71937300  1
  O  O188  1  0.13860600  0.51125400  0.71937300  1
  O  O189  1  0.66666667  0.33333333  0.83333333  1
  O  O190  1  0.15422600  0.22034100  0.87281200  1
  O  O191  1  0.82089267  0.26721833  0.70614533  1
