# generated using pymatgen
data_CrI2
_symmetry_space_group_name_H-M   'P 1'
_cell_length_a   3.95116200
_cell_length_b   8.04186600
_cell_length_c   14.65747200
_cell_angle_alpha   90.00000000
_cell_angle_beta   90.00000000
_cell_angle_gamma   90.00000000
_symmetry_Int_Tables_number   1
_chemical_formula_structural   CrI2
_chemical_formula_sum   'Cr4 I8'
_cell_volume   465.73700053
_cell_formula_units_Z   4
loop_
 _symmetry_equiv_pos_site_id
 _symmetry_equiv_pos_as_xyz
  1  'x, y, z'
loop_
 _atom_site_type_symbol
 _atom_site_label
 _atom_site_symmetry_multiplicity
 _atom_site_fract_x
 _atom_site_fract_y
 _atom_site_fract_z
 _atom_site_occupancy
  Cr  Cr0  1  0.00000000  0.20465300  0.12358600  1
  Cr  Cr1  1  0.50000000  0.29534700  0.62358600  1
  Cr  Cr2  1  0.50000000  0.70465300  0.12358600  1
  Cr  Cr3  1  0.00000000  0.79534700  0.62358600  1
  I  I4  1  0.50000000  0.29109900  0.24340800  1
  I  I5  1  0.00000000  0.20890100  0.74340800  1
  I  I6  1  0.00000000  0.41319500  0.51200600  1
  I  I7  1  0.50000000  0.08680500  0.01200600  1
  I  I8  1  0.00000000  0.79109900  0.24340800  1
  I  I9  1  0.50000000  0.70890100  0.74340800  1
  I  I10  1  0.50000000  0.91319500  0.51200600  1
  I  I11  1  0.00000000  0.58680500  0.01200600  1
