# generated using pymatgen
data_VCuO4
_symmetry_space_group_name_H-M   'P 1'
_cell_length_a   5.67290000
_cell_length_b   6.21540200
_cell_length_c   8.04217600
_cell_angle_alpha   90.00000000
_cell_angle_beta   90.00000000
_cell_angle_gamma   90.00000000
_symmetry_Int_Tables_number   1
_chemical_formula_structural   VCuO4
_chemical_formula_sum   'V4 Cu4 O16'
_cell_volume   283.56193056
_cell_formula_units_Z   4
loop_
 _symmetry_equiv_pos_site_id
 _symmetry_equiv_pos_as_xyz
  1  'x, y, z'
loop_
 _atom_site_type_symbol
 _atom_site_label
 _atom_site_symmetry_multiplicity
 _atom_site_fract_x
 _atom_site_fract_y
 _atom_site_fract_z
 _atom_site_occupancy
  V  V0  1  0.50000000  0.75000000  0.28265000  1
  V  V1  1  0.50000000  0.25000000  0.71735000  1
  V  V2  1  0.00000000  0.25000000  0.78265000  1
  V  V3  1  0.00000000  0.75000000  0.21735000  1
  Cu  Cu4  1  0.25000000  0.25000000  0.25000000  1
  Cu  Cu5  1  0.75000000  0.25000000  0.25000000  1
  Cu  Cu6  1  0.75000000  0.75000000  0.75000000  1
  Cu  Cu7  1  0.25000000  0.75000000  0.75000000  1
  O  O8  1  0.00000000  0.05842700  0.27028900  1
  O  O9  1  0.25772550  0.25000000  0.59110350  1
  O  O10  1  0.74227450  0.75000000  0.40889650  1
  O  O11  1  0.25772550  0.75000000  0.40889650  1
  O  O12  1  0.50000000  0.05842700  0.22971100  1
  O  O13  1  0.00000000  0.94157300  0.72971100  1
  O  O14  1  0.74227450  0.25000000  0.59110350  1
  O  O15  1  0.50000000  0.94157300  0.77028900  1
  O  O16  1  0.50000000  0.55842700  0.77028900  1
  O  O17  1  0.75772550  0.75000000  0.09110350  1
  O  O18  1  0.24227450  0.25000000  0.90889650  1
  O  O19  1  0.75772550  0.25000000  0.90889650  1
  O  O20  1  0.00000000  0.55842700  0.72971100  1
  O  O21  1  0.50000000  0.44157300  0.22971100  1
  O  O22  1  0.24227450  0.75000000  0.09110350  1
  O  O23  1  0.00000000  0.44157300  0.27028900  1
