# generated using pymatgen
data_Li2Cr(PO4)2
_symmetry_space_group_name_H-M   'P 1'
_cell_length_a   9.01013400
_cell_length_b   4.63710800
_cell_length_c   13.78452935
_cell_angle_alpha   90.00000000
_cell_angle_beta   96.32947474
_cell_angle_gamma   90.00000000
_symmetry_Int_Tables_number   1
_chemical_formula_structural   Li2Cr(PO4)2
_chemical_formula_sum   'Li8 Cr4 P8 O32'
_cell_volume   572.42027060
_cell_formula_units_Z   4
loop_
 _symmetry_equiv_pos_site_id
 _symmetry_equiv_pos_as_xyz
  1  'x, y, z'
loop_
 _atom_site_type_symbol
 _atom_site_label
 _atom_site_symmetry_multiplicity
 _atom_site_fract_x
 _atom_site_fract_y
 _atom_site_fract_z
 _atom_site_occupancy
  Li  Li0  1  0.98657900  0.06680000  0.26427600  1
  Li  Li1  1  0.66364100  0.03784300  0.15979900  1
  Li  Li2  1  0.66364100  0.96215700  0.65979900  1
  Li  Li3  1  0.98657900  0.93320000  0.76427600  1
  Li  Li4  1  0.48657900  0.56680000  0.26427600  1
  Li  Li5  1  0.16364100  0.53784300  0.15979900  1
  Li  Li6  1  0.16364100  0.46215700  0.65979900  1
  Li  Li7  1  0.48657900  0.43320000  0.76427600  1
  Cr  Cr8  1  0.50425550  0.49579750  0.49594700  1
  Cr  Cr9  1  0.50425550  0.50420250  0.99594700  1
  Cr  Cr10  1  0.00425550  0.99579750  0.49594700  1
  Cr  Cr11  1  0.00425550  0.00420250  0.99594700  1
  P  P12  1  0.83907600  0.51551100  0.11047500  1
  P  P13  1  0.66510200  0.97631600  0.88485900  1
  P  P14  1  0.83907600  0.48448900  0.61047500  1
  P  P15  1  0.66510200  0.02368400  0.38485900  1
  P  P16  1  0.33907600  0.01551100  0.11047500  1
  P  P17  1  0.16510200  0.47631600  0.88485900  1
  P  P18  1  0.33907600  0.98448900  0.61047500  1
  P  P19  1  0.16510200  0.52368400  0.38485900  1
  O  O20  1  0.68331850  0.34565850  0.57898700  1
  O  O21  1  0.56361550  0.30156150  0.38124200  1
  O  O22  1  0.95532450  0.23079650  0.62344500  1
  O  O23  1  0.82972000  0.32429000  0.19885300  1
  O  O24  1  0.89142050  0.32352150  0.02733300  1
  O  O25  1  0.56361550  0.69843850  0.88124200  1
  O  O26  1  0.68331850  0.65434150  0.07898700  1
  O  O27  1  0.82800900  0.12454300  0.41288100  1
  O  O28  1  0.82972000  0.67571000  0.69885300  1
  O  O29  1  0.61488100  0.17016000  0.96875600  1
  O  O30  1  0.95532450  0.76920350  0.12344500  1
  O  O31  1  0.61488100  0.82984000  0.46875600  1
  O  O32  1  0.82800900  0.87545700  0.91288100  1
  O  O33  1  0.64277250  0.87352750  0.28673900  1
  O  O34  1  0.64277250  0.12647250  0.78673900  1
  O  O35  1  0.89142050  0.67647850  0.52733300  1
  O  O36  1  0.18331850  0.84565850  0.57898700  1
  O  O37  1  0.06361550  0.80156150  0.38124200  1
  O  O38  1  0.45532450  0.73079650  0.62344500  1
  O  O39  1  0.32972000  0.82429000  0.19885300  1
  O  O40  1  0.39142050  0.82352150  0.02733300  1
  O  O41  1  0.06361550  0.19843850  0.88124200  1
  O  O42  1  0.18331850  0.15434150  0.07898700  1
  O  O43  1  0.32800900  0.62454300  0.41288100  1
  O  O44  1  0.32972000  0.17571000  0.69885300  1
  O  O45  1  0.11488100  0.67016000  0.96875600  1
  O  O46  1  0.45532450  0.26920350  0.12344500  1
  O  O47  1  0.11488100  0.32984000  0.46875600  1
  O  O48  1  0.32800900  0.37545700  0.91288100  1
  O  O49  1  0.14277250  0.37352750  0.28673900  1
  O  O50  1  0.14277250  0.62647250  0.78673900  1
  O  O51  1  0.39142050  0.17647850  0.52733300  1
