# generated using pymatgen
data_CuMoO4
_symmetry_space_group_name_H-M   'P 1'
_cell_length_a   8.34805208
_cell_length_b   9.56229500
_cell_length_c   10.29567320
_cell_angle_alpha   90.00000000
_cell_angle_beta   124.51981848
_cell_angle_gamma   90.00000000
_symmetry_Int_Tables_number   1
_chemical_formula_structural   CuMoO4
_chemical_formula_sum   'Cu8 Mo8 O32'
_cell_volume   677.16182820
_cell_formula_units_Z   8
loop_
 _symmetry_equiv_pos_site_id
 _symmetry_equiv_pos_as_xyz
  1  'x, y, z'
loop_
 _atom_site_type_symbol
 _atom_site_label
 _atom_site_symmetry_multiplicity
 _atom_site_fract_x
 _atom_site_fract_y
 _atom_site_fract_z
 _atom_site_occupancy
  Cu  Cu0  1  0.58538400  0.00739300  0.26300100  1
  Cu  Cu1  1  0.01652000  0.49827600  0.17858900  1
  Cu  Cu2  1  0.41461600  0.50739300  0.23699900  1
  Cu  Cu3  1  0.41461600  0.99260700  0.73699900  1
  Cu  Cu4  1  0.58538400  0.49260700  0.76300100  1
  Cu  Cu5  1  0.01652000  0.00172400  0.67858900  1
  Cu  Cu6  1  0.98348000  0.50172400  0.82141100  1
  Cu  Cu7  1  0.98348000  0.99827600  0.32141100  1
  Mo  Mo8  1  0.36165400  0.27147500  0.90793300  1
  Mo  Mo9  1  0.36165400  0.22852500  0.40793300  1
  Mo  Mo10  1  0.63834600  0.77147500  0.59206700  1
  Mo  Mo11  1  0.84253700  0.31054000  0.38001600  1
  Mo  Mo12  1  0.63834600  0.72852500  0.09206700  1
  Mo  Mo13  1  0.15746300  0.81054000  0.11998400  1
  Mo  Mo14  1  0.84253700  0.18946000  0.88001600  1
  Mo  Mo15  1  0.15746300  0.68946000  0.61998400  1
  O  O16  1  0.10995400  0.88015100  0.25727700  1
  O  O17  1  0.89004600  0.38015100  0.24272300  1
  O  O18  1  0.47316300  0.10701600  0.35169100  1
  O  O19  1  0.89004600  0.11984900  0.74272300  1
  O  O20  1  0.46284700  0.71723000  0.39821200  1
  O  O21  1  0.83527200  0.10981800  0.38370700  1
  O  O22  1  0.74043700  0.60751900  0.71521400  1
  O  O23  1  0.16472800  0.60981800  0.11629300  1
  O  O24  1  0.63733000  0.39093700  0.36757400  1
  O  O25  1  0.16472800  0.89018200  0.61629300  1
  O  O26  1  0.25956300  0.39248100  0.28478600  1
  O  O27  1  0.10995400  0.61984900  0.75727700  1
  O  O28  1  0.52683700  0.89298400  0.64830900  1
  O  O29  1  0.04025500  0.14877500  0.06863500  1
  O  O30  1  0.46284700  0.78277000  0.89821200  1
  O  O31  1  0.81898500  0.86056200  0.57949300  1
  O  O32  1  0.18101500  0.36056200  0.92050700  1
  O  O33  1  0.95974500  0.85122500  0.93136500  1
  O  O34  1  0.18101500  0.13943800  0.42050700  1
  O  O35  1  0.47316300  0.39298400  0.85169100  1
  O  O36  1  0.53715300  0.28277000  0.60178800  1
  O  O37  1  0.74043700  0.89248100  0.21521400  1
  O  O38  1  0.95974500  0.64877500  0.43136500  1
  O  O39  1  0.63733000  0.10906300  0.86757400  1
  O  O40  1  0.36267000  0.60906300  0.63242600  1
  O  O41  1  0.52683700  0.60701600  0.14830900  1
  O  O42  1  0.04025500  0.35122500  0.56863500  1
  O  O43  1  0.53715300  0.21723000  0.10178800  1
  O  O44  1  0.81898500  0.63943800  0.07949300  1
  O  O45  1  0.83527200  0.39018200  0.88370700  1
  O  O46  1  0.25956300  0.10751900  0.78478600  1
  O  O47  1  0.36267000  0.89093700  0.13242600  1
