# generated using pymatgen
data_Cs3Bi2
_symmetry_space_group_name_H-M   'P 1'
_cell_length_a   10.25735200
_cell_length_b   10.59873200
_cell_length_c   10.31727151
_cell_angle_alpha   90.00000000
_cell_angle_beta   104.38964502
_cell_angle_gamma   90.00000000
_symmetry_Int_Tables_number   1
_chemical_formula_structural   Cs3Bi2
_chemical_formula_sum   'Cs12 Bi8'
_cell_volume   1086.45336454
_cell_formula_units_Z   4
loop_
 _symmetry_equiv_pos_site_id
 _symmetry_equiv_pos_as_xyz
  1  'x, y, z'
loop_
 _atom_site_type_symbol
 _atom_site_label
 _atom_site_symmetry_multiplicity
 _atom_site_fract_x
 _atom_site_fract_y
 _atom_site_fract_z
 _atom_site_occupancy
  Cs  Cs0  1  0.50000000  0.66020300  0.25000000  1
  Cs  Cs1  1  0.71128600  0.95219500  0.98461100  1
  Cs  Cs2  1  0.50000000  0.33979700  0.75000000  1
  Cs  Cs3  1  0.71128600  0.04780500  0.48461100  1
  Cs  Cs4  1  0.28871400  0.95219500  0.51538900  1
  Cs  Cs5  1  0.28871400  0.04780500  0.01538900  1
  Cs  Cs6  1  0.00000000  0.16020300  0.25000000  1
  Cs  Cs7  1  0.21128600  0.45219500  0.98461100  1
  Cs  Cs8  1  0.00000000  0.83979700  0.75000000  1
  Cs  Cs9  1  0.21128600  0.54780500  0.48461100  1
  Cs  Cs10  1  0.78871400  0.45219500  0.51538900  1
  Cs  Cs11  1  0.78871400  0.54780500  0.01538900  1
  Bi  Bi12  1  0.40515400  0.28276600  0.33915200  1
  Bi  Bi13  1  0.59484600  0.71723400  0.66084800  1
  Bi  Bi14  1  0.40515400  0.71723400  0.83915200  1
  Bi  Bi15  1  0.59484600  0.28276600  0.16084800  1
  Bi  Bi16  1  0.90515400  0.78276600  0.33915200  1
  Bi  Bi17  1  0.09484600  0.21723400  0.66084800  1
  Bi  Bi18  1  0.90515400  0.21723400  0.83915200  1
  Bi  Bi19  1  0.09484600  0.78276600  0.16084800  1
