# generated using pymatgen
data_CeAlCo
_symmetry_space_group_name_H-M   'P 1'
_cell_length_a   11.08017000
_cell_length_b   4.43275800
_cell_length_c   4.73843131
_cell_angle_alpha   90.00000000
_cell_angle_beta   105.66925935
_cell_angle_gamma   90.00000000
_symmetry_Int_Tables_number   1
_chemical_formula_structural   CeAlCo
_chemical_formula_sum   'Ce4 Al4 Co4'
_cell_volume   224.08238198
_cell_formula_units_Z   4
loop_
 _symmetry_equiv_pos_site_id
 _symmetry_equiv_pos_as_xyz
  1  'x, y, z'
loop_
 _atom_site_type_symbol
 _atom_site_label
 _atom_site_symmetry_multiplicity
 _atom_site_fract_x
 _atom_site_fract_y
 _atom_site_fract_z
 _atom_site_occupancy
  Ce  Ce0  1  0.36917000  0.50000000  0.67082900  1
  Ce  Ce1  1  0.13083000  0.00000000  0.32917100  1
  Ce  Ce2  1  0.86917000  0.00000000  0.67082900  1
  Ce  Ce3  1  0.63083000  0.50000000  0.32917100  1
  Al  Al4  1  0.08630700  0.50000000  0.81317500  1
  Al  Al5  1  0.41369300  0.00000000  0.18682500  1
  Al  Al6  1  0.58630700  0.00000000  0.81317500  1
  Al  Al7  1  0.91369300  0.50000000  0.18682500  1
  Co  Co8  1  0.19030300  0.00000000  0.84867800  1
  Co  Co9  1  0.30969700  0.50000000  0.15132200  1
  Co  Co10  1  0.69030300  0.50000000  0.84867800  1
  Co  Co11  1  0.80969700  0.00000000  0.15132200  1
