# generated using pymatgen
data_FeF3
_symmetry_space_group_name_H-M   'P 1'
_cell_length_a   5.29711570
_cell_length_b   5.29711570
_cell_length_c   13.57243435
_cell_angle_alpha   90.00000000
_cell_angle_beta   90.00000000
_cell_angle_gamma   120.00000000
_symmetry_Int_Tables_number   1
_chemical_formula_structural   FeF3
_chemical_formula_sum   'Fe6 F18'
_cell_volume   329.81264229
_cell_formula_units_Z   6
loop_
 _symmetry_equiv_pos_site_id
 _symmetry_equiv_pos_as_xyz
  1  'x, y, z'
loop_
 _atom_site_type_symbol
 _atom_site_label
 _atom_site_symmetry_multiplicity
 _atom_site_fract_x
 _atom_site_fract_y
 _atom_site_fract_z
 _atom_site_occupancy
  Fe  Fe0  1  0.33333333  0.66666667  0.16666667  1
  Fe  Fe1  1  0.00000000  0.00000000  0.00000000  1
  Fe  Fe2  1  1.00000000  0.00000000  0.50000000  1
  Fe  Fe3  1  0.66666667  0.33333333  0.33333333  1
  Fe  Fe4  1  0.66666667  0.33333333  0.83333333  1
  Fe  Fe5  1  0.33333333  0.66666667  0.66666667  1
  F  F6  1  0.00000000  0.41238300  0.25000000  1
  F  F7  1  0.58761700  0.58761700  0.25000000  1
  F  F8  1  0.41238300  0.00000000  0.25000000  1
  F  F9  1  0.66666667  0.92095033  0.08333333  1
  F  F10  1  0.07904967  0.74571633  0.08333333  1
  F  F11  1  0.25428367  0.33333333  0.08333333  1
  F  F12  1  0.66666667  0.74571633  0.58333333  1
  F  F13  1  0.25428367  0.92095033  0.58333333  1
  F  F14  1  0.07904967  0.33333333  0.58333333  1
  F  F15  1  0.33333333  0.25428367  0.41666667  1
  F  F16  1  0.74571633  0.07904967  0.41666667  1
  F  F17  1  0.92095033  0.66666667  0.41666667  1
  F  F18  1  0.33333333  0.07904967  0.91666667  1
  F  F19  1  0.92095033  0.25428367  0.91666667  1
  F  F20  1  0.74571633  0.66666667  0.91666667  1
  F  F21  1  0.00000000  0.58761700  0.75000000  1
  F  F22  1  0.41238300  0.41238300  0.75000000  1
  F  F23  1  0.58761700  0.00000000  0.75000000  1
