# generated using pymatgen
data_TlV5Se8
_symmetry_space_group_name_H-M   'P 1'
_cell_length_a   18.30859600
_cell_length_b   3.48443600
_cell_length_c   9.24011911
_cell_angle_alpha   90.00000000
_cell_angle_beta   103.24605735
_cell_angle_gamma   90.00000000
_symmetry_Int_Tables_number   1
_chemical_formula_structural   TlV5Se8
_chemical_formula_sum   'Tl2 V10 Se16'
_cell_volume   573.79165373
_cell_formula_units_Z   2
loop_
 _symmetry_equiv_pos_site_id
 _symmetry_equiv_pos_as_xyz
  1  'x, y, z'
loop_
 _atom_site_type_symbol
 _atom_site_label
 _atom_site_symmetry_multiplicity
 _atom_site_fract_x
 _atom_site_fract_y
 _atom_site_fract_z
 _atom_site_occupancy
  Tl  Tl0  1  0.00000000  0.00000000  0.00000000  1
  Tl  Tl1  1  0.50000000  0.50000000  0.00000000  1
  V  V2  1  0.64520000  0.50000000  0.49700600  1
  V  V3  1  0.79289800  0.00000000  0.16605800  1
  V  V4  1  0.70710200  0.50000000  0.83394200  1
  V  V5  1  0.00000000  0.50000000  0.50000000  1
  V  V6  1  0.85480000  0.00000000  0.50299400  1
  V  V7  1  0.14520000  0.00000000  0.49700600  1
  V  V8  1  0.29289800  0.50000000  0.16605800  1
  V  V9  1  0.20710200  0.00000000  0.83394200  1
  V  V10  1  0.50000000  0.00000000  0.50000000  1
  V  V11  1  0.35480000  0.50000000  0.50299400  1
  Se  Se12  1  0.66428300  0.00000000  0.99589700  1
  Se  Se13  1  0.75959400  0.50000000  0.35044200  1
  Se  Se14  1  0.56960800  0.50000000  0.68028800  1
  Se  Se15  1  0.74040600  0.00000000  0.64955800  1
  Se  Se16  1  0.93039200  0.00000000  0.31971200  1
  Se  Se17  1  0.58671700  0.00000000  0.32003300  1
  Se  Se18  1  0.83571700  0.50000000  0.00410300  1
  Se  Se19  1  0.91328300  0.50000000  0.67996700  1
  Se  Se20  1  0.16428300  0.50000000  0.99589700  1
  Se  Se21  1  0.25959400  0.00000000  0.35044200  1
  Se  Se22  1  0.06960800  0.00000000  0.68028800  1
  Se  Se23  1  0.24040600  0.50000000  0.64955800  1
  Se  Se24  1  0.43039200  0.50000000  0.31971200  1
  Se  Se25  1  0.08671700  0.50000000  0.32003300  1
  Se  Se26  1  0.33571700  0.00000000  0.00410300  1
  Se  Se27  1  0.41328300  0.00000000  0.67996700  1
