# generated using pymatgen
data_NaLaMgWO6
_symmetry_space_group_name_H-M   'P 1'
_cell_length_a   7.88395600
_cell_length_b   7.96910200
_cell_length_c   7.95843320
_cell_angle_alpha   90.00000000
_cell_angle_beta   90.06551437
_cell_angle_gamma   90.00000000
_symmetry_Int_Tables_number   1
_chemical_formula_structural   NaLaMgWO6
_chemical_formula_sum   'Na4 La4 Mg4 W4 O24'
_cell_volume   500.01250855
_cell_formula_units_Z   4
loop_
 _symmetry_equiv_pos_site_id
 _symmetry_equiv_pos_as_xyz
  1  'x, y, z'
loop_
 _atom_site_type_symbol
 _atom_site_label
 _atom_site_symmetry_multiplicity
 _atom_site_fract_x
 _atom_site_fract_y
 _atom_site_fract_z
 _atom_site_occupancy
  Na  Na0  1  0.50000000  0.25306700  0.50000000  1
  Na  Na1  1  0.50000000  0.74693300  0.50000000  1
  Na  Na2  1  0.00000000  0.75306700  0.50000000  1
  Na  Na3  1  0.00000000  0.24693300  0.50000000  1
  La  La4  1  0.50000000  0.74619900  0.00000000  1
  La  La5  1  0.50000000  0.25380100  0.00000000  1
  La  La6  1  0.00000000  0.24619900  0.00000000  1
  La  La7  1  0.00000000  0.75380100  0.00000000  1
  Mg  Mg8  1  0.74810600  0.00000000  0.74383000  1
  Mg  Mg9  1  0.25189400  0.00000000  0.25617000  1
  Mg  Mg10  1  0.24810600  0.50000000  0.74383000  1
  Mg  Mg11  1  0.75189400  0.50000000  0.25617000  1
  W  W12  1  0.24840400  0.00000000  0.73810800  1
  W  W13  1  0.75159600  0.00000000  0.26189200  1
  W  W14  1  0.74840400  0.50000000  0.73810800  1
  W  W15  1  0.25159600  0.50000000  0.26189200  1
  O  O16  1  0.30229500  0.00000000  0.51026600  1
  O  O17  1  0.50927000  0.00000000  0.18799700  1
  O  O18  1  0.25138450  0.75778950  0.77112700  1
  O  O19  1  0.00882700  0.00000000  0.70650000  1
  O  O20  1  0.80682800  0.00000000  0.00579700  1
  O  O21  1  0.99117300  0.00000000  0.29350000  1
  O  O22  1  0.19317200  0.00000000  0.99420300  1
  O  O23  1  0.25138450  0.24221050  0.77112700  1
  O  O24  1  0.69770500  0.00000000  0.48973400  1
  O  O25  1  0.74861550  0.24221050  0.22887300  1
  O  O26  1  0.74861550  0.75778950  0.22887300  1
  O  O27  1  0.49073000  0.00000000  0.81200300  1
  O  O28  1  0.80229500  0.50000000  0.51026600  1
  O  O29  1  0.00927000  0.50000000  0.18799700  1
  O  O30  1  0.75138450  0.25778950  0.77112700  1
  O  O31  1  0.50882700  0.50000000  0.70650000  1
  O  O32  1  0.30682800  0.50000000  0.00579700  1
  O  O33  1  0.49117300  0.50000000  0.29350000  1
  O  O34  1  0.69317200  0.50000000  0.99420300  1
  O  O35  1  0.75138450  0.74221050  0.77112700  1
  O  O36  1  0.19770500  0.50000000  0.48973400  1
  O  O37  1  0.24861550  0.74221050  0.22887300  1
  O  O38  1  0.24861550  0.25778950  0.22887300  1
  O  O39  1  0.99073000  0.50000000  0.81200300  1
