# generated using pymatgen
data_ErGe3
_symmetry_space_group_name_H-M   'P 1'
_cell_length_a   4.02258600
_cell_length_b   20.75738800
_cell_length_c   3.93450200
_cell_angle_alpha   90.00000000
_cell_angle_beta   90.00000000
_cell_angle_gamma   90.00000000
_symmetry_Int_Tables_number   1
_chemical_formula_structural   ErGe3
_chemical_formula_sum   'Er4 Ge12'
_cell_volume   328.52453668
_cell_formula_units_Z   4
loop_
 _symmetry_equiv_pos_site_id
 _symmetry_equiv_pos_as_xyz
  1  'x, y, z'
loop_
 _atom_site_type_symbol
 _atom_site_label
 _atom_site_symmetry_multiplicity
 _atom_site_fract_x
 _atom_site_fract_y
 _atom_site_fract_z
 _atom_site_occupancy
  Er  Er0  1  0.50000000  0.08178800  0.75000000  1
  Er  Er1  1  0.00000000  0.41821200  0.25000000  1
  Er  Er2  1  0.00000000  0.58178800  0.75000000  1
  Er  Er3  1  0.50000000  0.91821200  0.25000000  1
  Ge  Ge4  1  0.00000000  0.18863700  0.75000000  1
  Ge  Ge5  1  0.50000000  0.31136300  0.25000000  1
  Ge  Ge6  1  0.00000000  0.04030300  0.25000000  1
  Ge  Ge7  1  0.50000000  0.45969700  0.75000000  1
  Ge  Ge8  1  0.50000000  0.19055200  0.25000000  1
  Ge  Ge9  1  0.00000000  0.30944800  0.75000000  1
  Ge  Ge10  1  0.50000000  0.68863700  0.75000000  1
  Ge  Ge11  1  0.00000000  0.81136300  0.25000000  1
  Ge  Ge12  1  0.50000000  0.54030300  0.25000000  1
  Ge  Ge13  1  0.00000000  0.95969700  0.75000000  1
  Ge  Ge14  1  0.00000000  0.69055200  0.25000000  1
  Ge  Ge15  1  0.50000000  0.80944800  0.75000000  1
