# generated using pymatgen
data_AuSe
_symmetry_space_group_name_H-M   'P 1'
_cell_length_a   12.58786800
_cell_length_b   3.79251600
_cell_length_c   8.83547273
_cell_angle_alpha   90.00000000
_cell_angle_beta   101.51297113
_cell_angle_gamma   90.00000000
_symmetry_Int_Tables_number   1
_chemical_formula_structural   AuSe
_chemical_formula_sum   'Au8 Se8'
_cell_volume   413.31587326
_cell_formula_units_Z   8
loop_
 _symmetry_equiv_pos_site_id
 _symmetry_equiv_pos_as_xyz
  1  'x, y, z'
loop_
 _atom_site_type_symbol
 _atom_site_label
 _atom_site_symmetry_multiplicity
 _atom_site_fract_x
 _atom_site_fract_y
 _atom_site_fract_z
 _atom_site_occupancy
  Au  Au0  1  0.96845800  0.00000000  0.71273200  1
  Au  Au1  1  0.53154200  0.50000000  0.28726800  1
  Au  Au2  1  0.64916300  0.00000000  0.01701700  1
  Au  Au3  1  0.85083700  0.50000000  0.98298300  1
  Au  Au4  1  0.46845800  0.50000000  0.71273200  1
  Au  Au5  1  0.03154200  0.00000000  0.28726800  1
  Au  Au6  1  0.14916300  0.50000000  0.01701700  1
  Au  Au7  1  0.35083700  0.00000000  0.98298300  1
  Se  Se8  1  0.60426300  0.00000000  0.73229500  1
  Se  Se9  1  0.83319200  0.50000000  0.69920000  1
  Se  Se10  1  0.66680800  0.00000000  0.30080000  1
  Se  Se11  1  0.89573700  0.50000000  0.26770500  1
  Se  Se12  1  0.10426300  0.50000000  0.73229500  1
  Se  Se13  1  0.33319200  0.00000000  0.69920000  1
  Se  Se14  1  0.16680800  0.50000000  0.30080000  1
  Se  Se15  1  0.39573700  0.00000000  0.26770500  1
