# generated using pymatgen
data_Y3(B3Os4)2
_symmetry_space_group_name_H-M   'P 1'
_cell_length_a   5.52517400
_cell_length_b   9.57928800
_cell_length_c   17.68253600
_cell_angle_alpha   90.00000000
_cell_angle_beta   90.00000000
_cell_angle_gamma   90.00000000
_symmetry_Int_Tables_number   1
_chemical_formula_structural   Y3(B3Os4)2
_chemical_formula_sum   'Y12 B24 Os32'
_cell_volume   935.88770283
_cell_formula_units_Z   4
loop_
 _symmetry_equiv_pos_site_id
 _symmetry_equiv_pos_as_xyz
  1  'x, y, z'
loop_
 _atom_site_type_symbol
 _atom_site_label
 _atom_site_symmetry_multiplicity
 _atom_site_fract_x
 _atom_site_fract_y
 _atom_site_fract_z
 _atom_site_occupancy
  Y  Y0  1  0.00000000  0.00000000  0.00000000  1
  Y  Y1  1  0.50000000  0.00000000  0.67970700  1
  Y  Y2  1  0.00000000  0.00000000  0.82029300  1
  Y  Y3  1  0.00000000  0.50000000  0.50000000  1
  Y  Y4  1  0.50000000  0.50000000  0.17970700  1
  Y  Y5  1  0.00000000  0.50000000  0.32029300  1
  Y  Y6  1  0.50000000  0.00000000  0.50000000  1
  Y  Y7  1  0.00000000  0.00000000  0.17970700  1
  Y  Y8  1  0.50000000  0.00000000  0.32029300  1
  Y  Y9  1  0.50000000  0.50000000  0.00000000  1
  Y  Y10  1  0.00000000  0.50000000  0.67970700  1
  Y  Y11  1  0.50000000  0.50000000  0.82029300  1
  B  B12  1  0.50000000  0.64873950  0.67520950  1
  B  B13  1  0.50000000  0.85126050  0.82479050  1
  B  B14  1  0.00000000  0.64873950  0.82479050  1
  B  B15  1  0.00000000  0.68197900  0.00000000  1
  B  B16  1  0.00000000  0.85126050  0.67520950  1
  B  B17  1  0.50000000  0.81802100  0.00000000  1
  B  B18  1  0.50000000  0.14873950  0.17520950  1
  B  B19  1  0.50000000  0.35126050  0.32479050  1
  B  B20  1  0.00000000  0.14873950  0.32479050  1
  B  B21  1  0.00000000  0.18197900  0.50000000  1
  B  B22  1  0.00000000  0.35126050  0.17520950  1
  B  B23  1  0.50000000  0.31802100  0.50000000  1
  B  B24  1  0.00000000  0.64873950  0.17520950  1
  B  B25  1  0.00000000  0.85126050  0.32479050  1
  B  B26  1  0.50000000  0.64873950  0.32479050  1
  B  B27  1  0.50000000  0.68197900  0.50000000  1
  B  B28  1  0.50000000  0.85126050  0.17520950  1
  B  B29  1  0.00000000  0.81802100  0.50000000  1
  B  B30  1  0.00000000  0.14873950  0.67520950  1
  B  B31  1  0.00000000  0.35126050  0.82479050  1
  B  B32  1  0.50000000  0.14873950  0.82479050  1
  B  B33  1  0.50000000  0.18197900  0.00000000  1
  B  B34  1  0.50000000  0.35126050  0.67520950  1
  B  B35  1  0.00000000  0.31802100  0.00000000  1
  Os  Os36  1  0.50000000  0.00000000  0.92025300  1
  Os  Os37  1  0.75000000  0.75000000  0.59027000  1
  Os  Os38  1  0.25000000  0.75000000  0.59027000  1
  Os  Os39  1  0.75000000  0.75000000  0.90973000  1
  Os  Os40  1  0.00000000  0.00000000  0.57974700  1
  Os  Os41  1  0.25000000  0.75000000  0.75000000  1
  Os  Os42  1  0.25000000  0.75000000  0.90973000  1
  Os  Os43  1  0.75000000  0.75000000  0.75000000  1
  Os  Os44  1  0.50000000  0.50000000  0.42025300  1
  Os  Os45  1  0.75000000  0.25000000  0.09027000  1
  Os  Os46  1  0.25000000  0.25000000  0.09027000  1
  Os  Os47  1  0.75000000  0.25000000  0.40973000  1
  Os  Os48  1  0.00000000  0.50000000  0.07974700  1
  Os  Os49  1  0.25000000  0.25000000  0.25000000  1
  Os  Os50  1  0.25000000  0.25000000  0.40973000  1
  Os  Os51  1  0.75000000  0.25000000  0.25000000  1
  Os  Os52  1  0.00000000  0.00000000  0.42025300  1
  Os  Os53  1  0.25000000  0.75000000  0.09027000  1
  Os  Os54  1  0.75000000  0.75000000  0.09027000  1
  Os  Os55  1  0.25000000  0.75000000  0.40973000  1
  Os  Os56  1  0.50000000  0.00000000  0.07974700  1
  Os  Os57  1  0.75000000  0.75000000  0.25000000  1
  Os  Os58  1  0.75000000  0.75000000  0.40973000  1
  Os  Os59  1  0.25000000  0.75000000  0.25000000  1
  Os  Os60  1  0.00000000  0.50000000  0.92025300  1
  Os  Os61  1  0.25000000  0.25000000  0.59027000  1
  Os  Os62  1  0.75000000  0.25000000  0.59027000  1
  Os  Os63  1  0.25000000  0.25000000  0.90973000  1
  Os  Os64  1  0.50000000  0.50000000  0.57974700  1
  Os  Os65  1  0.75000000  0.25000000  0.75000000  1
  Os  Os66  1  0.75000000  0.25000000  0.90973000  1
  Os  Os67  1  0.25000000  0.25000000  0.75000000  1
