# generated using pymatgen
data_Na3Fe2(AsO4)3
_symmetry_space_group_name_H-M   'P 1'
_cell_length_a   12.42618200
_cell_length_b   12.42618200
_cell_length_c   12.42618200
_cell_angle_alpha   90.00000000
_cell_angle_beta   90.00000000
_cell_angle_gamma   90.00000000
_symmetry_Int_Tables_number   1
_chemical_formula_structural   Na3Fe2(AsO4)3
_chemical_formula_sum   'Na24 Fe16 As24 O96'
_cell_volume   1918.72675140
_cell_formula_units_Z   8
loop_
 _symmetry_equiv_pos_site_id
 _symmetry_equiv_pos_as_xyz
  1  'x, y, z'
loop_
 _atom_site_type_symbol
 _atom_site_label
 _atom_site_symmetry_multiplicity
 _atom_site_fract_x
 _atom_site_fract_y
 _atom_site_fract_z
 _atom_site_occupancy
  Na  Na0  1  0.25000000  0.87500000  0.50000000  1
  Na  Na1  1  0.12500000  0.00000000  0.25000000  1
  Na  Na2  1  0.00000000  0.25000000  0.62500000  1
  Na  Na3  1  0.50000000  0.25000000  0.87500000  1
  Na  Na4  1  0.00000000  0.25000000  0.12500000  1
  Na  Na5  1  0.37500000  0.50000000  0.25000000  1
  Na  Na6  1  0.62500000  0.00000000  0.25000000  1
  Na  Na7  1  0.87500000  0.50000000  0.25000000  1
  Na  Na8  1  0.25000000  0.37500000  0.50000000  1
  Na  Na9  1  0.50000000  0.25000000  0.37500000  1
  Na  Na10  1  0.25000000  0.12500000  0.00000000  1
  Na  Na11  1  0.25000000  0.62500000  0.00000000  1
  Na  Na12  1  0.75000000  0.37500000  0.00000000  1
  Na  Na13  1  0.62500000  0.50000000  0.75000000  1
  Na  Na14  1  0.50000000  0.75000000  0.12500000  1
  Na  Na15  1  0.00000000  0.75000000  0.37500000  1
  Na  Na16  1  0.50000000  0.75000000  0.62500000  1
  Na  Na17  1  0.87500000  0.00000000  0.75000000  1
  Na  Na18  1  0.12500000  0.50000000  0.75000000  1
  Na  Na19  1  0.37500000  0.00000000  0.75000000  1
  Na  Na20  1  0.75000000  0.87500000  0.00000000  1
  Na  Na21  1  0.00000000  0.75000000  0.87500000  1
  Na  Na22  1  0.75000000  0.62500000  0.50000000  1
  Na  Na23  1  0.75000000  0.12500000  0.50000000  1
  Fe  Fe24  1  0.25000000  0.25000000  0.25000000  1
  Fe  Fe25  1  0.00000000  0.50000000  0.00000000  1
  Fe  Fe26  1  0.75000000  0.25000000  0.25000000  1
  Fe  Fe27  1  0.00000000  0.00000000  0.50000000  1
  Fe  Fe28  1  0.00000000  0.00000000  0.00000000  1
  Fe  Fe29  1  0.25000000  0.25000000  0.75000000  1
  Fe  Fe30  1  0.25000000  0.75000000  0.25000000  1
  Fe  Fe31  1  0.50000000  0.00000000  0.00000000  1
  Fe  Fe32  1  0.75000000  0.75000000  0.75000000  1
  Fe  Fe33  1  0.50000000  0.00000000  0.50000000  1
  Fe  Fe34  1  0.25000000  0.75000000  0.75000000  1
  Fe  Fe35  1  0.50000000  0.50000000  0.00000000  1
  Fe  Fe36  1  0.50000000  0.50000000  0.50000000  1
  Fe  Fe37  1  0.75000000  0.75000000  0.25000000  1
  Fe  Fe38  1  0.75000000  0.25000000  0.75000000  1
  Fe  Fe39  1  0.00000000  0.50000000  0.50000000  1
  As  As40  1  0.37500000  0.50000000  0.75000000  1
  As  As41  1  0.00000000  0.75000000  0.12500000  1
  As  As42  1  0.25000000  0.12500000  0.50000000  1
  As  As43  1  0.50000000  0.25000000  0.12500000  1
  As  As44  1  0.37500000  0.00000000  0.25000000  1
  As  As45  1  0.12500000  0.50000000  0.25000000  1
  As  As46  1  0.12500000  0.00000000  0.75000000  1
  As  As47  1  0.75000000  0.37500000  0.50000000  1
  As  As48  1  0.75000000  0.12500000  0.00000000  1
  As  As49  1  0.25000000  0.37500000  0.00000000  1
  As  As50  1  0.50000000  0.75000000  0.37500000  1
  As  As51  1  0.00000000  0.25000000  0.37500000  1
  As  As52  1  0.87500000  0.00000000  0.25000000  1
  As  As53  1  0.50000000  0.25000000  0.62500000  1
  As  As54  1  0.75000000  0.62500000  0.00000000  1
  As  As55  1  0.00000000  0.75000000  0.62500000  1
  As  As56  1  0.87500000  0.50000000  0.75000000  1
  As  As57  1  0.62500000  0.00000000  0.75000000  1
  As  As58  1  0.62500000  0.50000000  0.25000000  1
  As  As59  1  0.25000000  0.87500000  0.00000000  1
  As  As60  1  0.25000000  0.62500000  0.50000000  1
  As  As61  1  0.75000000  0.87500000  0.50000000  1
  As  As62  1  0.00000000  0.25000000  0.87500000  1
  As  As63  1  0.50000000  0.75000000  0.87500000  1
  O  O64  1  0.03813250  0.45183250  0.15248650  1
  O  O65  1  0.90248650  0.29816750  0.28813250  1
  O  O66  1  0.59751350  0.20183250  0.21186750  1
  O  O67  1  0.53813250  0.45183250  0.34751350  1
  O  O68  1  0.29816750  0.21186750  0.40248650  1
  O  O69  1  0.84751350  0.46186750  0.45183250  1
  O  O70  1  0.65248650  0.03813250  0.04816750  1
  O  O71  1  0.79816750  0.28813250  0.59751350  1
  O  O72  1  0.34751350  0.46186750  0.04816750  1
  O  O73  1  0.34751350  0.03813250  0.54816750  1
  O  O74  1  0.59751350  0.79816750  0.28813250  1
  O  O75  1  0.20183250  0.21186750  0.59751350  1
  O  O76  1  0.21186750  0.59751350  0.20183250  1
  O  O77  1  0.15248650  0.46186750  0.95183250  1
  O  O78  1  0.21186750  0.90248650  0.70183250  1
  O  O79  1  0.15248650  0.03813250  0.45183250  1
  O  O80  1  0.21186750  0.40248650  0.29816750  1
  O  O81  1  0.78813250  0.90248650  0.20183250  1
  O  O82  1  0.46186750  0.95183250  0.15248650  1
  O  O83  1  0.20183250  0.28813250  0.09751350  1
  O  O84  1  0.45183250  0.34751350  0.53813250  1
  O  O85  1  0.54816750  0.34751350  0.03813250  1
  O  O86  1  0.04816750  0.65248650  0.03813250  1
  O  O87  1  0.04816750  0.15248650  0.96186750  1
  O  O88  1  0.46186750  0.45183250  0.84751350  1
  O  O89  1  0.09751350  0.20183250  0.28813250  1
  O  O90  1  0.03813250  0.54816750  0.34751350  1
  O  O91  1  0.03813250  0.04816750  0.65248650  1
  O  O92  1  0.20183250  0.78813250  0.90248650  1
  O  O93  1  0.46186750  0.04816750  0.34751350  1
  O  O94  1  0.70183250  0.21186750  0.90248650  1
  O  O95  1  0.40248650  0.29816750  0.21186750  1
  O  O96  1  0.95183250  0.15248650  0.46186750  1
  O  O97  1  0.90248650  0.70183250  0.21186750  1
  O  O98  1  0.90248650  0.20183250  0.78813250  1
  O  O99  1  0.15248650  0.96186750  0.04816750  1
  O  O100  1  0.59751350  0.29816750  0.71186750  1
  O  O101  1  0.71186750  0.59751350  0.29816750  1
  O  O102  1  0.28813250  0.09751350  0.20183250  1
  O  O103  1  0.29816750  0.28813250  0.90248650  1
  O  O104  1  0.96186750  0.04816750  0.15248650  1
  O  O105  1  0.45183250  0.84751350  0.46186750  1
  O  O106  1  0.28813250  0.59751350  0.79816750  1
  O  O107  1  0.28813250  0.90248650  0.29816750  1
  O  O108  1  0.04816750  0.34751350  0.46186750  1
  O  O109  1  0.34751350  0.53813250  0.45183250  1
  O  O110  1  0.29816750  0.71186750  0.59751350  1
  O  O111  1  0.45183250  0.15248650  0.03813250  1
  O  O112  1  0.53813250  0.95183250  0.65248650  1
  O  O113  1  0.40248650  0.79816750  0.78813250  1
  O  O114  1  0.09751350  0.70183250  0.71186750  1
  O  O115  1  0.03813250  0.95183250  0.84751350  1
  O  O116  1  0.79816750  0.71186750  0.90248650  1
  O  O117  1  0.34751350  0.96186750  0.95183250  1
  O  O118  1  0.15248650  0.53813250  0.54816750  1
  O  O119  1  0.29816750  0.78813250  0.09751350  1
  O  O120  1  0.84751350  0.96186750  0.54816750  1
  O  O121  1  0.84751350  0.53813250  0.04816750  1
  O  O122  1  0.09751350  0.29816750  0.78813250  1
  O  O123  1  0.70183250  0.71186750  0.09751350  1
  O  O124  1  0.71186750  0.09751350  0.70183250  1
  O  O125  1  0.65248650  0.96186750  0.45183250  1
  O  O126  1  0.71186750  0.40248650  0.20183250  1
  O  O127  1  0.65248650  0.53813250  0.95183250  1
  O  O128  1  0.71186750  0.90248650  0.79816750  1
  O  O129  1  0.28813250  0.40248650  0.70183250  1
  O  O130  1  0.96186750  0.45183250  0.65248650  1
  O  O131  1  0.70183250  0.78813250  0.59751350  1
  O  O132  1  0.95183250  0.84751350  0.03813250  1
  O  O133  1  0.04816750  0.84751350  0.53813250  1
  O  O134  1  0.54816750  0.15248650  0.53813250  1
  O  O135  1  0.54816750  0.65248650  0.46186750  1
  O  O136  1  0.96186750  0.95183250  0.34751350  1
  O  O137  1  0.59751350  0.70183250  0.78813250  1
  O  O138  1  0.53813250  0.04816750  0.84751350  1
  O  O139  1  0.53813250  0.54816750  0.15248650  1
  O  O140  1  0.70183250  0.28813250  0.40248650  1
  O  O141  1  0.96186750  0.54816750  0.84751350  1
  O  O142  1  0.20183250  0.71186750  0.40248650  1
  O  O143  1  0.90248650  0.79816750  0.71186750  1
  O  O144  1  0.45183250  0.65248650  0.96186750  1
  O  O145  1  0.40248650  0.20183250  0.71186750  1
  O  O146  1  0.40248650  0.70183250  0.28813250  1
  O  O147  1  0.65248650  0.46186750  0.54816750  1
  O  O148  1  0.09751350  0.79816750  0.21186750  1
  O  O149  1  0.21186750  0.09751350  0.79816750  1
  O  O150  1  0.78813250  0.59751350  0.70183250  1
  O  O151  1  0.79816750  0.78813250  0.40248650  1
  O  O152  1  0.46186750  0.54816750  0.65248650  1
  O  O153  1  0.95183250  0.34751350  0.96186750  1
  O  O154  1  0.78813250  0.09751350  0.29816750  1
  O  O155  1  0.78813250  0.40248650  0.79816750  1
  O  O156  1  0.54816750  0.84751350  0.96186750  1
  O  O157  1  0.84751350  0.03813250  0.95183250  1
  O  O158  1  0.79816750  0.21186750  0.09751350  1
  O  O159  1  0.95183250  0.65248650  0.53813250  1
