# generated using pymatgen
data_Rb3(Cu4S3)2
_symmetry_space_group_name_H-M   'P 1'
_cell_length_a   17.82837600
_cell_length_b   3.85200600
_cell_length_c   10.01452910
_cell_angle_alpha   90.00000000
_cell_angle_beta   105.71423370
_cell_angle_gamma   90.00000000
_symmetry_Int_Tables_number   1
_chemical_formula_structural   Rb3(Cu4S3)2
_chemical_formula_sum   'Rb6 Cu16 S12'
_cell_volume   662.04297307
_cell_formula_units_Z   2
loop_
 _symmetry_equiv_pos_site_id
 _symmetry_equiv_pos_as_xyz
  1  'x, y, z'
loop_
 _atom_site_type_symbol
 _atom_site_label
 _atom_site_symmetry_multiplicity
 _atom_site_fract_x
 _atom_site_fract_y
 _atom_site_fract_z
 _atom_site_occupancy
  Rb  Rb0  1  0.69019700  0.00000000  0.30175100  1
  Rb  Rb1  1  0.80980300  0.50000000  0.69824900  1
  Rb  Rb2  1  0.00000000  0.50000000  0.00000000  1
  Rb  Rb3  1  0.19019700  0.50000000  0.30175100  1
  Rb  Rb4  1  0.30980300  0.00000000  0.69824900  1
  Rb  Rb5  1  0.50000000  0.00000000  0.00000000  1
  Cu  Cu6  1  0.98026500  0.50000000  0.35600600  1
  Cu  Cu7  1  0.58748400  0.50000000  0.52520800  1
  Cu  Cu8  1  0.89283900  0.00000000  0.21588400  1
  Cu  Cu9  1  0.70349300  0.00000000  0.93842100  1
  Cu  Cu10  1  0.79650700  0.50000000  0.06157900  1
  Cu  Cu11  1  0.91251600  0.00000000  0.47479200  1
  Cu  Cu12  1  0.60716100  0.50000000  0.78411600  1
  Cu  Cu13  1  0.51973500  0.00000000  0.64399400  1
  Cu  Cu14  1  0.48026500  0.00000000  0.35600600  1
  Cu  Cu15  1  0.08748400  0.00000000  0.52520800  1
  Cu  Cu16  1  0.39283900  0.50000000  0.21588400  1
  Cu  Cu17  1  0.20349300  0.50000000  0.93842100  1
  Cu  Cu18  1  0.29650700  0.00000000  0.06157900  1
  Cu  Cu19  1  0.41251600  0.50000000  0.47479200  1
  Cu  Cu20  1  0.10716100  0.00000000  0.78411600  1
  Cu  Cu21  1  0.01973500  0.50000000  0.64399400  1
  S  S22  1  0.84893600  0.50000000  0.35826400  1
  S  S23  1  0.65829300  0.50000000  0.01529900  1
  S  S24  1  0.96601200  0.00000000  0.70619500  1
  S  S25  1  0.53398800  0.50000000  0.29380500  1
  S  S26  1  0.65106400  0.00000000  0.64173600  1
  S  S27  1  0.84170700  0.00000000  0.98470100  1
  S  S28  1  0.34893600  0.00000000  0.35826400  1
  S  S29  1  0.15829300  0.00000000  0.01529900  1
  S  S30  1  0.46601200  0.50000000  0.70619500  1
  S  S31  1  0.03398800  0.00000000  0.29380500  1
  S  S32  1  0.15106400  0.50000000  0.64173600  1
  S  S33  1  0.34170700  0.50000000  0.98470100  1
