# generated using pymatgen
data_La2(MoO4)3
_symmetry_space_group_name_H-M   'P 1'
_cell_length_a   17.24686200
_cell_length_b   12.12136400
_cell_length_c   16.32239264
_cell_angle_alpha   90.00000000
_cell_angle_beta   108.35962035
_cell_angle_gamma   90.00000000
_symmetry_Int_Tables_number   1
_chemical_formula_structural   La2(MoO4)3
_chemical_formula_sum   'La24 Mo36 O144'
_cell_volume   3238.59444579
_cell_formula_units_Z   12
loop_
 _symmetry_equiv_pos_site_id
 _symmetry_equiv_pos_as_xyz
  1  'x, y, z'
loop_
 _atom_site_type_symbol
 _atom_site_label
 _atom_site_symmetry_multiplicity
 _atom_site_fract_x
 _atom_site_fract_y
 _atom_site_fract_z
 _atom_site_occupancy
  La  La0  1  0.00676000  0.62436800  0.58886800  1
  La  La1  1  0.99324000  0.37563200  0.41113200  1
  La  La2  1  0.33416250  0.62933950  0.69744400  1
  La  La3  1  0.99324000  0.62436800  0.91113200  1
  La  La4  1  0.66583750  0.62933950  0.80255600  1
  La  La5  1  0.66583750  0.37066050  0.30255600  1
  La  La6  1  0.66550500  0.37884800  0.97658600  1
  La  La7  1  0.33449500  0.37884800  0.52341400  1
  La  La8  1  0.33449500  0.62115200  0.02341400  1
  La  La9  1  0.33416250  0.37066050  0.19744400  1
  La  La10  1  0.00676000  0.37563200  0.08886800  1
  La  La11  1  0.66550500  0.62115200  0.47658600  1
  La  La12  1  0.50676000  0.12436800  0.58886800  1
  La  La13  1  0.49324000  0.87563200  0.41113200  1
  La  La14  1  0.83416250  0.12933950  0.69744400  1
  La  La15  1  0.49324000  0.12436800  0.91113200  1
  La  La16  1  0.16583750  0.12933950  0.80255600  1
  La  La17  1  0.16583750  0.87066050  0.30255600  1
  La  La18  1  0.16550500  0.87884800  0.97658600  1
  La  La19  1  0.83449500  0.87884800  0.52341400  1
  La  La20  1  0.83449500  0.12115200  0.02341400  1
  La  La21  1  0.83416250  0.87066050  0.19744400  1
  La  La22  1  0.50676000  0.87563200  0.08886800  1
  La  La23  1  0.16550500  0.12115200  0.47658600  1
  Mo  Mo24  1  0.99307300  0.12932600  0.57876500  1
  Mo  Mo25  1  0.82880300  0.62398400  0.36310200  1
  Mo  Mo26  1  0.16653000  0.36655400  0.30952300  1
  Mo  Mo27  1  0.82880300  0.37601600  0.86310200  1
  Mo  Mo28  1  0.83757750  0.61384450  0.03370200  1
  Mo  Mo29  1  0.83347000  0.36655400  0.19047700  1
  Mo  Mo30  1  0.16653000  0.63344600  0.80952300  1
  Mo  Mo31  1  0.99307300  0.87067400  0.07876500  1
  Mo  Mo32  1  0.00692700  0.87067400  0.42123500  1
  Mo  Mo33  1  0.16242250  0.38615550  0.96629800  1
  Mo  Mo34  1  0.17119700  0.37601600  0.63689800  1
  Mo  Mo35  1  0.83757750  0.38615550  0.53370200  1
  Mo  Mo36  1  0.00000000  0.12472500  0.25000000  1
  Mo  Mo37  1  0.00000000  0.87527500  0.75000000  1
  Mo  Mo38  1  0.17119700  0.62398400  0.13689800  1
  Mo  Mo39  1  0.16242250  0.61384450  0.46629800  1
  Mo  Mo40  1  0.00692700  0.12932600  0.92123500  1
  Mo  Mo41  1  0.83347000  0.63344600  0.69047700  1
  Mo  Mo42  1  0.49307300  0.62932600  0.57876500  1
  Mo  Mo43  1  0.32880300  0.12398400  0.36310200  1
  Mo  Mo44  1  0.66653000  0.86655400  0.30952300  1
  Mo  Mo45  1  0.32880300  0.87601600  0.86310200  1
  Mo  Mo46  1  0.33757750  0.11384450  0.03370200  1
  Mo  Mo47  1  0.33347000  0.86655400  0.19047700  1
  Mo  Mo48  1  0.66653000  0.13344600  0.80952300  1
  Mo  Mo49  1  0.49307300  0.37067400  0.07876500  1
  Mo  Mo50  1  0.50692700  0.37067400  0.42123500  1
  Mo  Mo51  1  0.66242250  0.88615550  0.96629800  1
  Mo  Mo52  1  0.67119700  0.87601600  0.63689800  1
  Mo  Mo53  1  0.33757750  0.88615550  0.53370200  1
  Mo  Mo54  1  0.50000000  0.62472500  0.25000000  1
  Mo  Mo55  1  0.50000000  0.37527500  0.75000000  1
  Mo  Mo56  1  0.67119700  0.12398400  0.13689800  1
  Mo  Mo57  1  0.66242250  0.11384450  0.46629800  1
  Mo  Mo58  1  0.50692700  0.62932600  0.92123500  1
  Mo  Mo59  1  0.33347000  0.13344600  0.69047700  1
  O  O60  1  0.08738750  0.44463450  0.33248100  1
  O  O61  1  0.87988200  0.30377400  0.96444400  1
  O  O62  1  0.21444100  0.67761600  0.56664600  1
  O  O63  1  0.13326850  0.28682550  0.88094300  1
  O  O64  1  0.74117350  0.45083650  0.87553300  1
  O  O65  1  0.76535650  0.48295950  0.55154300  1
  O  O66  1  0.95184450  0.20034550  0.14784800  1
  O  O67  1  0.04423200  0.80488700  0.17838900  1
  O  O68  1  0.92617100  0.54267500  0.01650700  1
  O  O69  1  0.78555900  0.67761600  0.93335400  1
  O  O70  1  0.04512050  0.77098050  0.50496200  1
  O  O71  1  0.75622300  0.44186000  0.21845000  1
  O  O72  1  0.91261250  0.55536550  0.66751900  1
  O  O73  1  0.57206150  0.44472850  0.05194200  1
  O  O74  1  0.59173650  0.45145050  0.40415400  1
  O  O75  1  0.07382900  0.54267500  0.48349300  1
  O  O76  1  0.90022750  0.47011050  0.84400000  1
  O  O77  1  0.88795100  0.28915300  0.28454700  1
  O  O78  1  0.95487950  0.22901950  0.49503800  1
  O  O79  1  0.04815550  0.20034550  0.35215200  1
  O  O80  1  0.11204900  0.28915300  0.21545300  1
  O  O81  1  0.07382900  0.45732500  0.98349300  1
  O  O82  1  0.12011800  0.69622600  0.03555600  1
  O  O83  1  0.95487950  0.77098050  0.99503800  1
  O  O84  1  0.92617100  0.45732500  0.51650700  1
  O  O85  1  0.40826350  0.45145050  0.09584600  1
  O  O86  1  0.25882650  0.45083650  0.62446700  1
  O  O87  1  0.23464350  0.48295950  0.94845700  1
  O  O88  1  0.79494450  0.28287450  0.77489800  1
  O  O89  1  0.25882650  0.54916350  0.12446700  1
  O  O90  1  0.04423200  0.19511300  0.67838900  1
  O  O91  1  0.40826350  0.54854950  0.59584600  1
  O  O92  1  0.21444100  0.32238400  0.06664600  1
  O  O93  1  0.78555900  0.32238400  0.43335400  1
  O  O94  1  0.04512050  0.22901950  0.00496200  1
  O  O95  1  0.42452550  0.53594550  0.26582400  1
  O  O96  1  0.78253250  0.28192750  0.09375600  1
  O  O97  1  0.57547450  0.46405450  0.73417600  1
  O  O98  1  0.74117350  0.54916350  0.37553300  1
  O  O99  1  0.57206150  0.55527150  0.55194200  1
  O  O100  1  0.23464350  0.51704050  0.44845700  1
  O  O101  1  0.91261250  0.44463450  0.16751900  1
  O  O102  1  0.86673150  0.28682550  0.61905700  1
  O  O103  1  0.57547450  0.53594550  0.23417600  1
  O  O104  1  0.20505550  0.71712550  0.22510200  1
  O  O105  1  0.42452550  0.46405450  0.76582400  1
  O  O106  1  0.79494450  0.71712550  0.27489800  1
  O  O107  1  0.42793850  0.44472850  0.44805800  1
  O  O108  1  0.75622300  0.55814000  0.71845000  1
  O  O109  1  0.08738750  0.55536550  0.83248100  1
  O  O110  1  0.11204900  0.71084700  0.71545300  1
  O  O111  1  0.24377700  0.44186000  0.28155000  1
  O  O112  1  0.76535650  0.51704050  0.05154300  1
  O  O113  1  0.12011800  0.30377400  0.53555600  1
  O  O114  1  0.20505550  0.28287450  0.72510200  1
  O  O115  1  0.87988200  0.69622600  0.46444400  1
  O  O116  1  0.42793850  0.55527150  0.94805800  1
  O  O117  1  0.90022750  0.52988950  0.34400000  1
  O  O118  1  0.59173650  0.54854950  0.90415400  1
  O  O119  1  0.13326850  0.71317450  0.38094300  1
  O  O120  1  0.88795100  0.71084700  0.78454700  1
  O  O121  1  0.21746750  0.28192750  0.40624400  1
  O  O122  1  0.21746750  0.71807250  0.90624400  1
  O  O123  1  0.09977250  0.47011050  0.65600000  1
  O  O124  1  0.86673150  0.71317450  0.11905700  1
  O  O125  1  0.09977250  0.52988950  0.15600000  1
  O  O126  1  0.78253250  0.71807250  0.59375600  1
  O  O127  1  0.95576800  0.19511300  0.82161100  1
  O  O128  1  0.24377700  0.55814000  0.78155000  1
  O  O129  1  0.95184450  0.79965450  0.64784800  1
  O  O130  1  0.95576800  0.80488700  0.32161100  1
  O  O131  1  0.04815550  0.79965450  0.85215200  1
  O  O132  1  0.58738750  0.94463450  0.33248100  1
  O  O133  1  0.37988200  0.80377400  0.96444400  1
  O  O134  1  0.71444100  0.17761600  0.56664600  1
  O  O135  1  0.63326850  0.78682550  0.88094300  1
  O  O136  1  0.24117350  0.95083650  0.87553300  1
  O  O137  1  0.26535650  0.98295950  0.55154300  1
  O  O138  1  0.45184450  0.70034550  0.14784800  1
  O  O139  1  0.54423200  0.30488700  0.17838900  1
  O  O140  1  0.42617100  0.04267500  0.01650700  1
  O  O141  1  0.28555900  0.17761600  0.93335400  1
  O  O142  1  0.54512050  0.27098050  0.50496200  1
  O  O143  1  0.25622300  0.94186000  0.21845000  1
  O  O144  1  0.41261250  0.05536550  0.66751900  1
  O  O145  1  0.07206150  0.94472850  0.05194200  1
  O  O146  1  0.09173650  0.95145050  0.40415400  1
  O  O147  1  0.57382900  0.04267500  0.48349300  1
  O  O148  1  0.40022750  0.97011050  0.84400000  1
  O  O149  1  0.38795100  0.78915300  0.28454700  1
  O  O150  1  0.45487950  0.72901950  0.49503800  1
  O  O151  1  0.54815550  0.70034550  0.35215200  1
  O  O152  1  0.61204900  0.78915300  0.21545300  1
  O  O153  1  0.57382900  0.95732500  0.98349300  1
  O  O154  1  0.62011800  0.19622600  0.03555600  1
  O  O155  1  0.45487950  0.27098050  0.99503800  1
  O  O156  1  0.42617100  0.95732500  0.51650700  1
  O  O157  1  0.90826350  0.95145050  0.09584600  1
  O  O158  1  0.75882650  0.95083650  0.62446700  1
  O  O159  1  0.73464350  0.98295950  0.94845700  1
  O  O160  1  0.29494450  0.78287450  0.77489800  1
  O  O161  1  0.75882650  0.04916350  0.12446700  1
  O  O162  1  0.54423200  0.69511300  0.67838900  1
  O  O163  1  0.90826350  0.04854950  0.59584600  1
  O  O164  1  0.71444100  0.82238400  0.06664600  1
  O  O165  1  0.28555900  0.82238400  0.43335400  1
  O  O166  1  0.54512050  0.72901950  0.00496200  1
  O  O167  1  0.92452550  0.03594550  0.26582400  1
  O  O168  1  0.28253250  0.78192750  0.09375600  1
  O  O169  1  0.07547450  0.96405450  0.73417600  1
  O  O170  1  0.24117350  0.04916350  0.37553300  1
  O  O171  1  0.07206150  0.05527150  0.55194200  1
  O  O172  1  0.73464350  0.01704050  0.44845700  1
  O  O173  1  0.41261250  0.94463450  0.16751900  1
  O  O174  1  0.36673150  0.78682550  0.61905700  1
  O  O175  1  0.07547450  0.03594550  0.23417600  1
  O  O176  1  0.70505550  0.21712550  0.22510200  1
  O  O177  1  0.92452550  0.96405450  0.76582400  1
  O  O178  1  0.29494450  0.21712550  0.27489800  1
  O  O179  1  0.92793850  0.94472850  0.44805800  1
  O  O180  1  0.25622300  0.05814000  0.71845000  1
  O  O181  1  0.58738750  0.05536550  0.83248100  1
  O  O182  1  0.61204900  0.21084700  0.71545300  1
  O  O183  1  0.74377700  0.94186000  0.28155000  1
  O  O184  1  0.26535650  0.01704050  0.05154300  1
  O  O185  1  0.62011800  0.80377400  0.53555600  1
  O  O186  1  0.70505550  0.78287450  0.72510200  1
  O  O187  1  0.37988200  0.19622600  0.46444400  1
  O  O188  1  0.92793850  0.05527150  0.94805800  1
  O  O189  1  0.40022750  0.02988950  0.34400000  1
  O  O190  1  0.09173650  0.04854950  0.90415400  1
  O  O191  1  0.63326850  0.21317450  0.38094300  1
  O  O192  1  0.38795100  0.21084700  0.78454700  1
  O  O193  1  0.71746750  0.78192750  0.40624400  1
  O  O194  1  0.71746750  0.21807250  0.90624400  1
  O  O195  1  0.59977250  0.97011050  0.65600000  1
  O  O196  1  0.36673150  0.21317450  0.11905700  1
  O  O197  1  0.59977250  0.02988950  0.15600000  1
  O  O198  1  0.28253250  0.21807250  0.59375600  1
  O  O199  1  0.45576800  0.69511300  0.82161100  1
  O  O200  1  0.74377700  0.05814000  0.78155000  1
  O  O201  1  0.45184450  0.29965450  0.64784800  1
  O  O202  1  0.45576800  0.30488700  0.32161100  1
  O  O203  1  0.54815550  0.29965450  0.85215200  1
