# generated using pymatgen
data_ThB4Mo
_symmetry_space_group_name_H-M   'P 1'
_cell_length_a   7.51142600
_cell_length_b   9.62600800
_cell_length_c   3.78482600
_cell_angle_alpha   90.00000000
_cell_angle_beta   90.00000000
_cell_angle_gamma   90.00000000
_symmetry_Int_Tables_number   1
_chemical_formula_structural   ThB4Mo
_chemical_formula_sum   'Th4 B16 Mo4'
_cell_volume   273.66202094
_cell_formula_units_Z   4
loop_
 _symmetry_equiv_pos_site_id
 _symmetry_equiv_pos_as_xyz
  1  'x, y, z'
loop_
 _atom_site_type_symbol
 _atom_site_label
 _atom_site_symmetry_multiplicity
 _atom_site_fract_x
 _atom_site_fract_y
 _atom_site_fract_z
 _atom_site_occupancy
  Th  Th0  1  0.50000000  0.19807700  0.00000000  1
  Th  Th1  1  0.50000000  0.80192300  0.00000000  1
  Th  Th2  1  0.00000000  0.69807700  0.00000000  1
  Th  Th3  1  0.00000000  0.30192300  0.00000000  1
  B  B4  1  0.50000000  0.40987100  0.50000000  1
  B  B5  1  0.50000000  0.59012900  0.50000000  1
  B  B6  1  0.62917900  0.00000000  0.50000000  1
  B  B7  1  0.37082100  0.00000000  0.50000000  1
  B  B8  1  0.22089150  0.15596850  0.50000000  1
  B  B9  1  0.77910850  0.84403150  0.50000000  1
  B  B10  1  0.22089150  0.84403150  0.50000000  1
  B  B11  1  0.77910850  0.15596850  0.50000000  1
  B  B12  1  0.00000000  0.90987100  0.50000000  1
  B  B13  1  0.00000000  0.09012900  0.50000000  1
  B  B14  1  0.12917900  0.50000000  0.50000000  1
  B  B15  1  0.87082100  0.50000000  0.50000000  1
  B  B16  1  0.72089150  0.65596850  0.50000000  1
  B  B17  1  0.27910850  0.34403150  0.50000000  1
  B  B18  1  0.72089150  0.34403150  0.50000000  1
  B  B19  1  0.27910850  0.65596850  0.50000000  1
  Mo  Mo20  1  0.82748300  0.00000000  0.00000000  1
  Mo  Mo21  1  0.17251700  0.00000000  0.00000000  1
  Mo  Mo22  1  0.32748300  0.50000000  0.00000000  1
  Mo  Mo23  1  0.67251700  0.50000000  0.00000000  1
