# generated using pymatgen
data_Ba2Mn2As2O
_symmetry_space_group_name_H-M   'P 1'
_cell_length_a   12.34866448
_cell_length_b   4.29224104
_cell_length_c   7.64835986
_cell_angle_alpha   90.00000000
_cell_angle_beta   122.11055802
_cell_angle_gamma   90.00000000
_symmetry_Int_Tables_number   1
_chemical_formula_structural   Ba2Mn2As2O
_chemical_formula_sum   'Ba4 Mn4 As4 O2'
_cell_volume   343.37455945
_cell_formula_units_Z   2
loop_
 _symmetry_equiv_pos_site_id
 _symmetry_equiv_pos_as_xyz
  1  'x, y, z'
loop_
 _atom_site_type_symbol
 _atom_site_label
 _atom_site_symmetry_multiplicity
 _atom_site_fract_x
 _atom_site_fract_y
 _atom_site_fract_z
 _atom_site_occupancy
  Ba  Ba0  1  0.94958650  0.00000000  0.70283900  1
  Ba  Ba1  1  0.05041350  0.00000000  0.29716100  1
  Ba  Ba2  1  0.44958650  0.50000000  0.70283900  1
  Ba  Ba3  1  0.55041350  0.50000000  0.29716100  1
  Mn  Mn4  1  0.31153350  0.00000000  0.92580800  1
  Mn  Mn5  1  0.68846650  0.00000000  0.07419200  1
  Mn  Mn6  1  0.81153350  0.50000000  0.92580800  1
  Mn  Mn7  1  0.18846650  0.50000000  0.07419200  1
  As  As8  1  0.81484450  0.50000000  0.27967800  1
  As  As9  1  0.18515550  0.50000000  0.72032200  1
  As  As10  1  0.31484450  0.00000000  0.27967800  1
  As  As11  1  0.68515550  0.00000000  0.72032200  1
  O  O12  1  0.00000000  0.50000000  0.00000000  1
  O  O13  1  0.50000000  0.00000000  0.00000000  1
