# generated using pymatgen
data_Tb4Zn5Ge6
_symmetry_space_group_name_H-M   'P 1'
_cell_length_a   4.26697800
_cell_length_b   18.52032400
_cell_length_c   15.84671700
_cell_angle_alpha   90.00000000
_cell_angle_beta   90.00000000
_cell_angle_gamma   90.00000000
_symmetry_Int_Tables_number   1
_chemical_formula_structural   Tb4Zn5Ge6
_chemical_formula_sum   'Tb16 Zn20 Ge24'
_cell_volume   1252.29972696
_cell_formula_units_Z   4
loop_
 _symmetry_equiv_pos_site_id
 _symmetry_equiv_pos_as_xyz
  1  'x, y, z'
loop_
 _atom_site_type_symbol
 _atom_site_label
 _atom_site_symmetry_multiplicity
 _atom_site_fract_x
 _atom_site_fract_y
 _atom_site_fract_z
 _atom_site_occupancy
  Tb  Tb0  1  0.50000000  0.17958000  0.49194800  1
  Tb  Tb1  1  0.00000000  0.46706600  0.17877100  1
  Tb  Tb2  1  0.00000000  0.32769700  0.63338900  1
  Tb  Tb3  1  0.00000000  0.32042000  0.99194800  1
  Tb  Tb4  1  0.50000000  0.03293400  0.67877100  1
  Tb  Tb5  1  0.50000000  0.03329700  0.94926200  1
  Tb  Tb6  1  0.00000000  0.46670300  0.44926200  1
  Tb  Tb7  1  0.50000000  0.17230300  0.13338900  1
  Tb  Tb8  1  0.00000000  0.67958000  0.49194800  1
  Tb  Tb9  1  0.50000000  0.96706600  0.17877100  1
  Tb  Tb10  1  0.50000000  0.82769700  0.63338900  1
  Tb  Tb11  1  0.50000000  0.82042000  0.99194800  1
  Tb  Tb12  1  0.00000000  0.53293400  0.67877100  1
  Tb  Tb13  1  0.00000000  0.53329700  0.94926200  1
  Tb  Tb14  1  0.50000000  0.96670300  0.44926200  1
  Tb  Tb15  1  0.00000000  0.67230300  0.13338900  1
  Zn  Zn16  1  0.50000000  0.42520000  0.89547300  1
  Zn  Zn17  1  0.00000000  0.20986400  0.32197100  1
  Zn  Zn18  1  0.50000000  0.14691300  0.81730100  1
  Zn  Zn19  1  0.00000000  0.35308700  0.31730100  1
  Zn  Zn20  1  0.50000000  0.43137400  0.73171400  1
  Zn  Zn21  1  0.50000000  0.29013600  0.82197100  1
  Zn  Zn22  1  0.00000000  0.06862600  0.23171400  1
  Zn  Zn23  1  0.00000000  0.15562200  0.67631400  1
  Zn  Zn24  1  0.50000000  0.34437800  0.17631400  1
  Zn  Zn25  1  0.00000000  0.07480000  0.39547300  1
  Zn  Zn26  1  0.00000000  0.92520000  0.89547300  1
  Zn  Zn27  1  0.50000000  0.70986400  0.32197100  1
  Zn  Zn28  1  0.00000000  0.64691300  0.81730100  1
  Zn  Zn29  1  0.50000000  0.85308700  0.31730100  1
  Zn  Zn30  1  0.00000000  0.93137400  0.73171400  1
  Zn  Zn31  1  0.00000000  0.79013600  0.82197100  1
  Zn  Zn32  1  0.50000000  0.56862600  0.23171400  1
  Zn  Zn33  1  0.50000000  0.65562200  0.67631400  1
  Zn  Zn34  1  0.00000000  0.84437800  0.17631400  1
  Zn  Zn35  1  0.50000000  0.57480000  0.39547300  1
  Ge  Ge36  1  0.50000000  0.43206300  0.05005300  1
  Ge  Ge37  1  0.00000000  0.27574400  0.17816200  1
  Ge  Ge38  1  0.50000000  0.43008000  0.57381900  1
  Ge  Ge39  1  0.00000000  0.38438800  0.81375100  1
  Ge  Ge40  1  0.50000000  0.44087600  0.31362200  1
  Ge  Ge41  1  0.00000000  0.05912400  0.81362200  1
  Ge  Ge42  1  0.50000000  0.11561200  0.31375100  1
  Ge  Ge43  1  0.00000000  0.28841200  0.45555000  1
  Ge  Ge44  1  0.50000000  0.21158800  0.95555000  1
  Ge  Ge45  1  0.00000000  0.06992000  0.07381900  1
  Ge  Ge46  1  0.50000000  0.22425600  0.67816200  1
  Ge  Ge47  1  0.00000000  0.06793700  0.55005300  1
  Ge  Ge48  1  0.00000000  0.93206300  0.05005300  1
  Ge  Ge49  1  0.50000000  0.77574400  0.17816200  1
  Ge  Ge50  1  0.00000000  0.93008000  0.57381900  1
  Ge  Ge51  1  0.50000000  0.88438800  0.81375100  1
  Ge  Ge52  1  0.00000000  0.94087600  0.31362200  1
  Ge  Ge53  1  0.50000000  0.55912400  0.81362200  1
  Ge  Ge54  1  0.00000000  0.61561200  0.31375100  1
  Ge  Ge55  1  0.50000000  0.78841200  0.45555000  1
  Ge  Ge56  1  0.00000000  0.71158800  0.95555000  1
  Ge  Ge57  1  0.50000000  0.56992000  0.07381900  1
  Ge  Ge58  1  0.00000000  0.72425600  0.67816200  1
  Ge  Ge59  1  0.50000000  0.56793700  0.55005300  1
