# generated using pymatgen
data_K5In(MoO4)4
_symmetry_space_group_name_H-M   'P 1'
_cell_length_a   14.92081600
_cell_length_b   12.32312800
_cell_length_c   10.72814871
_cell_angle_alpha   90.00000000
_cell_angle_beta   113.86367514
_cell_angle_gamma   90.00000000
_symmetry_Int_Tables_number   1
_chemical_formula_structural   K5In(MoO4)4
_chemical_formula_sum   'K20 In4 Mo16 O64'
_cell_volume   1803.96071484
_cell_formula_units_Z   4
loop_
 _symmetry_equiv_pos_site_id
 _symmetry_equiv_pos_as_xyz
  1  'x, y, z'
loop_
 _atom_site_type_symbol
 _atom_site_label
 _atom_site_symmetry_multiplicity
 _atom_site_fract_x
 _atom_site_fract_y
 _atom_site_fract_z
 _atom_site_occupancy
  K  K0  1  0.70922850  0.63338050  0.07208400  1
  K  K1  1  0.78200000  0.39968900  0.93735500  1
  K  K2  1  0.21800000  0.60031100  0.06264500  1
  K  K3  1  0.21800000  0.39968900  0.56264500  1
  K  K4  1  0.29077150  0.36661950  0.92791600  1
  K  K5  1  0.29077150  0.63338050  0.42791600  1
  K  K6  1  0.70922850  0.36661950  0.57208400  1
  K  K7  1  0.78200000  0.60031100  0.43735500  1
  K  K8  1  0.00000000  0.60931600  0.25000000  1
  K  K9  1  0.00000000  0.39068400  0.75000000  1
  K  K10  1  0.20922850  0.13338050  0.07208400  1
  K  K11  1  0.28200000  0.89968900  0.93735500  1
  K  K12  1  0.71800000  0.10031100  0.06264500  1
  K  K13  1  0.71800000  0.89968900  0.56264500  1
  K  K14  1  0.79077150  0.86661950  0.92791600  1
  K  K15  1  0.79077150  0.13338050  0.42791600  1
  K  K16  1  0.20922850  0.86661950  0.57208400  1
  K  K17  1  0.28200000  0.10031100  0.43735500  1
  K  K18  1  0.50000000  0.10931600  0.25000000  1
  K  K19  1  0.50000000  0.89068400  0.75000000  1
  In  In20  1  0.00000000  0.88497300  0.75000000  1
  In  In21  1  0.00000000  0.11502700  0.25000000  1
  In  In22  1  0.50000000  0.38497300  0.75000000  1
  In  In23  1  0.50000000  0.61502700  0.25000000  1
  Mo  Mo24  1  0.91326250  0.86909250  0.36881800  1
  Mo  Mo25  1  0.89641150  0.63414450  0.84017000  1
  Mo  Mo26  1  0.08673750  0.13090750  0.63118200  1
  Mo  Mo27  1  0.08673750  0.86909250  0.13118200  1
  Mo  Mo28  1  0.10358850  0.36585550  0.15983000  1
  Mo  Mo29  1  0.89641150  0.36585550  0.34017000  1
  Mo  Mo30  1  0.10358850  0.63414450  0.65983000  1
  Mo  Mo31  1  0.91326250  0.13090750  0.86881800  1
  Mo  Mo32  1  0.41326250  0.36909250  0.36881800  1
  Mo  Mo33  1  0.39641150  0.13414450  0.84017000  1
  Mo  Mo34  1  0.58673750  0.63090750  0.63118200  1
  Mo  Mo35  1  0.58673750  0.36909250  0.13118200  1
  Mo  Mo36  1  0.60358850  0.86585550  0.15983000  1
  Mo  Mo37  1  0.39641150  0.86585550  0.34017000  1
  Mo  Mo38  1  0.60358850  0.13414450  0.65983000  1
  Mo  Mo39  1  0.41326250  0.63090750  0.86881800  1
  O  O40  1  0.84480400  0.36591900  0.46420400  1
  O  O41  1  0.97802250  0.40500550  0.07842400  1
  O  O42  1  0.15519600  0.36591900  0.03579600  1
  O  O43  1  0.82755500  0.23452400  0.78264500  1
  O  O44  1  0.16679350  0.46660350  0.28463500  1
  O  O45  1  0.16679350  0.53339650  0.78463500  1
  O  O46  1  0.17244500  0.23452400  0.71735500  1
  O  O47  1  0.17244500  0.76547600  0.21735500  1
  O  O48  1  0.02197750  0.40500550  0.42157600  1
  O  O49  1  0.39496100  0.49462100  0.26896000  1
  O  O50  1  0.97802250  0.59499450  0.57842400  1
  O  O51  1  0.09422850  0.89716850  0.96928300  1
  O  O52  1  0.90577150  0.89716850  0.53071700  1
  O  O53  1  0.84480400  0.63408100  0.96420400  1
  O  O54  1  0.02197750  0.59499450  0.92157600  1
  O  O55  1  0.03049500  0.81787800  0.40351700  1
  O  O56  1  0.39496100  0.50537900  0.76896000  1
  O  O57  1  0.60503900  0.49462100  0.23104000  1
  O  O58  1  0.89307600  0.22935300  0.26415400  1
  O  O59  1  0.89307600  0.77064700  0.76415400  1
  O  O60  1  0.82755500  0.76547600  0.28264500  1
  O  O61  1  0.15519600  0.63408100  0.53579600  1
  O  O62  1  0.10692400  0.22935300  0.23584600  1
  O  O63  1  0.10692400  0.77064700  0.73584600  1
  O  O64  1  0.90577150  0.10283150  0.03071700  1
  O  O65  1  0.60503900  0.50537900  0.73104000  1
  O  O66  1  0.09422850  0.10283150  0.46928300  1
  O  O67  1  0.96950500  0.81787800  0.09648300  1
  O  O68  1  0.83320650  0.53339650  0.71536500  1
  O  O69  1  0.03049500  0.18212200  0.90351700  1
  O  O70  1  0.96950500  0.18212200  0.59648300  1
  O  O71  1  0.83320650  0.46660350  0.21536500  1
  O  O72  1  0.34480400  0.86591900  0.46420400  1
  O  O73  1  0.47802250  0.90500550  0.07842400  1
  O  O74  1  0.65519600  0.86591900  0.03579600  1
  O  O75  1  0.32755500  0.73452400  0.78264500  1
  O  O76  1  0.66679350  0.96660350  0.28463500  1
  O  O77  1  0.66679350  0.03339650  0.78463500  1
  O  O78  1  0.67244500  0.73452400  0.71735500  1
  O  O79  1  0.67244500  0.26547600  0.21735500  1
  O  O80  1  0.52197750  0.90500550  0.42157600  1
  O  O81  1  0.89496100  0.99462100  0.26896000  1
  O  O82  1  0.47802250  0.09499450  0.57842400  1
  O  O83  1  0.59422850  0.39716850  0.96928300  1
  O  O84  1  0.40577150  0.39716850  0.53071700  1
  O  O85  1  0.34480400  0.13408100  0.96420400  1
  O  O86  1  0.52197750  0.09499450  0.92157600  1
  O  O87  1  0.53049500  0.31787800  0.40351700  1
  O  O88  1  0.89496100  0.00537900  0.76896000  1
  O  O89  1  0.10503900  0.99462100  0.23104000  1
  O  O90  1  0.39307600  0.72935300  0.26415400  1
  O  O91  1  0.39307600  0.27064700  0.76415400  1
  O  O92  1  0.32755500  0.26547600  0.28264500  1
  O  O93  1  0.65519600  0.13408100  0.53579600  1
  O  O94  1  0.60692400  0.72935300  0.23584600  1
  O  O95  1  0.60692400  0.27064700  0.73584600  1
  O  O96  1  0.40577150  0.60283150  0.03071700  1
  O  O97  1  0.10503900  0.00537900  0.73104000  1
  O  O98  1  0.59422850  0.60283150  0.46928300  1
  O  O99  1  0.46950500  0.31787800  0.09648300  1
  O  O100  1  0.33320650  0.03339650  0.71536500  1
  O  O101  1  0.53049500  0.68212200  0.90351700  1
  O  O102  1  0.46950500  0.68212200  0.59648300  1
  O  O103  1  0.33320650  0.96660350  0.21536500  1
