# generated using pymatgen
data_Ba21Ge2O5
_symmetry_space_group_name_H-M   'P 1'
_cell_length_a   21.29919400
_cell_length_b   21.29919400
_cell_length_c   21.29919400
_cell_angle_alpha   90.00000000
_cell_angle_beta   90.00000000
_cell_angle_gamma   90.00000000
_symmetry_Int_Tables_number   1
_chemical_formula_structural   Ba21Ge2O5
_chemical_formula_sum   'Ba168 Ge16 O40'
_cell_volume   9662.50001909
_cell_formula_units_Z   8
loop_
 _symmetry_equiv_pos_site_id
 _symmetry_equiv_pos_as_xyz
  1  'x, y, z'
loop_
 _atom_site_type_symbol
 _atom_site_label
 _atom_site_symmetry_multiplicity
 _atom_site_fract_x
 _atom_site_fract_y
 _atom_site_fract_z
 _atom_site_occupancy
  Ba  Ba0  1  0.04577850  0.32397525  0.17602475  1
  Ba  Ba1  1  0.12613800  0.00000000  0.50000000  1
  Ba  Ba2  1  0.25000000  0.25000000  0.25000000  1
  Ba  Ba3  1  0.25000000  0.87613800  0.25000000  1
  Ba  Ba4  1  0.17602475  0.32397525  0.04577850  1
  Ba  Ba5  1  0.25000000  0.62386200  0.25000000  1
  Ba  Ba6  1  0.62500000  0.87500000  0.37500000  1
  Ba  Ba7  1  0.20422150  0.92602475  0.07397525  1
  Ba  Ba8  1  0.32397525  0.17602475  0.04577850  1
  Ba  Ba9  1  0.42602475  0.92602475  0.29577850  1
  Ba  Ba10  1  0.45422150  0.17602475  0.17602475  1
  Ba  Ba11  1  0.07397525  0.92602475  0.20422150  1
  Ba  Ba12  1  0.29577850  0.92602475  0.42602475  1
  Ba  Ba13  1  0.25000000  0.75000000  0.12386200  1
  Ba  Ba14  1  0.17602475  0.45422150  0.17602475  1
  Ba  Ba15  1  0.50000000  0.37386200  0.50000000  1
  Ba  Ba16  1  0.50000000  0.00000000  0.12613800  1
  Ba  Ba17  1  0.32397525  0.32397525  0.45422150  1
  Ba  Ba18  1  0.25000000  0.75000000  0.37613800  1
  Ba  Ba19  1  0.50000000  0.00000000  0.50000000  1
  Ba  Ba20  1  0.17602475  0.04577850  0.32397525  1
  Ba  Ba21  1  0.42602475  0.79577850  0.42602475  1
  Ba  Ba22  1  0.07397525  0.79577850  0.07397525  1
  Ba  Ba23  1  0.92602475  0.20422150  0.07397525  1
  Ba  Ba24  1  0.37613800  0.75000000  0.25000000  1
  Ba  Ba25  1  0.87386200  0.00000000  0.50000000  1
  Ba  Ba26  1  0.32397525  0.45422150  0.32397525  1
  Ba  Ba27  1  0.17602475  0.17602475  0.45422150  1
  Ba  Ba28  1  0.45422150  0.32397525  0.32397525  1
  Ba  Ba29  1  0.50000000  0.62613800  0.50000000  1
  Ba  Ba30  1  0.00000000  0.00000000  0.37386200  1
  Ba  Ba31  1  0.12500000  0.12500000  0.12500000  1
  Ba  Ba32  1  0.92602475  0.07397525  0.20422150  1
  Ba  Ba33  1  0.70422150  0.07397525  0.42602475  1
  Ba  Ba34  1  0.57397525  0.20422150  0.42602475  1
  Ba  Ba35  1  0.79577850  0.07397525  0.07397525  1
  Ba  Ba36  1  0.32397525  0.04577850  0.17602475  1
  Ba  Ba37  1  0.04577850  0.17602475  0.32397525  1
  Ba  Ba38  1  0.57397525  0.07397525  0.29577850  1
  Ba  Ba39  1  0.12386200  0.75000000  0.25000000  1
  Ba  Ba40  1  0.87500000  0.87500000  0.12500000  1
  Ba  Ba41  1  0.37500000  0.12500000  0.37500000  1
  Ba  Ba42  1  0.04577850  0.82397525  0.67602475  1
  Ba  Ba43  1  0.12613800  0.50000000  0.00000000  1
  Ba  Ba44  1  0.25000000  0.75000000  0.75000000  1
  Ba  Ba45  1  0.25000000  0.37613800  0.75000000  1
  Ba  Ba46  1  0.17602475  0.82397525  0.54577850  1
  Ba  Ba47  1  0.25000000  0.12386200  0.75000000  1
  Ba  Ba48  1  0.62500000  0.37500000  0.87500000  1
  Ba  Ba49  1  0.20422150  0.42602475  0.57397525  1
  Ba  Ba50  1  0.32397525  0.67602475  0.54577850  1
  Ba  Ba51  1  0.42602475  0.42602475  0.79577850  1
  Ba  Ba52  1  0.45422150  0.67602475  0.67602475  1
  Ba  Ba53  1  0.07397525  0.42602475  0.70422150  1
  Ba  Ba54  1  0.29577850  0.42602475  0.92602475  1
  Ba  Ba55  1  0.25000000  0.25000000  0.62386200  1
  Ba  Ba56  1  0.17602475  0.95422150  0.67602475  1
  Ba  Ba57  1  0.50000000  0.87386200  0.00000000  1
  Ba  Ba58  1  0.50000000  0.50000000  0.62613800  1
  Ba  Ba59  1  0.32397525  0.82397525  0.95422150  1
  Ba  Ba60  1  0.25000000  0.25000000  0.87613800  1
  Ba  Ba61  1  0.50000000  0.50000000  0.00000000  1
  Ba  Ba62  1  0.17602475  0.54577850  0.82397525  1
  Ba  Ba63  1  0.42602475  0.29577850  0.92602475  1
  Ba  Ba64  1  0.07397525  0.29577850  0.57397525  1
  Ba  Ba65  1  0.92602475  0.70422150  0.57397525  1
  Ba  Ba66  1  0.37613800  0.25000000  0.75000000  1
  Ba  Ba67  1  0.87386200  0.50000000  0.00000000  1
  Ba  Ba68  1  0.32397525  0.95422150  0.82397525  1
  Ba  Ba69  1  0.17602475  0.67602475  0.95422150  1
  Ba  Ba70  1  0.45422150  0.82397525  0.82397525  1
  Ba  Ba71  1  0.50000000  0.12613800  0.00000000  1
  Ba  Ba72  1  0.00000000  0.50000000  0.87386200  1
  Ba  Ba73  1  0.12500000  0.62500000  0.62500000  1
  Ba  Ba74  1  0.92602475  0.57397525  0.70422150  1
  Ba  Ba75  1  0.70422150  0.57397525  0.92602475  1
  Ba  Ba76  1  0.57397525  0.70422150  0.92602475  1
  Ba  Ba77  1  0.79577850  0.57397525  0.57397525  1
  Ba  Ba78  1  0.32397525  0.54577850  0.67602475  1
  Ba  Ba79  1  0.04577850  0.67602475  0.82397525  1
  Ba  Ba80  1  0.57397525  0.57397525  0.79577850  1
  Ba  Ba81  1  0.12386200  0.25000000  0.75000000  1
  Ba  Ba82  1  0.87500000  0.37500000  0.62500000  1
  Ba  Ba83  1  0.37500000  0.62500000  0.87500000  1
  Ba  Ba84  1  0.54577850  0.32397525  0.67602475  1
  Ba  Ba85  1  0.62613800  0.00000000  0.00000000  1
  Ba  Ba86  1  0.75000000  0.25000000  0.75000000  1
  Ba  Ba87  1  0.75000000  0.87613800  0.75000000  1
  Ba  Ba88  1  0.67602475  0.32397525  0.54577850  1
  Ba  Ba89  1  0.75000000  0.62386200  0.75000000  1
  Ba  Ba90  1  0.12500000  0.87500000  0.87500000  1
  Ba  Ba91  1  0.70422150  0.92602475  0.57397525  1
  Ba  Ba92  1  0.82397525  0.17602475  0.54577850  1
  Ba  Ba93  1  0.92602475  0.92602475  0.79577850  1
  Ba  Ba94  1  0.95422150  0.17602475  0.67602475  1
  Ba  Ba95  1  0.57397525  0.92602475  0.70422150  1
  Ba  Ba96  1  0.79577850  0.92602475  0.92602475  1
  Ba  Ba97  1  0.75000000  0.75000000  0.62386200  1
  Ba  Ba98  1  0.67602475  0.45422150  0.67602475  1
  Ba  Ba99  1  0.00000000  0.37386200  0.00000000  1
  Ba  Ba100  1  0.00000000  0.00000000  0.62613800  1
  Ba  Ba101  1  0.82397525  0.32397525  0.95422150  1
  Ba  Ba102  1  0.75000000  0.75000000  0.87613800  1
  Ba  Ba103  1  0.00000000  0.00000000  0.00000000  1
  Ba  Ba104  1  0.67602475  0.04577850  0.82397525  1
  Ba  Ba105  1  0.92602475  0.79577850  0.92602475  1
  Ba  Ba106  1  0.57397525  0.79577850  0.57397525  1
  Ba  Ba107  1  0.42602475  0.20422150  0.57397525  1
  Ba  Ba108  1  0.87613800  0.75000000  0.75000000  1
  Ba  Ba109  1  0.37386200  0.00000000  0.00000000  1
  Ba  Ba110  1  0.82397525  0.45422150  0.82397525  1
  Ba  Ba111  1  0.67602475  0.17602475  0.95422150  1
  Ba  Ba112  1  0.95422150  0.32397525  0.82397525  1
  Ba  Ba113  1  0.00000000  0.62613800  0.00000000  1
  Ba  Ba114  1  0.50000000  0.00000000  0.87386200  1
  Ba  Ba115  1  0.62500000  0.12500000  0.62500000  1
  Ba  Ba116  1  0.42602475  0.07397525  0.70422150  1
  Ba  Ba117  1  0.20422150  0.07397525  0.92602475  1
  Ba  Ba118  1  0.07397525  0.20422150  0.92602475  1
  Ba  Ba119  1  0.29577850  0.07397525  0.57397525  1
  Ba  Ba120  1  0.82397525  0.04577850  0.67602475  1
  Ba  Ba121  1  0.54577850  0.17602475  0.82397525  1
  Ba  Ba122  1  0.07397525  0.07397525  0.79577850  1
  Ba  Ba123  1  0.62386200  0.75000000  0.75000000  1
  Ba  Ba124  1  0.37500000  0.87500000  0.62500000  1
  Ba  Ba125  1  0.87500000  0.12500000  0.87500000  1
  Ba  Ba126  1  0.54577850  0.82397525  0.17602475  1
  Ba  Ba127  1  0.62613800  0.50000000  0.50000000  1
  Ba  Ba128  1  0.75000000  0.75000000  0.25000000  1
  Ba  Ba129  1  0.75000000  0.37613800  0.25000000  1
  Ba  Ba130  1  0.67602475  0.82397525  0.04577850  1
  Ba  Ba131  1  0.75000000  0.12386200  0.25000000  1
  Ba  Ba132  1  0.12500000  0.37500000  0.37500000  1
  Ba  Ba133  1  0.70422150  0.42602475  0.07397525  1
  Ba  Ba134  1  0.82397525  0.67602475  0.04577850  1
  Ba  Ba135  1  0.92602475  0.42602475  0.29577850  1
  Ba  Ba136  1  0.95422150  0.67602475  0.17602475  1
  Ba  Ba137  1  0.57397525  0.42602475  0.20422150  1
  Ba  Ba138  1  0.79577850  0.42602475  0.42602475  1
  Ba  Ba139  1  0.75000000  0.25000000  0.12386200  1
  Ba  Ba140  1  0.67602475  0.95422150  0.17602475  1
  Ba  Ba141  1  0.00000000  0.87386200  0.50000000  1
  Ba  Ba142  1  0.00000000  0.50000000  0.12613800  1
  Ba  Ba143  1  0.82397525  0.82397525  0.45422150  1
  Ba  Ba144  1  0.75000000  0.25000000  0.37613800  1
  Ba  Ba145  1  0.00000000  0.50000000  0.50000000  1
  Ba  Ba146  1  0.67602475  0.54577850  0.32397525  1
  Ba  Ba147  1  0.92602475  0.29577850  0.42602475  1
  Ba  Ba148  1  0.57397525  0.29577850  0.07397525  1
  Ba  Ba149  1  0.42602475  0.70422150  0.07397525  1
  Ba  Ba150  1  0.87613800  0.25000000  0.25000000  1
  Ba  Ba151  1  0.37386200  0.50000000  0.50000000  1
  Ba  Ba152  1  0.82397525  0.95422150  0.32397525  1
  Ba  Ba153  1  0.67602475  0.67602475  0.45422150  1
  Ba  Ba154  1  0.95422150  0.82397525  0.32397525  1
  Ba  Ba155  1  0.00000000  0.12613800  0.50000000  1
  Ba  Ba156  1  0.50000000  0.50000000  0.37386200  1
  Ba  Ba157  1  0.62500000  0.62500000  0.12500000  1
  Ba  Ba158  1  0.42602475  0.57397525  0.20422150  1
  Ba  Ba159  1  0.20422150  0.57397525  0.42602475  1
  Ba  Ba160  1  0.07397525  0.70422150  0.42602475  1
  Ba  Ba161  1  0.29577850  0.57397525  0.07397525  1
  Ba  Ba162  1  0.82397525  0.54577850  0.17602475  1
  Ba  Ba163  1  0.54577850  0.67602475  0.32397525  1
  Ba  Ba164  1  0.07397525  0.57397525  0.29577850  1
  Ba  Ba165  1  0.62386200  0.25000000  0.25000000  1
  Ba  Ba166  1  0.37500000  0.37500000  0.12500000  1
  Ba  Ba167  1  0.87500000  0.62500000  0.37500000  1
  Ge  Ge168  1  0.37500000  0.62500000  0.37500000  1
  Ge  Ge169  1  0.12500000  0.87500000  0.37500000  1
  Ge  Ge170  1  0.37500000  0.87500000  0.12500000  1
  Ge  Ge171  1  0.12500000  0.62500000  0.12500000  1
  Ge  Ge172  1  0.37500000  0.12500000  0.87500000  1
  Ge  Ge173  1  0.12500000  0.37500000  0.87500000  1
  Ge  Ge174  1  0.37500000  0.37500000  0.62500000  1
  Ge  Ge175  1  0.12500000  0.12500000  0.62500000  1
  Ge  Ge176  1  0.87500000  0.62500000  0.87500000  1
  Ge  Ge177  1  0.62500000  0.87500000  0.87500000  1
  Ge  Ge178  1  0.87500000  0.87500000  0.62500000  1
  Ge  Ge179  1  0.62500000  0.62500000  0.62500000  1
  Ge  Ge180  1  0.87500000  0.12500000  0.37500000  1
  Ge  Ge181  1  0.62500000  0.37500000  0.37500000  1
  Ge  Ge182  1  0.87500000  0.37500000  0.12500000  1
  Ge  Ge183  1  0.62500000  0.12500000  0.12500000  1
  O  O184  1  0.84189000  0.15811000  0.15811000  1
  O  O185  1  0.25000000  0.75000000  0.25000000  1
  O  O186  1  0.65811000  0.15811000  0.34189000  1
  O  O187  1  0.00000000  0.00000000  0.50000000  1
  O  O188  1  0.09189000  0.40811000  0.09189000  1
  O  O189  1  0.40811000  0.40811000  0.40811000  1
  O  O190  1  0.09189000  0.09189000  0.40811000  1
  O  O191  1  0.15811000  0.84189000  0.15811000  1
  O  O192  1  0.34189000  0.84189000  0.34189000  1
  O  O193  1  0.40811000  0.09189000  0.09189000  1
  O  O194  1  0.84189000  0.65811000  0.65811000  1
  O  O195  1  0.25000000  0.25000000  0.75000000  1
  O  O196  1  0.65811000  0.65811000  0.84189000  1
  O  O197  1  0.00000000  0.50000000  0.00000000  1
  O  O198  1  0.09189000  0.90811000  0.59189000  1
  O  O199  1  0.40811000  0.90811000  0.90811000  1
  O  O200  1  0.09189000  0.59189000  0.90811000  1
  O  O201  1  0.15811000  0.34189000  0.65811000  1
  O  O202  1  0.34189000  0.34189000  0.84189000  1
  O  O203  1  0.40811000  0.59189000  0.59189000  1
  O  O204  1  0.34189000  0.15811000  0.65811000  1
  O  O205  1  0.75000000  0.75000000  0.75000000  1
  O  O206  1  0.15811000  0.15811000  0.84189000  1
  O  O207  1  0.50000000  0.00000000  0.00000000  1
  O  O208  1  0.59189000  0.40811000  0.59189000  1
  O  O209  1  0.90811000  0.40811000  0.90811000  1
  O  O210  1  0.59189000  0.09189000  0.90811000  1
  O  O211  1  0.65811000  0.84189000  0.65811000  1
  O  O212  1  0.84189000  0.84189000  0.84189000  1
  O  O213  1  0.90811000  0.09189000  0.59189000  1
  O  O214  1  0.34189000  0.65811000  0.15811000  1
  O  O215  1  0.75000000  0.25000000  0.25000000  1
  O  O216  1  0.15811000  0.65811000  0.34189000  1
  O  O217  1  0.50000000  0.50000000  0.50000000  1
  O  O218  1  0.59189000  0.90811000  0.09189000  1
  O  O219  1  0.90811000  0.90811000  0.40811000  1
  O  O220  1  0.59189000  0.59189000  0.40811000  1
  O  O221  1  0.65811000  0.34189000  0.15811000  1
  O  O222  1  0.84189000  0.34189000  0.34189000  1
  O  O223  1  0.90811000  0.59189000  0.09189000  1
