# generated using pymatgen
data_Ce4In8Ni7
_symmetry_space_group_name_H-M   'P 1'
_cell_length_a   14.50169386
_cell_length_b   23.93325832
_cell_length_c   4.40930500
_cell_angle_alpha   90.00000000
_cell_angle_beta   90.00000000
_cell_angle_gamma   90.00000000
_symmetry_Int_Tables_number   1
_chemical_formula_structural   Ce4In8Ni7
_chemical_formula_sum   'Ce16 In32 Ni28'
_cell_volume   1530.34976670
_cell_formula_units_Z   4
loop_
 _symmetry_equiv_pos_site_id
 _symmetry_equiv_pos_as_xyz
  1  'x, y, z'
loop_
 _atom_site_type_symbol
 _atom_site_label
 _atom_site_symmetry_multiplicity
 _atom_site_fract_x
 _atom_site_fract_y
 _atom_site_fract_z
 _atom_site_occupancy
  Ce  Ce0  1  0.32773100  0.32490200  0.00000000  1
  Ce  Ce1  1  0.50000000  0.89636300  0.50000000  1
  Ce  Ce2  1  0.67226900  0.32490200  0.00000000  1
  Ce  Ce3  1  0.19050700  0.00000000  0.00000000  1
  Ce  Ce4  1  0.67226900  0.67509800  0.00000000  1
  Ce  Ce5  1  0.50000000  0.10363700  0.50000000  1
  Ce  Ce6  1  0.32773100  0.67509800  0.00000000  1
  Ce  Ce7  1  0.80949300  0.00000000  0.00000000  1
  Ce  Ce8  1  0.82773100  0.82490200  0.00000000  1
  Ce  Ce9  1  0.00000000  0.39636300  0.50000000  1
  Ce  Ce10  1  0.17226900  0.82490200  0.00000000  1
  Ce  Ce11  1  0.69050700  0.50000000  0.00000000  1
  Ce  Ce12  1  0.17226900  0.17509800  0.00000000  1
  Ce  Ce13  1  0.00000000  0.60363700  0.50000000  1
  Ce  Ce14  1  0.82773100  0.17509800  0.00000000  1
  Ce  Ce15  1  0.30949300  0.50000000  0.00000000  1
  In  In16  1  0.72439950  0.90541550  0.50000000  1
  In  In17  1  0.34041850  0.21804850  0.50000000  1
  In  In18  1  0.50000000  0.22097200  0.00000000  1
  In  In19  1  0.50000000  0.41522300  0.00000000  1
  In  In20  1  0.34041850  0.78195150  0.50000000  1
  In  In21  1  0.72439950  0.09458450  0.50000000  1
  In  In22  1  0.27560050  0.90541550  0.50000000  1
  In  In23  1  0.50000000  0.30908200  0.50000000  1
  In  In24  1  0.65958150  0.78195150  0.50000000  1
  In  In25  1  0.27560050  0.09458450  0.50000000  1
  In  In26  1  0.50000000  0.77902800  0.00000000  1
  In  In27  1  0.50000000  0.58477700  0.00000000  1
  In  In28  1  0.00000000  0.00000000  0.50000000  1
  In  In29  1  0.50000000  0.69091800  0.50000000  1
  In  In30  1  0.65958150  0.21804850  0.50000000  1
  In  In31  1  0.50000000  0.00000000  0.00000000  1
  In  In32  1  0.22439950  0.40541550  0.50000000  1
  In  In33  1  0.84041850  0.71804850  0.50000000  1
  In  In34  1  0.00000000  0.72097200  0.00000000  1
  In  In35  1  0.00000000  0.91522300  0.00000000  1
  In  In36  1  0.84041850  0.28195150  0.50000000  1
  In  In37  1  0.22439950  0.59458450  0.50000000  1
  In  In38  1  0.77560050  0.40541550  0.50000000  1
  In  In39  1  0.00000000  0.80908200  0.50000000  1
  In  In40  1  0.15958150  0.28195150  0.50000000  1
  In  In41  1  0.77560050  0.59458450  0.50000000  1
  In  In42  1  0.00000000  0.27902800  0.00000000  1
  In  In43  1  0.00000000  0.08477700  0.00000000  1
  In  In44  1  0.50000000  0.50000000  0.50000000  1
  In  In45  1  0.00000000  0.19091800  0.50000000  1
  In  In46  1  0.15958150  0.71804850  0.50000000  1
  In  In47  1  0.00000000  0.50000000  0.00000000  1
  Ni  Ni48  1  0.65006300  0.05354100  0.00000000  1
  Ni  Ni49  1  0.38293500  0.00000000  0.50000000  1
  Ni  Ni50  1  0.65006300  0.94645900  0.00000000  1
  Ni  Ni51  1  0.64446300  0.15452900  0.00000000  1
  Ni  Ni52  1  0.35553700  0.84547100  0.00000000  1
  Ni  Ni53  1  0.90256400  0.09628100  0.50000000  1
  Ni  Ni54  1  0.61706500  0.00000000  0.50000000  1
  Ni  Ni55  1  0.09743600  0.09628100  0.50000000  1
  Ni  Ni56  1  0.09743600  0.90371900  0.50000000  1
  Ni  Ni57  1  0.90256400  0.90371900  0.50000000  1
  Ni  Ni58  1  0.35553700  0.15452900  0.00000000  1
  Ni  Ni59  1  0.64446300  0.84547100  0.00000000  1
  Ni  Ni60  1  0.34993700  0.05354100  0.00000000  1
  Ni  Ni61  1  0.34993700  0.94645900  0.00000000  1
  Ni  Ni62  1  0.15006300  0.55354100  0.00000000  1
  Ni  Ni63  1  0.88293500  0.50000000  0.50000000  1
  Ni  Ni64  1  0.15006300  0.44645900  0.00000000  1
  Ni  Ni65  1  0.14446300  0.65452900  0.00000000  1
  Ni  Ni66  1  0.85553700  0.34547100  0.00000000  1
  Ni  Ni67  1  0.40256400  0.59628100  0.50000000  1
  Ni  Ni68  1  0.11706500  0.50000000  0.50000000  1
  Ni  Ni69  1  0.59743600  0.59628100  0.50000000  1
  Ni  Ni70  1  0.59743600  0.40371900  0.50000000  1
  Ni  Ni71  1  0.40256400  0.40371900  0.50000000  1
  Ni  Ni72  1  0.85553700  0.65452900  0.00000000  1
  Ni  Ni73  1  0.14446300  0.34547100  0.00000000  1
  Ni  Ni74  1  0.84993700  0.55354100  0.00000000  1
  Ni  Ni75  1  0.84993700  0.44645900  0.00000000  1
