# generated using pymatgen
data_Eu3Fe5O12
_symmetry_space_group_name_H-M   'P 1'
_cell_length_a   12.71666200
_cell_length_b   12.71666200
_cell_length_c   12.71666200
_cell_angle_alpha   90.00000000
_cell_angle_beta   90.00000000
_cell_angle_gamma   90.00000000
_symmetry_Int_Tables_number   1
_chemical_formula_structural   Eu3Fe5O12
_chemical_formula_sum   'Eu24 Fe40 O96'
_cell_volume   2056.45582397
_cell_formula_units_Z   8
loop_
 _symmetry_equiv_pos_site_id
 _symmetry_equiv_pos_as_xyz
  1  'x, y, z'
loop_
 _atom_site_type_symbol
 _atom_site_label
 _atom_site_symmetry_multiplicity
 _atom_site_fract_x
 _atom_site_fract_y
 _atom_site_fract_z
 _atom_site_occupancy
  Eu  Eu0  1  0.50000000  0.25000000  0.37500000  1
  Eu  Eu1  1  0.87500000  0.50000000  0.25000000  1
  Eu  Eu2  1  0.25000000  0.62500000  0.00000000  1
  Eu  Eu3  1  0.25000000  0.12500000  0.00000000  1
  Eu  Eu4  1  0.12500000  0.00000000  0.25000000  1
  Eu  Eu5  1  0.25000000  0.37500000  0.50000000  1
  Eu  Eu6  1  0.00000000  0.25000000  0.62500000  1
  Eu  Eu7  1  0.50000000  0.25000000  0.87500000  1
  Eu  Eu8  1  0.00000000  0.25000000  0.12500000  1
  Eu  Eu9  1  0.62500000  0.00000000  0.25000000  1
  Eu  Eu10  1  0.37500000  0.50000000  0.25000000  1
  Eu  Eu11  1  0.25000000  0.87500000  0.50000000  1
  Eu  Eu12  1  0.00000000  0.75000000  0.87500000  1
  Eu  Eu13  1  0.37500000  0.00000000  0.75000000  1
  Eu  Eu14  1  0.75000000  0.12500000  0.50000000  1
  Eu  Eu15  1  0.75000000  0.62500000  0.50000000  1
  Eu  Eu16  1  0.62500000  0.50000000  0.75000000  1
  Eu  Eu17  1  0.75000000  0.87500000  0.00000000  1
  Eu  Eu18  1  0.50000000  0.75000000  0.12500000  1
  Eu  Eu19  1  0.00000000  0.75000000  0.37500000  1
  Eu  Eu20  1  0.50000000  0.75000000  0.62500000  1
  Eu  Eu21  1  0.12500000  0.50000000  0.75000000  1
  Eu  Eu22  1  0.87500000  0.00000000  0.75000000  1
  Eu  Eu23  1  0.75000000  0.37500000  0.00000000  1
  Fe  Fe24  1  0.75000000  0.37500000  0.50000000  1
  Fe  Fe25  1  0.12500000  0.00000000  0.75000000  1
  Fe  Fe26  1  0.75000000  0.12500000  0.00000000  1
  Fe  Fe27  1  0.50000000  0.00000000  0.00000000  1
  Fe  Fe28  1  0.25000000  0.75000000  0.25000000  1
  Fe  Fe29  1  0.25000000  0.25000000  0.25000000  1
  Fe  Fe30  1  0.00000000  0.00000000  0.00000000  1
  Fe  Fe31  1  0.50000000  0.25000000  0.12500000  1
  Fe  Fe32  1  0.25000000  0.12500000  0.50000000  1
  Fe  Fe33  1  0.00000000  0.25000000  0.37500000  1
  Fe  Fe34  1  0.00000000  0.00000000  0.50000000  1
  Fe  Fe35  1  0.12500000  0.50000000  0.25000000  1
  Fe  Fe36  1  0.37500000  0.00000000  0.25000000  1
  Fe  Fe37  1  0.37500000  0.50000000  0.75000000  1
  Fe  Fe38  1  0.00000000  0.50000000  0.00000000  1
  Fe  Fe39  1  0.25000000  0.37500000  0.00000000  1
  Fe  Fe40  1  0.50000000  0.75000000  0.37500000  1
  Fe  Fe41  1  0.25000000  0.25000000  0.75000000  1
  Fe  Fe42  1  0.00000000  0.75000000  0.12500000  1
  Fe  Fe43  1  0.75000000  0.25000000  0.25000000  1
  Fe  Fe44  1  0.25000000  0.87500000  0.00000000  1
  Fe  Fe45  1  0.62500000  0.50000000  0.25000000  1
  Fe  Fe46  1  0.25000000  0.62500000  0.50000000  1
  Fe  Fe47  1  0.00000000  0.50000000  0.50000000  1
  Fe  Fe48  1  0.75000000  0.25000000  0.75000000  1
  Fe  Fe49  1  0.75000000  0.75000000  0.75000000  1
  Fe  Fe50  1  0.50000000  0.50000000  0.50000000  1
  Fe  Fe51  1  0.00000000  0.75000000  0.62500000  1
  Fe  Fe52  1  0.75000000  0.62500000  0.00000000  1
  Fe  Fe53  1  0.50000000  0.75000000  0.87500000  1
  Fe  Fe54  1  0.50000000  0.50000000  0.00000000  1
  Fe  Fe55  1  0.62500000  0.00000000  0.75000000  1
  Fe  Fe56  1  0.87500000  0.50000000  0.75000000  1
  Fe  Fe57  1  0.87500000  0.00000000  0.25000000  1
  Fe  Fe58  1  0.50000000  0.00000000  0.50000000  1
  Fe  Fe59  1  0.75000000  0.87500000  0.50000000  1
  Fe  Fe60  1  0.00000000  0.25000000  0.87500000  1
  Fe  Fe61  1  0.75000000  0.75000000  0.25000000  1
  Fe  Fe62  1  0.50000000  0.25000000  0.62500000  1
  Fe  Fe63  1  0.25000000  0.75000000  0.75000000  1
  O  O64  1  0.35054850  0.47143350  0.05352250  1
  O  O65  1  0.27856650  0.10054850  0.19647750  1
  O  O66  1  0.55352250  0.35054850  0.02856650  1
  O  O67  1  0.05352250  0.35054850  0.47143350  1
  O  O68  1  0.44647750  0.14945150  0.02856650  1
  O  O69  1  0.05352250  0.64945150  0.02856650  1
  O  O70  1  0.89945150  0.19647750  0.77856650  1
  O  O71  1  0.44647750  0.85054850  0.47143350  1
  O  O72  1  0.14945150  0.97143350  0.05352250  1
  O  O73  1  0.60054850  0.80352250  0.27856650  1
  O  O74  1  0.64945150  0.02856650  0.05352250  1
  O  O75  1  0.22143350  0.39945150  0.30352250  1
  O  O76  1  0.30352250  0.22143350  0.39945150  1
  O  O77  1  0.47143350  0.05352250  0.35054850  1
  O  O78  1  0.72143350  0.60054850  0.30352250  1
  O  O79  1  0.97143350  0.05352250  0.14945150  1
  O  O80  1  0.22143350  0.89945150  0.69647750  1
  O  O81  1  0.30352250  0.27856650  0.89945150  1
  O  O82  1  0.19647750  0.27856650  0.10054850  1
  O  O83  1  0.35054850  0.02856650  0.55352250  1
  O  O84  1  0.27856650  0.60054850  0.80352250  1
  O  O85  1  0.02856650  0.44647750  0.14945150  1
  O  O86  1  0.77856650  0.89945150  0.19647750  1
  O  O87  1  0.27856650  0.89945150  0.30352250  1
  O  O88  1  0.52856650  0.44647750  0.35054850  1
  O  O89  1  0.89945150  0.69647750  0.22143350  1
  O  O90  1  0.80352250  0.27856650  0.60054850  1
  O  O91  1  0.35054850  0.52856650  0.44647750  1
  O  O92  1  0.85054850  0.47143350  0.44647750  1
  O  O93  1  0.69647750  0.22143350  0.89945150  1
  O  O94  1  0.02856650  0.05352250  0.64945150  1
  O  O95  1  0.60054850  0.19647750  0.22143350  1
  O  O96  1  0.94647750  0.14945150  0.47143350  1
  O  O97  1  0.02856650  0.55352250  0.35054850  1
  O  O98  1  0.22143350  0.60054850  0.19647750  1
  O  O99  1  0.19647750  0.22143350  0.60054850  1
  O  O100  1  0.19647750  0.77856650  0.89945150  1
  O  O101  1  0.39945150  0.30352250  0.22143350  1
  O  O102  1  0.14945150  0.47143350  0.94647750  1
  O  O103  1  0.47143350  0.44647750  0.85054850  1
  O  O104  1  0.05352250  0.14945150  0.97143350  1
  O  O105  1  0.30352250  0.72143350  0.60054850  1
  O  O106  1  0.10054850  0.19647750  0.27856650  1
  O  O107  1  0.89945150  0.30352250  0.27856650  1
  O  O108  1  0.60054850  0.30352250  0.72143350  1
  O  O109  1  0.44647750  0.35054850  0.52856650  1
  O  O110  1  0.14945150  0.02856650  0.44647750  1
  O  O111  1  0.47143350  0.94647750  0.14945150  1
  O  O112  1  0.85054850  0.97143350  0.55352250  1
  O  O113  1  0.77856650  0.60054850  0.69647750  1
  O  O114  1  0.05352250  0.85054850  0.52856650  1
  O  O115  1  0.55352250  0.85054850  0.97143350  1
  O  O116  1  0.94647750  0.64945150  0.52856650  1
  O  O117  1  0.55352250  0.14945150  0.52856650  1
  O  O118  1  0.39945150  0.69647750  0.27856650  1
  O  O119  1  0.94647750  0.35054850  0.97143350  1
  O  O120  1  0.64945150  0.47143350  0.55352250  1
  O  O121  1  0.10054850  0.30352250  0.77856650  1
  O  O122  1  0.14945150  0.52856650  0.55352250  1
  O  O123  1  0.72143350  0.89945150  0.80352250  1
  O  O124  1  0.80352250  0.72143350  0.89945150  1
  O  O125  1  0.97143350  0.55352250  0.85054850  1
  O  O126  1  0.22143350  0.10054850  0.80352250  1
  O  O127  1  0.47143350  0.55352250  0.64945150  1
  O  O128  1  0.72143350  0.39945150  0.19647750  1
  O  O129  1  0.80352250  0.77856650  0.39945150  1
  O  O130  1  0.69647750  0.77856650  0.60054850  1
  O  O131  1  0.85054850  0.52856650  0.05352250  1
  O  O132  1  0.77856650  0.10054850  0.30352250  1
  O  O133  1  0.52856650  0.94647750  0.64945150  1
  O  O134  1  0.27856650  0.39945150  0.69647750  1
  O  O135  1  0.77856650  0.39945150  0.80352250  1
  O  O136  1  0.02856650  0.94647750  0.85054850  1
  O  O137  1  0.39945150  0.19647750  0.72143350  1
  O  O138  1  0.30352250  0.77856650  0.10054850  1
  O  O139  1  0.85054850  0.02856650  0.94647750  1
  O  O140  1  0.35054850  0.97143350  0.94647750  1
  O  O141  1  0.19647750  0.72143350  0.39945150  1
  O  O142  1  0.52856650  0.55352250  0.14945150  1
  O  O143  1  0.10054850  0.69647750  0.72143350  1
  O  O144  1  0.44647750  0.64945150  0.97143350  1
  O  O145  1  0.52856650  0.05352250  0.85054850  1
  O  O146  1  0.72143350  0.10054850  0.69647750  1
  O  O147  1  0.69647750  0.72143350  0.10054850  1
  O  O148  1  0.69647750  0.27856650  0.39945150  1
  O  O149  1  0.89945150  0.80352250  0.72143350  1
  O  O150  1  0.64945150  0.97143350  0.44647750  1
  O  O151  1  0.97143350  0.94647750  0.35054850  1
  O  O152  1  0.55352250  0.64945150  0.47143350  1
  O  O153  1  0.80352250  0.22143350  0.10054850  1
  O  O154  1  0.60054850  0.69647750  0.77856650  1
  O  O155  1  0.39945150  0.80352250  0.77856650  1
  O  O156  1  0.10054850  0.80352250  0.22143350  1
  O  O157  1  0.94647750  0.85054850  0.02856650  1
  O  O158  1  0.64945150  0.52856650  0.94647750  1
  O  O159  1  0.97143350  0.44647750  0.64945150  1
