# generated using pymatgen
data_Sc44Os7
_symmetry_space_group_name_H-M   'P 1'
_cell_length_a   20.76927400
_cell_length_b   20.76927400
_cell_length_c   20.76927400
_cell_angle_alpha   90.00000000
_cell_angle_beta   90.00000000
_cell_angle_gamma   90.00000000
_symmetry_Int_Tables_number   1
_chemical_formula_structural   Sc44Os7
_chemical_formula_sum   'Sc352 Os56'
_cell_volume   8959.09099211
_cell_formula_units_Z   8
loop_
 _symmetry_equiv_pos_site_id
 _symmetry_equiv_pos_as_xyz
  1  'x, y, z'
loop_
 _atom_site_type_symbol
 _atom_site_label
 _atom_site_symmetry_multiplicity
 _atom_site_fract_x
 _atom_site_fract_y
 _atom_site_fract_z
 _atom_site_occupancy
  Sc  Sc0  1  0.10675025  0.28862250  0.39324975  1
  Sc  Sc1  1  0.16371967  0.16371967  0.83628033  1
  Sc  Sc2  1  0.80314475  0.30314475  0.98544550  1
  Sc  Sc3  1  0.25000000  0.25000000  0.14306700  1
  Sc  Sc4  1  0.25000000  0.25000000  0.35693300  1
  Sc  Sc5  1  0.19104667  0.19104667  0.69104667  1
  Sc  Sc6  1  0.19685525  0.30314475  0.01455450  1
  Sc  Sc7  1  0.28862250  0.10675025  0.39324975  1
  Sc  Sc8  1  0.30314475  0.01455450  0.19685525  1
  Sc  Sc9  1  0.15984300  0.47849200  0.65984300  1
  Sc  Sc10  1  0.58907550  0.08907550  0.21524000  1
  Sc  Sc11  1  0.44052300  0.05947700  0.94052300  1
  Sc  Sc12  1  0.34015700  0.34015700  0.97849200  1
  Sc  Sc13  1  0.47849200  0.15984300  0.65984300  1
  Sc  Sc14  1  0.71524000  0.08907550  0.08907550  1
  Sc  Sc15  1  0.94327050  0.33660900  0.94327050  1
  Sc  Sc16  1  0.18926800  0.00000000  0.00000000  1
  Sc  Sc17  1  0.21137750  0.10675025  0.10675025  1
  Sc  Sc18  1  0.55947700  0.05947700  0.05947700  1
  Sc  Sc19  1  0.66339100  0.05672950  0.94327050  1
  Sc  Sc20  1  0.02150800  0.15984300  0.84015700  1
  Sc  Sc21  1  0.15984300  0.02150800  0.84015700  1
  Sc  Sc22  1  0.30314475  0.19685525  0.01455450  1
  Sc  Sc23  1  0.16371967  0.33628033  0.66371967  1
  Sc  Sc24  1  0.50000000  0.31073200  0.00000000  1
  Sc  Sc25  1  0.34015700  0.15984300  0.52150800  1
  Sc  Sc26  1  0.00000000  0.18926800  0.00000000  1
  Sc  Sc27  1  0.39324975  0.21137750  0.39324975  1
  Sc  Sc28  1  0.25000000  0.35693300  0.25000000  1
  Sc  Sc29  1  0.91092450  0.28476000  0.08907550  1
  Sc  Sc30  1  0.25000000  0.14306700  0.25000000  1
  Sc  Sc31  1  0.08907550  0.41092450  0.78476000  1
  Sc  Sc32  1  0.41092450  0.21524000  0.91092450  1
  Sc  Sc33  1  0.30895333  0.30895333  0.69104667  1
  Sc  Sc34  1  0.69685525  0.01455450  0.80314475  1
  Sc  Sc35  1  0.10675025  0.39324975  0.28862250  1
  Sc  Sc36  1  0.80314475  0.48544550  0.80314475  1
  Sc  Sc37  1  0.44327050  0.16339100  0.05672950  1
  Sc  Sc38  1  0.81073200  0.00000000  0.00000000  1
  Sc  Sc39  1  0.15984300  0.34015700  0.52150800  1
  Sc  Sc40  1  0.19685525  0.48544550  0.19685525  1
  Sc  Sc41  1  0.10675025  0.21137750  0.10675025  1
  Sc  Sc42  1  0.44303700  0.44303700  0.94303700  1
  Sc  Sc43  1  0.55672950  0.05672950  0.83660900  1
  Sc  Sc44  1  0.69685525  0.19685525  0.98544550  1
  Sc  Sc45  1  0.94052300  0.44052300  0.05947700  1
  Sc  Sc46  1  0.94327050  0.44327050  0.83660900  1
  Sc  Sc47  1  0.41092450  0.08907550  0.78476000  1
  Sc  Sc48  1  0.28862250  0.39324975  0.10675025  1
  Sc  Sc49  1  0.19104667  0.30895333  0.80895333  1
  Sc  Sc50  1  0.39324975  0.39324975  0.21137750  1
  Sc  Sc51  1  0.39324975  0.28862250  0.10675025  1
  Sc  Sc52  1  0.51455450  0.19685525  0.80314475  1
  Sc  Sc53  1  0.91092450  0.41092450  0.21524000  1
  Sc  Sc54  1  0.05672950  0.44327050  0.16339100  1
  Sc  Sc55  1  0.28476000  0.08907550  0.91092450  1
  Sc  Sc56  1  0.98544550  0.30314475  0.80314475  1
  Sc  Sc57  1  0.33628033  0.16371967  0.66371967  1
  Sc  Sc58  1  0.35693300  0.25000000  0.25000000  1
  Sc  Sc59  1  0.78476000  0.41092450  0.08907550  1
  Sc  Sc60  1  0.34015700  0.47849200  0.84015700  1
  Sc  Sc61  1  0.44327050  0.05672950  0.16339100  1
  Sc  Sc62  1  0.50000000  0.00000000  0.31073200  1
  Sc  Sc63  1  0.33660900  0.05672950  0.05672950  1
  Sc  Sc64  1  0.08907550  0.28476000  0.91092450  1
  Sc  Sc65  1  0.44303700  0.05696300  0.55696300  1
  Sc  Sc66  1  0.05947700  0.44052300  0.94052300  1
  Sc  Sc67  1  0.01455450  0.30314475  0.19685525  1
  Sc  Sc68  1  0.05672950  0.33660900  0.05672950  1
  Sc  Sc69  1  0.05696300  0.44303700  0.55696300  1
  Sc  Sc70  1  0.50000000  0.00000000  0.68926800  1
  Sc  Sc71  1  0.34015700  0.02150800  0.65984300  1
  Sc  Sc72  1  0.05696300  0.05696300  0.94303700  1
  Sc  Sc73  1  0.16339100  0.44327050  0.05672950  1
  Sc  Sc74  1  0.58907550  0.21524000  0.08907550  1
  Sc  Sc75  1  0.55672950  0.16339100  0.94327050  1
  Sc  Sc76  1  0.21524000  0.41092450  0.91092450  1
  Sc  Sc77  1  0.39324975  0.10675025  0.28862250  1
  Sc  Sc78  1  0.21137750  0.39324975  0.39324975  1
  Sc  Sc79  1  0.48544550  0.19685525  0.19685525  1
  Sc  Sc80  1  0.15984300  0.15984300  0.97849200  1
  Sc  Sc81  1  0.47849200  0.34015700  0.84015700  1
  Sc  Sc82  1  0.83660900  0.44327050  0.94327050  1
  Sc  Sc83  1  0.02150800  0.34015700  0.65984300  1
  Sc  Sc84  1  0.33628033  0.33628033  0.83628033  1
  Sc  Sc85  1  0.10675025  0.10675025  0.21137750  1
  Sc  Sc86  1  0.30895333  0.19104667  0.80895333  1
  Sc  Sc87  1  0.14306700  0.25000000  0.25000000  1
  Sc  Sc88  1  0.10675025  0.78862250  0.89324975  1
  Sc  Sc89  1  0.16371967  0.66371967  0.33628033  1
  Sc  Sc90  1  0.80314475  0.80314475  0.48544550  1
  Sc  Sc91  1  0.25000000  0.75000000  0.64306700  1
  Sc  Sc92  1  0.25000000  0.75000000  0.85693300  1
  Sc  Sc93  1  0.19104667  0.69104667  0.19104667  1
  Sc  Sc94  1  0.19685525  0.80314475  0.51455450  1
  Sc  Sc95  1  0.28862250  0.60675025  0.89324975  1
  Sc  Sc96  1  0.30314475  0.51455450  0.69685525  1
  Sc  Sc97  1  0.15984300  0.97849200  0.15984300  1
  Sc  Sc98  1  0.58907550  0.58907550  0.71524000  1
  Sc  Sc99  1  0.44052300  0.55947700  0.44052300  1
  Sc  Sc100  1  0.34015700  0.84015700  0.47849200  1
  Sc  Sc101  1  0.47849200  0.65984300  0.15984300  1
  Sc  Sc102  1  0.71524000  0.58907550  0.58907550  1
  Sc  Sc103  1  0.94327050  0.83660900  0.44327050  1
  Sc  Sc104  1  0.18926800  0.50000000  0.50000000  1
  Sc  Sc105  1  0.21137750  0.60675025  0.60675025  1
  Sc  Sc106  1  0.55947700  0.55947700  0.55947700  1
  Sc  Sc107  1  0.66339100  0.55672950  0.44327050  1
  Sc  Sc108  1  0.02150800  0.65984300  0.34015700  1
  Sc  Sc109  1  0.15984300  0.52150800  0.34015700  1
  Sc  Sc110  1  0.30314475  0.69685525  0.51455450  1
  Sc  Sc111  1  0.16371967  0.83628033  0.16371967  1
  Sc  Sc112  1  0.50000000  0.81073200  0.50000000  1
  Sc  Sc113  1  0.34015700  0.65984300  0.02150800  1
  Sc  Sc114  1  0.00000000  0.68926800  0.50000000  1
  Sc  Sc115  1  0.39324975  0.71137750  0.89324975  1
  Sc  Sc116  1  0.25000000  0.85693300  0.75000000  1
  Sc  Sc117  1  0.91092450  0.78476000  0.58907550  1
  Sc  Sc118  1  0.25000000  0.64306700  0.75000000  1
  Sc  Sc119  1  0.08907550  0.91092450  0.28476000  1
  Sc  Sc120  1  0.41092450  0.71524000  0.41092450  1
  Sc  Sc121  1  0.30895333  0.80895333  0.19104667  1
  Sc  Sc122  1  0.69685525  0.51455450  0.30314475  1
  Sc  Sc123  1  0.10675025  0.89324975  0.78862250  1
  Sc  Sc124  1  0.80314475  0.98544550  0.30314475  1
  Sc  Sc125  1  0.44327050  0.66339100  0.55672950  1
  Sc  Sc126  1  0.81073200  0.50000000  0.50000000  1
  Sc  Sc127  1  0.15984300  0.84015700  0.02150800  1
  Sc  Sc128  1  0.19685525  0.98544550  0.69685525  1
  Sc  Sc129  1  0.10675025  0.71137750  0.60675025  1
  Sc  Sc130  1  0.44303700  0.94303700  0.44303700  1
  Sc  Sc131  1  0.55672950  0.55672950  0.33660900  1
  Sc  Sc132  1  0.69685525  0.69685525  0.48544550  1
  Sc  Sc133  1  0.94052300  0.94052300  0.55947700  1
  Sc  Sc134  1  0.94327050  0.94327050  0.33660900  1
  Sc  Sc135  1  0.41092450  0.58907550  0.28476000  1
  Sc  Sc136  1  0.28862250  0.89324975  0.60675025  1
  Sc  Sc137  1  0.19104667  0.80895333  0.30895333  1
  Sc  Sc138  1  0.39324975  0.89324975  0.71137750  1
  Sc  Sc139  1  0.39324975  0.78862250  0.60675025  1
  Sc  Sc140  1  0.51455450  0.69685525  0.30314475  1
  Sc  Sc141  1  0.91092450  0.91092450  0.71524000  1
  Sc  Sc142  1  0.05672950  0.94327050  0.66339100  1
  Sc  Sc143  1  0.28476000  0.58907550  0.41092450  1
  Sc  Sc144  1  0.98544550  0.80314475  0.30314475  1
  Sc  Sc145  1  0.33628033  0.66371967  0.16371967  1
  Sc  Sc146  1  0.35693300  0.75000000  0.75000000  1
  Sc  Sc147  1  0.78476000  0.91092450  0.58907550  1
  Sc  Sc148  1  0.34015700  0.97849200  0.34015700  1
  Sc  Sc149  1  0.44327050  0.55672950  0.66339100  1
  Sc  Sc150  1  0.50000000  0.50000000  0.81073200  1
  Sc  Sc151  1  0.33660900  0.55672950  0.55672950  1
  Sc  Sc152  1  0.08907550  0.78476000  0.41092450  1
  Sc  Sc153  1  0.44303700  0.55696300  0.05696300  1
  Sc  Sc154  1  0.05947700  0.94052300  0.44052300  1
  Sc  Sc155  1  0.01455450  0.80314475  0.69685525  1
  Sc  Sc156  1  0.05672950  0.83660900  0.55672950  1
  Sc  Sc157  1  0.05696300  0.94303700  0.05696300  1
  Sc  Sc158  1  0.50000000  0.50000000  0.18926800  1
  Sc  Sc159  1  0.34015700  0.52150800  0.15984300  1
  Sc  Sc160  1  0.05696300  0.55696300  0.44303700  1
  Sc  Sc161  1  0.16339100  0.94327050  0.55672950  1
  Sc  Sc162  1  0.58907550  0.71524000  0.58907550  1
  Sc  Sc163  1  0.55672950  0.66339100  0.44327050  1
  Sc  Sc164  1  0.21524000  0.91092450  0.41092450  1
  Sc  Sc165  1  0.39324975  0.60675025  0.78862250  1
  Sc  Sc166  1  0.21137750  0.89324975  0.89324975  1
  Sc  Sc167  1  0.48544550  0.69685525  0.69685525  1
  Sc  Sc168  1  0.15984300  0.65984300  0.47849200  1
  Sc  Sc169  1  0.47849200  0.84015700  0.34015700  1
  Sc  Sc170  1  0.83660900  0.94327050  0.44327050  1
  Sc  Sc171  1  0.02150800  0.84015700  0.15984300  1
  Sc  Sc172  1  0.33628033  0.83628033  0.33628033  1
  Sc  Sc173  1  0.10675025  0.60675025  0.71137750  1
  Sc  Sc174  1  0.30895333  0.69104667  0.30895333  1
  Sc  Sc175  1  0.14306700  0.75000000  0.75000000  1
  Sc  Sc176  1  0.60675025  0.28862250  0.89324975  1
  Sc  Sc177  1  0.66371967  0.16371967  0.33628033  1
  Sc  Sc178  1  0.30314475  0.30314475  0.48544550  1
  Sc  Sc179  1  0.75000000  0.25000000  0.64306700  1
  Sc  Sc180  1  0.75000000  0.25000000  0.85693300  1
  Sc  Sc181  1  0.69104667  0.19104667  0.19104667  1
  Sc  Sc182  1  0.69685525  0.30314475  0.51455450  1
  Sc  Sc183  1  0.78862250  0.10675025  0.89324975  1
  Sc  Sc184  1  0.80314475  0.01455450  0.69685525  1
  Sc  Sc185  1  0.65984300  0.47849200  0.15984300  1
  Sc  Sc186  1  0.08907550  0.08907550  0.71524000  1
  Sc  Sc187  1  0.94052300  0.05947700  0.44052300  1
  Sc  Sc188  1  0.84015700  0.34015700  0.47849200  1
  Sc  Sc189  1  0.97849200  0.15984300  0.15984300  1
  Sc  Sc190  1  0.21524000  0.08907550  0.58907550  1
  Sc  Sc191  1  0.44327050  0.33660900  0.44327050  1
  Sc  Sc192  1  0.68926800  0.00000000  0.50000000  1
  Sc  Sc193  1  0.71137750  0.10675025  0.60675025  1
  Sc  Sc194  1  0.05947700  0.05947700  0.55947700  1
  Sc  Sc195  1  0.16339100  0.05672950  0.44327050  1
  Sc  Sc196  1  0.52150800  0.15984300  0.34015700  1
  Sc  Sc197  1  0.65984300  0.02150800  0.34015700  1
  Sc  Sc198  1  0.80314475  0.19685525  0.51455450  1
  Sc  Sc199  1  0.66371967  0.33628033  0.16371967  1
  Sc  Sc200  1  0.00000000  0.31073200  0.50000000  1
  Sc  Sc201  1  0.84015700  0.15984300  0.02150800  1
  Sc  Sc202  1  0.50000000  0.18926800  0.50000000  1
  Sc  Sc203  1  0.89324975  0.21137750  0.89324975  1
  Sc  Sc204  1  0.75000000  0.35693300  0.75000000  1
  Sc  Sc205  1  0.41092450  0.28476000  0.58907550  1
  Sc  Sc206  1  0.75000000  0.14306700  0.75000000  1
  Sc  Sc207  1  0.58907550  0.41092450  0.28476000  1
  Sc  Sc208  1  0.91092450  0.21524000  0.41092450  1
  Sc  Sc209  1  0.80895333  0.30895333  0.19104667  1
  Sc  Sc210  1  0.19685525  0.01455450  0.30314475  1
  Sc  Sc211  1  0.60675025  0.39324975  0.78862250  1
  Sc  Sc212  1  0.30314475  0.48544550  0.30314475  1
  Sc  Sc213  1  0.94327050  0.16339100  0.55672950  1
  Sc  Sc214  1  0.31073200  0.00000000  0.50000000  1
  Sc  Sc215  1  0.65984300  0.34015700  0.02150800  1
  Sc  Sc216  1  0.69685525  0.48544550  0.69685525  1
  Sc  Sc217  1  0.60675025  0.21137750  0.60675025  1
  Sc  Sc218  1  0.94303700  0.44303700  0.44303700  1
  Sc  Sc219  1  0.05672950  0.05672950  0.33660900  1
  Sc  Sc220  1  0.19685525  0.19685525  0.48544550  1
  Sc  Sc221  1  0.44052300  0.44052300  0.55947700  1
  Sc  Sc222  1  0.44327050  0.44327050  0.33660900  1
  Sc  Sc223  1  0.91092450  0.08907550  0.28476000  1
  Sc  Sc224  1  0.78862250  0.39324975  0.60675025  1
  Sc  Sc225  1  0.69104667  0.30895333  0.30895333  1
  Sc  Sc226  1  0.89324975  0.39324975  0.71137750  1
  Sc  Sc227  1  0.89324975  0.28862250  0.60675025  1
  Sc  Sc228  1  0.01455450  0.19685525  0.30314475  1
  Sc  Sc229  1  0.41092450  0.41092450  0.71524000  1
  Sc  Sc230  1  0.55672950  0.44327050  0.66339100  1
  Sc  Sc231  1  0.78476000  0.08907550  0.41092450  1
  Sc  Sc232  1  0.48544550  0.30314475  0.30314475  1
  Sc  Sc233  1  0.83628033  0.16371967  0.16371967  1
  Sc  Sc234  1  0.85693300  0.25000000  0.75000000  1
  Sc  Sc235  1  0.28476000  0.41092450  0.58907550  1
  Sc  Sc236  1  0.84015700  0.47849200  0.34015700  1
  Sc  Sc237  1  0.94327050  0.05672950  0.66339100  1
  Sc  Sc238  1  0.00000000  0.00000000  0.81073200  1
  Sc  Sc239  1  0.83660900  0.05672950  0.55672950  1
  Sc  Sc240  1  0.58907550  0.28476000  0.41092450  1
  Sc  Sc241  1  0.94303700  0.05696300  0.05696300  1
  Sc  Sc242  1  0.55947700  0.44052300  0.44052300  1
  Sc  Sc243  1  0.51455450  0.30314475  0.69685525  1
  Sc  Sc244  1  0.55672950  0.33660900  0.55672950  1
  Sc  Sc245  1  0.55696300  0.44303700  0.05696300  1
  Sc  Sc246  1  0.00000000  0.00000000  0.18926800  1
  Sc  Sc247  1  0.84015700  0.02150800  0.15984300  1
  Sc  Sc248  1  0.55696300  0.05696300  0.44303700  1
  Sc  Sc249  1  0.66339100  0.44327050  0.55672950  1
  Sc  Sc250  1  0.08907550  0.21524000  0.58907550  1
  Sc  Sc251  1  0.05672950  0.16339100  0.44327050  1
  Sc  Sc252  1  0.71524000  0.41092450  0.41092450  1
  Sc  Sc253  1  0.89324975  0.10675025  0.78862250  1
  Sc  Sc254  1  0.71137750  0.39324975  0.89324975  1
  Sc  Sc255  1  0.98544550  0.19685525  0.69685525  1
  Sc  Sc256  1  0.65984300  0.15984300  0.47849200  1
  Sc  Sc257  1  0.97849200  0.34015700  0.34015700  1
  Sc  Sc258  1  0.33660900  0.44327050  0.44327050  1
  Sc  Sc259  1  0.52150800  0.34015700  0.15984300  1
  Sc  Sc260  1  0.83628033  0.33628033  0.33628033  1
  Sc  Sc261  1  0.60675025  0.10675025  0.71137750  1
  Sc  Sc262  1  0.80895333  0.19104667  0.30895333  1
  Sc  Sc263  1  0.64306700  0.25000000  0.75000000  1
  Sc  Sc264  1  0.60675025  0.78862250  0.39324975  1
  Sc  Sc265  1  0.66371967  0.66371967  0.83628033  1
  Sc  Sc266  1  0.30314475  0.80314475  0.98544550  1
  Sc  Sc267  1  0.75000000  0.75000000  0.14306700  1
  Sc  Sc268  1  0.75000000  0.75000000  0.35693300  1
  Sc  Sc269  1  0.69104667  0.69104667  0.69104667  1
  Sc  Sc270  1  0.69685525  0.80314475  0.01455450  1
  Sc  Sc271  1  0.78862250  0.60675025  0.39324975  1
  Sc  Sc272  1  0.80314475  0.51455450  0.19685525  1
  Sc  Sc273  1  0.65984300  0.97849200  0.65984300  1
  Sc  Sc274  1  0.08907550  0.58907550  0.21524000  1
  Sc  Sc275  1  0.94052300  0.55947700  0.94052300  1
  Sc  Sc276  1  0.84015700  0.84015700  0.97849200  1
  Sc  Sc277  1  0.97849200  0.65984300  0.65984300  1
  Sc  Sc278  1  0.21524000  0.58907550  0.08907550  1
  Sc  Sc279  1  0.44327050  0.83660900  0.94327050  1
  Sc  Sc280  1  0.68926800  0.50000000  0.00000000  1
  Sc  Sc281  1  0.71137750  0.60675025  0.10675025  1
  Sc  Sc282  1  0.05947700  0.55947700  0.05947700  1
  Sc  Sc283  1  0.16339100  0.55672950  0.94327050  1
  Sc  Sc284  1  0.52150800  0.65984300  0.84015700  1
  Sc  Sc285  1  0.65984300  0.52150800  0.84015700  1
  Sc  Sc286  1  0.80314475  0.69685525  0.01455450  1
  Sc  Sc287  1  0.66371967  0.83628033  0.66371967  1
  Sc  Sc288  1  0.00000000  0.81073200  0.00000000  1
  Sc  Sc289  1  0.84015700  0.65984300  0.52150800  1
  Sc  Sc290  1  0.50000000  0.68926800  0.00000000  1
  Sc  Sc291  1  0.89324975  0.71137750  0.39324975  1
  Sc  Sc292  1  0.75000000  0.85693300  0.25000000  1
  Sc  Sc293  1  0.41092450  0.78476000  0.08907550  1
  Sc  Sc294  1  0.75000000  0.64306700  0.25000000  1
  Sc  Sc295  1  0.58907550  0.91092450  0.78476000  1
  Sc  Sc296  1  0.91092450  0.71524000  0.91092450  1
  Sc  Sc297  1  0.80895333  0.80895333  0.69104667  1
  Sc  Sc298  1  0.19685525  0.51455450  0.80314475  1
  Sc  Sc299  1  0.60675025  0.89324975  0.28862250  1
  Sc  Sc300  1  0.30314475  0.98544550  0.80314475  1
  Sc  Sc301  1  0.94327050  0.66339100  0.05672950  1
  Sc  Sc302  1  0.31073200  0.50000000  0.00000000  1
  Sc  Sc303  1  0.65984300  0.84015700  0.52150800  1
  Sc  Sc304  1  0.69685525  0.98544550  0.19685525  1
  Sc  Sc305  1  0.60675025  0.71137750  0.10675025  1
  Sc  Sc306  1  0.94303700  0.94303700  0.94303700  1
  Sc  Sc307  1  0.05672950  0.55672950  0.83660900  1
  Sc  Sc308  1  0.19685525  0.69685525  0.98544550  1
  Sc  Sc309  1  0.44052300  0.94052300  0.05947700  1
  Sc  Sc310  1  0.44327050  0.94327050  0.83660900  1
  Sc  Sc311  1  0.91092450  0.58907550  0.78476000  1
  Sc  Sc312  1  0.78862250  0.89324975  0.10675025  1
  Sc  Sc313  1  0.69104667  0.80895333  0.80895333  1
  Sc  Sc314  1  0.89324975  0.89324975  0.21137750  1
  Sc  Sc315  1  0.89324975  0.78862250  0.10675025  1
  Sc  Sc316  1  0.01455450  0.69685525  0.80314475  1
  Sc  Sc317  1  0.41092450  0.91092450  0.21524000  1
  Sc  Sc318  1  0.55672950  0.94327050  0.16339100  1
  Sc  Sc319  1  0.78476000  0.58907550  0.91092450  1
  Sc  Sc320  1  0.48544550  0.80314475  0.80314475  1
  Sc  Sc321  1  0.83628033  0.66371967  0.66371967  1
  Sc  Sc322  1  0.85693300  0.75000000  0.25000000  1
  Sc  Sc323  1  0.28476000  0.91092450  0.08907550  1
  Sc  Sc324  1  0.84015700  0.97849200  0.84015700  1
  Sc  Sc325  1  0.94327050  0.55672950  0.16339100  1
  Sc  Sc326  1  0.00000000  0.50000000  0.31073200  1
  Sc  Sc327  1  0.83660900  0.55672950  0.05672950  1
  Sc  Sc328  1  0.58907550  0.78476000  0.91092450  1
  Sc  Sc329  1  0.94303700  0.55696300  0.55696300  1
  Sc  Sc330  1  0.55947700  0.94052300  0.94052300  1
  Sc  Sc331  1  0.51455450  0.80314475  0.19685525  1
  Sc  Sc332  1  0.55672950  0.83660900  0.05672950  1
  Sc  Sc333  1  0.55696300  0.94303700  0.55696300  1
  Sc  Sc334  1  0.00000000  0.50000000  0.68926800  1
  Sc  Sc335  1  0.84015700  0.52150800  0.65984300  1
  Sc  Sc336  1  0.55696300  0.55696300  0.94303700  1
  Sc  Sc337  1  0.66339100  0.94327050  0.05672950  1
  Sc  Sc338  1  0.08907550  0.71524000  0.08907550  1
  Sc  Sc339  1  0.05672950  0.66339100  0.94327050  1
  Sc  Sc340  1  0.71524000  0.91092450  0.91092450  1
  Sc  Sc341  1  0.89324975  0.60675025  0.28862250  1
  Sc  Sc342  1  0.71137750  0.89324975  0.39324975  1
  Sc  Sc343  1  0.98544550  0.69685525  0.19685525  1
  Sc  Sc344  1  0.65984300  0.65984300  0.97849200  1
  Sc  Sc345  1  0.97849200  0.84015700  0.84015700  1
  Sc  Sc346  1  0.33660900  0.94327050  0.94327050  1
  Sc  Sc347  1  0.52150800  0.84015700  0.65984300  1
  Sc  Sc348  1  0.83628033  0.83628033  0.83628033  1
  Sc  Sc349  1  0.60675025  0.60675025  0.21137750  1
  Sc  Sc350  1  0.80895333  0.69104667  0.80895333  1
  Sc  Sc351  1  0.64306700  0.75000000  0.25000000  1
  Os  Os352  1  0.25000000  0.40966900  0.75000000  1
  Os  Os353  1  0.08108233  0.41891767  0.41891767  1
  Os  Os354  1  0.40966900  0.25000000  0.75000000  1
  Os  Os355  1  0.25000000  0.09033100  0.75000000  1
  Os  Os356  1  0.08108233  0.08108233  0.08108233  1
  Os  Os357  1  0.84956100  0.34956100  0.84956100  1
  Os  Os358  1  0.34956100  0.15043900  0.15043900  1
  Os  Os359  1  0.25000000  0.25000000  0.59033100  1
  Os  Os360  1  0.65043900  0.15043900  0.84956100  1
  Os  Os361  1  0.41891767  0.41891767  0.08108233  1
  Os  Os362  1  0.15043900  0.34956100  0.15043900  1
  Os  Os363  1  0.09033100  0.25000000  0.75000000  1
  Os  Os364  1  0.25000000  0.25000000  0.90966900  1
  Os  Os365  1  0.41891767  0.08108233  0.41891767  1
  Os  Os366  1  0.25000000  0.90966900  0.25000000  1
  Os  Os367  1  0.08108233  0.91891767  0.91891767  1
  Os  Os368  1  0.40966900  0.75000000  0.25000000  1
  Os  Os369  1  0.25000000  0.59033100  0.25000000  1
  Os  Os370  1  0.08108233  0.58108233  0.58108233  1
  Os  Os371  1  0.84956100  0.84956100  0.34956100  1
  Os  Os372  1  0.34956100  0.65043900  0.65043900  1
  Os  Os373  1  0.25000000  0.75000000  0.09033100  1
  Os  Os374  1  0.65043900  0.65043900  0.34956100  1
  Os  Os375  1  0.41891767  0.91891767  0.58108233  1
  Os  Os376  1  0.15043900  0.84956100  0.65043900  1
  Os  Os377  1  0.09033100  0.75000000  0.25000000  1
  Os  Os378  1  0.25000000  0.75000000  0.40966900  1
  Os  Os379  1  0.41891767  0.58108233  0.91891767  1
  Os  Os380  1  0.75000000  0.40966900  0.25000000  1
  Os  Os381  1  0.58108233  0.41891767  0.91891767  1
  Os  Os382  1  0.90966900  0.25000000  0.25000000  1
  Os  Os383  1  0.75000000  0.09033100  0.25000000  1
  Os  Os384  1  0.58108233  0.08108233  0.58108233  1
  Os  Os385  1  0.34956100  0.34956100  0.34956100  1
  Os  Os386  1  0.84956100  0.15043900  0.65043900  1
  Os  Os387  1  0.75000000  0.25000000  0.09033100  1
  Os  Os388  1  0.15043900  0.15043900  0.34956100  1
  Os  Os389  1  0.91891767  0.41891767  0.58108233  1
  Os  Os390  1  0.65043900  0.34956100  0.65043900  1
  Os  Os391  1  0.59033100  0.25000000  0.25000000  1
  Os  Os392  1  0.75000000  0.25000000  0.40966900  1
  Os  Os393  1  0.91891767  0.08108233  0.91891767  1
  Os  Os394  1  0.75000000  0.90966900  0.75000000  1
  Os  Os395  1  0.58108233  0.91891767  0.41891767  1
  Os  Os396  1  0.90966900  0.75000000  0.75000000  1
  Os  Os397  1  0.75000000  0.59033100  0.75000000  1
  Os  Os398  1  0.58108233  0.58108233  0.08108233  1
  Os  Os399  1  0.34956100  0.84956100  0.84956100  1
  Os  Os400  1  0.84956100  0.65043900  0.15043900  1
  Os  Os401  1  0.75000000  0.75000000  0.59033100  1
  Os  Os402  1  0.15043900  0.65043900  0.84956100  1
  Os  Os403  1  0.91891767  0.91891767  0.08108233  1
  Os  Os404  1  0.65043900  0.84956100  0.15043900  1
  Os  Os405  1  0.59033100  0.75000000  0.75000000  1
  Os  Os406  1  0.75000000  0.75000000  0.90966900  1
  Os  Os407  1  0.91891767  0.58108233  0.41891767  1
