# generated using pymatgen
data_Li14Ti21O48
_symmetry_space_group_name_H-M   'P 1'
_cell_length_a   10.34881400
_cell_length_b   5.97669000
_cell_length_c   29.23675208
_cell_angle_alpha   90.00000000
_cell_angle_beta   90.06714778
_cell_angle_gamma   90.00000000
_symmetry_Int_Tables_number   1
_chemical_formula_structural   Li14Ti21O48
_chemical_formula_sum   'Li28 Ti42 O96'
_cell_volume   1808.34020678
_cell_formula_units_Z   2
loop_
 _symmetry_equiv_pos_site_id
 _symmetry_equiv_pos_as_xyz
  1  'x, y, z'
loop_
 _atom_site_type_symbol
 _atom_site_label
 _atom_site_symmetry_multiplicity
 _atom_site_fract_x
 _atom_site_fract_y
 _atom_site_fract_z
 _atom_site_occupancy
  Li  Li0  1  0.33374100  0.00000000  0.16514400  1
  Li  Li1  1  0.33279800  0.00000000  0.04251800  1
  Li  Li2  1  0.66682400  0.00000000  0.33216300  1
  Li  Li3  1  0.66644100  0.00000000  0.20904200  1
  Li  Li4  1  0.99993100  0.00000000  0.18718800  1
  Li  Li5  1  0.99986700  0.00000000  0.37614900  1
  Li  Li6  1  0.00024200  0.00000000  0.49880300  1
  Li  Li7  1  0.33701600  0.00000000  0.66770200  1
  Li  Li8  1  0.33178400  0.00000000  0.54375300  1
  Li  Li9  1  0.66431300  0.00000000  0.70922900  1
  Li  Li10  1  0.66775700  0.00000000  0.52144900  1
  Li  Li11  1  0.66873500  0.00000000  0.83221300  1
  Li  Li12  1  0.99710500  0.00000000  0.87368200  1
  Li  Li13  1  0.16650100  0.00000000  0.77063200  1
  Li  Li14  1  0.83374100  0.50000000  0.16514400  1
  Li  Li15  1  0.83279800  0.50000000  0.04251800  1
  Li  Li16  1  0.16682400  0.50000000  0.33216300  1
  Li  Li17  1  0.16644100  0.50000000  0.20904200  1
  Li  Li18  1  0.49993100  0.50000000  0.18718800  1
  Li  Li19  1  0.49986700  0.50000000  0.37614900  1
  Li  Li20  1  0.50024200  0.50000000  0.49880300  1
  Li  Li21  1  0.83701600  0.50000000  0.66770200  1
  Li  Li22  1  0.83178400  0.50000000  0.54375300  1
  Li  Li23  1  0.16431300  0.50000000  0.70922900  1
  Li  Li24  1  0.16775700  0.50000000  0.52144900  1
  Li  Li25  1  0.16873500  0.50000000  0.83221300  1
  Li  Li26  1  0.49710500  0.50000000  0.87368200  1
  Li  Li27  1  0.66650100  0.50000000  0.77063200  1
  Ti  Ti28  1  0.58145050  0.25662850  0.10615300  1
  Ti  Ti29  1  0.58145050  0.74337150  0.10615300  1
  Ti  Ti30  1  0.66428300  0.00000000  0.02126900  1
  Ti  Ti31  1  0.83735100  0.00000000  0.10599300  1
  Ti  Ti32  1  0.41840000  0.74479500  0.26872100  1
  Ti  Ti33  1  0.41840000  0.25520500  0.26872100  1
  Ti  Ti34  1  0.74824050  0.75529550  0.43958400  1
  Ti  Ti35  1  0.16322100  0.00000000  0.26870300  1
  Ti  Ti36  1  0.74824050  0.24470450  0.43958400  1
  Ti  Ti37  1  0.33333200  0.00000000  0.35419100  1
  Ti  Ti38  1  0.58397600  0.24493800  0.60148900  1
  Ti  Ti39  1  0.50351100  0.00000000  0.43962800  1
  Ti  Ti40  1  0.58397600  0.75506200  0.60148900  1
  Ti  Ti41  1  0.83129500  0.00000000  0.60367700  1
  Ti  Ti42  1  0.41702850  0.74940650  0.77032700  1
  Ti  Ti43  1  0.41702850  0.25059350  0.77032700  1
  Ti  Ti44  1  0.01273000  0.00000000  0.68984000  1
  Ti  Ti45  1  0.75133700  0.75207600  0.93860200  1
  Ti  Ti46  1  0.75133700  0.24792400  0.93860200  1
  Ti  Ti47  1  0.32147400  0.00000000  0.85015100  1
  Ti  Ti48  1  0.50004700  0.00000000  0.93698500  1
  Ti  Ti49  1  0.08145050  0.75662850  0.10615300  1
  Ti  Ti50  1  0.08145050  0.24337150  0.10615300  1
  Ti  Ti51  1  0.16428300  0.50000000  0.02126900  1
  Ti  Ti52  1  0.33735100  0.50000000  0.10599300  1
  Ti  Ti53  1  0.91840000  0.24479500  0.26872100  1
  Ti  Ti54  1  0.91840000  0.75520500  0.26872100  1
  Ti  Ti55  1  0.24824050  0.25529550  0.43958400  1
  Ti  Ti56  1  0.66322100  0.50000000  0.26870300  1
  Ti  Ti57  1  0.24824050  0.74470450  0.43958400  1
  Ti  Ti58  1  0.83333200  0.50000000  0.35419100  1
  Ti  Ti59  1  0.08397600  0.74493800  0.60148900  1
  Ti  Ti60  1  0.00351100  0.50000000  0.43962800  1
  Ti  Ti61  1  0.08397600  0.25506200  0.60148900  1
  Ti  Ti62  1  0.33129500  0.50000000  0.60367700  1
  Ti  Ti63  1  0.91702850  0.24940650  0.77032700  1
  Ti  Ti64  1  0.91702850  0.75059350  0.77032700  1
  Ti  Ti65  1  0.51273000  0.50000000  0.68984000  1
  Ti  Ti66  1  0.25133700  0.25207600  0.93860200  1
  Ti  Ti67  1  0.25133700  0.74792400  0.93860200  1
  Ti  Ti68  1  0.82147400  0.50000000  0.85015100  1
  Ti  Ti69  1  0.00004700  0.50000000  0.93698500  1
  O  O70  1  0.51899500  0.00000000  0.06468900  1
  O  O71  1  0.74007250  0.22077350  0.06479300  1
  O  O72  1  0.66672200  0.00000000  0.14031200  1
  O  O73  1  0.74007250  0.77922650  0.06479300  1
  O  O74  1  0.84531200  0.00000000  0.23513800  1
  O  O75  1  0.42249550  0.73302450  0.14008600  1
  O  O76  1  0.42249550  0.26697550  0.14008600  1
  O  O77  1  0.00002300  0.00000000  0.30628900  1
  O  O78  1  0.57712950  0.73179150  0.23509300  1
  O  O79  1  0.00004300  0.00000000  0.07082800  1
  O  O80  1  0.57712950  0.26820850  0.23509300  1
  O  O81  1  0.15556800  0.00000000  0.14017300  1
  O  O82  1  0.18588400  0.00000000  0.39774700  1
  O  O83  1  0.25961750  0.22110250  0.31055200  1
  O  O84  1  0.25961750  0.77889750  0.31055200  1
  O  O85  1  0.33340100  0.00000000  0.47359200  1
  O  O86  1  0.33329700  0.00000000  0.23486000  1
  O  O87  1  0.40704800  0.22110000  0.39777800  1
  O  O88  1  0.48080600  0.00000000  0.31058000  1
  O  O89  1  0.40704800  0.77890000  0.39777800  1
  O  O90  1  0.51179400  0.00000000  0.56809100  1
  O  O91  1  0.58951950  0.23194350  0.47324600  1
  O  O92  1  0.58951950  0.76805650  0.47324600  1
  O  O93  1  0.66664900  0.00000000  0.40206400  1
  O  O94  1  0.74303650  0.23178550  0.56869500  1
  O  O95  1  0.66573100  0.00000000  0.63923100  1
  O  O96  1  0.74303650  0.76821450  0.56869500  1
  O  O97  1  0.82150000  0.00000000  0.47321500  1
  O  O98  1  0.84938400  0.00000000  0.73028000  1
  O  O99  1  0.42673300  0.71985800  0.64201700  1
  O  O100  1  0.42673300  0.28014200  0.64201700  1
  O  O101  1  0.98804600  0.00000000  0.80521300  1
  O  O102  1  0.56608150  0.73038750  0.72827000  1
  O  O103  1  0.00066900  0.00000000  0.56738000  1
  O  O104  1  0.56608150  0.26961250  0.72827000  1
  O  O105  1  0.14918800  0.00000000  0.64333400  1
  O  O106  1  0.26631950  0.23017650  0.81302900  1
  O  O107  1  0.18363700  0.00000000  0.89835100  1
  O  O108  1  0.26631950  0.76982350  0.81302900  1
  O  O109  1  0.33302200  0.00000000  0.97327300  1
  O  O110  1  0.34504000  0.00000000  0.73624200  1
  O  O111  1  0.40782650  0.22332350  0.89956700  1
  O  O112  1  0.40782650  0.77667650  0.89956700  1
  O  O113  1  0.48309400  0.00000000  0.81144400  1
  O  O114  1  0.59463700  0.21770600  0.97651900  1
  O  O115  1  0.59463700  0.78229400  0.97651900  1
  O  O116  1  0.66715500  0.00000000  0.90196400  1
  O  O117  1  0.81284300  0.00000000  0.97656100  1
  O  O118  1  0.01899500  0.50000000  0.06468900  1
  O  O119  1  0.24007250  0.72077350  0.06479300  1
  O  O120  1  0.16672200  0.50000000  0.14031200  1
  O  O121  1  0.24007250  0.27922650  0.06479300  1
  O  O122  1  0.34531200  0.50000000  0.23513800  1
  O  O123  1  0.92249550  0.23302450  0.14008600  1
  O  O124  1  0.92249550  0.76697550  0.14008600  1
  O  O125  1  0.50002300  0.50000000  0.30628900  1
  O  O126  1  0.07712950  0.23179150  0.23509300  1
  O  O127  1  0.50004300  0.50000000  0.07082800  1
  O  O128  1  0.07712950  0.76820850  0.23509300  1
  O  O129  1  0.65556800  0.50000000  0.14017300  1
  O  O130  1  0.68588400  0.50000000  0.39774700  1
  O  O131  1  0.75961750  0.72110250  0.31055200  1
  O  O132  1  0.75961750  0.27889750  0.31055200  1
  O  O133  1  0.83340100  0.50000000  0.47359200  1
  O  O134  1  0.83329700  0.50000000  0.23486000  1
  O  O135  1  0.90704800  0.72110000  0.39777800  1
  O  O136  1  0.98080600  0.50000000  0.31058000  1
  O  O137  1  0.90704800  0.27890000  0.39777800  1
  O  O138  1  0.01179400  0.50000000  0.56809100  1
  O  O139  1  0.08951950  0.73194350  0.47324600  1
  O  O140  1  0.08951950  0.26805650  0.47324600  1
  O  O141  1  0.16664900  0.50000000  0.40206400  1
  O  O142  1  0.24303650  0.73178550  0.56869500  1
  O  O143  1  0.16573100  0.50000000  0.63923100  1
  O  O144  1  0.24303650  0.26821450  0.56869500  1
  O  O145  1  0.32150000  0.50000000  0.47321500  1
  O  O146  1  0.34938400  0.50000000  0.73028000  1
  O  O147  1  0.92673300  0.21985800  0.64201700  1
  O  O148  1  0.92673300  0.78014200  0.64201700  1
  O  O149  1  0.48804600  0.50000000  0.80521300  1
  O  O150  1  0.06608150  0.23038750  0.72827000  1
  O  O151  1  0.50066900  0.50000000  0.56738000  1
  O  O152  1  0.06608150  0.76961250  0.72827000  1
  O  O153  1  0.64918800  0.50000000  0.64333400  1
  O  O154  1  0.76631950  0.73017650  0.81302900  1
  O  O155  1  0.68363700  0.50000000  0.89835100  1
  O  O156  1  0.76631950  0.26982350  0.81302900  1
  O  O157  1  0.83302200  0.50000000  0.97327300  1
  O  O158  1  0.84504000  0.50000000  0.73624200  1
  O  O159  1  0.90782650  0.72332350  0.89956700  1
  O  O160  1  0.90782650  0.27667650  0.89956700  1
  O  O161  1  0.98309400  0.50000000  0.81144400  1
  O  O162  1  0.09463700  0.71770600  0.97651900  1
  O  O163  1  0.09463700  0.28229400  0.97651900  1
  O  O164  1  0.16715500  0.50000000  0.90196400  1
  O  O165  1  0.31284300  0.50000000  0.97656100  1
