# generated using pymatgen
data_La4Si4I3
_symmetry_space_group_name_H-M   'P 1'
_cell_length_a   24.62571600
_cell_length_b   4.26166200
_cell_length_c   12.67796253
_cell_angle_alpha   90.00000000
_cell_angle_beta   97.63125308
_cell_angle_gamma   90.00000000
_symmetry_Int_Tables_number   1
_chemical_formula_structural   La4Si4I3
_chemical_formula_sum   'La16 Si16 I12'
_cell_volume   1318.72354609
_cell_formula_units_Z   4
loop_
 _symmetry_equiv_pos_site_id
 _symmetry_equiv_pos_as_xyz
  1  'x, y, z'
loop_
 _atom_site_type_symbol
 _atom_site_label
 _atom_site_symmetry_multiplicity
 _atom_site_fract_x
 _atom_site_fract_y
 _atom_site_fract_z
 _atom_site_occupancy
  La  La0  1  0.99675200  0.50000000  0.83461800  1
  La  La1  1  0.92640900  0.00000000  0.55427600  1
  La  La2  1  0.85578700  0.50000000  0.97674900  1
  La  La3  1  0.57359100  0.50000000  0.44572400  1
  La  La4  1  0.64421300  0.00000000  0.02325100  1
  La  La5  1  0.63802700  0.00000000  0.70909600  1
  La  La6  1  0.86197300  0.50000000  0.29090400  1
  La  La7  1  0.50324800  0.00000000  0.16538200  1
  La  La8  1  0.49675200  0.00000000  0.83461800  1
  La  La9  1  0.42640900  0.50000000  0.55427600  1
  La  La10  1  0.35578700  0.00000000  0.97674900  1
  La  La11  1  0.07359100  0.00000000  0.44572400  1
  La  La12  1  0.14421300  0.50000000  0.02325100  1
  La  La13  1  0.13802700  0.50000000  0.70909600  1
  La  La14  1  0.36197300  0.00000000  0.29090400  1
  La  La15  1  0.00324800  0.50000000  0.16538200  1
  Si  Si16  1  0.52329700  0.00000000  0.59090900  1
  Si  Si17  1  0.54264200  0.50000000  0.68301100  1
  Si  Si18  1  0.55034600  0.50000000  0.01574200  1
  Si  Si19  1  0.97670300  0.50000000  0.40909100  1
  Si  Si20  1  0.90430900  0.00000000  0.14006100  1
  Si  Si21  1  0.94965400  0.00000000  0.98425800  1
  Si  Si22  1  0.95735800  0.00000000  0.31698900  1
  Si  Si23  1  0.59569100  0.50000000  0.85993900  1
  Si  Si24  1  0.02329700  0.50000000  0.59090900  1
  Si  Si25  1  0.04264200  0.00000000  0.68301100  1
  Si  Si26  1  0.05034600  0.00000000  0.01574200  1
  Si  Si27  1  0.47670300  0.00000000  0.40909100  1
  Si  Si28  1  0.40430900  0.50000000  0.14006100  1
  Si  Si29  1  0.44965400  0.50000000  0.98425800  1
  Si  Si30  1  0.45735800  0.50000000  0.31698900  1
  Si  Si31  1  0.09569100  0.00000000  0.85993900  1
  I  I32  1  0.74335900  0.50000000  0.13025800  1
  I  I33  1  0.75664100  0.00000000  0.86974200  1
  I  I34  1  0.80018000  0.00000000  0.42695000  1
  I  I35  1  0.86847500  0.50000000  0.71187900  1
  I  I36  1  0.69982000  0.50000000  0.57305000  1
  I  I37  1  0.63152500  0.00000000  0.28812100  1
  I  I38  1  0.24335900  0.00000000  0.13025800  1
  I  I39  1  0.25664100  0.50000000  0.86974200  1
  I  I40  1  0.30018000  0.50000000  0.42695000  1
  I  I41  1  0.36847500  0.00000000  0.71187900  1
  I  I42  1  0.19982000  0.00000000  0.57305000  1
  I  I43  1  0.13152500  0.50000000  0.28812100  1
