# generated using pymatgen
data_Pr(MnSi)2
_symmetry_space_group_name_H-M   'P 1'
_cell_length_a   3.98722800
_cell_length_b   3.98722800
_cell_length_c   10.52786600
_cell_angle_alpha   90.00000000
_cell_angle_beta   90.00000000
_cell_angle_gamma   90.00000000
_symmetry_Int_Tables_number   1
_chemical_formula_structural   Pr(MnSi)2
_chemical_formula_sum   'Pr2 Mn4 Si4'
_cell_volume   167.37187811
_cell_formula_units_Z   2
loop_
 _symmetry_equiv_pos_site_id
 _symmetry_equiv_pos_as_xyz
  1  'x, y, z'
loop_
 _atom_site_type_symbol
 _atom_site_label
 _atom_site_symmetry_multiplicity
 _atom_site_fract_x
 _atom_site_fract_y
 _atom_site_fract_z
 _atom_site_occupancy
  Pr  Pr0  1  0.00000000  0.00000000  0.00000000  1
  Pr  Pr1  1  0.50000000  0.50000000  0.50000000  1
  Mn  Mn2  1  0.00000000  0.50000000  0.25000000  1
  Mn  Mn3  1  0.50000000  0.00000000  0.25000000  1
  Mn  Mn4  1  0.50000000  0.00000000  0.75000000  1
  Mn  Mn5  1  0.00000000  0.50000000  0.75000000  1
  Si  Si6  1  0.50000000  0.50000000  0.12615900  1
  Si  Si7  1  0.00000000  0.00000000  0.37384100  1
  Si  Si8  1  0.00000000  0.00000000  0.62615900  1
  Si  Si9  1  0.50000000  0.50000000  0.87384100  1
