# generated using pymatgen
data_Rb3Cr(HO)6
_symmetry_space_group_name_H-M   'P 1'
_cell_length_a   11.02438816
_cell_length_b   11.02438816
_cell_length_c   15.07473506
_cell_angle_alpha   90.00000000
_cell_angle_beta   90.00000000
_cell_angle_gamma   120.00000000
_symmetry_Int_Tables_number   1
_chemical_formula_structural   Rb3Cr(HO)6
_chemical_formula_sum   'Rb18 Cr6 H36 O36'
_cell_volume   1586.67987039
_cell_formula_units_Z   6
loop_
 _symmetry_equiv_pos_site_id
 _symmetry_equiv_pos_as_xyz
  1  'x, y, z'
loop_
 _atom_site_type_symbol
 _atom_site_label
 _atom_site_symmetry_multiplicity
 _atom_site_fract_x
 _atom_site_fract_y
 _atom_site_fract_z
 _atom_site_occupancy
  Rb  Rb0  1  0.05830667  0.72497333  0.08333333  1
  Rb  Rb1  1  0.66666667  0.94169333  0.08333333  1
  Rb  Rb2  1  0.27502667  0.33333333  0.08333333  1
  Rb  Rb3  1  0.60836000  0.60836000  0.25000000  1
  Rb  Rb4  1  0.00000000  0.39164000  0.25000000  1
  Rb  Rb5  1  0.39164000  0.00000000  0.25000000  1
  Rb  Rb6  1  0.72497333  0.05830667  0.41666667  1
  Rb  Rb7  1  0.33333333  0.27502667  0.41666667  1
  Rb  Rb8  1  0.94169333  0.66666667  0.41666667  1
  Rb  Rb9  1  0.27502667  0.94169333  0.58333333  1
  Rb  Rb10  1  0.66666667  0.72497333  0.58333333  1
  Rb  Rb11  1  0.05830667  0.33333333  0.58333333  1
  Rb  Rb12  1  0.39164000  0.39164000  0.75000000  1
  Rb  Rb13  1  0.00000000  0.60836000  0.75000000  1
  Rb  Rb14  1  0.60836000  0.00000000  0.75000000  1
  Rb  Rb15  1  0.94169333  0.27502667  0.91666667  1
  Rb  Rb16  1  0.33333333  0.05830667  0.91666667  1
  Rb  Rb17  1  0.72497333  0.66666667  0.91666667  1
  Cr  Cr18  1  0.33333333  0.66666667  0.16666667  1
  Cr  Cr19  1  0.00000000  0.00000000  0.00000000  1
  Cr  Cr20  1  1.00000000  0.00000000  0.50000000  1
  Cr  Cr21  1  0.66666667  0.33333333  0.33333333  1
  Cr  Cr22  1  0.66666667  0.33333333  0.83333333  1
  Cr  Cr23  1  0.33333333  0.66666667  0.66666667  1
  H  H24  1  0.33786733  0.53643167  0.44164767  1
  H  H25  1  0.19856433  0.66213267  0.44164767  1
  H  H26  1  0.46356833  0.80143567  0.44164767  1
  H  H27  1  0.20309833  0.67120067  0.39168567  1
  H  H28  1  0.46810233  0.79690167  0.39168567  1
  H  H29  1  0.32879933  0.53189767  0.39168567  1
  H  H30  1  0.32879933  0.79690167  0.89168567  1
  H  H31  1  0.46810233  0.67120067  0.89168567  1
  H  H32  1  0.20309833  0.53189767  0.89168567  1
  H  H33  1  0.46356833  0.66213267  0.94164767  1
  H  H34  1  0.19856433  0.53643167  0.94164767  1
  H  H35  1  0.33786733  0.80143567  0.94164767  1
  H  H36  1  0.00453400  0.86976500  0.77498100  1
  H  H37  1  0.86523100  0.99546600  0.77498100  1
  H  H38  1  0.13023500  0.13476900  0.77498100  1
  H  H39  1  0.86976500  0.00453400  0.72501900  1
  H  H40  1  0.13476900  0.13023500  0.72501900  1
  H  H41  1  0.99546600  0.86523100  0.72501900  1
  H  H42  1  0.99546600  0.13023500  0.22501900  1
  H  H43  1  0.13476900  0.00453400  0.22501900  1
  H  H44  1  0.86976500  0.86523100  0.22501900  1
  H  H45  1  0.13023500  0.99546600  0.27498100  1
  H  H46  1  0.86523100  0.86976500  0.27498100  1
  H  H47  1  0.00453400  0.13476900  0.27498100  1
  H  H48  1  0.67120067  0.20309833  0.10831433  1
  H  H49  1  0.53189767  0.32879933  0.10831433  1
  H  H50  1  0.79690167  0.46810233  0.10831433  1
  H  H51  1  0.53643167  0.33786733  0.05835233  1
  H  H52  1  0.80143567  0.46356833  0.05835233  1
  H  H53  1  0.66213267  0.19856433  0.05835233  1
  H  H54  1  0.66213267  0.46356833  0.55835233  1
  H  H55  1  0.80143567  0.33786733  0.55835233  1
  H  H56  1  0.53643167  0.19856433  0.55835233  1
  H  H57  1  0.79690167  0.32879933  0.60831433  1
  H  H58  1  0.53189767  0.20309833  0.60831433  1
  H  H59  1  0.67120067  0.46810233  0.60831433  1
  O  O60  1  0.69028467  0.21096233  0.26455433  1
  O  O61  1  0.52067767  0.30971533  0.26455433  1
  O  O62  1  0.78903767  0.47932233  0.26455433  1
  O  O63  1  0.21096233  0.69028467  0.23544567  1
  O  O64  1  0.47932233  0.78903767  0.23544567  1
  O  O65  1  0.30971533  0.52067767  0.23544567  1
  O  O66  1  0.97638200  0.12237100  0.06877900  1
  O  O67  1  0.14598900  0.02361800  0.06877900  1
  O  O68  1  0.87762900  0.85401100  0.06877900  1
  O  O69  1  0.45570433  0.64304867  0.09788767  1
  O  O70  1  0.18734433  0.54429567  0.09788767  1
  O  O71  1  0.35695133  0.81265567  0.09788767  1
  O  O72  1  0.35695133  0.54429567  0.59788767  1
  O  O73  1  0.18734433  0.64304867  0.59788767  1
  O  O74  1  0.45570433  0.81265567  0.59788767  1
  O  O75  1  0.87762900  0.02361800  0.56877900  1
  O  O76  1  0.14598900  0.12237100  0.56877900  1
  O  O77  1  0.97638200  0.85401100  0.56877900  1
  O  O78  1  0.64304867  0.45570433  0.40211233  1
  O  O79  1  0.81265567  0.35695133  0.40211233  1
  O  O80  1  0.54429567  0.18734433  0.40211233  1
  O  O81  1  0.12237100  0.97638200  0.43122100  1
  O  O82  1  0.85401100  0.87762900  0.43122100  1
  O  O83  1  0.02361800  0.14598900  0.43122100  1
  O  O84  1  0.02361800  0.87762900  0.93122100  1
  O  O85  1  0.85401100  0.97638200  0.93122100  1
  O  O86  1  0.12237100  0.14598900  0.93122100  1
  O  O87  1  0.54429567  0.35695133  0.90211233  1
  O  O88  1  0.81265567  0.45570433  0.90211233  1
  O  O89  1  0.64304867  0.18734433  0.90211233  1
  O  O90  1  0.30971533  0.78903767  0.73544567  1
  O  O91  1  0.47932233  0.69028467  0.73544567  1
  O  O92  1  0.21096233  0.52067767  0.73544567  1
  O  O93  1  0.78903767  0.30971533  0.76455433  1
  O  O94  1  0.52067767  0.21096233  0.76455433  1
  O  O95  1  0.69028467  0.47932233  0.76455433  1
