# generated using pymatgen
data_ZrCoF6
_symmetry_space_group_name_H-M   'P 1'
_cell_length_a   5.66684996
_cell_length_b   5.66684996
_cell_length_c   14.11695179
_cell_angle_alpha   90.00000000
_cell_angle_beta   90.00000000
_cell_angle_gamma   120.00000000
_symmetry_Int_Tables_number   1
_chemical_formula_structural   ZrCoF6
_chemical_formula_sum   'Zr3 Co3 F18'
_cell_volume   392.60424571
_cell_formula_units_Z   3
loop_
 _symmetry_equiv_pos_site_id
 _symmetry_equiv_pos_as_xyz
  1  'x, y, z'
loop_
 _atom_site_type_symbol
 _atom_site_label
 _atom_site_symmetry_multiplicity
 _atom_site_fract_x
 _atom_site_fract_y
 _atom_site_fract_z
 _atom_site_occupancy
  Zr  Zr0  1  0.33333333  0.66666667  0.16666667  1
  Zr  Zr1  1  1.00000000  0.00000000  0.50000000  1
  Zr  Zr2  1  0.66666667  0.33333333  0.83333333  1
  Co  Co3  1  0.00000000  0.00000000  0.00000000  1
  Co  Co4  1  0.66666667  0.33333333  0.33333333  1
  Co  Co5  1  0.33333333  0.66666667  0.66666667  1
  F  F6  1  0.00048300  0.44040700  0.25017600  1
  F  F7  1  0.55959300  0.56007600  0.25017600  1
  F  F8  1  0.22674267  0.33381633  0.08315733  1
  F  F9  1  0.10707367  0.77325733  0.08315733  1
  F  F10  1  0.66618367  0.89292633  0.08315733  1
  F  F11  1  0.43992400  0.99951700  0.25017600  1
  F  F12  1  0.66714967  0.77374033  0.58350933  1
  F  F13  1  0.22625967  0.89340933  0.58350933  1
  F  F14  1  0.89340933  0.66714967  0.41649067  1
  F  F15  1  0.77374033  0.10659067  0.41649067  1
  F  F16  1  0.33285033  0.22625967  0.41649067  1
  F  F17  1  0.10659067  0.33285033  0.58350933  1
  F  F18  1  0.33381633  0.10707367  0.91684267  1
  F  F19  1  0.89292633  0.22674267  0.91684267  1
  F  F20  1  0.56007600  0.00048300  0.74982400  1
  F  F21  1  0.44040700  0.43992400  0.74982400  1
  F  F22  1  0.99951700  0.55959300  0.74982400  1
  F  F23  1  0.77325733  0.66618367  0.91684267  1
