# generated using pymatgen
data_SiNi2(P2O7)2
_symmetry_space_group_name_H-M   'P 1'
_cell_length_a   17.06150200
_cell_length_b   4.97427800
_cell_length_c   12.34018390
_cell_angle_alpha   90.00000000
_cell_angle_beta   103.59706735
_cell_angle_gamma   90.00000000
_symmetry_Int_Tables_number   1
_chemical_formula_structural   SiNi2(P2O7)2
_chemical_formula_sum   'Si4 Ni8 P16 O56'
_cell_volume   1017.94230380
_cell_formula_units_Z   4
loop_
 _symmetry_equiv_pos_site_id
 _symmetry_equiv_pos_as_xyz
  1  'x, y, z'
loop_
 _atom_site_type_symbol
 _atom_site_label
 _atom_site_symmetry_multiplicity
 _atom_site_fract_x
 _atom_site_fract_y
 _atom_site_fract_z
 _atom_site_occupancy
  Si  Si0  1  0.00000000  0.34065600  0.25000000  1
  Si  Si1  1  0.00000000  0.65934400  0.75000000  1
  Si  Si2  1  0.50000000  0.84065600  0.25000000  1
  Si  Si3  1  0.50000000  0.15934400  0.75000000  1
  Ni  Ni4  1  0.74754700  0.84984400  0.62899600  1
  Ni  Ni5  1  0.75245300  0.34984400  0.87100400  1
  Ni  Ni6  1  0.74754700  0.15015600  0.12899600  1
  Ni  Ni7  1  0.75245300  0.65015600  0.37100400  1
  Ni  Ni8  1  0.24754700  0.34984400  0.62899600  1
  Ni  Ni9  1  0.25245300  0.84984400  0.87100400  1
  Ni  Ni10  1  0.24754700  0.65015600  0.12899600  1
  Ni  Ni11  1  0.25245300  0.15015600  0.37100400  1
  P  P12  1  0.62657450  0.63228150  0.13645700  1
  P  P13  1  0.86373500  0.66573200  0.08387600  1
  P  P14  1  0.87342550  0.86771850  0.86354300  1
  P  P15  1  0.63626500  0.16573200  0.41612400  1
  P  P16  1  0.62657450  0.36771850  0.63645700  1
  P  P17  1  0.86373500  0.33426800  0.58387600  1
  P  P18  1  0.87342550  0.13228150  0.36354300  1
  P  P19  1  0.63626500  0.83426800  0.91612400  1
  P  P20  1  0.12657450  0.13228150  0.13645700  1
  P  P21  1  0.36373500  0.16573200  0.08387600  1
  P  P22  1  0.37342550  0.36771850  0.86354300  1
  P  P23  1  0.13626500  0.66573200  0.41612400  1
  P  P24  1  0.12657450  0.86771850  0.63645700  1
  P  P25  1  0.36373500  0.83426800  0.58387600  1
  P  P26  1  0.37342550  0.63228150  0.36354300  1
  P  P27  1  0.13626500  0.33426800  0.91612400  1
  O  O28  1  0.95441400  0.14877500  0.32226500  1
  O  O29  1  0.90505450  0.28190850  0.48150800  1
  O  O30  1  0.95441400  0.85122500  0.82226500  1
  O  O31  1  0.85592750  0.15757350  0.87949900  1
  O  O32  1  0.64407250  0.34242650  0.12050100  1
  O  O33  1  0.93630200  0.46833000  0.66766100  1
  O  O34  1  0.54558600  0.35122500  0.67773500  1
  O  O35  1  0.69430750  0.19653150  0.70706300  1
  O  O36  1  0.93630200  0.53167000  0.16766100  1
  O  O37  1  0.69430750  0.80346850  0.20706300  1
  O  O38  1  0.59494550  0.78190850  0.01849200  1
  O  O39  1  0.84498450  0.92717650  0.13184900  1
  O  O40  1  0.84498450  0.07282350  0.63184900  1
  O  O41  1  0.85592750  0.84242650  0.37949900  1
  O  O42  1  0.79538800  0.53440100  0.54441500  1
  O  O43  1  0.65501550  0.42717650  0.36815100  1
  O  O44  1  0.64407250  0.65757350  0.62050100  1
  O  O45  1  0.79538800  0.46559900  0.04441500  1
  O  O46  1  0.59494550  0.21809150  0.51849200  1
  O  O47  1  0.65501550  0.57282350  0.86815100  1
  O  O48  1  0.80569250  0.69653150  0.79293700  1
  O  O49  1  0.70461200  0.96559900  0.45558500  1
  O  O50  1  0.80569250  0.30346850  0.29293700  1
  O  O51  1  0.56369800  0.96833000  0.83233900  1
  O  O52  1  0.54558600  0.64877500  0.17773500  1
  O  O53  1  0.90505450  0.71809150  0.98150800  1
  O  O54  1  0.56369800  0.03167000  0.33233900  1
  O  O55  1  0.70461200  0.03440100  0.95558500  1
  O  O56  1  0.45441400  0.64877500  0.32226500  1
  O  O57  1  0.40505450  0.78190850  0.48150800  1
  O  O58  1  0.45441400  0.35122500  0.82226500  1
  O  O59  1  0.35592750  0.65757350  0.87949900  1
  O  O60  1  0.14407250  0.84242650  0.12050100  1
  O  O61  1  0.43630200  0.96833000  0.66766100  1
  O  O62  1  0.04558600  0.85122500  0.67773500  1
  O  O63  1  0.19430750  0.69653150  0.70706300  1
  O  O64  1  0.43630200  0.03167000  0.16766100  1
  O  O65  1  0.19430750  0.30346850  0.20706300  1
  O  O66  1  0.09494550  0.28190850  0.01849200  1
  O  O67  1  0.34498450  0.42717650  0.13184900  1
  O  O68  1  0.34498450  0.57282350  0.63184900  1
  O  O69  1  0.35592750  0.34242650  0.37949900  1
  O  O70  1  0.29538800  0.03440100  0.54441500  1
  O  O71  1  0.15501550  0.92717650  0.36815100  1
  O  O72  1  0.14407250  0.15757350  0.62050100  1
  O  O73  1  0.29538800  0.96559900  0.04441500  1
  O  O74  1  0.09494550  0.71809150  0.51849200  1
  O  O75  1  0.15501550  0.07282350  0.86815100  1
  O  O76  1  0.30569250  0.19653150  0.79293700  1
  O  O77  1  0.20461200  0.46559900  0.45558500  1
  O  O78  1  0.30569250  0.80346850  0.29293700  1
  O  O79  1  0.06369800  0.46833000  0.83233900  1
  O  O80  1  0.04558600  0.14877500  0.17773500  1
  O  O81  1  0.40505450  0.21809150  0.98150800  1
  O  O82  1  0.06369800  0.53167000  0.33233900  1
  O  O83  1  0.20461200  0.53440100  0.95558500  1
