# generated using pymatgen
data_Er3Si3Ni
_symmetry_space_group_name_H-M   'P 1'
_cell_length_a   10.26790200
_cell_length_b   4.16472600
_cell_length_c   13.44288423
_cell_angle_alpha   90.00000000
_cell_angle_beta   110.53878606
_cell_angle_gamma   90.00000000
_symmetry_Int_Tables_number   1
_chemical_formula_structural   Er3Si3Ni
_chemical_formula_sum   'Er12 Si12 Ni4'
_cell_volume   538.31713069
_cell_formula_units_Z   4
loop_
 _symmetry_equiv_pos_site_id
 _symmetry_equiv_pos_as_xyz
  1  'x, y, z'
loop_
 _atom_site_type_symbol
 _atom_site_label
 _atom_site_symmetry_multiplicity
 _atom_site_fract_x
 _atom_site_fract_y
 _atom_site_fract_z
 _atom_site_occupancy
  Er  Er0  1  0.46972400  0.00000000  0.61971800  1
  Er  Er1  1  0.60206700  0.00000000  0.92140400  1
  Er  Er2  1  0.24697900  0.50000000  0.22761600  1
  Er  Er3  1  0.53027600  0.00000000  0.38028200  1
  Er  Er4  1  0.39793300  0.00000000  0.07859600  1
  Er  Er5  1  0.75302100  0.50000000  0.77238400  1
  Er  Er6  1  0.96972400  0.50000000  0.61971800  1
  Er  Er7  1  0.10206700  0.50000000  0.92140400  1
  Er  Er8  1  0.74697900  0.00000000  0.22761600  1
  Er  Er9  1  0.03027600  0.50000000  0.38028200  1
  Er  Er10  1  0.89793300  0.50000000  0.07859600  1
  Er  Er11  1  0.25302100  0.00000000  0.77238400  1
  Si  Si12  1  0.36380300  0.50000000  0.45671700  1
  Si  Si13  1  0.45437300  0.50000000  0.76397200  1
  Si  Si14  1  0.88603100  0.00000000  0.92393200  1
  Si  Si15  1  0.11396900  0.00000000  0.07606800  1
  Si  Si16  1  0.63619700  0.50000000  0.54328300  1
  Si  Si17  1  0.54562700  0.50000000  0.23602800  1
  Si  Si18  1  0.86380300  0.00000000  0.45671700  1
  Si  Si19  1  0.95437300  0.00000000  0.76397200  1
  Si  Si20  1  0.38603100  0.50000000  0.92393200  1
  Si  Si21  1  0.61396900  0.50000000  0.07606800  1
  Si  Si22  1  0.13619700  0.00000000  0.54328300  1
  Si  Si23  1  0.04562700  0.00000000  0.23602800  1
  Ni  Ni24  1  0.75245900  0.00000000  0.59748500  1
  Ni  Ni25  1  0.24754100  0.00000000  0.40251500  1
  Ni  Ni26  1  0.25245900  0.50000000  0.59748500  1
  Ni  Ni27  1  0.74754100  0.50000000  0.40251500  1
