# generated using pymatgen
data_CuAg4TeO6
_symmetry_space_group_name_H-M   'P 1'
_cell_length_a   11.48229800
_cell_length_b   9.87710000
_cell_length_c   5.83917747
_cell_angle_alpha   90.00000000
_cell_angle_beta   99.72062273
_cell_angle_gamma   90.00000000
_symmetry_Int_Tables_number   1
_chemical_formula_structural   CuAg4TeO6
_chemical_formula_sum   'Cu4 Ag16 Te4 O24'
_cell_volume   652.72384134
_cell_formula_units_Z   4
loop_
 _symmetry_equiv_pos_site_id
 _symmetry_equiv_pos_as_xyz
  1  'x, y, z'
loop_
 _atom_site_type_symbol
 _atom_site_label
 _atom_site_symmetry_multiplicity
 _atom_site_fract_x
 _atom_site_fract_y
 _atom_site_fract_z
 _atom_site_occupancy
  Cu  Cu0  1  0.50000000  0.41720000  0.75000000  1
  Cu  Cu1  1  0.50000000  0.58280000  0.25000000  1
  Cu  Cu2  1  0.00000000  0.91720000  0.75000000  1
  Cu  Cu3  1  0.00000000  0.08280000  0.25000000  1
  Ag  Ag4  1  0.50000000  0.07164700  0.75000000  1
  Ag  Ag5  1  0.73635250  0.91505850  0.02868000  1
  Ag  Ag6  1  0.50000000  0.92835300  0.25000000  1
  Ag  Ag7  1  0.73635250  0.08494150  0.52868000  1
  Ag  Ag8  1  0.26364750  0.91505850  0.47132000  1
  Ag  Ag9  1  0.26364750  0.08494150  0.97132000  1
  Ag  Ag10  1  0.75000000  0.75000000  0.50000000  1
  Ag  Ag11  1  0.75000000  0.25000000  0.00000000  1
  Ag  Ag12  1  0.00000000  0.57164700  0.75000000  1
  Ag  Ag13  1  0.23635250  0.41505850  0.02868000  1
  Ag  Ag14  1  0.00000000  0.42835300  0.25000000  1
  Ag  Ag15  1  0.23635250  0.58494150  0.52868000  1
  Ag  Ag16  1  0.76364750  0.41505850  0.47132000  1
  Ag  Ag17  1  0.76364750  0.58494150  0.97132000  1
  Ag  Ag18  1  0.25000000  0.25000000  0.50000000  1
  Ag  Ag19  1  0.25000000  0.75000000  0.00000000  1
  Te  Te20  1  0.50000000  0.72181800  0.75000000  1
  Te  Te21  1  0.50000000  0.27818200  0.25000000  1
  Te  Te22  1  0.00000000  0.22181800  0.75000000  1
  Te  Te23  1  0.00000000  0.77818200  0.25000000  1
  O  O24  1  0.38490500  0.14047100  0.31290300  1
  O  O25  1  0.38490500  0.85952900  0.81290300  1
  O  O26  1  0.10369050  0.92936650  0.17965500  1
  O  O27  1  0.61509500  0.85952900  0.68709700  1
  O  O28  1  0.61509500  0.14047100  0.18709700  1
  O  O29  1  0.42496250  0.72308950  0.41862100  1
  O  O30  1  0.42496250  0.27691050  0.91862100  1
  O  O31  1  0.57503750  0.72308950  0.08137900  1
  O  O32  1  0.89630950  0.92936650  0.32034500  1
  O  O33  1  0.10369050  0.07063350  0.67965500  1
  O  O34  1  0.57503750  0.27691050  0.58137900  1
  O  O35  1  0.89630950  0.07063350  0.82034500  1
  O  O36  1  0.88490500  0.64047100  0.31290300  1
  O  O37  1  0.88490500  0.35952900  0.81290300  1
  O  O38  1  0.60369050  0.42936650  0.17965500  1
  O  O39  1  0.11509500  0.35952900  0.68709700  1
  O  O40  1  0.11509500  0.64047100  0.18709700  1
  O  O41  1  0.92496250  0.22308950  0.41862100  1
  O  O42  1  0.92496250  0.77691050  0.91862100  1
  O  O43  1  0.07503750  0.22308950  0.08137900  1
  O  O44  1  0.39630950  0.42936650  0.32034500  1
  O  O45  1  0.60369050  0.57063350  0.67965500  1
  O  O46  1  0.07503750  0.77691050  0.58137900  1
  O  O47  1  0.39630950  0.57063350  0.82034500  1
