# generated using pymatgen
data_Er6I7
_symmetry_space_group_name_H-M   'P 1'
_cell_length_a   22.07930200
_cell_length_b   3.95072200
_cell_length_c   12.47167281
_cell_angle_alpha   90.00000000
_cell_angle_beta   122.32970944
_cell_angle_gamma   90.00000000
_symmetry_Int_Tables_number   1
_chemical_formula_structural   Er6I7
_chemical_formula_sum   'Er12 I14'
_cell_volume   919.25359189
_cell_formula_units_Z   2
loop_
 _symmetry_equiv_pos_site_id
 _symmetry_equiv_pos_as_xyz
  1  'x, y, z'
loop_
 _atom_site_type_symbol
 _atom_site_label
 _atom_site_symmetry_multiplicity
 _atom_site_fract_x
 _atom_site_fract_y
 _atom_site_fract_z
 _atom_site_occupancy
  Er  Er0  1  0.86769800  0.00000000  0.44682100  1
  Er  Er1  1  0.18771300  0.50000000  0.37594100  1
  Er  Er2  1  0.73664500  0.50000000  0.19408500  1
  Er  Er3  1  0.81228700  0.50000000  0.62405900  1
  Er  Er4  1  0.26335500  0.50000000  0.80591500  1
  Er  Er5  1  0.13230200  0.00000000  0.55317900  1
  Er  Er6  1  0.36769800  0.50000000  0.44682100  1
  Er  Er7  1  0.68771300  0.00000000  0.37594100  1
  Er  Er8  1  0.23664500  0.00000000  0.19408500  1
  Er  Er9  1  0.31228700  0.00000000  0.62405900  1
  Er  Er10  1  0.76335500  0.00000000  0.80591500  1
  Er  Er11  1  0.63230200  0.50000000  0.55317900  1
  I  I12  1  0.38673900  0.00000000  0.93196200  1
  I  I13  1  0.83452700  0.00000000  0.16546400  1
  I  I14  1  0.16547300  0.00000000  0.83453600  1
  I  I15  1  0.61326100  0.00000000  0.06803800  1
  I  I16  1  0.94651500  0.00000000  0.72983900  1
  I  I17  1  0.00000000  0.50000000  0.50000000  1
  I  I18  1  0.05348500  0.00000000  0.27016100  1
  I  I19  1  0.88673900  0.50000000  0.93196200  1
  I  I20  1  0.33452700  0.50000000  0.16546400  1
  I  I21  1  0.66547300  0.50000000  0.83453600  1
  I  I22  1  0.11326100  0.50000000  0.06803800  1
  I  I23  1  0.44651500  0.50000000  0.72983900  1
  I  I24  1  0.50000000  0.00000000  0.50000000  1
  I  I25  1  0.55348500  0.50000000  0.27016100  1
