# generated using pymatgen
data_Pr3IrO7
_symmetry_space_group_name_H-M   'P 1'
_cell_length_a   7.56165000
_cell_length_b   11.07903800
_cell_length_c   7.64293300
_cell_angle_alpha   90.00000000
_cell_angle_beta   90.00000000
_cell_angle_gamma   90.00000000
_symmetry_Int_Tables_number   1
_chemical_formula_structural   Pr3IrO7
_chemical_formula_sum   'Pr12 Ir4 O28'
_cell_volume   640.29288522
_cell_formula_units_Z   4
loop_
 _symmetry_equiv_pos_site_id
 _symmetry_equiv_pos_as_xyz
  1  'x, y, z'
loop_
 _atom_site_type_symbol
 _atom_site_label
 _atom_site_symmetry_multiplicity
 _atom_site_fract_x
 _atom_site_fract_y
 _atom_site_fract_z
 _atom_site_occupancy
  Pr  Pr0  1  0.00000000  0.00000000  0.00000000  1
  Pr  Pr1  1  0.00000000  0.00000000  0.50000000  1
  Pr  Pr2  1  0.69541550  0.77828850  0.75000000  1
  Pr  Pr3  1  0.30458450  0.22171150  0.25000000  1
  Pr  Pr4  1  0.69541550  0.22171150  0.75000000  1
  Pr  Pr5  1  0.30458450  0.77828850  0.25000000  1
  Pr  Pr6  1  0.50000000  0.50000000  0.00000000  1
  Pr  Pr7  1  0.50000000  0.50000000  0.50000000  1
  Pr  Pr8  1  0.19541550  0.27828850  0.75000000  1
  Pr  Pr9  1  0.80458450  0.72171150  0.25000000  1
  Pr  Pr10  1  0.19541550  0.72171150  0.75000000  1
  Pr  Pr11  1  0.80458450  0.27828850  0.25000000  1
  Ir  Ir12  1  0.50000000  0.00000000  0.00000000  1
  Ir  Ir13  1  0.50000000  0.00000000  0.50000000  1
  Ir  Ir14  1  0.00000000  0.50000000  0.00000000  1
  Ir  Ir15  1  0.00000000  0.50000000  0.50000000  1
  O  O16  1  0.58819900  0.00000000  0.75000000  1
  O  O17  1  0.41180100  0.00000000  0.25000000  1
  O  O18  1  0.47507450  0.36825950  0.75000000  1
  O  O19  1  0.52492550  0.63174050  0.25000000  1
  O  O20  1  0.47507450  0.63174050  0.75000000  1
  O  O21  1  0.52492550  0.36825950  0.25000000  1
  O  O22  1  0.31504000  0.12548200  0.96136400  1
  O  O23  1  0.68496000  0.87451800  0.46136400  1
  O  O24  1  0.31504000  0.87451800  0.96136400  1
  O  O25  1  0.68496000  0.12548200  0.46136400  1
  O  O26  1  0.31504000  0.12548200  0.53863600  1
  O  O27  1  0.68496000  0.87451800  0.03863600  1
  O  O28  1  0.68496000  0.12548200  0.03863600  1
  O  O29  1  0.31504000  0.87451800  0.53863600  1
  O  O30  1  0.08819900  0.50000000  0.75000000  1
  O  O31  1  0.91180100  0.50000000  0.25000000  1
  O  O32  1  0.97507450  0.86825950  0.75000000  1
  O  O33  1  0.02492550  0.13174050  0.25000000  1
  O  O34  1  0.97507450  0.13174050  0.75000000  1
  O  O35  1  0.02492550  0.86825950  0.25000000  1
  O  O36  1  0.81504000  0.62548200  0.96136400  1
  O  O37  1  0.18496000  0.37451800  0.46136400  1
  O  O38  1  0.81504000  0.37451800  0.96136400  1
  O  O39  1  0.18496000  0.62548200  0.46136400  1
  O  O40  1  0.81504000  0.62548200  0.53863600  1
  O  O41  1  0.18496000  0.37451800  0.03863600  1
  O  O42  1  0.18496000  0.62548200  0.03863600  1
  O  O43  1  0.81504000  0.37451800  0.53863600  1
