# generated using pymatgen
data_SrCrF6
_symmetry_space_group_name_H-M   'P 1'
_cell_length_a   7.25287864
_cell_length_b   7.25287864
_cell_length_c   6.99697635
_cell_angle_alpha   90.00000000
_cell_angle_beta   90.00000000
_cell_angle_gamma   120.00000000
_symmetry_Int_Tables_number   1
_chemical_formula_structural   SrCrF6
_chemical_formula_sum   'Sr3 Cr3 F18'
_cell_volume   318.75856179
_cell_formula_units_Z   3
loop_
 _symmetry_equiv_pos_site_id
 _symmetry_equiv_pos_as_xyz
  1  'x, y, z'
loop_
 _atom_site_type_symbol
 _atom_site_label
 _atom_site_symmetry_multiplicity
 _atom_site_fract_x
 _atom_site_fract_y
 _atom_site_fract_z
 _atom_site_occupancy
  Sr  Sr0  1  0.00000000  0.00000000  0.50000000  1
  Sr  Sr1  1  0.66666667  0.33333333  0.83333333  1
  Sr  Sr2  1  0.33333333  0.66666667  0.16666667  1
  Cr  Cr3  1  0.00000000  0.00000000  0.00000000  1
  Cr  Cr4  1  0.66666667  0.33333333  0.33333333  1
  Cr  Cr5  1  0.33333333  0.66666667  0.66666667  1
  F  F6  1  0.21483467  0.78516533  0.50611733  1
  F  F7  1  0.21483467  0.42966933  0.50611733  1
  F  F8  1  0.78516533  0.57033067  0.49388267  1
  F  F9  1  0.78516533  0.21483467  0.49388267  1
  F  F10  1  0.42966933  0.21483467  0.49388267  1
  F  F11  1  0.57033067  0.78516533  0.50611733  1
  F  F12  1  0.88150133  0.11849867  0.83945067  1
  F  F13  1  0.88150133  0.76300267  0.83945067  1
  F  F14  1  0.45183200  0.90366400  0.82721600  1
  F  F15  1  0.45183200  0.54816800  0.82721600  1
  F  F16  1  0.09633600  0.54816800  0.82721600  1
  F  F17  1  0.23699733  0.11849867  0.83945067  1
  F  F18  1  0.54816800  0.45183200  0.17278400  1
  F  F19  1  0.54816800  0.09633600  0.17278400  1
  F  F20  1  0.11849867  0.23699733  0.16054933  1
  F  F21  1  0.11849867  0.88150133  0.16054933  1
  F  F22  1  0.76300267  0.88150133  0.16054933  1
  F  F23  1  0.90366400  0.45183200  0.17278400  1
