# generated using pymatgen
data_LiCrPO4
_symmetry_space_group_name_H-M   'P 1'
_cell_length_a   7.62461450
_cell_length_b   7.62461450
_cell_length_c   9.53012600
_cell_angle_alpha   90.00000000
_cell_angle_beta   90.00000000
_cell_angle_gamma   120.00000000
_symmetry_Int_Tables_number   1
_chemical_formula_structural   LiCrPO4
_chemical_formula_sum   'Li6 Cr6 P6 O24'
_cell_volume   479.80531673
_cell_formula_units_Z   6
loop_
 _symmetry_equiv_pos_site_id
 _symmetry_equiv_pos_as_xyz
  1  'x, y, z'
loop_
 _atom_site_type_symbol
 _atom_site_label
 _atom_site_symmetry_multiplicity
 _atom_site_fract_x
 _atom_site_fract_y
 _atom_site_fract_z
 _atom_site_occupancy
  Li  Li0  1  0.20709433  0.95936967  0.26018700  1
  Li  Li1  1  0.04063033  0.24772467  0.26018700  1
  Li  Li2  1  0.24772467  0.04063033  0.76018700  1
  Li  Li3  1  0.75227533  0.79290567  0.26018700  1
  Li  Li4  1  0.79290567  0.75227533  0.76018700  1
  Li  Li5  1  0.95936967  0.20709433  0.76018700  1
  Cr  Cr6  1  0.05301233  0.58391667  0.47901800  1
  Cr  Cr7  1  0.53090433  0.94698767  0.47901800  1
  Cr  Cr8  1  0.41608333  0.46909567  0.47901800  1
  Cr  Cr9  1  0.46909567  0.41608333  0.97901800  1
  Cr  Cr10  1  0.58391667  0.05301233  0.97901800  1
  Cr  Cr11  1  0.94698767  0.53090433  0.97901800  1
  P  P12  1  0.33333333  0.66666667  0.77800000  1
  P  P13  1  0.33333333  0.66666667  0.18098400  1
  P  P14  1  0.00000000  0.00000000  0.50895200  1
  P  P15  1  0.00000000  0.00000000  0.00895200  1
  P  P16  1  0.66666667  0.33333333  0.68098400  1
  P  P17  1  0.66666667  0.33333333  0.27800000  1
  O  O18  1  0.10860933  0.88687767  0.45358000  1
  O  O19  1  0.16141633  0.70394967  0.13344100  1
  O  O20  1  0.12740633  0.49267667  0.82907900  1
  O  O21  1  0.36527033  0.87259367  0.82907900  1
  O  O22  1  0.33333333  0.66666667  0.61289200  1
  O  O23  1  0.33333333  0.66666667  0.35047500  1
  O  O24  1  0.00000000  0.00000000  0.67176700  1
  O  O25  1  0.11312233  0.22173167  0.45358000  1
  O  O26  1  0.29605033  0.45746667  0.13344100  1
  O  O27  1  0.54253333  0.83858367  0.13344100  1
  O  O28  1  0.22173167  0.11312233  0.95358000  1
  O  O29  1  0.50732333  0.63472967  0.82907900  1
  O  O30  1  0.45746667  0.29605033  0.63344100  1
  O  O31  1  0.77826833  0.89139067  0.45358000  1
  O  O32  1  0.63472967  0.50732333  0.32907900  1
  O  O33  1  0.49267667  0.12740633  0.32907900  1
  O  O34  1  0.00000000  0.00000000  0.17176700  1
  O  O35  1  0.66666667  0.33333333  0.85047500  1
  O  O36  1  0.66666667  0.33333333  0.11289200  1
  O  O37  1  0.89139067  0.77826833  0.95358000  1
  O  O38  1  0.83858367  0.54253333  0.63344100  1
  O  O39  1  0.70394967  0.16141633  0.63344100  1
  O  O40  1  0.87259367  0.36527033  0.32907900  1
  O  O41  1  0.88687767  0.10860933  0.95358000  1
