# generated using pymatgen
data_MoF5
_symmetry_space_group_name_H-M   'P 1'
_cell_length_a   9.99320600
_cell_length_b   14.62605800
_cell_length_c   5.47163637
_cell_angle_alpha   90.00000000
_cell_angle_beta   92.34659866
_cell_angle_gamma   90.00000000
_symmetry_Int_Tables_number   1
_chemical_formula_structural   MoF5
_chemical_formula_sum   'Mo8 F40'
_cell_volume   799.07035388
_cell_formula_units_Z   8
loop_
 _symmetry_equiv_pos_site_id
 _symmetry_equiv_pos_as_xyz
  1  'x, y, z'
loop_
 _atom_site_type_symbol
 _atom_site_label
 _atom_site_symmetry_multiplicity
 _atom_site_fract_x
 _atom_site_fract_y
 _atom_site_fract_z
 _atom_site_occupancy
  Mo  Mo0  1  0.50000000  0.70172600  0.00000000  1
  Mo  Mo1  1  0.50000000  0.29827400  0.00000000  1
  Mo  Mo2  1  0.25591200  0.00000000  0.73759400  1
  Mo  Mo3  1  0.74408800  0.00000000  0.26240600  1
  Mo  Mo4  1  0.00000000  0.20172600  0.00000000  1
  Mo  Mo5  1  0.00000000  0.79827400  0.00000000  1
  Mo  Mo6  1  0.75591200  0.50000000  0.73759400  1
  Mo  Mo7  1  0.24408800  0.50000000  0.26240600  1
  F  F8  1  0.13737500  0.00000000  0.46694800  1
  F  F9  1  0.86262500  0.00000000  0.53305200  1
  F  F10  1  0.33190700  0.00000000  0.05317100  1
  F  F11  1  0.66809300  0.00000000  0.94682900  1
  F  F12  1  0.36539300  0.09303400  0.62036400  1
  F  F13  1  0.63460700  0.09303400  0.37963600  1
  F  F14  1  0.63460700  0.90696600  0.37963600  1
  F  F15  1  0.36539300  0.90696600  0.62036400  1
  F  F16  1  0.12680550  0.09958550  0.87249200  1
  F  F17  1  0.87319450  0.09958550  0.12750800  1
  F  F18  1  0.87319450  0.90041450  0.12750800  1
  F  F19  1  0.12680550  0.90041450  0.87249200  1
  F  F20  1  0.40544900  0.68406400  0.70461600  1
  F  F21  1  0.59455100  0.68406400  0.29538400  1
  F  F22  1  0.59455100  0.31593600  0.29538400  1
  F  F23  1  0.40544900  0.31593600  0.70461600  1
  F  F24  1  0.61668000  0.79058200  0.88210000  1
  F  F25  1  0.38332000  0.79058200  0.11790000  1
  F  F26  1  0.38332000  0.20941800  0.11790000  1
  F  F27  1  0.61668000  0.20941800  0.88210000  1
  F  F28  1  0.63737500  0.50000000  0.46694800  1
  F  F29  1  0.36262500  0.50000000  0.53305200  1
  F  F30  1  0.83190700  0.50000000  0.05317100  1
  F  F31  1  0.16809300  0.50000000  0.94682900  1
  F  F32  1  0.86539300  0.59303400  0.62036400  1
  F  F33  1  0.13460700  0.59303400  0.37963600  1
  F  F34  1  0.13460700  0.40696600  0.37963600  1
  F  F35  1  0.86539300  0.40696600  0.62036400  1
  F  F36  1  0.62680550  0.59958550  0.87249200  1
  F  F37  1  0.37319450  0.59958550  0.12750800  1
  F  F38  1  0.37319450  0.40041450  0.12750800  1
  F  F39  1  0.62680550  0.40041450  0.87249200  1
  F  F40  1  0.90544900  0.18406400  0.70461600  1
  F  F41  1  0.09455100  0.18406400  0.29538400  1
  F  F42  1  0.09455100  0.81593600  0.29538400  1
  F  F43  1  0.90544900  0.81593600  0.70461600  1
  F  F44  1  0.11668000  0.29058200  0.88210000  1
  F  F45  1  0.88332000  0.29058200  0.11790000  1
  F  F46  1  0.88332000  0.70941800  0.11790000  1
  F  F47  1  0.11668000  0.70941800  0.88210000  1
