# generated using pymatgen
data_Rb2Mo(IO3)6
_symmetry_space_group_name_H-M   'P 1'
_cell_length_a   11.75975980
_cell_length_b   11.75975980
_cell_length_c   11.77538923
_cell_angle_alpha   90.00000000
_cell_angle_beta   90.00000000
_cell_angle_gamma   120.00000000
_symmetry_Int_Tables_number   1
_chemical_formula_structural   Rb2Mo(IO3)6
_chemical_formula_sum   'Rb6 Mo3 I18 O54'
_cell_volume   1410.27174759
_cell_formula_units_Z   3
loop_
 _symmetry_equiv_pos_site_id
 _symmetry_equiv_pos_as_xyz
  1  'x, y, z'
loop_
 _atom_site_type_symbol
 _atom_site_label
 _atom_site_symmetry_multiplicity
 _atom_site_fract_x
 _atom_site_fract_y
 _atom_site_fract_z
 _atom_site_occupancy
  Rb  Rb0  1  0.00000000  0.00000000  0.16865500  1
  Rb  Rb1  1  0.00000000  0.00000000  0.83134500  1
  Rb  Rb2  1  0.66666667  0.33333333  0.50198833  1
  Rb  Rb3  1  0.66666667  0.33333333  0.16467833  1
  Rb  Rb4  1  0.33333333  0.66666667  0.83532167  1
  Rb  Rb5  1  0.33333333  0.66666667  0.49801167  1
  Mo  Mo6  1  0.00000000  0.00000000  0.50000000  1
  Mo  Mo7  1  0.66666667  0.33333333  0.83333333  1
  Mo  Mo8  1  0.33333333  0.66666667  0.16666667  1
  I  I9  1  0.31464700  0.05767700  0.38938100  1
  I  I10  1  0.94232300  0.25697000  0.38938100  1
  I  I11  1  0.05767700  0.74303000  0.61061900  1
  I  I12  1  0.68535300  0.94232300  0.61061900  1
  I  I13  1  0.74303000  0.68535300  0.38938100  1
  I  I14  1  0.25697000  0.31464700  0.61061900  1
  I  I15  1  0.98131367  0.39101033  0.72271433  1
  I  I16  1  0.60898967  0.59030333  0.72271433  1
  I  I17  1  0.72434367  0.07636333  0.94395233  1
  I  I18  1  0.35201967  0.27565633  0.94395233  1
  I  I19  1  0.40969667  0.01868633  0.72271433  1
  I  I20  1  0.92363667  0.64798033  0.94395233  1
  I  I21  1  0.64798033  0.72434367  0.05604767  1
  I  I22  1  0.27565633  0.92363667  0.05604767  1
  I  I23  1  0.39101033  0.40969667  0.27728567  1
  I  I24  1  0.01868633  0.60898967  0.27728567  1
  I  I25  1  0.07636333  0.35201967  0.05604767  1
  I  I26  1  0.59030333  0.98131367  0.27728567  1
  O  O27  1  0.75957800  0.62251700  0.52657500  1
  O  O28  1  0.39819233  0.19527067  0.29182567  1
  O  O29  1  0.24042200  0.37748300  0.47342500  1
  O  O30  1  0.08866200  0.16011400  0.60649600  1
  O  O31  1  0.91133800  0.83988600  0.39350400  1
  O  O32  1  0.16011400  0.07145200  0.39350400  1
  O  O33  1  0.86293900  0.24042200  0.52657500  1
  O  O34  1  0.83988600  0.92854800  0.60649600  1
  O  O35  1  0.13706100  0.75957800  0.47342500  1
  O  O36  1  0.80472933  0.20292167  0.29182567  1
  O  O37  1  0.37748300  0.13706100  0.52657500  1
  O  O38  1  0.62251700  0.86293900  0.47342500  1
  O  O39  1  0.79707833  0.60180767  0.29182567  1
  O  O40  1  0.07145200  0.91133800  0.60649600  1
  O  O41  1  0.19527067  0.79707833  0.70817433  1
  O  O42  1  0.92854800  0.08866200  0.39350400  1
  O  O43  1  0.60180767  0.80472933  0.70817433  1
  O  O44  1  0.20292167  0.39819233  0.70817433  1
  O  O45  1  0.42624467  0.95585033  0.85990833  1
  O  O46  1  0.06485900  0.52860400  0.62515900  1
  O  O47  1  0.90708867  0.71081633  0.80675833  1
  O  O48  1  0.75532867  0.49344733  0.93982933  1
  O  O49  1  0.57800467  0.17321933  0.72683733  1
  O  O50  1  0.82678067  0.40478533  0.72683733  1
  O  O51  1  0.52960567  0.57375533  0.85990833  1
  O  O52  1  0.50655267  0.26188133  0.93982933  1
  O  O53  1  0.80372767  0.09291133  0.80675833  1
  O  O54  1  0.47139600  0.53625500  0.62515900  1
  O  O55  1  0.04414967  0.47039433  0.85990833  1
  O  O56  1  0.28918367  0.19627233  0.80675833  1
  O  O57  1  0.46374500  0.93514100  0.62515900  1
  O  O58  1  0.73811867  0.24467133  0.93982933  1
  O  O59  1  0.86193733  0.13041167  0.04150767  1
  O  O60  1  0.59521467  0.42199533  0.72683733  1
  O  O61  1  0.26847433  0.13806267  0.04150767  1
  O  O62  1  0.86958833  0.73152567  0.04150767  1
  O  O63  1  0.09291133  0.28918367  0.19324167  1
  O  O64  1  0.73152567  0.86193733  0.95849233  1
  O  O65  1  0.57375533  0.04414967  0.14009167  1
  O  O66  1  0.42199533  0.82678067  0.27316267  1
  O  O67  1  0.24467133  0.50655267  0.06017067  1
  O  O68  1  0.49344733  0.73811867  0.06017067  1
  O  O69  1  0.19627233  0.90708867  0.19324167  1
  O  O70  1  0.17321933  0.59521467  0.27316267  1
  O  O71  1  0.47039433  0.42624467  0.14009167  1
  O  O72  1  0.13806267  0.86958833  0.95849233  1
  O  O73  1  0.71081633  0.80372767  0.19324167  1
  O  O74  1  0.95585033  0.52960567  0.14009167  1
  O  O75  1  0.13041167  0.26847433  0.95849233  1
  O  O76  1  0.40478533  0.57800467  0.27316267  1
  O  O77  1  0.52860400  0.46374500  0.37484100  1
  O  O78  1  0.26188133  0.75532867  0.06017067  1
  O  O79  1  0.93514100  0.47139600  0.37484100  1
  O  O80  1  0.53625500  0.06485900  0.37484100  1
