# generated using pymatgen
data_CoTeMoO6
_symmetry_space_group_name_H-M   'P 1'
_cell_length_a   5.11611513
_cell_length_b   5.33199836
_cell_length_c   9.18593502
_cell_angle_alpha   90.00000000
_cell_angle_beta   90.00000000
_cell_angle_gamma   90.00000000
_symmetry_Int_Tables_number   1
_chemical_formula_structural   CoTeMoO6
_chemical_formula_sum   'Co2 Te2 Mo2 O12'
_cell_volume   250.58420080
_cell_formula_units_Z   2
loop_
 _symmetry_equiv_pos_site_id
 _symmetry_equiv_pos_as_xyz
  1  'x, y, z'
loop_
 _atom_site_type_symbol
 _atom_site_label
 _atom_site_symmetry_multiplicity
 _atom_site_fract_x
 _atom_site_fract_y
 _atom_site_fract_z
 _atom_site_occupancy
  Co  Co0  1  0.50000000  0.50000000  0.02594900  1
  Co  Co1  1  0.00000000  0.00000000  0.97405100  1
  Te  Te2  1  0.00000000  0.50000000  0.76033600  1
  Te  Te3  1  0.50000000  0.00000000  0.23966400  1
  Mo  Mo4  1  0.50000000  0.00000000  0.69800700  1
  Mo  Mo5  1  0.00000000  0.50000000  0.30199300  1
  O  O6  1  0.24198700  0.81522200  0.79969000  1
  O  O7  1  0.75801300  0.18477800  0.79969000  1
  O  O8  1  0.74198700  0.68477800  0.20031000  1
  O  O9  1  0.25801300  0.31522200  0.20031000  1
  O  O10  1  0.28125500  0.82083400  0.10369500  1
  O  O11  1  0.71874500  0.17916600  0.10369500  1
  O  O12  1  0.78125500  0.67916600  0.89630500  1
  O  O13  1  0.21874500  0.32083400  0.89630500  1
  O  O14  1  0.66087800  0.79136300  0.58353000  1
  O  O15  1  0.16087800  0.70863700  0.41647000  1
  O  O16  1  0.83912200  0.29136300  0.41647000  1
  O  O17  1  0.33912200  0.20863700  0.58353000  1
