# generated using pymatgen
data_DyCo3
_symmetry_space_group_name_H-M   'P 1'
_cell_length_a   4.95460519
_cell_length_b   4.95460519
_cell_length_c   24.40035038
_cell_angle_alpha   90.00000000
_cell_angle_beta   90.00000000
_cell_angle_gamma   120.00000000
_symmetry_Int_Tables_number   1
_chemical_formula_structural   DyCo3
_chemical_formula_sum   'Dy9 Co27'
_cell_volume   518.73410366
_cell_formula_units_Z   9
loop_
 _symmetry_equiv_pos_site_id
 _symmetry_equiv_pos_as_xyz
  1  'x, y, z'
loop_
 _atom_site_type_symbol
 _atom_site_label
 _atom_site_symmetry_multiplicity
 _atom_site_fract_x
 _atom_site_fract_y
 _atom_site_fract_z
 _atom_site_occupancy
  Dy  Dy0  1  0.00000000  0.00000000  0.13947700  1
  Dy  Dy1  1  0.66666667  0.33333333  0.19385633  1
  Dy  Dy2  1  0.00000000  0.00000000  0.00000000  1
  Dy  Dy3  1  0.66666667  0.33333333  0.47281033  1
  Dy  Dy4  1  0.33333333  0.66666667  0.52718967  1
  Dy  Dy5  1  0.66666667  0.33333333  0.33333333  1
  Dy  Dy6  1  0.33333333  0.66666667  0.80614367  1
  Dy  Dy7  1  0.00000000  0.00000000  0.86052300  1
  Dy  Dy8  1  0.33333333  0.66666667  0.66666667  1
  Co  Co9  1  0.50109900  0.49890100  0.08106600  1
  Co  Co10  1  0.50109900  0.00219800  0.08106600  1
  Co  Co11  1  0.33333333  0.66666667  0.00164167  1
  Co  Co12  1  0.66886467  0.83443233  0.25226733  1
  Co  Co13  1  0.99780200  0.49890100  0.08106600  1
  Co  Co14  1  0.16556767  0.83443233  0.25226733  1
  Co  Co15  1  0.33333333  0.66666667  0.33169167  1
  Co  Co16  1  0.33333333  0.66666667  0.16666667  1
  Co  Co17  1  0.16556767  0.33113533  0.25226733  1
  Co  Co18  1  0.16776567  0.83223433  0.41439933  1
  Co  Co19  1  0.16776567  0.33553133  0.41439933  1
  Co  Co20  1  0.00000000  0.00000000  0.33497500  1
  Co  Co21  1  0.33553133  0.16776567  0.58560067  1
  Co  Co22  1  0.66446867  0.83223433  0.41439933  1
  Co  Co23  1  0.83223433  0.16776567  0.58560067  1
  Co  Co24  1  0.00000000  0.00000000  0.66502500  1
  Co  Co25  1  1.00000000  1.00000000  0.50000000  1
  Co  Co26  1  0.83223433  0.66446867  0.58560067  1
  Co  Co27  1  0.83443233  0.16556767  0.74773267  1
  Co  Co28  1  0.83443233  0.66886467  0.74773267  1
  Co  Co29  1  0.66666667  0.33333333  0.66830833  1
  Co  Co30  1  0.00219800  0.50109900  0.91893400  1
  Co  Co31  1  0.33113533  0.16556767  0.74773267  1
  Co  Co32  1  0.49890100  0.50109900  0.91893400  1
  Co  Co33  1  0.66666667  0.33333333  0.99835833  1
  Co  Co34  1  0.66666667  0.33333333  0.83333333  1
  Co  Co35  1  0.49890100  0.99780200  0.91893400  1
