# generated using pymatgen
data_Li3Ni2(PO4)3
_symmetry_space_group_name_H-M   'P 1'
_cell_length_a   14.36371800
_cell_length_b   13.19591800
_cell_length_c   9.69638154
_cell_angle_alpha   90.00000000
_cell_angle_beta   95.62589307
_cell_angle_gamma   90.00000000
_symmetry_Int_Tables_number   1
_chemical_formula_structural   Li3Ni2(PO4)3
_chemical_formula_sum   'Li24 Ni16 P24 O96'
_cell_volume   1829.02318156
_cell_formula_units_Z   8
loop_
 _symmetry_equiv_pos_site_id
 _symmetry_equiv_pos_as_xyz
  1  'x, y, z'
loop_
 _atom_site_type_symbol
 _atom_site_label
 _atom_site_symmetry_multiplicity
 _atom_site_fract_x
 _atom_site_fract_y
 _atom_site_fract_z
 _atom_site_occupancy
  Li  Li0  1  0.68733850  0.06294950  0.19726800  1
  Li  Li1  1  0.31266150  0.06294950  0.80273200  1
  Li  Li2  1  0.25803650  0.76041950  0.24278000  1
  Li  Li3  1  0.74196350  0.76041950  0.75722000  1
  Li  Li4  1  0.66507950  0.89048150  0.52097300  1
  Li  Li5  1  0.33492050  0.89048150  0.47902700  1
  Li  Li6  1  0.13059750  0.11163550  0.60175100  1
  Li  Li7  1  0.24964800  0.98272600  0.18121100  1
  Li  Li8  1  0.86940250  0.11163550  0.39824900  1
  Li  Li9  1  0.61416950  0.31519950  0.01831300  1
  Li  Li10  1  0.75035200  0.98272600  0.81878900  1
  Li  Li11  1  0.38583050  0.31519950  0.98168700  1
  Li  Li12  1  0.18733850  0.56294950  0.19726800  1
  Li  Li13  1  0.81266150  0.56294950  0.80273200  1
  Li  Li14  1  0.75803650  0.26041950  0.24278000  1
  Li  Li15  1  0.24196350  0.26041950  0.75722000  1
  Li  Li16  1  0.16507950  0.39048150  0.52097300  1
  Li  Li17  1  0.83492050  0.39048150  0.47902700  1
  Li  Li18  1  0.63059750  0.61163550  0.60175100  1
  Li  Li19  1  0.74964800  0.48272600  0.18121100  1
  Li  Li20  1  0.36940250  0.61163550  0.39824900  1
  Li  Li21  1  0.11416950  0.81519950  0.01831300  1
  Li  Li22  1  0.25035200  0.48272600  0.81878900  1
  Li  Li23  1  0.88583050  0.81519950  0.98168700  1
  Ni  Ni24  1  0.50000000  0.03263000  0.50000000  1
  Ni  Ni25  1  0.50000000  0.24975500  0.50000000  1
  Ni  Ni26  1  0.61168850  0.64185750  0.21490400  1
  Ni  Ni27  1  0.38831150  0.64185750  0.78509600  1
  Ni  Ni28  1  0.60697350  0.35726050  0.71727200  1
  Ni  Ni29  1  0.39302650  0.35726050  0.28272800  1
  Ni  Ni30  1  0.50000000  0.74827000  0.00000000  1
  Ni  Ni31  1  0.50000000  0.96621300  0.00000000  1
  Ni  Ni32  1  0.00000000  0.53263000  0.50000000  1
  Ni  Ni33  1  0.00000000  0.74975500  0.50000000  1
  Ni  Ni34  1  0.11168850  0.14185750  0.21490400  1
  Ni  Ni35  1  0.88831150  0.14185750  0.78509600  1
  Ni  Ni36  1  0.10697350  0.85726050  0.71727200  1
  Ni  Ni37  1  0.89302650  0.85726050  0.28272800  1
  Ni  Ni38  1  0.00000000  0.24827000  0.00000000  1
  Ni  Ni39  1  0.00000000  0.46621300  0.00000000  1
  P  P40  1  0.88824250  0.06098550  0.09729300  1
  P  P41  1  0.69476850  0.14256650  0.57252000  1
  P  P42  1  0.69664350  0.85374750  0.07269900  1
  P  P43  1  0.11521750  0.93626950  0.40597700  1
  P  P44  1  0.50917500  0.83028800  0.69917000  1
  P  P45  1  0.11175750  0.06098550  0.90270700  1
  P  P46  1  0.48605450  0.16639450  0.80131500  1
  P  P47  1  0.30523150  0.14256650  0.42748000  1
  P  P48  1  0.51394550  0.16639450  0.19868500  1
  P  P49  1  0.30335650  0.85374750  0.92730100  1
  P  P50  1  0.88478250  0.93626950  0.59402300  1
  P  P51  1  0.49082500  0.83028800  0.30083000  1
  P  P52  1  0.38824250  0.56098550  0.09729300  1
  P  P53  1  0.19476850  0.64256650  0.57252000  1
  P  P54  1  0.19664350  0.35374750  0.07269900  1
  P  P55  1  0.61521750  0.43626950  0.40597700  1
  P  P56  1  0.00917500  0.33028800  0.69917000  1
  P  P57  1  0.61175750  0.56098550  0.90270700  1
  P  P58  1  0.98605450  0.66639450  0.80131500  1
  P  P59  1  0.80523150  0.64256650  0.42748000  1
  P  P60  1  0.01394550  0.66639450  0.19868500  1
  P  P61  1  0.80335650  0.35374750  0.92730100  1
  P  P62  1  0.38478250  0.43626950  0.59402300  1
  P  P63  1  0.99082500  0.33028800  0.30083000  1
  O  O64  1  0.14707200  0.05244300  0.05867400  1
  O  O65  1  0.53329100  0.35763700  0.37248500  1
  O  O66  1  0.13468850  0.95458650  0.56480400  1
  O  O67  1  0.60472250  0.80186250  0.65218100  1
  O  O68  1  0.47570850  0.14703050  0.63922900  1
  O  O69  1  0.81423150  0.10025050  0.18786200  1
  O  O70  1  0.25049600  0.15513000  0.55372700  1
  O  O71  1  0.63773000  0.95252000  0.07261700  1
  O  O72  1  0.18576850  0.10025050  0.81213800  1
  O  O73  1  0.63332950  0.75629950  0.07591100  1
  O  O74  1  0.07654250  0.03881150  0.34866700  1
  O  O75  1  0.47379450  0.63577650  0.12419500  1
  O  O76  1  0.47204500  0.06669600  0.13853100  1
  O  O77  1  0.47601700  0.85176400  0.13989900  1
  O  O78  1  0.79639100  0.90007200  0.65721500  1
  O  O79  1  0.52620550  0.63577650  0.87580500  1
  O  O80  1  0.56543250  0.74711750  0.33797100  1
  O  O81  1  0.75442400  0.13003700  0.71282200  1
  O  O82  1  0.43456750  0.74711750  0.66202900  1
  O  O83  1  0.75103550  0.84960450  0.94315100  1
  O  O84  1  0.24557600  0.13003700  0.28717800  1
  O  O85  1  0.46670900  0.35763700  0.62751500  1
  O  O86  1  0.07681900  0.95298100  0.86351300  1
  O  O87  1  0.63192650  0.23966950  0.58271500  1
  O  O88  1  0.36227000  0.95252000  0.92738300  1
  O  O89  1  0.55668250  0.25178950  0.84477400  1
  O  O90  1  0.92345750  0.03881150  0.65133300  1
  O  O91  1  0.74950400  0.15513000  0.44627300  1
  O  O92  1  0.92318100  0.95298100  0.13648700  1
  O  O93  1  0.20360900  0.90007200  0.34278500  1
  O  O94  1  0.24896450  0.84960450  0.05684900  1
  O  O95  1  0.61164050  0.19101450  0.15550500  1
  O  O96  1  0.52429150  0.14703050  0.36077100  1
  O  O97  1  0.63576300  0.04260100  0.56172900  1
  O  O98  1  0.52795500  0.06669600  0.86146900  1
  O  O99  1  0.52398300  0.85176400  0.86010100  1
  O  O100  1  0.75918150  0.85406550  0.21097900  1
  O  O101  1  0.36667050  0.75629950  0.92408900  1
  O  O102  1  0.53703750  0.92542150  0.37163600  1
  O  O103  1  0.38835950  0.19101450  0.84449500  1
  O  O104  1  0.46296250  0.92542150  0.62836400  1
  O  O105  1  0.36423700  0.04260100  0.43827100  1
  O  O106  1  0.86531150  0.95458650  0.43519600  1
  O  O107  1  0.24081850  0.85406550  0.78902100  1
  O  O108  1  0.36807350  0.23966950  0.41728500  1
  O  O109  1  0.44331750  0.25178950  0.15522600  1
  O  O110  1  0.85292800  0.05244300  0.94132600  1
  O  O111  1  0.39527750  0.80186250  0.34781900  1
  O  O112  1  0.64707200  0.55244300  0.05867400  1
  O  O113  1  0.03329100  0.85763700  0.37248500  1
  O  O114  1  0.63468850  0.45458650  0.56480400  1
  O  O115  1  0.10472250  0.30186250  0.65218100  1
  O  O116  1  0.97570850  0.64703050  0.63922900  1
  O  O117  1  0.31423150  0.60025050  0.18786200  1
  O  O118  1  0.75049600  0.65513000  0.55372700  1
  O  O119  1  0.13773000  0.45252000  0.07261700  1
  O  O120  1  0.68576850  0.60025050  0.81213800  1
  O  O121  1  0.13332950  0.25629950  0.07591100  1
  O  O122  1  0.57654250  0.53881150  0.34866700  1
  O  O123  1  0.97379450  0.13577650  0.12419500  1
  O  O124  1  0.97204500  0.56669600  0.13853100  1
  O  O125  1  0.97601700  0.35176400  0.13989900  1
  O  O126  1  0.29639100  0.40007200  0.65721500  1
  O  O127  1  0.02620550  0.13577650  0.87580500  1
  O  O128  1  0.06543250  0.24711750  0.33797100  1
  O  O129  1  0.25442400  0.63003700  0.71282200  1
  O  O130  1  0.93456750  0.24711750  0.66202900  1
  O  O131  1  0.25103550  0.34960450  0.94315100  1
  O  O132  1  0.74557600  0.63003700  0.28717800  1
  O  O133  1  0.96670900  0.85763700  0.62751500  1
  O  O134  1  0.57681900  0.45298100  0.86351300  1
  O  O135  1  0.13192650  0.73966950  0.58271500  1
  O  O136  1  0.86227000  0.45252000  0.92738300  1
  O  O137  1  0.05668250  0.75178950  0.84477400  1
  O  O138  1  0.42345750  0.53881150  0.65133300  1
  O  O139  1  0.24950400  0.65513000  0.44627300  1
  O  O140  1  0.42318100  0.45298100  0.13648700  1
  O  O141  1  0.70360900  0.40007200  0.34278500  1
  O  O142  1  0.74896450  0.34960450  0.05684900  1
  O  O143  1  0.11164050  0.69101450  0.15550500  1
  O  O144  1  0.02429150  0.64703050  0.36077100  1
  O  O145  1  0.13576300  0.54260100  0.56172900  1
  O  O146  1  0.02795500  0.56669600  0.86146900  1
  O  O147  1  0.02398300  0.35176400  0.86010100  1
  O  O148  1  0.25918150  0.35406550  0.21097900  1
  O  O149  1  0.86667050  0.25629950  0.92408900  1
  O  O150  1  0.03703750  0.42542150  0.37163600  1
  O  O151  1  0.88835950  0.69101450  0.84449500  1
  O  O152  1  0.96296250  0.42542150  0.62836400  1
  O  O153  1  0.86423700  0.54260100  0.43827100  1
  O  O154  1  0.36531150  0.45458650  0.43519600  1
  O  O155  1  0.74081850  0.35406550  0.78902100  1
  O  O156  1  0.86807350  0.73966950  0.41728500  1
  O  O157  1  0.94331750  0.75178950  0.15522600  1
  O  O158  1  0.35292800  0.55244300  0.94132600  1
  O  O159  1  0.89527750  0.30186250  0.34781900  1
