# generated using pymatgen
data_YbCu9Sn4
_symmetry_space_group_name_H-M   'P 1'
_cell_length_a   8.63640000
_cell_length_b   8.63640000
_cell_length_c   12.40330000
_cell_angle_alpha   90.00000000
_cell_angle_beta   90.00000000
_cell_angle_gamma   90.00000000
_symmetry_Int_Tables_number   1
_chemical_formula_structural   YbCu9Sn4
_chemical_formula_sum   'Yb4 Cu36 Sn16'
_cell_volume   925.12995994
_cell_formula_units_Z   4
loop_
 _symmetry_equiv_pos_site_id
 _symmetry_equiv_pos_as_xyz
  1  'x, y, z'
loop_
 _atom_site_type_symbol
 _atom_site_label
 _atom_site_symmetry_multiplicity
 _atom_site_fract_x
 _atom_site_fract_y
 _atom_site_fract_z
 _atom_site_occupancy
  Yb  Yb0  1  0.50000000  0.50000000  0.25000000  1
  Yb  Yb1  1  0.00000000  0.00000000  0.25000000  1
  Yb  Yb2  1  0.00000000  0.00000000  0.75000000  1
  Yb  Yb3  1  0.50000000  0.50000000  0.75000000  1
  Cu  Cu4  1  0.10817950  0.60817950  0.32585650  1
  Cu  Cu5  1  0.94526800  0.79939300  0.00000000  1
  Cu  Cu6  1  0.89182050  0.39182050  0.32585650  1
  Cu  Cu7  1  0.10817950  0.39182050  0.17414350  1
  Cu  Cu8  1  0.70060700  0.55473200  0.00000000  1
  Cu  Cu9  1  0.60817950  0.89182050  0.32585650  1
  Cu  Cu10  1  0.29939300  0.44526800  0.00000000  1
  Cu  Cu11  1  0.00000000  0.50000000  0.00000000  1
  Cu  Cu12  1  0.05473200  0.20060700  0.00000000  1
  Cu  Cu13  1  0.29939300  0.55473200  0.50000000  1
  Cu  Cu14  1  0.05473200  0.79939300  0.50000000  1
  Cu  Cu15  1  0.60817950  0.10817950  0.17414350  1
  Cu  Cu16  1  0.39182050  0.10817950  0.32585650  1
  Cu  Cu17  1  0.39182050  0.89182050  0.17414350  1
  Cu  Cu18  1  0.89182050  0.60817950  0.17414350  1
  Cu  Cu19  1  0.44526800  0.70060700  0.00000000  1
  Cu  Cu20  1  0.20060700  0.94526800  0.00000000  1
  Cu  Cu21  1  0.50000000  0.00000000  0.00000000  1
  Cu  Cu22  1  0.60817950  0.10817950  0.82585650  1
  Cu  Cu23  1  0.44526800  0.29939300  0.50000000  1
  Cu  Cu24  1  0.39182050  0.89182050  0.82585650  1
  Cu  Cu25  1  0.60817950  0.89182050  0.67414350  1
  Cu  Cu26  1  0.20060700  0.05473200  0.50000000  1
  Cu  Cu27  1  0.10817950  0.39182050  0.82585650  1
  Cu  Cu28  1  0.79939300  0.94526800  0.50000000  1
  Cu  Cu29  1  0.50000000  0.00000000  0.50000000  1
  Cu  Cu30  1  0.55473200  0.70060700  0.50000000  1
  Cu  Cu31  1  0.79939300  0.05473200  0.00000000  1
  Cu  Cu32  1  0.55473200  0.29939300  0.00000000  1
  Cu  Cu33  1  0.10817950  0.60817950  0.67414350  1
  Cu  Cu34  1  0.89182050  0.60817950  0.82585650  1
  Cu  Cu35  1  0.89182050  0.39182050  0.67414350  1
  Cu  Cu36  1  0.39182050  0.10817950  0.67414350  1
  Cu  Cu37  1  0.94526800  0.20060700  0.50000000  1
  Cu  Cu38  1  0.70060700  0.44526800  0.50000000  1
  Cu  Cu39  1  0.00000000  0.50000000  0.50000000  1
  Sn  Sn40  1  0.18611500  0.31388500  0.37313300  1
  Sn  Sn41  1  0.81388500  0.31388500  0.12686700  1
  Sn  Sn42  1  0.31388500  0.18611500  0.12686700  1
  Sn  Sn43  1  0.81388500  0.68611500  0.37313300  1
  Sn  Sn44  1  0.31388500  0.81388500  0.37313300  1
  Sn  Sn45  1  0.68611500  0.81388500  0.12686700  1
  Sn  Sn46  1  0.68611500  0.18611500  0.37313300  1
  Sn  Sn47  1  0.18611500  0.68611500  0.12686700  1
  Sn  Sn48  1  0.68611500  0.81388500  0.87313300  1
  Sn  Sn49  1  0.31388500  0.81388500  0.62686700  1
  Sn  Sn50  1  0.81388500  0.68611500  0.62686700  1
  Sn  Sn51  1  0.31388500  0.18611500  0.87313300  1
  Sn  Sn52  1  0.81388500  0.31388500  0.87313300  1
  Sn  Sn53  1  0.18611500  0.31388500  0.62686700  1
  Sn  Sn54  1  0.18611500  0.68611500  0.87313300  1
  Sn  Sn55  1  0.68611500  0.18611500  0.62686700  1
