# generated using pymatgen
data_Li2CoP2O7
_symmetry_space_group_name_H-M   'P 1'
_cell_length_a   15.53570472
_cell_length_b   4.99204200
_cell_length_c   8.84278185
_cell_angle_alpha   90.00000000
_cell_angle_beta   114.79449544
_cell_angle_gamma   90.00000000
_symmetry_Int_Tables_number   1
_chemical_formula_structural   Li2CoP2O7
_chemical_formula_sum   'Li8 Co4 P8 O28'
_cell_volume   622.58231602
_cell_formula_units_Z   4
loop_
 _symmetry_equiv_pos_site_id
 _symmetry_equiv_pos_as_xyz
  1  'x, y, z'
loop_
 _atom_site_type_symbol
 _atom_site_label
 _atom_site_symmetry_multiplicity
 _atom_site_fract_x
 _atom_site_fract_y
 _atom_site_fract_z
 _atom_site_occupancy
  Li  Li0  1  0.18965850  0.35974800  0.05249850  1
  Li  Li1  1  0.81034150  0.35974800  0.44750150  1
  Li  Li2  1  0.81034150  0.64025200  0.94750150  1
  Li  Li3  1  0.18965850  0.64025200  0.55249850  1
  Li  Li4  1  0.68965850  0.85974800  0.05249850  1
  Li  Li5  1  0.31034150  0.85974800  0.44750150  1
  Li  Li6  1  0.31034150  0.14025200  0.94750150  1
  Li  Li7  1  0.68965850  0.14025200  0.55249850  1
  Co  Co8  1  0.00000000  0.50000000  0.50000000  1
  Co  Co9  1  0.00000000  0.50000000  0.00000000  1
  Co  Co10  1  0.50000000  0.00000000  0.50000000  1
  Co  Co11  1  0.50000000  0.00000000  0.00000000  1
  P  P12  1  0.89787875  0.13512625  0.18485650  1
  P  P13  1  0.89787875  0.86487375  0.68485650  1
  P  P14  1  0.10212125  0.86487375  0.81514350  1
  P  P15  1  0.10212125  0.13512625  0.31514350  1
  P  P16  1  0.39787875  0.63512625  0.18485650  1
  P  P17  1  0.39787875  0.36487375  0.68485650  1
  P  P18  1  0.60212125  0.36487375  0.81514350  1
  P  P19  1  0.60212125  0.63512625  0.31514350  1
  O  O20  1  0.00000000  0.97668225  0.25000000  1
  O  O21  1  0.00000000  0.02331775  0.75000000  1
  O  O22  1  0.10446700  0.27355250  0.16060650  1
  O  O23  1  0.89553300  0.27355250  0.33939350  1
  O  O24  1  0.10446700  0.72644750  0.66060650  1
  O  O25  1  0.89553300  0.72644750  0.83939350  1
  O  O26  1  0.89986750  0.65365000  0.55876000  1
  O  O27  1  0.10013250  0.34635000  0.44124000  1
  O  O28  1  0.10013250  0.65365000  0.94124000  1
  O  O29  1  0.89986750  0.34635000  0.05876000  1
  O  O30  1  0.82245050  0.92395500  0.11118550  1
  O  O31  1  0.17754950  0.07604500  0.88881450  1
  O  O32  1  0.82245050  0.07604500  0.61118550  1
  O  O33  1  0.17754950  0.92395500  0.38881450  1
  O  O34  1  0.50000000  0.47668225  0.25000000  1
  O  O35  1  0.50000000  0.52331775  0.75000000  1
  O  O36  1  0.60446700  0.77355250  0.16060650  1
  O  O37  1  0.39553300  0.77355250  0.33939350  1
  O  O38  1  0.60446700  0.22644750  0.66060650  1
  O  O39  1  0.39553300  0.22644750  0.83939350  1
  O  O40  1  0.39986750  0.15365000  0.55876000  1
  O  O41  1  0.60013250  0.84635000  0.44124000  1
  O  O42  1  0.60013250  0.15365000  0.94124000  1
  O  O43  1  0.39986750  0.84635000  0.05876000  1
  O  O44  1  0.32245050  0.42395500  0.11118550  1
  O  O45  1  0.67754950  0.57604500  0.88881450  1
  O  O46  1  0.32245050  0.57604500  0.61118550  1
  O  O47  1  0.67754950  0.42395500  0.38881450  1
