# generated using pymatgen
data_Sm2(PPt2)3
_symmetry_space_group_name_H-M   'P 1'
_cell_length_a   4.12779800
_cell_length_b   4.12779800
_cell_length_c   46.09217800
_cell_angle_alpha   90.00000000
_cell_angle_beta   90.00000000
_cell_angle_gamma   90.00000000
_symmetry_Int_Tables_number   1
_chemical_formula_structural   Sm2(PPt2)3
_chemical_formula_sum   'Sm8 P12 Pt24'
_cell_volume   785.35154592
_cell_formula_units_Z   4
loop_
 _symmetry_equiv_pos_site_id
 _symmetry_equiv_pos_as_xyz
  1  'x, y, z'
loop_
 _atom_site_type_symbol
 _atom_site_label
 _atom_site_symmetry_multiplicity
 _atom_site_fract_x
 _atom_site_fract_y
 _atom_site_fract_z
 _atom_site_occupancy
  Sm  Sm0  1  0.50000000  0.00000000  0.04940700  1
  Sm  Sm1  1  0.00000000  0.00000000  0.29940700  1
  Sm  Sm2  1  0.50000000  0.00000000  0.45059300  1
  Sm  Sm3  1  0.50000000  0.50000000  0.20059300  1
  Sm  Sm4  1  0.00000000  0.50000000  0.54940700  1
  Sm  Sm5  1  0.50000000  0.50000000  0.79940700  1
  Sm  Sm6  1  0.00000000  0.50000000  0.95059300  1
  Sm  Sm7  1  0.00000000  0.00000000  0.70059300  1
  P  P8  1  0.50000000  0.50000000  0.32512300  1
  P  P9  1  0.00000000  0.50000000  0.25000000  1
  P  P10  1  0.00000000  0.50000000  0.07512300  1
  P  P11  1  0.00000000  0.50000000  0.42487700  1
  P  P12  1  0.00000000  0.00000000  0.00000000  1
  P  P13  1  0.00000000  0.00000000  0.17487700  1
  P  P14  1  0.00000000  0.00000000  0.82512300  1
  P  P15  1  0.50000000  0.00000000  0.75000000  1
  P  P16  1  0.50000000  0.00000000  0.57512300  1
  P  P17  1  0.50000000  0.00000000  0.92487700  1
  P  P18  1  0.50000000  0.50000000  0.50000000  1
  P  P19  1  0.50000000  0.50000000  0.67487700  1
  Pt  Pt20  1  0.50000000  0.50000000  0.39772200  1
  Pt  Pt21  1  0.00000000  0.00000000  0.39970200  1
  Pt  Pt22  1  0.00000000  0.50000000  0.14772200  1
  Pt  Pt23  1  0.00000000  0.00000000  0.10227800  1
  Pt  Pt24  1  0.50000000  0.00000000  0.14970200  1
  Pt  Pt25  1  0.50000000  0.50000000  0.27419800  1
  Pt  Pt26  1  0.00000000  0.00000000  0.22580200  1
  Pt  Pt27  1  0.00000000  0.50000000  0.35227800  1
  Pt  Pt28  1  0.00000000  0.50000000  0.47580200  1
  Pt  Pt29  1  0.50000000  0.50000000  0.10029800  1
  Pt  Pt30  1  0.50000000  0.00000000  0.35029800  1
  Pt  Pt31  1  0.00000000  0.50000000  0.02419800  1
  Pt  Pt32  1  0.00000000  0.00000000  0.89772200  1
  Pt  Pt33  1  0.50000000  0.50000000  0.89970200  1
  Pt  Pt34  1  0.50000000  0.00000000  0.64772200  1
  Pt  Pt35  1  0.50000000  0.50000000  0.60227800  1
  Pt  Pt36  1  0.00000000  0.50000000  0.64970200  1
  Pt  Pt37  1  0.00000000  0.00000000  0.77419800  1
  Pt  Pt38  1  0.50000000  0.50000000  0.72580200  1
  Pt  Pt39  1  0.50000000  0.00000000  0.85227800  1
  Pt  Pt40  1  0.50000000  0.00000000  0.97580200  1
  Pt  Pt41  1  0.00000000  0.00000000  0.60029800  1
  Pt  Pt42  1  0.00000000  0.50000000  0.85029800  1
  Pt  Pt43  1  0.50000000  0.00000000  0.52419800  1
