# generated using pymatgen
data_KMn(SeO4)2
_symmetry_space_group_name_H-M   'P 1'
_cell_length_a   4.94103381
_cell_length_b   5.11666409
_cell_length_c   8.14971814
_cell_angle_alpha   83.25279528
_cell_angle_beta   85.65249901
_cell_angle_gamma   67.68083859
_symmetry_Int_Tables_number   1
_chemical_formula_structural   KMn(SeO4)2
_chemical_formula_sum   'K1 Mn1 Se2 O8'
_cell_volume   189.17302447
_cell_formula_units_Z   1
loop_
 _symmetry_equiv_pos_site_id
 _symmetry_equiv_pos_as_xyz
  1  'x, y, z'
loop_
 _atom_site_type_symbol
 _atom_site_label
 _atom_site_symmetry_multiplicity
 _atom_site_fract_x
 _atom_site_fract_y
 _atom_site_fract_z
 _atom_site_occupancy
  K  K0  1  0.00000000  0.00000000  0.50000000  1
  Mn  Mn1  1  0.00000000  0.00000000  0.00000000  1
  Se  Se2  1  0.61795300  0.62984900  0.20330900  1
  Se  Se3  1  0.38204700  0.37015100  0.79669100  1
  O  O4  1  0.24523200  0.77766600  0.18649300  1
  O  O5  1  0.75476800  0.22233400  0.81350700  1
  O  O6  1  0.23706100  0.23373300  0.96404600  1
  O  O7  1  0.76293900  0.76626700  0.03595400  1
  O  O8  1  0.68602600  0.69382800  0.38519900  1
  O  O9  1  0.31397400  0.30617200  0.61480100  1
  O  O10  1  0.72400700  0.28282900  0.18848900  1
  O  O11  1  0.27599300  0.71717100  0.81151100  1
