# generated using pymatgen
data_Ba3Fe2Br2O5
_symmetry_space_group_name_H-M   'P 1'
_cell_length_a   10.22874648
_cell_length_b   10.22874648
_cell_length_c   10.22874648
_cell_angle_alpha   90.00000000
_cell_angle_beta   90.00000000
_cell_angle_gamma   90.00000000
_symmetry_Int_Tables_number   1
_chemical_formula_structural   Ba3Fe2Br2O5
_chemical_formula_sum   'Ba12 Fe8 Br8 O20'
_cell_volume   1070.20566304
_cell_formula_units_Z   4
loop_
 _symmetry_equiv_pos_site_id
 _symmetry_equiv_pos_as_xyz
  1  'x, y, z'
loop_
 _atom_site_type_symbol
 _atom_site_label
 _atom_site_symmetry_multiplicity
 _atom_site_fract_x
 _atom_site_fract_y
 _atom_site_fract_z
 _atom_site_occupancy
  Ba  Ba0  1  0.50000000  0.75000000  0.34793650  1
  Ba  Ba1  1  0.25000000  0.15206350  0.50000000  1
  Ba  Ba2  1  0.00000000  0.75000000  0.65206350  1
  Ba  Ba3  1  0.15206350  0.50000000  0.25000000  1
  Ba  Ba4  1  0.34793650  0.50000000  0.75000000  1
  Ba  Ba5  1  0.75000000  0.34793650  0.50000000  1
  Ba  Ba6  1  0.00000000  0.25000000  0.84793650  1
  Ba  Ba7  1  0.75000000  0.65206350  0.00000000  1
  Ba  Ba8  1  0.50000000  0.25000000  0.15206350  1
  Ba  Ba9  1  0.65206350  0.00000000  0.75000000  1
  Ba  Ba10  1  0.84793650  0.00000000  0.25000000  1
  Ba  Ba11  1  0.25000000  0.84793650  0.00000000  1
  Fe  Fe12  1  0.65520983  0.65520983  0.65520983  1
  Fe  Fe13  1  0.65520983  0.34479017  0.84479017  1
  Fe  Fe14  1  0.84479017  0.65520983  0.34479017  1
  Fe  Fe15  1  0.34479017  0.84479017  0.65520983  1
  Fe  Fe16  1  0.15520983  0.15520983  0.15520983  1
  Fe  Fe17  1  0.15520983  0.84479017  0.34479017  1
  Fe  Fe18  1  0.34479017  0.15520983  0.84479017  1
  Fe  Fe19  1  0.84479017  0.34479017  0.15520983  1
  Br  Br20  1  0.55919217  0.94080783  0.05919217  1
  Br  Br21  1  0.55919217  0.05919217  0.44080783  1
  Br  Br22  1  0.44080783  0.55919217  0.05919217  1
  Br  Br23  1  0.44080783  0.44080783  0.44080783  1
  Br  Br24  1  0.05919217  0.44080783  0.55919217  1
  Br  Br25  1  0.05919217  0.55919217  0.94080783  1
  Br  Br26  1  0.94080783  0.05919217  0.55919217  1
  Br  Br27  1  0.94080783  0.94080783  0.94080783  1
  O  O28  1  0.73962300  0.23962300  0.26037700  1
  O  O29  1  0.73962300  0.76037700  0.23962300  1
  O  O30  1  0.26037700  0.73962300  0.23962300  1
  O  O31  1  0.26037700  0.26037700  0.26037700  1
  O  O32  1  0.50000000  0.25000000  0.89048850  1
  O  O33  1  0.75000000  0.60951150  0.50000000  1
  O  O34  1  0.39048850  0.00000000  0.75000000  1
  O  O35  1  0.75000000  0.39048850  0.00000000  1
  O  O36  1  0.50000000  0.75000000  0.60951150  1
  O  O37  1  0.60951150  0.50000000  0.75000000  1
  O  O38  1  0.23962300  0.73962300  0.76037700  1
  O  O39  1  0.23962300  0.26037700  0.73962300  1
  O  O40  1  0.76037700  0.23962300  0.73962300  1
  O  O41  1  0.76037700  0.76037700  0.76037700  1
  O  O42  1  0.00000000  0.75000000  0.39048850  1
  O  O43  1  0.25000000  0.10951150  0.00000000  1
  O  O44  1  0.89048850  0.50000000  0.25000000  1
  O  O45  1  0.25000000  0.89048850  0.50000000  1
  O  O46  1  0.00000000  0.25000000  0.10951150  1
  O  O47  1  0.10951150  0.00000000  0.25000000  1
