# generated using pymatgen
data_Cu6PbO8
_symmetry_space_group_name_H-M   'P 1'
_cell_length_a   9.34177200
_cell_length_b   9.34177200
_cell_length_c   9.34177200
_cell_angle_alpha   90.00000000
_cell_angle_beta   90.00000000
_cell_angle_gamma   90.00000000
_symmetry_Int_Tables_number   1
_chemical_formula_structural   Cu6PbO8
_chemical_formula_sum   'Cu24 Pb4 O32'
_cell_volume   815.24433644
_cell_formula_units_Z   4
loop_
 _symmetry_equiv_pos_site_id
 _symmetry_equiv_pos_as_xyz
  1  'x, y, z'
loop_
 _atom_site_type_symbol
 _atom_site_label
 _atom_site_symmetry_multiplicity
 _atom_site_fract_x
 _atom_site_fract_y
 _atom_site_fract_z
 _atom_site_occupancy
  Cu  Cu0  1  0.25000000  0.00000000  0.75000000  1
  Cu  Cu1  1  0.00000000  0.75000000  0.75000000  1
  Cu  Cu2  1  0.25000000  0.25000000  0.00000000  1
  Cu  Cu3  1  0.75000000  0.00000000  0.75000000  1
  Cu  Cu4  1  0.00000000  0.25000000  0.75000000  1
  Cu  Cu5  1  0.25000000  0.75000000  0.00000000  1
  Cu  Cu6  1  0.25000000  0.50000000  0.25000000  1
  Cu  Cu7  1  0.00000000  0.25000000  0.25000000  1
  Cu  Cu8  1  0.25000000  0.75000000  0.50000000  1
  Cu  Cu9  1  0.75000000  0.50000000  0.25000000  1
  Cu  Cu10  1  0.00000000  0.75000000  0.25000000  1
  Cu  Cu11  1  0.25000000  0.25000000  0.50000000  1
  Cu  Cu12  1  0.75000000  0.00000000  0.25000000  1
  Cu  Cu13  1  0.50000000  0.75000000  0.25000000  1
  Cu  Cu14  1  0.75000000  0.25000000  0.50000000  1
  Cu  Cu15  1  0.25000000  0.00000000  0.25000000  1
  Cu  Cu16  1  0.50000000  0.25000000  0.25000000  1
  Cu  Cu17  1  0.75000000  0.75000000  0.50000000  1
  Cu  Cu18  1  0.75000000  0.50000000  0.75000000  1
  Cu  Cu19  1  0.50000000  0.25000000  0.75000000  1
  Cu  Cu20  1  0.75000000  0.75000000  0.00000000  1
  Cu  Cu21  1  0.25000000  0.50000000  0.75000000  1
  Cu  Cu22  1  0.50000000  0.75000000  0.75000000  1
  Cu  Cu23  1  0.75000000  0.25000000  0.00000000  1
  Pb  Pb24  1  0.00000000  0.00000000  0.00000000  1
  Pb  Pb25  1  0.00000000  0.50000000  0.50000000  1
  Pb  Pb26  1  0.50000000  0.00000000  0.50000000  1
  Pb  Pb27  1  0.50000000  0.50000000  0.00000000  1
  O  O28  1  0.14423900  0.35576100  0.64423900  1
  O  O29  1  0.14423900  0.64423900  0.64423900  1
  O  O30  1  0.35576100  0.35576100  0.85576100  1
  O  O31  1  0.14423900  0.85576100  0.85576100  1
  O  O32  1  0.14423900  0.14423900  0.85576100  1
  O  O33  1  0.35576100  0.14423900  0.64423900  1
  O  O34  1  0.35576100  0.85576100  0.64423900  1
  O  O35  1  0.35576100  0.64423900  0.85576100  1
  O  O36  1  0.14423900  0.85576100  0.14423900  1
  O  O37  1  0.14423900  0.14423900  0.14423900  1
  O  O38  1  0.35576100  0.85576100  0.35576100  1
  O  O39  1  0.14423900  0.35576100  0.35576100  1
  O  O40  1  0.14423900  0.64423900  0.35576100  1
  O  O41  1  0.35576100  0.64423900  0.14423900  1
  O  O42  1  0.35576100  0.35576100  0.14423900  1
  O  O43  1  0.35576100  0.14423900  0.35576100  1
  O  O44  1  0.64423900  0.35576100  0.14423900  1
  O  O45  1  0.64423900  0.64423900  0.14423900  1
  O  O46  1  0.85576100  0.35576100  0.35576100  1
  O  O47  1  0.64423900  0.85576100  0.35576100  1
  O  O48  1  0.64423900  0.14423900  0.35576100  1
  O  O49  1  0.85576100  0.14423900  0.14423900  1
  O  O50  1  0.85576100  0.85576100  0.14423900  1
  O  O51  1  0.85576100  0.64423900  0.35576100  1
  O  O52  1  0.64423900  0.85576100  0.64423900  1
  O  O53  1  0.64423900  0.14423900  0.64423900  1
  O  O54  1  0.85576100  0.85576100  0.85576100  1
  O  O55  1  0.64423900  0.35576100  0.85576100  1
  O  O56  1  0.64423900  0.64423900  0.85576100  1
  O  O57  1  0.85576100  0.64423900  0.64423900  1
  O  O58  1  0.85576100  0.35576100  0.64423900  1
  O  O59  1  0.85576100  0.14423900  0.85576100  1
