# generated using pymatgen
data_NaCu4(AsO4)3
_symmetry_space_group_name_H-M   'P 1'
_cell_length_a   12.19959600
_cell_length_b   12.53321000
_cell_length_c   7.53493730
_cell_angle_alpha   90.00000000
_cell_angle_beta   118.50473011
_cell_angle_gamma   90.00000000
_symmetry_Int_Tables_number   1
_chemical_formula_structural   NaCu4(AsO4)3
_chemical_formula_sum   'Na4 Cu16 As12 O48'
_cell_volume   1012.43335427
_cell_formula_units_Z   4
loop_
 _symmetry_equiv_pos_site_id
 _symmetry_equiv_pos_as_xyz
  1  'x, y, z'
loop_
 _atom_site_type_symbol
 _atom_site_label
 _atom_site_symmetry_multiplicity
 _atom_site_fract_x
 _atom_site_fract_y
 _atom_site_fract_z
 _atom_site_occupancy
  Na  Na0  1  0.50000000  0.99395400  0.25000000  1
  Na  Na1  1  0.50000000  0.00604600  0.75000000  1
  Na  Na2  1  0.00000000  0.49395400  0.25000000  1
  Na  Na3  1  0.00000000  0.50604600  0.75000000  1
  Cu  Cu4  1  0.50000000  0.50670400  0.25000000  1
  Cu  Cu5  1  0.50000000  0.49329600  0.75000000  1
  Cu  Cu6  1  0.27891750  0.84393450  0.85848200  1
  Cu  Cu7  1  0.72108250  0.84393450  0.64151800  1
  Cu  Cu8  1  0.72108250  0.15606550  0.14151800  1
  Cu  Cu9  1  0.27891750  0.15606550  0.35848200  1
  Cu  Cu10  1  0.50000000  0.26447300  0.25000000  1
  Cu  Cu11  1  0.50000000  0.73552700  0.75000000  1
  Cu  Cu12  1  0.00000000  0.00670400  0.25000000  1
  Cu  Cu13  1  0.00000000  0.99329600  0.75000000  1
  Cu  Cu14  1  0.77891750  0.34393450  0.85848200  1
  Cu  Cu15  1  0.22108250  0.34393450  0.64151800  1
  Cu  Cu16  1  0.22108250  0.65606550  0.14151800  1
  Cu  Cu17  1  0.77891750  0.65606550  0.35848200  1
  Cu  Cu18  1  0.00000000  0.76447300  0.25000000  1
  Cu  Cu19  1  0.00000000  0.23552700  0.75000000  1
  As  As20  1  0.72656700  0.88119500  0.11877500  1
  As  As21  1  0.27343300  0.88119500  0.38122500  1
  As  As22  1  0.27343300  0.11880500  0.88122500  1
  As  As23  1  0.72656700  0.11880500  0.61877500  1
  As  As24  1  0.50000000  0.72710100  0.25000000  1
  As  As25  1  0.50000000  0.27289900  0.75000000  1
  As  As26  1  0.22656700  0.38119500  0.11877500  1
  As  As27  1  0.77343300  0.38119500  0.38122500  1
  As  As28  1  0.77343300  0.61880500  0.88122500  1
  As  As29  1  0.22656700  0.61880500  0.61877500  1
  As  As30  1  0.00000000  0.22710100  0.25000000  1
  As  As31  1  0.00000000  0.77289900  0.75000000  1
  O  O32  1  0.66432850  0.00479350  0.11483100  1
  O  O33  1  0.33567150  0.00479350  0.38516900  1
  O  O34  1  0.33567150  0.99520650  0.88516900  1
  O  O35  1  0.66432850  0.99520650  0.61483100  1
  O  O36  1  0.39634200  0.62285900  0.23960200  1
  O  O37  1  0.60365800  0.62285900  0.26039800  1
  O  O38  1  0.60365800  0.37714100  0.76039800  1
  O  O39  1  0.39634200  0.37714100  0.73960200  1
  O  O40  1  0.88425500  0.88899300  0.17606400  1
  O  O41  1  0.11574500  0.88899300  0.32393600  1
  O  O42  1  0.11574500  0.11100700  0.82393600  1
  O  O43  1  0.88425500  0.11100700  0.67606400  1
  O  O44  1  0.72039550  0.80524950  0.30538400  1
  O  O45  1  0.27960450  0.80524950  0.19461600  1
  O  O46  1  0.27960450  0.19475050  0.69461600  1
  O  O47  1  0.72039550  0.19475050  0.80538400  1
  O  O48  1  0.64348750  0.83366150  0.87407100  1
  O  O49  1  0.35651250  0.83366150  0.62592900  1
  O  O50  1  0.35651250  0.16633850  0.12592900  1
  O  O51  1  0.64348750  0.16633850  0.37407100  1
  O  O52  1  0.45597000  0.80211000  0.03705100  1
  O  O53  1  0.54403000  0.80211000  0.46294900  1
  O  O54  1  0.54403000  0.19789000  0.96294900  1
  O  O55  1  0.45597000  0.19789000  0.53705100  1
  O  O56  1  0.16432850  0.50479350  0.11483100  1
  O  O57  1  0.83567150  0.50479350  0.38516900  1
  O  O58  1  0.83567150  0.49520650  0.88516900  1
  O  O59  1  0.16432850  0.49520650  0.61483100  1
  O  O60  1  0.89634200  0.12285900  0.23960200  1
  O  O61  1  0.10365800  0.12285900  0.26039800  1
  O  O62  1  0.10365800  0.87714100  0.76039800  1
  O  O63  1  0.89634200  0.87714100  0.73960200  1
  O  O64  1  0.38425500  0.38899300  0.17606400  1
  O  O65  1  0.61574500  0.38899300  0.32393600  1
  O  O66  1  0.61574500  0.61100700  0.82393600  1
  O  O67  1  0.38425500  0.61100700  0.67606400  1
  O  O68  1  0.22039550  0.30524950  0.30538400  1
  O  O69  1  0.77960450  0.30524950  0.19461600  1
  O  O70  1  0.77960450  0.69475050  0.69461600  1
  O  O71  1  0.22039550  0.69475050  0.80538400  1
  O  O72  1  0.14348750  0.33366150  0.87407100  1
  O  O73  1  0.85651250  0.33366150  0.62592900  1
  O  O74  1  0.85651250  0.66633850  0.12592900  1
  O  O75  1  0.14348750  0.66633850  0.37407100  1
  O  O76  1  0.95597000  0.30211000  0.03705100  1
  O  O77  1  0.04403000  0.30211000  0.46294900  1
  O  O78  1  0.04403000  0.69789000  0.96294900  1
  O  O79  1  0.95597000  0.69789000  0.53705100  1
