# generated using pymatgen
data_Rb8Tl11
_symmetry_space_group_name_H-M   'P 1'
_cell_length_a   10.59497390
_cell_length_b   10.59497390
_cell_length_c   53.74911451
_cell_angle_alpha   90.00000000
_cell_angle_beta   90.00000000
_cell_angle_gamma   120.00000000
_symmetry_Int_Tables_number   1
_chemical_formula_structural   Rb8Tl11
_chemical_formula_sum   'Rb48 Tl66'
_cell_volume   5225.18567875
_cell_formula_units_Z   6
loop_
 _symmetry_equiv_pos_site_id
 _symmetry_equiv_pos_as_xyz
  1  'x, y, z'
loop_
 _atom_site_type_symbol
 _atom_site_label
 _atom_site_symmetry_multiplicity
 _atom_site_fract_x
 _atom_site_fract_y
 _atom_site_fract_z
 _atom_site_occupancy
  Rb  Rb0  1  0.30274333  0.93285467  0.02193967  1
  Rb  Rb1  1  0.63011133  0.69725667  0.02193967  1
  Rb  Rb2  1  0.06714533  0.36988867  0.02193967  1
  Rb  Rb3  1  0.70322200  0.73381200  0.14472700  1
  Rb  Rb4  1  0.03059000  0.29677800  0.14472700  1
  Rb  Rb5  1  0.26618800  0.96941000  0.14472700  1
  Rb  Rb6  1  0.36392333  0.40047867  0.31139367  1
  Rb  Rb7  1  0.03655533  0.63607667  0.31139367  1
  Rb  Rb8  1  0.59952133  0.96344467  0.31139367  1
  Rb  Rb9  1  0.96344467  0.59952133  0.18860633  1
  Rb  Rb10  1  0.63607667  0.03655533  0.18860633  1
  Rb  Rb11  1  0.40047867  0.36392333  0.18860633  1
  Rb  Rb12  1  0.00000000  0.00000000  0.07883700  1
  Rb  Rb13  1  0.33333333  0.66666667  0.08782967  1
  Rb  Rb14  1  0.66666667  0.33333333  0.25449633  1
  Rb  Rb15  1  0.33333333  0.66666667  0.24550367  1
  Rb  Rb16  1  0.96941000  0.26618800  0.35527300  1
  Rb  Rb17  1  0.29677800  0.03059000  0.35527300  1
  Rb  Rb18  1  0.73381200  0.70322200  0.35527300  1
  Rb  Rb19  1  0.36988867  0.06714533  0.47806033  1
  Rb  Rb20  1  0.69725667  0.63011133  0.47806033  1
  Rb  Rb21  1  0.93285467  0.30274333  0.47806033  1
  Rb  Rb22  1  0.03059000  0.73381200  0.64472700  1
  Rb  Rb23  1  0.70322200  0.96941000  0.64472700  1
  Rb  Rb24  1  0.26618800  0.29677800  0.64472700  1
  Rb  Rb25  1  0.63011133  0.93285467  0.52193967  1
  Rb  Rb26  1  0.30274333  0.36988867  0.52193967  1
  Rb  Rb27  1  0.06714533  0.69725667  0.52193967  1
  Rb  Rb28  1  0.66666667  0.33333333  0.41217033  1
  Rb  Rb29  1  0.00000000  0.00000000  0.42116300  1
  Rb  Rb30  1  0.33333333  0.66666667  0.58782967  1
  Rb  Rb31  1  0.00000000  0.00000000  0.57883700  1
  Rb  Rb32  1  0.63607667  0.59952133  0.68860633  1
  Rb  Rb33  1  0.96344467  0.36392333  0.68860633  1
  Rb  Rb34  1  0.40047867  0.03655533  0.68860633  1
  Rb  Rb35  1  0.03655533  0.40047867  0.81139367  1
  Rb  Rb36  1  0.36392333  0.96344467  0.81139367  1
  Rb  Rb37  1  0.59952133  0.63607667  0.81139367  1
  Rb  Rb38  1  0.69725667  0.06714533  0.97806033  1
  Rb  Rb39  1  0.36988867  0.30274333  0.97806033  1
  Rb  Rb40  1  0.93285467  0.63011133  0.97806033  1
  Rb  Rb41  1  0.29677800  0.26618800  0.85527300  1
  Rb  Rb42  1  0.96941000  0.70322200  0.85527300  1
  Rb  Rb43  1  0.73381200  0.03059000  0.85527300  1
  Rb  Rb44  1  0.33333333  0.66666667  0.74550367  1
  Rb  Rb45  1  0.66666667  0.33333333  0.75449633  1
  Rb  Rb46  1  0.00000000  0.00000000  0.92116300  1
  Rb  Rb47  1  0.66666667  0.33333333  0.91217033  1
  Tl  Tl48  1  0.67520167  0.04863633  0.05270333  1
  Tl  Tl49  1  0.37343467  0.32479833  0.05270333  1
  Tl  Tl50  1  0.95136367  0.62656533  0.05270333  1
  Tl  Tl51  1  0.95989867  0.61803033  0.11396333  1
  Tl  Tl52  1  0.65813167  0.04010133  0.11396333  1
  Tl  Tl53  1  0.38196967  0.34186833  0.11396333  1
  Tl  Tl54  1  0.99146500  0.28469700  0.28063000  1
  Tl  Tl55  1  0.29323200  0.00853500  0.28063000  1
  Tl  Tl56  1  0.71530300  0.70676800  0.28063000  1
  Tl  Tl57  1  0.70676800  0.71530300  0.21937000  1
  Tl  Tl58  1  0.00853500  0.29323200  0.21937000  1
  Tl  Tl59  1  0.28469700  0.99146500  0.21937000  1
  Tl  Tl60  1  0.78829500  0.00000000  0.25000000  1
  Tl  Tl61  1  0.21170500  0.21170500  0.25000000  1
  Tl  Tl62  1  0.00000000  0.78829500  0.25000000  1
  Tl  Tl63  1  0.87837167  0.33333333  0.08333333  1
  Tl  Tl64  1  0.45496167  0.12162833  0.08333333  1
  Tl  Tl65  1  0.66666667  0.54503833  0.08333333  1
  Tl  Tl66  1  0.00000000  0.00000000  0.19927100  1
  Tl  Tl67  1  0.00000000  0.00000000  0.30072900  1
  Tl  Tl68  1  0.66666667  0.33333333  0.13406233  1
  Tl  Tl69  1  0.66666667  0.33333333  0.03260433  1
  Tl  Tl70  1  0.34186833  0.38196967  0.38603667  1
  Tl  Tl71  1  0.04010133  0.65813167  0.38603667  1
  Tl  Tl72  1  0.61803033  0.95989867  0.38603667  1
  Tl  Tl73  1  0.62656533  0.95136367  0.44729667  1
  Tl  Tl74  1  0.32479833  0.37343467  0.44729667  1
  Tl  Tl75  1  0.04863633  0.67520167  0.44729667  1
  Tl  Tl76  1  0.65813167  0.61803033  0.61396333  1
  Tl  Tl77  1  0.95989867  0.34186833  0.61396333  1
  Tl  Tl78  1  0.38196967  0.04010133  0.61396333  1
  Tl  Tl79  1  0.37343467  0.04863633  0.55270333  1
  Tl  Tl80  1  0.67520167  0.62656533  0.55270333  1
  Tl  Tl81  1  0.95136367  0.32479833  0.55270333  1
  Tl  Tl82  1  0.45496167  0.33333333  0.58333333  1
  Tl  Tl83  1  0.87837167  0.54503833  0.58333333  1
  Tl  Tl84  1  0.66666667  0.12162833  0.58333333  1
  Tl  Tl85  1  0.54503833  0.66666667  0.41666667  1
  Tl  Tl86  1  0.12162833  0.45496167  0.41666667  1
  Tl  Tl87  1  0.33333333  0.87837167  0.41666667  1
  Tl  Tl88  1  0.66666667  0.33333333  0.53260433  1
  Tl  Tl89  1  0.66666667  0.33333333  0.63406233  1
  Tl  Tl90  1  0.33333333  0.66666667  0.46739567  1
  Tl  Tl91  1  0.33333333  0.66666667  0.36593767  1
  Tl  Tl92  1  0.00853500  0.71530300  0.71937000  1
  Tl  Tl93  1  0.70676800  0.99146500  0.71937000  1
  Tl  Tl94  1  0.28469700  0.29323200  0.71937000  1
  Tl  Tl95  1  0.29323200  0.28469700  0.78063000  1
  Tl  Tl96  1  0.99146500  0.70676800  0.78063000  1
  Tl  Tl97  1  0.71530300  0.00853500  0.78063000  1
  Tl  Tl98  1  0.32479833  0.95136367  0.94729667  1
  Tl  Tl99  1  0.62656533  0.67520167  0.94729667  1
  Tl  Tl100  1  0.04863633  0.37343467  0.94729667  1
  Tl  Tl101  1  0.04010133  0.38196967  0.88603667  1
  Tl  Tl102  1  0.34186833  0.95989867  0.88603667  1
  Tl  Tl103  1  0.61803033  0.65813167  0.88603667  1
  Tl  Tl104  1  0.12162833  0.66666667  0.91666667  1
  Tl  Tl105  1  0.54503833  0.87837167  0.91666667  1
  Tl  Tl106  1  0.33333333  0.45496167  0.91666667  1
  Tl  Tl107  1  0.21170500  0.00000000  0.75000000  1
  Tl  Tl108  1  0.78829500  0.78829500  0.75000000  1
  Tl  Tl109  1  0.00000000  0.21170500  0.75000000  1
  Tl  Tl110  1  0.33333333  0.66666667  0.86593767  1
  Tl  Tl111  1  0.33333333  0.66666667  0.96739567  1
  Tl  Tl112  1  0.00000000  0.00000000  0.80072900  1
  Tl  Tl113  1  0.00000000  0.00000000  0.69927100  1
