# generated using pymatgen
data_Li2NiP2O7
_symmetry_space_group_name_H-M   'P 1'
_cell_length_a   15.47579031
_cell_length_b   5.01152913
_cell_length_c   8.80203843
_cell_angle_alpha   90.00000000
_cell_angle_beta   114.92367317
_cell_angle_gamma   90.00000000
_symmetry_Int_Tables_number   1
_chemical_formula_structural   Li2NiP2O7
_chemical_formula_sum   'Li8 Ni4 P8 O28'
_cell_volume   619.08656572
_cell_formula_units_Z   4
loop_
 _symmetry_equiv_pos_site_id
 _symmetry_equiv_pos_as_xyz
  1  'x, y, z'
loop_
 _atom_site_type_symbol
 _atom_site_label
 _atom_site_symmetry_multiplicity
 _atom_site_fract_x
 _atom_site_fract_y
 _atom_site_fract_z
 _atom_site_occupancy
  Li  Li0  1  0.81047875  0.85652975  0.44694625  1
  Li  Li1  1  0.18952125  0.85652975  0.05305375  1
  Li  Li2  1  0.18952125  0.14347025  0.55305375  1
  Li  Li3  1  0.81047875  0.14347025  0.94694625  1
  Li  Li4  1  0.31047875  0.35652975  0.44694625  1
  Li  Li5  1  0.68952125  0.35652975  0.05305375  1
  Li  Li6  1  0.68952125  0.64347025  0.55305375  1
  Li  Li7  1  0.31047875  0.64347025  0.94694625  1
  Ni  Ni8  1  0.00000000  0.00000000  0.50000000  1
  Ni  Ni9  1  0.00000000  0.00000000  0.00000000  1
  Ni  Ni10  1  0.50000000  0.50000000  0.50000000  1
  Ni  Ni11  1  0.50000000  0.50000000  0.00000000  1
  P  P12  1  0.10245775  0.63837875  0.31686375  1
  P  P13  1  0.10245775  0.36162125  0.81686375  1
  P  P14  1  0.89754225  0.63837875  0.18313625  1
  P  P15  1  0.89754225  0.36162125  0.68313625  1
  P  P16  1  0.60245775  0.13837875  0.31686375  1
  P  P17  1  0.60245775  0.86162125  0.81686375  1
  P  P18  1  0.39754225  0.13837875  0.18313625  1
  P  P19  1  0.39754225  0.86162125  0.68313625  1
  O  O20  1  0.00000000  0.52103375  0.75000000  1
  O  O21  1  0.00000000  0.47896625  0.25000000  1
  O  O22  1  0.09974875  0.15320375  0.94423625  1
  O  O23  1  0.90025125  0.15320375  0.55576375  1
  O  O24  1  0.90025125  0.84679625  0.05576375  1
  O  O25  1  0.09974875  0.84679625  0.44423625  1
  O  O26  1  0.82144075  0.42928175  0.10765025  1
  O  O27  1  0.17855925  0.57071825  0.89234975  1
  O  O28  1  0.17855925  0.42928175  0.39234975  1
  O  O29  1  0.82144075  0.57071825  0.60765025  1
  O  O30  1  0.89485375  0.77631125  0.33734825  1
  O  O31  1  0.10514625  0.22368875  0.66265175  1
  O  O32  1  0.89485375  0.22368875  0.83734825  1
  O  O33  1  0.10514625  0.77631125  0.16265175  1
  O  O34  1  0.50000000  0.02103375  0.75000000  1
  O  O35  1  0.50000000  0.97896625  0.25000000  1
  O  O36  1  0.59974875  0.65320375  0.94423625  1
  O  O37  1  0.40025125  0.65320375  0.55576375  1
  O  O38  1  0.40025125  0.34679625  0.05576375  1
  O  O39  1  0.59974875  0.34679625  0.44423625  1
  O  O40  1  0.32144075  0.92928175  0.10765025  1
  O  O41  1  0.67855925  0.07071825  0.89234975  1
  O  O42  1  0.67855925  0.92928175  0.39234975  1
  O  O43  1  0.32144075  0.07071825  0.60765025  1
  O  O44  1  0.39485375  0.27631125  0.33734825  1
  O  O45  1  0.60514625  0.72368875  0.66265175  1
  O  O46  1  0.39485375  0.72368875  0.83734825  1
  O  O47  1  0.60514625  0.27631125  0.16265175  1
