# generated using pymatgen
data_AlFePO5
_symmetry_space_group_name_H-M   'P 1'
_cell_length_a   5.55967420
_cell_length_b   10.64722700
_cell_length_c   7.22775425
_cell_angle_alpha   90.00000000
_cell_angle_beta   98.15945686
_cell_angle_gamma   90.00000000
_symmetry_Int_Tables_number   1
_chemical_formula_structural   AlFePO5
_chemical_formula_sum   'Al4 Fe4 P4 O20'
_cell_volume   423.51658978
_cell_formula_units_Z   4
loop_
 _symmetry_equiv_pos_site_id
 _symmetry_equiv_pos_as_xyz
  1  'x, y, z'
loop_
 _atom_site_type_symbol
 _atom_site_label
 _atom_site_symmetry_multiplicity
 _atom_site_fract_x
 _atom_site_fract_y
 _atom_site_fract_z
 _atom_site_occupancy
  Al  Al0  1  0.44449600  0.82601700  0.14222250  1
  Al  Al1  1  0.05550400  0.32601700  0.85777750  1
  Al  Al2  1  0.55550400  0.17398300  0.85777750  1
  Al  Al3  1  0.94449600  0.67398300  0.14222250  1
  Fe  Fe4  1  0.39047600  0.64449400  0.48292050  1
  Fe  Fe5  1  0.10952400  0.14449400  0.51707950  1
  Fe  Fe6  1  0.60952400  0.35550600  0.51707950  1
  Fe  Fe7  1  0.89047600  0.85550600  0.48292050  1
  P  P8  1  0.93044500  0.59679000  0.72295950  1
  P  P9  1  0.56955500  0.09679000  0.27704050  1
  P  P10  1  0.06955500  0.40321000  0.27704050  1
  P  P11  1  0.43044500  0.90321000  0.72295950  1
  O  O12  1  0.24096600  0.72352900  0.23074950  1
  O  O13  1  0.25903400  0.22352900  0.76925050  1
  O  O14  1  0.75903400  0.27647100  0.76925050  1
  O  O15  1  0.74096600  0.77647100  0.23074950  1
  O  O16  1  0.88831500  0.67385700  0.89627950  1
  O  O17  1  0.61168500  0.17385700  0.10372050  1
  O  O18  1  0.11168500  0.32614300  0.10372050  1
  O  O19  1  0.38831500  0.82614300  0.89627950  1
  O  O20  1  0.40367400  0.98264800  0.21675350  1
  O  O21  1  0.09632600  0.48264800  0.78324650  1
  O  O22  1  0.59632600  0.01735200  0.78324650  1
  O  O23  1  0.90367400  0.51735200  0.21675350  1
  O  O24  1  0.05708200  0.68059500  0.59036650  1
  O  O25  1  0.44291800  0.18059500  0.40963350  1
  O  O26  1  0.94291800  0.31940500  0.40963350  1
  O  O27  1  0.55708200  0.81940500  0.59036650  1
  O  O28  1  0.31767000  0.45192200  0.37875050  1
  O  O29  1  0.18233000  0.95192200  0.62124950  1
  O  O30  1  0.68233000  0.54807800  0.62124950  1
  O  O31  1  0.81767000  0.04807800  0.37875050  1
