# generated using pymatgen
data_BaIrO3
_symmetry_space_group_name_H-M   'P 1'
_cell_length_a   10.20132800
_cell_length_b   5.82307200
_cell_length_c   15.21714991
_cell_angle_alpha   90.00000000
_cell_angle_beta   103.04583845
_cell_angle_gamma   90.00000000
_symmetry_Int_Tables_number   1
_chemical_formula_structural   BaIrO3
_chemical_formula_sum   'Ba12 Ir12 O36'
_cell_volume   880.61435773
_cell_formula_units_Z   12
loop_
 _symmetry_equiv_pos_site_id
 _symmetry_equiv_pos_as_xyz
  1  'x, y, z'
loop_
 _atom_site_type_symbol
 _atom_site_label
 _atom_site_symmetry_multiplicity
 _atom_site_fract_x
 _atom_site_fract_y
 _atom_site_fract_z
 _atom_site_occupancy
  Ba  Ba0  1  0.22001200  0.00000000  0.74951400  1
  Ba  Ba1  1  0.77998800  0.00000000  0.25048600  1
  Ba  Ba2  1  0.12877700  0.50000000  0.92564900  1
  Ba  Ba3  1  0.87122300  0.50000000  0.07435100  1
  Ba  Ba4  1  0.84945500  0.00000000  0.57764800  1
  Ba  Ba5  1  0.15054500  0.00000000  0.42235200  1
  Ba  Ba6  1  0.72001200  0.50000000  0.74951400  1
  Ba  Ba7  1  0.27998800  0.50000000  0.25048600  1
  Ba  Ba8  1  0.62877700  0.00000000  0.92564900  1
  Ba  Ba9  1  0.37122300  0.00000000  0.07435100  1
  Ba  Ba10  1  0.34945500  0.50000000  0.57764800  1
  Ba  Ba11  1  0.65054500  0.50000000  0.42235200  1
  Ir  Ir12  1  0.91285100  0.00000000  0.82370200  1
  Ir  Ir13  1  0.08714900  0.00000000  0.17629800  1
  Ir  Ir14  1  0.00000000  0.00000000  0.00000000  1
  Ir  Ir15  1  0.02965400  0.50000000  0.67507600  1
  Ir  Ir16  1  0.97034600  0.50000000  0.32492400  1
  Ir  Ir17  1  0.00000000  0.50000000  0.50000000  1
  Ir  Ir18  1  0.41285100  0.50000000  0.82370200  1
  Ir  Ir19  1  0.58714900  0.50000000  0.17629800  1
  Ir  Ir20  1  0.50000000  0.50000000  0.00000000  1
  Ir  Ir21  1  0.52965400  0.00000000  0.67507600  1
  Ir  Ir22  1  0.47034600  0.00000000  0.32492400  1
  Ir  Ir23  1  0.50000000  0.00000000  0.50000000  1
  O  O24  1  0.20445500  0.50000000  0.77200300  1
  O  O25  1  0.79554500  0.50000000  0.22799700  1
  O  O26  1  0.93899550  0.25006250  0.73636900  1
  O  O27  1  0.06100450  0.25006250  0.26363100  1
  O  O28  1  0.06100450  0.74993750  0.26363100  1
  O  O29  1  0.93899550  0.74993750  0.73636900  1
  O  O30  1  0.10417400  0.00000000  0.89924400  1
  O  O31  1  0.89582600  0.00000000  0.10075600  1
  O  O32  1  0.38230400  0.73601400  0.91746500  1
  O  O33  1  0.61769600  0.73601400  0.08253500  1
  O  O34  1  0.61769600  0.26398600  0.08253500  1
  O  O35  1  0.38230400  0.26398600  0.91746500  1
  O  O36  1  0.09679450  0.73088050  0.59493600  1
  O  O37  1  0.90320550  0.73088050  0.40506400  1
  O  O38  1  0.90320550  0.26911950  0.40506400  1
  O  O39  1  0.09679450  0.26911950  0.59493600  1
  O  O40  1  0.85563700  0.50000000  0.57430000  1
  O  O41  1  0.14436300  0.50000000  0.42570000  1
  O  O42  1  0.70445500  0.00000000  0.77200300  1
  O  O43  1  0.29554500  0.00000000  0.22799700  1
  O  O44  1  0.43899550  0.75006250  0.73636900  1
  O  O45  1  0.56100450  0.75006250  0.26363100  1
  O  O46  1  0.56100450  0.24993750  0.26363100  1
  O  O47  1  0.43899550  0.24993750  0.73636900  1
  O  O48  1  0.60417400  0.50000000  0.89924400  1
  O  O49  1  0.39582600  0.50000000  0.10075600  1
  O  O50  1  0.88230400  0.23601400  0.91746500  1
  O  O51  1  0.11769600  0.23601400  0.08253500  1
  O  O52  1  0.11769600  0.76398600  0.08253500  1
  O  O53  1  0.88230400  0.76398600  0.91746500  1
  O  O54  1  0.59679450  0.23088050  0.59493600  1
  O  O55  1  0.40320550  0.23088050  0.40506400  1
  O  O56  1  0.40320550  0.76911950  0.40506400  1
  O  O57  1  0.59679450  0.76911950  0.59493600  1
  O  O58  1  0.35563700  0.00000000  0.57430000  1
  O  O59  1  0.64436300  0.00000000  0.42570000  1
