# generated using pymatgen
data_Na5WNO4
_symmetry_space_group_name_H-M   'P 1'
_cell_length_a   5.84723200
_cell_length_b   9.99367000
_cell_length_c   10.77197500
_cell_angle_alpha   90.00000000
_cell_angle_beta   90.00000000
_cell_angle_gamma   90.00000000
_symmetry_Int_Tables_number   1
_chemical_formula_structural   Na5WNO4
_chemical_formula_sum   'Na20 W4 N4 O16'
_cell_volume   629.46366635
_cell_formula_units_Z   4
loop_
 _symmetry_equiv_pos_site_id
 _symmetry_equiv_pos_as_xyz
  1  'x, y, z'
loop_
 _atom_site_type_symbol
 _atom_site_label
 _atom_site_symmetry_multiplicity
 _atom_site_fract_x
 _atom_site_fract_y
 _atom_site_fract_z
 _atom_site_occupancy
  Na  Na0  1  0.65079250  0.81468550  0.75915500  1
  Na  Na1  1  0.48458600  0.69149600  0.00914600  1
  Na  Na2  1  0.51541400  0.30850400  0.50914600  1
  Na  Na3  1  0.34920750  0.81468550  0.25915500  1
  Na  Na4  1  0.42857700  0.00000000  0.02571400  1
  Na  Na5  1  0.57142300  0.00000000  0.52571400  1
  Na  Na6  1  0.65079250  0.18531450  0.75915500  1
  Na  Na7  1  0.51541400  0.69149600  0.50914600  1
  Na  Na8  1  0.48458600  0.30850400  0.00914600  1
  Na  Na9  1  0.34920750  0.18531450  0.25915500  1
  Na  Na10  1  0.15079250  0.31468550  0.75915500  1
  Na  Na11  1  0.98458600  0.19149600  0.00914600  1
  Na  Na12  1  0.01541400  0.80850400  0.50914600  1
  Na  Na13  1  0.84920750  0.31468550  0.25915500  1
  Na  Na14  1  0.92857700  0.50000000  0.02571400  1
  Na  Na15  1  0.07142300  0.50000000  0.52571400  1
  Na  Na16  1  0.15079250  0.68531450  0.75915500  1
  Na  Na17  1  0.01541400  0.19149600  0.50914600  1
  Na  Na18  1  0.98458600  0.80850400  0.00914600  1
  Na  Na19  1  0.84920750  0.68531450  0.25915500  1
  W  W20  1  0.20819700  0.00000000  0.74780800  1
  W  W21  1  0.79180300  0.00000000  0.24780800  1
  W  W22  1  0.70819700  0.50000000  0.74780800  1
  W  W23  1  0.29180300  0.50000000  0.24780800  1
  N  N24  1  0.09756000  0.00000000  0.22322000  1
  N  N25  1  0.90244000  0.00000000  0.72322000  1
  N  N26  1  0.59756000  0.50000000  0.22322000  1
  N  N27  1  0.40244000  0.50000000  0.72322000  1
  O  O28  1  0.32483300  0.86298900  0.63139700  1
  O  O29  1  0.67516700  0.13701100  0.13139700  1
  O  O30  1  0.28006500  0.86399300  0.87693100  1
  O  O31  1  0.67516700  0.86298900  0.13139700  1
  O  O32  1  0.32483300  0.13701100  0.63139700  1
  O  O33  1  0.28006500  0.13600700  0.87693100  1
  O  O34  1  0.71993500  0.86399300  0.37693100  1
  O  O35  1  0.71993500  0.13600700  0.37693100  1
  O  O36  1  0.82483300  0.36298900  0.63139700  1
  O  O37  1  0.17516700  0.63701100  0.13139700  1
  O  O38  1  0.78006500  0.36399300  0.87693100  1
  O  O39  1  0.17516700  0.36298900  0.13139700  1
  O  O40  1  0.82483300  0.63701100  0.63139700  1
  O  O41  1  0.78006500  0.63600700  0.87693100  1
  O  O42  1  0.21993500  0.36399300  0.37693100  1
  O  O43  1  0.21993500  0.63600700  0.37693100  1
