# generated using pymatgen
data_Li3Ni2(PO4)3
_symmetry_space_group_name_H-M   'P 1'
_cell_length_a   8.46933157
_cell_length_b   8.46933157
_cell_length_c   22.62743113
_cell_angle_alpha   90.00000000
_cell_angle_beta   90.00000000
_cell_angle_gamma   120.00000000
_symmetry_Int_Tables_number   1
_chemical_formula_structural   Li3Ni2(PO4)3
_chemical_formula_sum   'Li18 Ni12 P18 O72'
_cell_volume   1405.60778570
_cell_formula_units_Z   6
loop_
 _symmetry_equiv_pos_site_id
 _symmetry_equiv_pos_as_xyz
  1  'x, y, z'
loop_
 _atom_site_type_symbol
 _atom_site_label
 _atom_site_symmetry_multiplicity
 _atom_site_fract_x
 _atom_site_fract_y
 _atom_site_fract_z
 _atom_site_occupancy
  Li  Li0  1  0.37893533  0.36206867  0.28341467  1
  Li  Li1  1  0.28773133  0.97126467  0.04991867  1
  Li  Li2  1  0.02873533  0.31646667  0.04991867  1
  Li  Li3  1  0.68353333  0.71226867  0.04991867  1
  Li  Li4  1  0.63793133  0.01686667  0.28341467  1
  Li  Li5  1  0.98313333  0.62106467  0.28341467  1
  Li  Li6  1  0.04560200  0.69540200  0.61674800  1
  Li  Li7  1  0.95439800  0.30459800  0.38325200  1
  Li  Li8  1  0.69540200  0.64980000  0.38325200  1
  Li  Li9  1  0.35020000  0.04560200  0.38325200  1
  Li  Li10  1  0.30459800  0.35020000  0.61674800  1
  Li  Li11  1  0.64980000  0.95439800  0.61674800  1
  Li  Li12  1  0.71226867  0.02873533  0.95008133  1
  Li  Li13  1  0.62106467  0.63793133  0.71658533  1
  Li  Li14  1  0.36206867  0.98313333  0.71658533  1
  Li  Li15  1  0.01686667  0.37893533  0.71658533  1
  Li  Li16  1  0.97126467  0.68353333  0.95008133  1
  Li  Li17  1  0.31646667  0.28773133  0.95008133  1
  Ni  Ni18  1  0.66666667  0.33333333  0.18923933  1
  Ni  Ni19  1  0.33333333  0.66666667  0.01390067  1
  Ni  Ni20  1  0.33333333  0.66666667  0.31943267  1
  Ni  Ni21  1  0.00000000  0.00000000  0.14409400  1
  Ni  Ni22  1  0.33333333  0.66666667  0.52257267  1
  Ni  Ni23  1  0.00000000  0.00000000  0.34723400  1
  Ni  Ni24  1  0.00000000  0.00000000  0.65276600  1
  Ni  Ni25  1  0.66666667  0.33333333  0.47742733  1
  Ni  Ni26  1  0.00000000  0.00000000  0.85590600  1
  Ni  Ni27  1  0.66666667  0.33333333  0.68056733  1
  Ni  Ni28  1  0.66666667  0.33333333  0.98609933  1
  Ni  Ni29  1  0.33333333  0.66666667  0.81076067  1
  P  P30  1  0.29096700  0.99681700  0.25068400  1
  P  P31  1  0.70585000  0.70903300  0.25068400  1
  P  P32  1  0.37569967  0.33651633  0.08264933  1
  P  P33  1  0.66348367  0.03918333  0.08264933  1
  P  P34  1  0.96081667  0.62430033  0.08264933  1
  P  P35  1  0.00318300  0.29415000  0.25068400  1
  P  P36  1  0.95763367  0.33015033  0.58401733  1
  P  P37  1  0.37251667  0.04236633  0.58401733  1
  P  P38  1  0.04236633  0.66984967  0.41598267  1
  P  P39  1  0.33015033  0.37251667  0.41598267  1
  P  P40  1  0.62748333  0.95763367  0.41598267  1
  P  P41  1  0.66984967  0.62748333  0.58401733  1
  P  P42  1  0.62430033  0.66348367  0.91735067  1
  P  P43  1  0.03918333  0.37569967  0.91735067  1
  P  P44  1  0.70903300  0.00318300  0.74931600  1
  P  P45  1  0.99681700  0.70585000  0.74931600  1
  P  P46  1  0.29415000  0.29096700  0.74931600  1
  P  P47  1  0.33651633  0.96081667  0.91735067  1
  O  O48  1  0.24118767  0.09238733  0.30155233  1
  O  O49  1  0.10172933  0.56739767  0.06587067  1
  O  O50  1  0.78295533  0.94901667  0.08748267  1
  O  O51  1  0.46655800  0.33590500  0.14113500  1
  O  O52  1  0.20099833  0.43506267  0.26746267  1
  O  O53  1  0.50060533  0.11628867  0.24585067  1
  O  O54  1  0.85119967  0.75881233  0.30155233  1
  O  O55  1  0.79731967  0.79989133  0.19219833  1
  O  O56  1  0.43260233  0.53433167  0.06587067  1
  O  O57  1  0.75905400  0.18453300  0.03178100  1
  O  O58  1  0.05098333  0.83393867  0.08748267  1
  O  O59  1  0.61568333  0.49939467  0.24585067  1
  O  O60  1  0.46566833  0.89827067  0.06587067  1
  O  O61  1  0.66409500  0.13065300  0.14113500  1
  O  O62  1  0.00257167  0.20268033  0.19219833  1
  O  O63  1  0.23406433  0.79900167  0.26746267  1
  O  O64  1  0.42547900  0.24094600  0.03178100  1
  O  O65  1  0.88371133  0.38431667  0.24585067  1
  O  O66  1  0.16606133  0.21704467  0.08748267  1
  O  O67  1  0.86934700  0.53344200  0.14113500  1
  O  O68  1  0.20010867  0.99742833  0.19219833  1
  O  O69  1  0.90761267  0.14880033  0.30155233  1
  O  O70  1  0.56493733  0.76593567  0.26746267  1
  O  O71  1  0.81546700  0.57452100  0.03178100  1
  O  O72  1  0.90785433  0.42572067  0.63488567  1
  O  O73  1  0.76839600  0.90073100  0.39920400  1
  O  O74  1  0.44962200  0.28235000  0.42081600  1
  O  O75  1  0.13322467  0.66923833  0.47446833  1
  O  O76  1  0.86766500  0.76839600  0.60079600  1
  O  O77  1  0.16727200  0.44962200  0.57918400  1
  O  O78  1  0.51786633  0.09214567  0.63488567  1
  O  O79  1  0.46398633  0.13322467  0.52553167  1
  O  O80  1  0.09926900  0.86766500  0.39920400  1
  O  O81  1  0.42572067  0.51786633  0.36511433  1
  O  O82  1  0.71765000  0.16727200  0.42081600  1
  O  O83  1  0.28235000  0.83272800  0.57918400  1
  O  O84  1  0.13233500  0.23160400  0.39920400  1
  O  O85  1  0.33076167  0.46398633  0.47446833  1
  O  O86  1  0.66923833  0.53601367  0.52553167  1
  O  O87  1  0.90073100  0.13233500  0.60079600  1
  O  O88  1  0.09214567  0.57427933  0.36511433  1
  O  O89  1  0.55037800  0.71765000  0.57918400  1
  O  O90  1  0.83272800  0.55037800  0.42081600  1
  O  O91  1  0.53601367  0.86677533  0.47446833  1
  O  O92  1  0.86677533  0.33076167  0.52553167  1
  O  O93  1  0.57427933  0.48213367  0.63488567  1
  O  O94  1  0.23160400  0.09926900  0.60079600  1
  O  O95  1  0.48213367  0.90785433  0.36511433  1
  O  O96  1  0.57452100  0.75905400  0.96821900  1
  O  O97  1  0.43506267  0.23406433  0.73253733  1
  O  O98  1  0.11628867  0.61568333  0.75414933  1
  O  O99  1  0.79989133  0.00257167  0.80780167  1
  O  O100  1  0.53433167  0.10172933  0.93412933  1
  O  O101  1  0.83393867  0.78295533  0.91251733  1
  O  O102  1  0.18453300  0.42547900  0.96821900  1
  O  O103  1  0.13065300  0.46655800  0.85886500  1
  O  O104  1  0.76593567  0.20099833  0.73253733  1
  O  O105  1  0.09238733  0.85119967  0.69844767  1
  O  O106  1  0.38431667  0.50060533  0.75414933  1
  O  O107  1  0.94901667  0.16606133  0.91251733  1
  O  O108  1  0.79900167  0.56493733  0.73253733  1
  O  O109  1  0.99742833  0.79731967  0.80780167  1
  O  O110  1  0.33590500  0.86934700  0.85886500  1
  O  O111  1  0.56739767  0.46566833  0.93412933  1
  O  O112  1  0.75881233  0.90761267  0.69844767  1
  O  O113  1  0.21704467  0.05098333  0.91251733  1
  O  O114  1  0.49939467  0.88371133  0.75414933  1
  O  O115  1  0.20268033  0.20010867  0.80780167  1
  O  O116  1  0.53344200  0.66409500  0.85886500  1
  O  O117  1  0.24094600  0.81546700  0.96821900  1
  O  O118  1  0.89827067  0.43260233  0.93412933  1
  O  O119  1  0.14880033  0.24118767  0.69844767  1
