# generated using pymatgen
data_La14C14Cl9
_symmetry_space_group_name_H-M   'P 1'
_cell_length_a   6.97897800
_cell_length_b   30.03131600
_cell_length_c   7.82545428
_cell_angle_alpha   90.00000000
_cell_angle_beta   104.41569088
_cell_angle_gamma   90.00000000
_symmetry_Int_Tables_number   1
_chemical_formula_structural   La14C14Cl9
_chemical_formula_sum   'La28 C28 Cl18'
_cell_volume   1588.48131732
_cell_formula_units_Z   2
loop_
 _symmetry_equiv_pos_site_id
 _symmetry_equiv_pos_as_xyz
  1  'x, y, z'
loop_
 _atom_site_type_symbol
 _atom_site_label
 _atom_site_symmetry_multiplicity
 _atom_site_fract_x
 _atom_site_fract_y
 _atom_site_fract_z
 _atom_site_occupancy
  La  La0  1  0.28646800  0.67124600  0.15686600  1
  La  La1  1  0.26809100  0.82907000  0.22532700  1
  La  La2  1  0.49513200  0.04376200  0.74572500  1
  La  La3  1  0.51264500  0.18123700  0.60379200  1
  La  La4  1  0.52552100  0.61115000  0.61338500  1
  La  La5  1  0.28072100  0.53066000  0.30696900  1
  La  La6  1  0.50418700  0.88579900  0.67394200  1
  La  La7  1  0.51304200  0.45700700  0.68756600  1
  La  La8  1  0.01546100  0.68456800  0.53879500  1
  La  La9  1  0.01245300  0.25292800  0.53291500  1
  La  La10  1  0.27973700  0.24259600  0.15412000  1
  La  La11  1  0.78646800  0.32875400  0.15686600  1
  La  La12  1  0.01304200  0.54299300  0.68756600  1
  La  La13  1  0.01264500  0.81876300  0.60379200  1
  La  La14  1  0.51245300  0.74707200  0.53291500  1
  La  La15  1  0.51546100  0.31543200  0.53879500  1
  La  La16  1  0.02552100  0.38885000  0.61338500  1
  La  La17  1  0.26471900  0.10319200  0.29487700  1
  La  La18  1  0.26080900  0.96786200  0.36603700  1
  La  La19  1  0.00418700  0.11420100  0.67394200  1
  La  La20  1  0.78072100  0.46934000  0.30696900  1
  La  La21  1  0.77443800  0.60381700  0.23270600  1
  La  La22  1  0.76809100  0.17093000  0.22532700  1
  La  La23  1  0.77973700  0.75740400  0.15412000  1
  La  La24  1  0.76471900  0.89680800  0.29487700  1
  La  La25  1  0.27443800  0.39618300  0.23270600  1
  La  La26  1  0.99513200  0.95623800  0.74572500  1
  La  La27  1  0.76080900  0.03213800  0.36603700  1
  C  C28  1  0.16957700  0.73463200  0.30162500  1
  C  C29  1  0.17103300  0.30453700  0.30766100  1
  C  C30  1  0.62287300  0.66430900  0.41603600  1
  C  C31  1  0.65437900  0.94863400  0.49349700  1
  C  C32  1  0.10464900  0.01951600  0.59661200  1
  C  C33  1  0.60781100  0.83560100  0.47009400  1
  C  C34  1  0.67851700  0.37923000  0.36512300  1
  C  C35  1  0.12086100  0.59494200  0.48249800  1
  C  C36  1  0.15437900  0.05136600  0.49349700  1
  C  C37  1  0.66807500  0.80866500  0.35444900  1
  C  C38  1  0.66957700  0.26536800  0.30162500  1
  C  C39  1  0.16807500  0.19133500  0.35444900  1
  C  C40  1  0.17644800  0.44907800  0.42902600  1
  C  C41  1  0.16708600  0.87960600  0.42702000  1
  C  C42  1  0.10841700  0.90658200  0.54448100  1
  C  C43  1  0.66708600  0.12039400  0.42702000  1
  C  C44  1  0.12691900  0.48033100  0.53698400  1
  C  C45  1  0.67644800  0.55092200  0.42902600  1
  C  C46  1  0.12287300  0.33569100  0.41603600  1
  C  C47  1  0.60841700  0.09341800  0.54448100  1
  C  C48  1  0.62086100  0.40505800  0.48249800  1
  C  C49  1  0.11846500  0.76609000  0.40645500  1
  C  C50  1  0.60464900  0.98048400  0.59661200  1
  C  C51  1  0.61846500  0.23391000  0.40645500  1
  C  C52  1  0.62691900  0.51966900  0.53698400  1
  C  C53  1  0.17851700  0.62077000  0.36512300  1
  C  C54  1  0.67103300  0.69546300  0.30766100  1
  C  C55  1  0.10781100  0.16439900  0.47009400  1
  Cl  Cl56  1  0.90841500  0.74413200  0.80506600  1
  Cl  Cl57  1  0.41249300  0.68946700  0.80587200  1
  Cl  Cl58  1  0.88794300  0.41664700  0.97305400  1
  Cl  Cl59  1  0.88402100  0.52728300  0.03883900  1
  Cl  Cl60  1  0.90932400  0.19703200  0.86441100  1
  Cl  Cl61  1  0.91249300  0.31053300  0.80587200  1
  Cl  Cl62  1  0.38783000  0.14164200  0.94885100  1
  Cl  Cl63  1  0.41081200  0.36733300  0.87058100  1
  Cl  Cl64  1  0.40932400  0.80296800  0.86441100  1
  Cl  Cl65  1  0.40841500  0.25586800  0.80506600  1
  Cl  Cl66  1  0.86327100  0.97307300  0.09295700  1
  Cl  Cl67  1  0.36535700  0.91272100  0.03720800  1
  Cl  Cl68  1  0.38402100  0.47271700  0.03883900  1
  Cl  Cl69  1  0.38794300  0.58335300  0.97305400  1
  Cl  Cl70  1  0.86535700  0.08727900  0.03720800  1
  Cl  Cl71  1  0.91081200  0.63266700  0.87058100  1
  Cl  Cl72  1  0.36327100  0.02692700  0.09295700  1
  Cl  Cl73  1  0.88783000  0.85835800  0.94885100  1
