# generated using pymatgen
data_Tm4InRh
_symmetry_space_group_name_H-M   'P 1'
_cell_length_a   13.49111000
_cell_length_b   13.49111000
_cell_length_c   13.49111000
_cell_angle_alpha   90.00000000
_cell_angle_beta   90.00000000
_cell_angle_gamma   90.00000000
_symmetry_Int_Tables_number   1
_chemical_formula_structural   Tm4InRh
_chemical_formula_sum   'Tm64 In16 Rh16'
_cell_volume   2455.51759260
_cell_formula_units_Z   16
loop_
 _symmetry_equiv_pos_site_id
 _symmetry_equiv_pos_as_xyz
  1  'x, y, z'
loop_
 _atom_site_type_symbol
 _atom_site_label
 _atom_site_symmetry_multiplicity
 _atom_site_fract_x
 _atom_site_fract_y
 _atom_site_fract_z
 _atom_site_occupancy
  Tm  Tm0  1  0.50000000  0.68830075  0.00000000  1
  Tm  Tm1  1  0.50000000  0.50000000  0.18830075  1
  Tm  Tm2  1  0.50000000  0.50000000  0.81169925  1
  Tm  Tm3  1  0.90025858  0.40025858  0.09974142  1
  Tm  Tm4  1  0.50000000  0.31169925  0.00000000  1
  Tm  Tm5  1  0.59974142  0.40025858  0.40025858  1
  Tm  Tm6  1  0.75000000  0.25000000  0.93889725  1
  Tm  Tm7  1  0.75000000  0.56110275  0.25000000  1
  Tm  Tm8  1  0.25000000  0.43889725  0.25000000  1
  Tm  Tm9  1  0.31169925  0.50000000  0.00000000  1
  Tm  Tm10  1  0.43889725  0.25000000  0.25000000  1
  Tm  Tm11  1  0.68830075  0.50000000  0.00000000  1
  Tm  Tm12  1  0.75000000  0.25000000  0.56110275  1
  Tm  Tm13  1  0.06110275  0.25000000  0.25000000  1
  Tm  Tm14  1  0.09974142  0.59974142  0.09974142  1
  Tm  Tm15  1  0.40025858  0.59974142  0.40025858  1
  Tm  Tm16  1  0.50000000  0.18830075  0.50000000  1
  Tm  Tm17  1  0.50000000  0.00000000  0.68830075  1
  Tm  Tm18  1  0.50000000  0.00000000  0.31169925  1
  Tm  Tm19  1  0.90025858  0.90025858  0.59974142  1
  Tm  Tm20  1  0.50000000  0.81169925  0.50000000  1
  Tm  Tm21  1  0.59974142  0.90025858  0.90025858  1
  Tm  Tm22  1  0.75000000  0.75000000  0.43889725  1
  Tm  Tm23  1  0.75000000  0.06110275  0.75000000  1
  Tm  Tm24  1  0.25000000  0.93889725  0.75000000  1
  Tm  Tm25  1  0.31169925  0.00000000  0.50000000  1
  Tm  Tm26  1  0.43889725  0.75000000  0.75000000  1
  Tm  Tm27  1  0.68830075  0.00000000  0.50000000  1
  Tm  Tm28  1  0.75000000  0.75000000  0.06110275  1
  Tm  Tm29  1  0.06110275  0.75000000  0.75000000  1
  Tm  Tm30  1  0.09974142  0.09974142  0.59974142  1
  Tm  Tm31  1  0.40025858  0.09974142  0.90025858  1
  Tm  Tm32  1  0.00000000  0.68830075  0.50000000  1
  Tm  Tm33  1  0.00000000  0.50000000  0.68830075  1
  Tm  Tm34  1  0.00000000  0.50000000  0.31169925  1
  Tm  Tm35  1  0.40025858  0.40025858  0.59974142  1
  Tm  Tm36  1  0.00000000  0.31169925  0.50000000  1
  Tm  Tm37  1  0.09974142  0.40025858  0.90025858  1
  Tm  Tm38  1  0.25000000  0.25000000  0.43889725  1
  Tm  Tm39  1  0.25000000  0.56110275  0.75000000  1
  Tm  Tm40  1  0.75000000  0.43889725  0.75000000  1
  Tm  Tm41  1  0.81169925  0.50000000  0.50000000  1
  Tm  Tm42  1  0.93889725  0.25000000  0.75000000  1
  Tm  Tm43  1  0.18830075  0.50000000  0.50000000  1
  Tm  Tm44  1  0.25000000  0.25000000  0.06110275  1
  Tm  Tm45  1  0.56110275  0.25000000  0.75000000  1
  Tm  Tm46  1  0.59974142  0.59974142  0.59974142  1
  Tm  Tm47  1  0.90025858  0.59974142  0.90025858  1
  Tm  Tm48  1  0.00000000  0.18830075  0.00000000  1
  Tm  Tm49  1  0.00000000  0.00000000  0.18830075  1
  Tm  Tm50  1  0.00000000  0.00000000  0.81169925  1
  Tm  Tm51  1  0.40025858  0.90025858  0.09974142  1
  Tm  Tm52  1  0.00000000  0.81169925  0.00000000  1
  Tm  Tm53  1  0.09974142  0.90025858  0.40025858  1
  Tm  Tm54  1  0.25000000  0.75000000  0.93889725  1
  Tm  Tm55  1  0.25000000  0.06110275  0.25000000  1
  Tm  Tm56  1  0.75000000  0.93889725  0.25000000  1
  Tm  Tm57  1  0.81169925  0.00000000  0.00000000  1
  Tm  Tm58  1  0.93889725  0.75000000  0.25000000  1
  Tm  Tm59  1  0.18830075  0.00000000  0.00000000  1
  Tm  Tm60  1  0.25000000  0.75000000  0.56110275  1
  Tm  Tm61  1  0.56110275  0.75000000  0.25000000  1
  Tm  Tm62  1  0.59974142  0.09974142  0.09974142  1
  Tm  Tm63  1  0.90025858  0.09974142  0.40025858  1
  In  In64  1  0.66666625  0.33333375  0.16666625  1
  In  In65  1  0.16666625  0.66666625  0.33333375  1
  In  In66  1  0.33333375  0.66666625  0.16666625  1
  In  In67  1  0.83333375  0.33333375  0.33333375  1
  In  In68  1  0.66666625  0.83333375  0.66666625  1
  In  In69  1  0.16666625  0.16666625  0.83333375  1
  In  In70  1  0.33333375  0.16666625  0.66666625  1
  In  In71  1  0.83333375  0.83333375  0.83333375  1
  In  In72  1  0.16666625  0.33333375  0.66666625  1
  In  In73  1  0.66666625  0.66666625  0.83333375  1
  In  In74  1  0.83333375  0.66666625  0.66666625  1
  In  In75  1  0.33333375  0.33333375  0.83333375  1
  In  In76  1  0.16666625  0.83333375  0.16666625  1
  In  In77  1  0.66666625  0.16666625  0.33333375  1
  In  In78  1  0.83333375  0.16666625  0.16666625  1
  In  In79  1  0.33333375  0.83333375  0.33333375  1
  Rh  Rh80  1  0.39258708  0.39258708  0.39258708  1
  Rh  Rh81  1  0.60741292  0.39258708  0.60741292  1
  Rh  Rh82  1  0.60741292  0.60741292  0.39258708  1
  Rh  Rh83  1  0.39258708  0.60741292  0.60741292  1
  Rh  Rh84  1  0.39258708  0.89258708  0.89258708  1
  Rh  Rh85  1  0.60741292  0.89258708  0.10741292  1
  Rh  Rh86  1  0.60741292  0.10741292  0.89258708  1
  Rh  Rh87  1  0.39258708  0.10741292  0.10741292  1
  Rh  Rh88  1  0.89258708  0.39258708  0.89258708  1
  Rh  Rh89  1  0.10741292  0.39258708  0.10741292  1
  Rh  Rh90  1  0.10741292  0.60741292  0.89258708  1
  Rh  Rh91  1  0.89258708  0.60741292  0.10741292  1
  Rh  Rh92  1  0.89258708  0.89258708  0.39258708  1
  Rh  Rh93  1  0.10741292  0.89258708  0.60741292  1
  Rh  Rh94  1  0.10741292  0.10741292  0.39258708  1
  Rh  Rh95  1  0.89258708  0.10741292  0.60741292  1
