# generated using pymatgen
data_Ni3(BiS)2
_symmetry_space_group_name_H-M   'P 1'
_cell_length_a   11.00556600
_cell_length_b   8.17512200
_cell_length_c   7.85439396
_cell_angle_alpha   90.00000000
_cell_angle_beta   132.95716729
_cell_angle_gamma   90.00000000
_symmetry_Int_Tables_number   1
_chemical_formula_structural   Ni3(BiS)2
_chemical_formula_sum   'Ni12 Bi8 S8'
_cell_volume   517.18902385
_cell_formula_units_Z   4
loop_
 _symmetry_equiv_pos_site_id
 _symmetry_equiv_pos_as_xyz
  1  'x, y, z'
loop_
 _atom_site_type_symbol
 _atom_site_label
 _atom_site_symmetry_multiplicity
 _atom_site_fract_x
 _atom_site_fract_y
 _atom_site_fract_z
 _atom_site_occupancy
  Ni  Ni0  1  0.24521300  0.50000000  0.73035600  1
  Ni  Ni1  1  0.25000000  0.75000000  0.00000000  1
  Ni  Ni2  1  0.00000000  0.25481300  0.00000000  1
  Ni  Ni3  1  0.00000000  0.74518700  0.00000000  1
  Ni  Ni4  1  0.25478700  0.00000000  0.26964400  1
  Ni  Ni5  1  0.75000000  0.75000000  0.00000000  1
  Ni  Ni6  1  0.74521300  0.00000000  0.73035600  1
  Ni  Ni7  1  0.75000000  0.25000000  0.00000000  1
  Ni  Ni8  1  0.50000000  0.75481300  0.00000000  1
  Ni  Ni9  1  0.50000000  0.24518700  0.00000000  1
  Ni  Ni10  1  0.75478700  0.50000000  0.26964400  1
  Ni  Ni11  1  0.25000000  0.25000000  0.00000000  1
  Bi  Bi12  1  0.01202300  0.00000000  0.75996500  1
  Bi  Bi13  1  0.48797700  0.50000000  0.24003500  1
  Bi  Bi14  1  0.50157900  0.00000000  0.75208500  1
  Bi  Bi15  1  0.99842100  0.50000000  0.24791500  1
  Bi  Bi16  1  0.51202300  0.50000000  0.75996500  1
  Bi  Bi17  1  0.98797700  0.00000000  0.24003500  1
  Bi  Bi18  1  0.00157900  0.50000000  0.75208500  1
  Bi  Bi19  1  0.49842100  0.00000000  0.24791500  1
  S  S20  1  0.23260100  0.76589900  0.70752300  1
  S  S21  1  0.73260100  0.73410100  0.70752300  1
  S  S22  1  0.26739900  0.73410100  0.29247700  1
  S  S23  1  0.76739900  0.76589900  0.29247700  1
  S  S24  1  0.73260100  0.26589900  0.70752300  1
  S  S25  1  0.23260100  0.23410100  0.70752300  1
  S  S26  1  0.76739900  0.23410100  0.29247700  1
  S  S27  1  0.26739900  0.26589900  0.29247700  1
