# generated using pymatgen
data_BaCr2O4
_symmetry_space_group_name_H-M   'P 1'
_cell_length_a   5.26924900
_cell_length_b   6.07331200
_cell_length_c   12.43963000
_cell_angle_alpha   90.00000000
_cell_angle_beta   90.00000000
_cell_angle_gamma   90.00000000
_symmetry_Int_Tables_number   1
_chemical_formula_structural   BaCr2O4
_chemical_formula_sum   'Ba4 Cr8 O16'
_cell_volume   398.09046653
_cell_formula_units_Z   4
loop_
 _symmetry_equiv_pos_site_id
 _symmetry_equiv_pos_as_xyz
  1  'x, y, z'
loop_
 _atom_site_type_symbol
 _atom_site_label
 _atom_site_symmetry_multiplicity
 _atom_site_fract_x
 _atom_site_fract_y
 _atom_site_fract_z
 _atom_site_occupancy
  Ba  Ba0  1  0.36657100  0.00000000  0.50000000  1
  Ba  Ba1  1  0.63342900  0.50000000  0.00000000  1
  Ba  Ba2  1  0.05435600  0.00000000  0.00000000  1
  Ba  Ba3  1  0.94564400  0.50000000  0.50000000  1
  Cr  Cr4  1  0.99763500  0.00000000  0.25565900  1
  Cr  Cr5  1  0.99763500  0.00000000  0.74434100  1
  Cr  Cr6  1  0.00236500  0.50000000  0.24434100  1
  Cr  Cr7  1  0.00236500  0.50000000  0.75565900  1
  Cr  Cr8  1  0.50000000  0.25000000  0.25000000  1
  Cr  Cr9  1  0.50000000  0.75000000  0.75000000  1
  Cr  Cr10  1  0.50000000  0.75000000  0.25000000  1
  Cr  Cr11  1  0.50000000  0.25000000  0.75000000  1
  O  O12  1  0.33299200  0.50000000  0.16471200  1
  O  O13  1  0.33299200  0.50000000  0.83528800  1
  O  O14  1  0.66700800  0.00000000  0.33528800  1
  O  O15  1  0.66700800  0.00000000  0.66471200  1
  O  O16  1  0.66906800  0.50000000  0.32957600  1
  O  O17  1  0.66906800  0.50000000  0.67042400  1
  O  O18  1  0.33093200  0.00000000  0.17042400  1
  O  O19  1  0.33093200  0.00000000  0.82957600  1
  O  O20  1  0.16569500  0.25292900  0.33786000  1
  O  O21  1  0.16569500  0.74707100  0.66214000  1
  O  O22  1  0.83430500  0.75292900  0.16214000  1
  O  O23  1  0.83430500  0.24707100  0.83786000  1
  O  O24  1  0.83430500  0.24707100  0.16214000  1
  O  O25  1  0.83430500  0.75292900  0.83786000  1
  O  O26  1  0.16569500  0.74707100  0.33786000  1
  O  O27  1  0.16569500  0.25292900  0.66214000  1
