# generated using pymatgen
data_LiFePO4
_symmetry_space_group_name_H-M   'P 1'
_cell_length_a   5.09719500
_cell_length_b   6.87732206
_cell_length_c   10.25846909
_cell_angle_alpha   90.00000000
_cell_angle_beta   90.00000000
_cell_angle_gamma   90.00000000
_symmetry_Int_Tables_number   1
_chemical_formula_structural   LiFePO4
_chemical_formula_sum   'Li4 Fe4 P4 O16'
_cell_volume   359.61116367
_cell_formula_units_Z   4
loop_
 _symmetry_equiv_pos_site_id
 _symmetry_equiv_pos_as_xyz
  1  'x, y, z'
loop_
 _atom_site_type_symbol
 _atom_site_label
 _atom_site_symmetry_multiplicity
 _atom_site_fract_x
 _atom_site_fract_y
 _atom_site_fract_z
 _atom_site_occupancy
  Li  Li0  1  0.19524500  0.28730900  0.15404000  1
  Li  Li1  1  0.30475500  0.28730900  0.65404000  1
  Li  Li2  1  0.80475500  0.78730900  0.84596000  1
  Li  Li3  1  0.69524500  0.78730900  0.34596000  1
  Fe  Fe4  1  0.69610800  0.28743700  0.34843100  1
  Fe  Fe5  1  0.80389200  0.28743700  0.84843100  1
  Fe  Fe6  1  0.30389200  0.78743700  0.65156900  1
  Fe  Fe7  1  0.19610800  0.78743700  0.15156900  1
  P  P8  1  0.19269900  0.03617200  0.40307300  1
  P  P9  1  0.69269900  0.53617200  0.09692700  1
  P  P10  1  0.80730100  0.53617200  0.59692700  1
  P  P11  1  0.30730100  0.03617200  0.90307300  1
  O  O12  1  0.10872200  0.53397800  0.62067500  1
  O  O13  1  0.39127800  0.53397800  0.12067500  1
  O  O14  1  0.89127800  0.03397800  0.37932500  1
  O  O15  1  0.60872200  0.03397800  0.87932500  1
  O  O16  1  0.68531600  0.35150500  0.66006400  1
  O  O17  1  0.18531600  0.85150500  0.83993600  1
  O  O18  1  0.31468400  0.85150500  0.33993600  1
  O  O19  1  0.81468400  0.35150500  0.16006400  1
  O  O20  1  0.24044200  0.03839200  0.05098500  1
  O  O21  1  0.25955800  0.03839200  0.55098500  1
  O  O22  1  0.75955800  0.53839200  0.94901500  1
  O  O23  1  0.74044200  0.53839200  0.44901500  1
  O  O24  1  0.69547200  0.72386800  0.66169100  1
  O  O25  1  0.30452800  0.22386800  0.33830900  1
  O  O26  1  0.80452800  0.72386800  0.16169100  1
  O  O27  1  0.19547200  0.22386800  0.83830900  1
