# generated using pymatgen
data_Li8Bi2(MoO4)7
_symmetry_space_group_name_H-M   'P 1'
_cell_length_a   21.50637800
_cell_length_b   21.50637800
_cell_length_c   5.38002600
_cell_angle_alpha   90.00000000
_cell_angle_beta   90.00000000
_cell_angle_gamma   90.00000000
_symmetry_Int_Tables_number   1
_chemical_formula_structural   Li8Bi2(MoO4)7
_chemical_formula_sum   'Li32 Bi8 Mo28 O112'
_cell_volume   2488.39273100
_cell_formula_units_Z   4
loop_
 _symmetry_equiv_pos_site_id
 _symmetry_equiv_pos_as_xyz
  1  'x, y, z'
loop_
 _atom_site_type_symbol
 _atom_site_label
 _atom_site_symmetry_multiplicity
 _atom_site_fract_x
 _atom_site_fract_y
 _atom_site_fract_z
 _atom_site_occupancy
  Li  Li0  1  0.74788800  0.74777250  0.83235325  1
  Li  Li1  1  0.06996800  0.62594050  0.50620325  1
  Li  Li2  1  0.00121300  0.24347550  0.49732425  1
  Li  Li3  1  0.93101500  0.62423550  0.49509225  1
  Li  Li4  1  0.25652450  0.50121300  0.00267575  1
  Li  Li5  1  0.87576450  0.43101500  0.00490775  1
  Li  Li6  1  0.87405950  0.56996800  0.99379675  1
  Li  Li7  1  0.74347550  0.49878700  0.00267575  1
  Li  Li8  1  0.93003200  0.37405950  0.50620325  1
  Li  Li9  1  0.25211200  0.25222750  0.83235325  1
  Li  Li10  1  0.12594050  0.43003200  0.99379675  1
  Li  Li11  1  0.12423550  0.56898500  0.00490775  1
  Li  Li12  1  0.99878700  0.75652450  0.49732425  1
  Li  Li13  1  0.06898500  0.37576450  0.49509225  1
  Li  Li14  1  0.75222750  0.24788800  0.66764675  1
  Li  Li15  1  0.24777250  0.75211200  0.66764675  1
  Li  Li16  1  0.24788800  0.24777250  0.33235325  1
  Li  Li17  1  0.56996800  0.12594050  0.00620325  1
  Li  Li18  1  0.50121300  0.74347550  0.99732425  1
  Li  Li19  1  0.43101500  0.12423550  0.99509225  1
  Li  Li20  1  0.75652450  0.00121300  0.50267575  1
  Li  Li21  1  0.37576450  0.93101500  0.50490775  1
  Li  Li22  1  0.37405950  0.06996800  0.49379675  1
  Li  Li23  1  0.24347550  0.99878700  0.50267575  1
  Li  Li24  1  0.43003200  0.87405950  0.00620325  1
  Li  Li25  1  0.75211200  0.75222750  0.33235325  1
  Li  Li26  1  0.62594050  0.93003200  0.49379675  1
  Li  Li27  1  0.62423550  0.06898500  0.50490775  1
  Li  Li28  1  0.49878700  0.25652450  0.99732425  1
  Li  Li29  1  0.56898500  0.87576450  0.99509225  1
  Li  Li30  1  0.25222750  0.74788800  0.16764675  1
  Li  Li31  1  0.74777250  0.25211200  0.16764675  1
  Bi  Bi32  1  0.99973500  0.14085350  0.00127325  1
  Bi  Bi33  1  0.35914650  0.49973500  0.49872675  1
  Bi  Bi34  1  0.64085350  0.50026500  0.49872675  1
  Bi  Bi35  1  0.00026500  0.85914650  0.00127325  1
  Bi  Bi36  1  0.49973500  0.64085350  0.50127325  1
  Bi  Bi37  1  0.85914650  0.99973500  0.99872675  1
  Bi  Bi38  1  0.14085350  0.00026500  0.99872675  1
  Bi  Bi39  1  0.50026500  0.35914650  0.50127325  1
  Mo  Mo40  1  0.21640400  0.59567650  0.48596325  1
  Mo  Mo41  1  0.90497200  0.28408050  0.98583725  1
  Mo  Mo42  1  0.78408050  0.59502800  0.51416275  1
  Mo  Mo43  1  0.90432350  0.71640400  0.01403675  1
  Mo  Mo44  1  0.12985000  0.13104150  0.49955225  1
  Mo  Mo45  1  0.63104150  0.37015000  0.00044775  1
  Mo  Mo46  1  0.36895850  0.62985000  0.00044775  1
  Mo  Mo47  1  0.50000000  0.50000000  0.00000000  1
  Mo  Mo48  1  0.09567650  0.28359600  0.01403675  1
  Mo  Mo49  1  0.87015000  0.86895850  0.49955225  1
  Mo  Mo50  1  0.21591950  0.40497200  0.51416275  1
  Mo  Mo51  1  0.00000000  0.50000000  0.75000000  1
  Mo  Mo52  1  0.09502800  0.71591950  0.98583725  1
  Mo  Mo53  1  0.78359600  0.40432350  0.48596325  1
  Mo  Mo54  1  0.71640400  0.09567650  0.98596325  1
  Mo  Mo55  1  0.40497200  0.78408050  0.48583725  1
  Mo  Mo56  1  0.28408050  0.09502800  0.01416275  1
  Mo  Mo57  1  0.40432350  0.21640400  0.51403675  1
  Mo  Mo58  1  0.62985000  0.63104150  0.99955225  1
  Mo  Mo59  1  0.13104150  0.87015000  0.50044775  1
  Mo  Mo60  1  0.86895850  0.12985000  0.50044775  1
  Mo  Mo61  1  0.00000000  0.00000000  0.50000000  1
  Mo  Mo62  1  0.59567650  0.78359600  0.51403675  1
  Mo  Mo63  1  0.37015000  0.36895850  0.99955225  1
  Mo  Mo64  1  0.71591950  0.90497200  0.01416275  1
  Mo  Mo65  1  0.50000000  0.00000000  0.25000000  1
  Mo  Mo66  1  0.59502800  0.21591950  0.48583725  1
  Mo  Mo67  1  0.28359600  0.90432350  0.98596325  1
  O  O68  1  0.82568300  0.73513050  0.08035825  1
  O  O69  1  0.18596850  0.18668800  0.58074875  1
  O  O70  1  0.94632200  0.69692250  0.29081825  1
  O  O71  1  0.45295350  0.54576300  0.20798475  1
  O  O72  1  0.68668800  0.31403150  0.91925125  1
  O  O73  1  0.09415200  0.09427450  0.77519625  1
  O  O74  1  0.27730400  0.44529750  0.33021925  1
  O  O75  1  0.32804000  0.57043250  0.18034025  1
  O  O76  1  0.27751100  0.55475550  0.66948225  1
  O  O77  1  0.82579150  0.26643300  0.92569875  1
  O  O78  1  0.23356700  0.32579150  0.57430125  1
  O  O79  1  0.17420850  0.73356700  0.92569875  1
  O  O80  1  0.07244300  0.82980350  0.68368525  1
  O  O81  1  0.90719600  0.35402250  0.16665125  1
  O  O82  1  0.09669650  0.35243000  0.82824675  1
  O  O83  1  0.99868500  0.43168950  0.55802025  1
  O  O84  1  0.76486950  0.32568300  0.41964175  1
  O  O85  1  0.67019650  0.57244300  0.81631475  1
  O  O86  1  0.72269600  0.55470250  0.33021925  1
  O  O87  1  0.05470250  0.77730400  0.16978075  1
  O  O88  1  0.59427450  0.40584800  0.72480375  1
  O  O89  1  0.94583500  0.30038350  0.70399725  1
  O  O90  1  0.07043250  0.17196000  0.31965975  1
  O  O91  1  0.09280400  0.64597750  0.16665125  1
  O  O92  1  0.92755700  0.17019650  0.68368525  1
  O  O93  1  0.00131500  0.56831050  0.55802025  1
  O  O94  1  0.04576300  0.04704650  0.29201525  1
  O  O95  1  0.90584800  0.90572550  0.77519625  1
  O  O96  1  0.92956750  0.82804000  0.31965975  1
  O  O97  1  0.80307750  0.44632200  0.20918175  1
  O  O98  1  0.85402250  0.59280400  0.33334875  1
  O  O99  1  0.17431700  0.26486950  0.08035825  1
  O  O100  1  0.19961650  0.44583500  0.79600275  1
  O  O101  1  0.31331200  0.68596850  0.91925125  1
  O  O102  1  0.40572550  0.59415200  0.72480375  1
  O  O103  1  0.80038350  0.55416500  0.79600275  1
  O  O104  1  0.05416500  0.69961650  0.70399725  1
  O  O105  1  0.93168950  0.50131500  0.94197975  1
  O  O106  1  0.94524450  0.77751100  0.83051775  1
  O  O107  1  0.14757000  0.59669650  0.67175325  1
  O  O108  1  0.54704650  0.45423700  0.20798475  1
  O  O109  1  0.14597750  0.40719600  0.33334875  1
  O  O110  1  0.95423700  0.95295350  0.29201525  1
  O  O111  1  0.94529750  0.22269600  0.16978075  1
  O  O112  1  0.05475550  0.22248900  0.83051775  1
  O  O113  1  0.05367800  0.30307750  0.29081825  1
  O  O114  1  0.81403150  0.81331200  0.58074875  1
  O  O115  1  0.90330350  0.64757000  0.82824675  1
  O  O116  1  0.85243000  0.40330350  0.67175325  1
  O  O117  1  0.67196000  0.42956750  0.18034025  1
  O  O118  1  0.06831050  0.49868500  0.94197975  1
  O  O119  1  0.72248900  0.44524450  0.66948225  1
  O  O120  1  0.32980350  0.42755700  0.81631475  1
  O  O121  1  0.76643300  0.67420850  0.57430125  1
  O  O122  1  0.19692250  0.55367800  0.20918175  1
  O  O123  1  0.23513050  0.67431700  0.41964175  1
  O  O124  1  0.32568300  0.23513050  0.58035825  1
  O  O125  1  0.68596850  0.68668800  0.08074875  1
  O  O126  1  0.44632200  0.19692250  0.79081825  1
  O  O127  1  0.95295350  0.04576300  0.70798475  1
  O  O128  1  0.18668800  0.81403150  0.41925125  1
  O  O129  1  0.59415200  0.59427450  0.27519625  1
  O  O130  1  0.77730400  0.94529750  0.83021925  1
  O  O131  1  0.82804000  0.07043250  0.68034025  1
  O  O132  1  0.77751100  0.05475550  0.16948225  1
  O  O133  1  0.32579150  0.76643300  0.42569875  1
  O  O134  1  0.73356700  0.82579150  0.07430125  1
  O  O135  1  0.67420850  0.23356700  0.42569875  1
  O  O136  1  0.57244300  0.32980350  0.18368525  1
  O  O137  1  0.40719600  0.85402250  0.66665125  1
  O  O138  1  0.59669650  0.85243000  0.32824675  1
  O  O139  1  0.49868500  0.93168950  0.05802025  1
  O  O140  1  0.26486950  0.82568300  0.91964175  1
  O  O141  1  0.17019650  0.07244300  0.31631475  1
  O  O142  1  0.22269600  0.05470250  0.83021925  1
  O  O143  1  0.55470250  0.27730400  0.66978075  1
  O  O144  1  0.09427450  0.90584800  0.22480375  1
  O  O145  1  0.44583500  0.80038350  0.20399725  1
  O  O146  1  0.57043250  0.67196000  0.81965975  1
  O  O147  1  0.59280400  0.14597750  0.66665125  1
  O  O148  1  0.42755700  0.67019650  0.18368525  1
  O  O149  1  0.50131500  0.06831050  0.05802025  1
  O  O150  1  0.54576300  0.54704650  0.79201525  1
  O  O151  1  0.40584800  0.40572550  0.27519625  1
  O  O152  1  0.42956750  0.32804000  0.81965975  1
  O  O153  1  0.30307750  0.94632200  0.70918175  1
  O  O154  1  0.35402250  0.09280400  0.83334875  1
  O  O155  1  0.67431700  0.76486950  0.58035825  1
  O  O156  1  0.69961650  0.94583500  0.29600275  1
  O  O157  1  0.81331200  0.18596850  0.41925125  1
  O  O158  1  0.90572550  0.09415200  0.22480375  1
  O  O159  1  0.30038350  0.05416500  0.29600275  1
  O  O160  1  0.55416500  0.19961650  0.20399725  1
  O  O161  1  0.43168950  0.00131500  0.44197975  1
  O  O162  1  0.44524450  0.27751100  0.33051775  1
  O  O163  1  0.64757000  0.09669650  0.17175325  1
  O  O164  1  0.04704650  0.95423700  0.70798475  1
  O  O165  1  0.64597750  0.90719600  0.83334875  1
  O  O166  1  0.45423700  0.45295350  0.79201525  1
  O  O167  1  0.44529750  0.72269600  0.66978075  1
  O  O168  1  0.55475550  0.72248900  0.33051775  1
  O  O169  1  0.55367800  0.80307750  0.79081825  1
  O  O170  1  0.31403150  0.31331200  0.08074875  1
  O  O171  1  0.40330350  0.14757000  0.32824675  1
  O  O172  1  0.35243000  0.90330350  0.17175325  1
  O  O173  1  0.17196000  0.92956750  0.68034025  1
  O  O174  1  0.56831050  0.99868500  0.44197975  1
  O  O175  1  0.22248900  0.94524450  0.16948225  1
  O  O176  1  0.82980350  0.92755700  0.31631475  1
  O  O177  1  0.26643300  0.17420850  0.07430125  1
  O  O178  1  0.69692250  0.05367800  0.70918175  1
  O  O179  1  0.73513050  0.17431700  0.91964175  1
