# generated using pymatgen
data_V2ZnO6
_symmetry_space_group_name_H-M   'P 1'
_cell_length_a   9.48524200
_cell_length_b   3.55243000
_cell_length_c   6.79462810
_cell_angle_alpha   90.00000000
_cell_angle_beta   108.51815726
_cell_angle_gamma   90.00000000
_symmetry_Int_Tables_number   1
_chemical_formula_structural   V2ZnO6
_chemical_formula_sum   'V4 Zn2 O12'
_cell_volume   217.09516190
_cell_formula_units_Z   2
loop_
 _symmetry_equiv_pos_site_id
 _symmetry_equiv_pos_as_xyz
  1  'x, y, z'
loop_
 _atom_site_type_symbol
 _atom_site_label
 _atom_site_symmetry_multiplicity
 _atom_site_fract_x
 _atom_site_fract_y
 _atom_site_fract_z
 _atom_site_occupancy
  V  V0  1  0.79778700  0.00000000  0.33533500  1
  V  V1  1  0.70221300  0.50000000  0.66466500  1
  V  V2  1  0.29778700  0.50000000  0.33533500  1
  V  V3  1  0.20221300  0.00000000  0.66466500  1
  Zn  Zn4  1  0.00000000  0.00000000  0.00000000  1
  Zn  Zn5  1  0.50000000  0.50000000  0.00000000  1
  O  O6  1  0.95473900  0.00000000  0.26425500  1
  O  O7  1  0.54526100  0.50000000  0.73574500  1
  O  O8  1  0.65125100  0.00000000  0.11383400  1
  O  O9  1  0.84874900  0.50000000  0.88616600  1
  O  O10  1  0.69832700  0.00000000  0.57086900  1
  O  O11  1  0.80167300  0.50000000  0.42913100  1
  O  O12  1  0.45473900  0.50000000  0.26425500  1
  O  O13  1  0.04526100  0.00000000  0.73574500  1
  O  O14  1  0.15125100  0.50000000  0.11383400  1
  O  O15  1  0.34874900  0.00000000  0.88616600  1
  O  O16  1  0.19832700  0.50000000  0.57086900  1
  O  O17  1  0.30167300  0.00000000  0.42913100  1
