# generated using pymatgen
data_FeBi3(MoO6)2
_symmetry_space_group_name_H-M   'P 1'
_cell_length_a   17.13750000
_cell_length_b   11.83387400
_cell_length_c   5.34780073
_cell_angle_alpha   90.00000000
_cell_angle_beta   107.60509269
_cell_angle_gamma   90.00000000
_symmetry_Int_Tables_number   1
_chemical_formula_structural   FeBi3(MoO6)2
_chemical_formula_sum   'Fe4 Bi12 Mo8 O48'
_cell_volume   1033.75389589
_cell_formula_units_Z   4
loop_
 _symmetry_equiv_pos_site_id
 _symmetry_equiv_pos_as_xyz
  1  'x, y, z'
loop_
 _atom_site_type_symbol
 _atom_site_label
 _atom_site_symmetry_multiplicity
 _atom_site_fract_x
 _atom_site_fract_y
 _atom_site_fract_z
 _atom_site_occupancy
  Fe  Fe0  1  0.50000000  0.61809200  0.75000000  1
  Fe  Fe1  1  0.50000000  0.38190800  0.25000000  1
  Fe  Fe2  1  0.00000000  0.11809200  0.75000000  1
  Fe  Fe3  1  0.00000000  0.88190800  0.25000000  1
  Bi  Bi4  1  0.15193450  0.11237750  0.41003400  1
  Bi  Bi5  1  0.50000000  0.15585800  0.75000000  1
  Bi  Bi6  1  0.50000000  0.84414200  0.25000000  1
  Bi  Bi7  1  0.84806550  0.88762250  0.58996600  1
  Bi  Bi8  1  0.15193450  0.88762250  0.91003400  1
  Bi  Bi9  1  0.84806550  0.11237750  0.08996600  1
  Bi  Bi10  1  0.65193450  0.61237750  0.41003400  1
  Bi  Bi11  1  0.00000000  0.65585800  0.75000000  1
  Bi  Bi12  1  0.00000000  0.34414200  0.25000000  1
  Bi  Bi13  1  0.34806550  0.38762250  0.58996600  1
  Bi  Bi14  1  0.65193450  0.38762250  0.91003400  1
  Bi  Bi15  1  0.34806550  0.61237750  0.08996600  1
  Mo  Mo16  1  0.33185400  0.87164800  0.57562100  1
  Mo  Mo17  1  0.33185400  0.12835200  0.07562100  1
  Mo  Mo18  1  0.66814600  0.12835200  0.42437900  1
  Mo  Mo19  1  0.66814600  0.87164800  0.92437900  1
  Mo  Mo20  1  0.83185400  0.37164800  0.57562100  1
  Mo  Mo21  1  0.83185400  0.62835200  0.07562100  1
  Mo  Mo22  1  0.16814600  0.62835200  0.42437900  1
  Mo  Mo23  1  0.16814600  0.37164800  0.92437900  1
  O  O24  1  0.28325850  0.21239550  0.26295800  1
  O  O25  1  0.38423900  0.79051600  0.37691000  1
  O  O26  1  0.91213250  0.04152950  0.49236100  1
  O  O27  1  0.40961250  0.04754250  0.30305400  1
  O  O28  1  0.45019950  0.29671950  0.47065100  1
  O  O29  1  0.61576100  0.79051600  0.12309000  1
  O  O30  1  0.45019950  0.70328050  0.97065100  1
  O  O31  1  0.59038750  0.95245750  0.69694600  1
  O  O32  1  0.71674150  0.78760450  0.73704200  1
  O  O33  1  0.74698650  0.95844150  0.14173500  1
  O  O34  1  0.38423900  0.20948400  0.87691000  1
  O  O35  1  0.71674150  0.21239550  0.23704200  1
  O  O36  1  0.54980050  0.70328050  0.52934900  1
  O  O37  1  0.08786750  0.95847050  0.50763900  1
  O  O38  1  0.25301350  0.04155850  0.85826500  1
  O  O39  1  0.59038750  0.04754250  0.19694600  1
  O  O40  1  0.25301350  0.95844150  0.35826500  1
  O  O41  1  0.61576100  0.20948400  0.62309000  1
  O  O42  1  0.54980050  0.29671950  0.02934900  1
  O  O43  1  0.40961250  0.95245750  0.80305400  1
  O  O44  1  0.28325850  0.78760450  0.76295800  1
  O  O45  1  0.08786750  0.04152950  0.00763900  1
  O  O46  1  0.91213250  0.95847050  0.99236100  1
  O  O47  1  0.74698650  0.04155850  0.64173500  1
  O  O48  1  0.78325850  0.71239550  0.26295800  1
  O  O49  1  0.88423900  0.29051600  0.37691000  1
  O  O50  1  0.41213250  0.54152950  0.49236100  1
  O  O51  1  0.90961250  0.54754250  0.30305400  1
  O  O52  1  0.95019950  0.79671950  0.47065100  1
  O  O53  1  0.11576100  0.29051600  0.12309000  1
  O  O54  1  0.95019950  0.20328050  0.97065100  1
  O  O55  1  0.09038750  0.45245750  0.69694600  1
  O  O56  1  0.21674150  0.28760450  0.73704200  1
  O  O57  1  0.24698650  0.45844150  0.14173500  1
  O  O58  1  0.88423900  0.70948400  0.87691000  1
  O  O59  1  0.21674150  0.71239550  0.23704200  1
  O  O60  1  0.04980050  0.20328050  0.52934900  1
  O  O61  1  0.58786750  0.45847050  0.50763900  1
  O  O62  1  0.75301350  0.54155850  0.85826500  1
  O  O63  1  0.09038750  0.54754250  0.19694600  1
  O  O64  1  0.75301350  0.45844150  0.35826500  1
  O  O65  1  0.11576100  0.70948400  0.62309000  1
  O  O66  1  0.04980050  0.79671950  0.02934900  1
  O  O67  1  0.90961250  0.45245750  0.80305400  1
  O  O68  1  0.78325850  0.28760450  0.76295800  1
  O  O69  1  0.58786750  0.54152950  0.00763900  1
  O  O70  1  0.41213250  0.45847050  0.99236100  1
  O  O71  1  0.24698650  0.54155850  0.64173500  1
