# generated using pymatgen
data_Sm2C3
_symmetry_space_group_name_H-M   'P 1'
_cell_length_a   8.47739000
_cell_length_b   8.47739000
_cell_length_c   8.47739000
_cell_angle_alpha   90.00000000
_cell_angle_beta   90.00000000
_cell_angle_gamma   90.00000000
_symmetry_Int_Tables_number   1
_chemical_formula_structural   Sm2C3
_chemical_formula_sum   'Sm16 C24'
_cell_volume   609.23730685
_cell_formula_units_Z   8
loop_
 _symmetry_equiv_pos_site_id
 _symmetry_equiv_pos_as_xyz
  1  'x, y, z'
loop_
 _atom_site_type_symbol
 _atom_site_label
 _atom_site_symmetry_multiplicity
 _atom_site_fract_x
 _atom_site_fract_y
 _atom_site_fract_z
 _atom_site_occupancy
  Sm  Sm0  1  0.19864100  0.80135900  0.30135900  1
  Sm  Sm1  1  0.30135900  0.19864100  0.80135900  1
  Sm  Sm2  1  0.19864100  0.19864100  0.19864100  1
  Sm  Sm3  1  0.94864100  0.05135900  0.55135900  1
  Sm  Sm4  1  0.80135900  0.30135900  0.19864100  1
  Sm  Sm5  1  0.55135900  0.94864100  0.05135900  1
  Sm  Sm6  1  0.05135900  0.55135900  0.94864100  1
  Sm  Sm7  1  0.44864100  0.44864100  0.44864100  1
  Sm  Sm8  1  0.69864100  0.30135900  0.80135900  1
  Sm  Sm9  1  0.80135900  0.69864100  0.30135900  1
  Sm  Sm10  1  0.69864100  0.69864100  0.69864100  1
  Sm  Sm11  1  0.44864100  0.55135900  0.05135900  1
  Sm  Sm12  1  0.30135900  0.80135900  0.69864100  1
  Sm  Sm13  1  0.05135900  0.44864100  0.55135900  1
  Sm  Sm14  1  0.55135900  0.05135900  0.44864100  1
  Sm  Sm15  1  0.94864100  0.94864100  0.94864100  1
  C  C16  1  0.50000000  0.75000000  0.29638500  1
  C  C17  1  0.75000000  0.29638500  0.50000000  1
  C  C18  1  0.50000000  0.75000000  0.45361500  1
  C  C19  1  0.25000000  0.04638500  0.50000000  1
  C  C20  1  0.50000000  0.25000000  0.04638500  1
  C  C21  1  0.75000000  0.45361500  0.50000000  1
  C  C22  1  0.50000000  0.25000000  0.20361500  1
  C  C23  1  0.45361500  0.50000000  0.75000000  1
  C  C24  1  0.29638500  0.50000000  0.75000000  1
  C  C25  1  0.20361500  0.50000000  0.25000000  1
  C  C26  1  0.25000000  0.20361500  0.50000000  1
  C  C27  1  0.04638500  0.50000000  0.25000000  1
  C  C28  1  0.00000000  0.25000000  0.79638500  1
  C  C29  1  0.25000000  0.79638500  0.00000000  1
  C  C30  1  0.00000000  0.25000000  0.95361500  1
  C  C31  1  0.75000000  0.54638500  0.00000000  1
  C  C32  1  0.00000000  0.75000000  0.54638500  1
  C  C33  1  0.25000000  0.95361500  0.00000000  1
  C  C34  1  0.00000000  0.75000000  0.70361500  1
  C  C35  1  0.95361500  0.00000000  0.25000000  1
  C  C36  1  0.79638500  0.00000000  0.25000000  1
  C  C37  1  0.70361500  0.00000000  0.75000000  1
  C  C38  1  0.75000000  0.70361500  0.00000000  1
  C  C39  1  0.54638500  0.00000000  0.75000000  1
