# generated using pymatgen
data_LiFePO4
_symmetry_space_group_name_H-M   'P 1'
_cell_length_a   5.11225766
_cell_length_b   10.25386101
_cell_length_c   8.57330417
_cell_angle_alpha   90.00000000
_cell_angle_beta   126.43987088
_cell_angle_gamma   90.00000000
_symmetry_Int_Tables_number   1
_chemical_formula_structural   LiFePO4
_chemical_formula_sum   'Li4 Fe4 P4 O16'
_cell_volume   361.54636406
_cell_formula_units_Z   4
loop_
 _symmetry_equiv_pos_site_id
 _symmetry_equiv_pos_as_xyz
  1  'x, y, z'
loop_
 _atom_site_type_symbol
 _atom_site_label
 _atom_site_symmetry_multiplicity
 _atom_site_fract_x
 _atom_site_fract_y
 _atom_site_fract_z
 _atom_site_occupancy
  Li  Li0  1  0.79605150  0.34905600  0.49913900  1
  Li  Li1  1  0.20394850  0.84905600  0.00086100  1
  Li  Li2  1  0.79605150  0.15094400  0.99913900  1
  Li  Li3  1  0.20394850  0.65094400  0.50086100  1
  Fe  Fe4  1  0.29311350  0.15629800  0.49920000  1
  Fe  Fe5  1  0.70688650  0.65629800  0.00080000  1
  Fe  Fe6  1  0.29311350  0.34370200  0.99920000  1
  Fe  Fe7  1  0.70688650  0.84370200  0.50080000  1
  P  P8  1  0.04916250  0.09617400  0.74991700  1
  P  P9  1  0.95083750  0.59617400  0.75008300  1
  P  P10  1  0.04916250  0.40382600  0.24991700  1
  P  P11  1  0.95083750  0.90382600  0.25008300  1
  O  O12  1  0.64864250  0.87617200  0.24786400  1
  O  O13  1  0.35135750  0.37617200  0.25213600  1
  O  O14  1  0.64864250  0.62382800  0.74786400  1
  O  O15  1  0.35135750  0.12382800  0.75213600  1
  O  O16  1  0.89058550  0.65727000  0.56564600  1
  O  O17  1  0.10941450  0.15727000  0.93435400  1
  O  O18  1  0.89058550  0.84273000  0.06564600  1
  O  O19  1  0.10941450  0.34273000  0.43435400  1
  O  O20  1  0.25153750  0.66032500  0.93684200  1
  O  O21  1  0.74846250  0.16032500  0.56315800  1
  O  O22  1  0.25153750  0.83967500  0.43684200  1
  O  O23  1  0.74846250  0.33967500  0.06315800  1
  O  O24  1  0.00856850  0.44725700  0.75055600  1
  O  O25  1  0.99143150  0.94725700  0.74944400  1
  O  O26  1  0.00856850  0.05274300  0.25055600  1
  O  O27  1  0.99143150  0.55274300  0.24944400  1
