# generated using pymatgen
data_NiBiPO5
_symmetry_space_group_name_H-M   'P 1'
_cell_length_a   5.24856333
_cell_length_b   11.31372400
_cell_length_c   7.61028402
_cell_angle_alpha   90.00000000
_cell_angle_beta   113.69854195
_cell_angle_gamma   90.00000000
_symmetry_Int_Tables_number   1
_chemical_formula_structural   NiBiPO5
_chemical_formula_sum   'Ni4 Bi4 P4 O20'
_cell_volume   413.79687891
_cell_formula_units_Z   4
loop_
 _symmetry_equiv_pos_site_id
 _symmetry_equiv_pos_as_xyz
  1  'x, y, z'
loop_
 _atom_site_type_symbol
 _atom_site_label
 _atom_site_symmetry_multiplicity
 _atom_site_fract_x
 _atom_site_fract_y
 _atom_site_fract_z
 _atom_site_occupancy
  Ni  Ni0  1  0.44530200  0.57895200  0.31474100  1
  Ni  Ni1  1  0.55469800  0.07895200  0.18525900  1
  Ni  Ni2  1  0.55469800  0.42104800  0.68525900  1
  Ni  Ni3  1  0.44530200  0.92104800  0.81474100  1
  Bi  Bi4  1  0.07508200  0.89861500  0.18943300  1
  Bi  Bi5  1  0.92491800  0.39861500  0.31056700  1
  Bi  Bi6  1  0.92491800  0.10138500  0.81056700  1
  Bi  Bi7  1  0.07508200  0.60138500  0.68943300  1
  P  P8  1  0.19308100  0.15189200  0.47592600  1
  P  P9  1  0.19308100  0.34810800  0.97592600  1
  P  P10  1  0.80691900  0.84810800  0.52407400  1
  P  P11  1  0.80691900  0.65189200  0.02407400  1
  O  O12  1  0.24214600  0.52516000  0.48491600  1
  O  O13  1  0.75785400  0.02516000  0.01508400  1
  O  O14  1  0.75785400  0.47484000  0.51508400  1
  O  O15  1  0.24214600  0.97484000  0.98491600  1
  O  O16  1  0.32211200  0.27830800  0.51254500  1
  O  O17  1  0.67788800  0.77830800  0.98745500  1
  O  O18  1  0.67788800  0.72169200  0.48745500  1
  O  O19  1  0.32211200  0.22169200  0.01254500  1
  O  O20  1  0.12799000  0.82718000  0.61548100  1
  O  O21  1  0.12799000  0.67282000  0.11548100  1
  O  O22  1  0.87201000  0.17282000  0.38451900  1
  O  O23  1  0.87201000  0.32718000  0.88451900  1
  O  O24  1  0.70873000  0.58153700  0.16090800  1
  O  O25  1  0.70873000  0.91846300  0.66090800  1
  O  O26  1  0.29127000  0.41846300  0.83909200  1
  O  O27  1  0.29127000  0.08153700  0.33909200  1
  O  O28  1  0.27466200  0.08262300  0.66728800  1
  O  O29  1  0.72533800  0.58262300  0.83271200  1
  O  O30  1  0.27466200  0.41737700  0.16728800  1
  O  O31  1  0.72533800  0.91737700  0.33271200  1
