# generated using pymatgen
data_NaMg4V3O12
_symmetry_space_group_name_H-M   'P 1'
_cell_length_a   6.97273000
_cell_length_b   6.97273000
_cell_length_c   19.50791000
_cell_angle_alpha   90.00000000
_cell_angle_beta   90.00000000
_cell_angle_gamma   90.00000000
_symmetry_Int_Tables_number   1
_chemical_formula_structural   NaMg4V3O12
_chemical_formula_sum   'Na4 Mg16 V12 O48'
_cell_volume   948.45436723
_cell_formula_units_Z   4
loop_
 _symmetry_equiv_pos_site_id
 _symmetry_equiv_pos_as_xyz
  1  'x, y, z'
loop_
 _atom_site_type_symbol
 _atom_site_label
 _atom_site_symmetry_multiplicity
 _atom_site_fract_x
 _atom_site_fract_y
 _atom_site_fract_z
 _atom_site_occupancy
  Na  Na0  1  0.50000000  0.00000000  0.25000000  1
  Na  Na1  1  0.50000000  0.50000000  0.00000000  1
  Na  Na2  1  0.00000000  0.50000000  0.75000000  1
  Na  Na3  1  0.00000000  0.00000000  0.50000000  1
  Mg  Mg4  1  0.00000000  0.50000000  0.47573800  1
  Mg  Mg5  1  0.00000000  0.50000000  0.02426200  1
  Mg  Mg6  1  0.50000000  0.50000000  0.27426200  1
  Mg  Mg7  1  0.00000000  0.00000000  0.22573800  1
  Mg  Mg8  1  0.75000000  0.74152000  0.37500000  1
  Mg  Mg9  1  0.24152000  0.75000000  0.12500000  1
  Mg  Mg10  1  0.75848000  0.25000000  0.12500000  1
  Mg  Mg11  1  0.25000000  0.25848000  0.37500000  1
  Mg  Mg12  1  0.50000000  0.00000000  0.97573800  1
  Mg  Mg13  1  0.50000000  0.00000000  0.52426200  1
  Mg  Mg14  1  0.00000000  0.00000000  0.77426200  1
  Mg  Mg15  1  0.50000000  0.50000000  0.72573800  1
  Mg  Mg16  1  0.25000000  0.24152000  0.87500000  1
  Mg  Mg17  1  0.74152000  0.25000000  0.62500000  1
  Mg  Mg18  1  0.25848000  0.75000000  0.62500000  1
  Mg  Mg19  1  0.75000000  0.75848000  0.87500000  1
  V  V20  1  0.00000000  0.50000000  0.25000000  1
  V  V21  1  0.00000000  0.00000000  0.00000000  1
  V  V22  1  0.25000000  0.84852500  0.37500000  1
  V  V23  1  0.34852500  0.25000000  0.12500000  1
  V  V24  1  0.65147500  0.75000000  0.12500000  1
  V  V25  1  0.75000000  0.15147500  0.37500000  1
  V  V26  1  0.50000000  0.00000000  0.75000000  1
  V  V27  1  0.50000000  0.50000000  0.50000000  1
  V  V28  1  0.75000000  0.34852500  0.87500000  1
  V  V29  1  0.84852500  0.75000000  0.62500000  1
  V  V30  1  0.15147500  0.25000000  0.62500000  1
  V  V31  1  0.25000000  0.65147500  0.87500000  1
  O  O32  1  0.79178400  0.55508200  0.29568100  1
  O  O33  1  0.05508200  0.70821600  0.20431900  1
  O  O34  1  0.94491800  0.29178400  0.20431900  1
  O  O35  1  0.29178400  0.44491800  0.45431900  1
  O  O36  1  0.70821600  0.55508200  0.45431900  1
  O  O37  1  0.20821600  0.44491800  0.29568100  1
  O  O38  1  0.94491800  0.20821600  0.04568100  1
  O  O39  1  0.05508200  0.79178400  0.04568100  1
  O  O40  1  0.45841150  0.72810250  0.34807250  1
  O  O41  1  0.22810250  0.04158850  0.15192750  1
  O  O42  1  0.77189750  0.95841150  0.15192750  1
  O  O43  1  0.95841150  0.27189750  0.40192750  1
  O  O44  1  0.04158850  0.72810250  0.40192750  1
  O  O45  1  0.54158850  0.27189750  0.34807250  1
  O  O46  1  0.77189750  0.54158850  0.09807250  1
  O  O47  1  0.22810250  0.45841150  0.09807250  1
  O  O48  1  0.80095350  0.99054150  0.30878650  1
  O  O49  1  0.49054150  0.69904650  0.19121350  1
  O  O50  1  0.50945850  0.30095350  0.19121350  1
  O  O51  1  0.30095350  0.00945850  0.44121350  1
  O  O52  1  0.69904650  0.99054150  0.44121350  1
  O  O53  1  0.19904650  0.00945850  0.30878650  1
  O  O54  1  0.50945850  0.19904650  0.05878650  1
  O  O55  1  0.49054150  0.80095350  0.05878650  1
  O  O56  1  0.29178400  0.05508200  0.79568100  1
  O  O57  1  0.55508200  0.20821600  0.70431900  1
  O  O58  1  0.44491800  0.79178400  0.70431900  1
  O  O59  1  0.79178400  0.94491800  0.95431900  1
  O  O60  1  0.20821600  0.05508200  0.95431900  1
  O  O61  1  0.70821600  0.94491800  0.79568100  1
  O  O62  1  0.44491800  0.70821600  0.54568100  1
  O  O63  1  0.55508200  0.29178400  0.54568100  1
  O  O64  1  0.95841150  0.22810250  0.84807250  1
  O  O65  1  0.72810250  0.54158850  0.65192750  1
  O  O66  1  0.27189750  0.45841150  0.65192750  1
  O  O67  1  0.45841150  0.77189750  0.90192750  1
  O  O68  1  0.54158850  0.22810250  0.90192750  1
  O  O69  1  0.04158850  0.77189750  0.84807250  1
  O  O70  1  0.27189750  0.04158850  0.59807250  1
  O  O71  1  0.72810250  0.95841150  0.59807250  1
  O  O72  1  0.30095350  0.49054150  0.80878650  1
  O  O73  1  0.99054150  0.19904650  0.69121350  1
  O  O74  1  0.00945850  0.80095350  0.69121350  1
  O  O75  1  0.80095350  0.50945850  0.94121350  1
  O  O76  1  0.19904650  0.49054150  0.94121350  1
  O  O77  1  0.69904650  0.50945850  0.80878650  1
  O  O78  1  0.00945850  0.69904650  0.55878650  1
  O  O79  1  0.99054150  0.30095350  0.55878650  1
