# generated using pymatgen
data_Sm3OsO7
_symmetry_space_group_name_H-M   'P 1'
_cell_length_a   7.47983400
_cell_length_b   10.80307000
_cell_length_c   7.54655700
_cell_angle_alpha   90.00000000
_cell_angle_beta   90.00000000
_cell_angle_gamma   90.00000000
_symmetry_Int_Tables_number   1
_chemical_formula_structural   Sm3OsO7
_chemical_formula_sum   'Sm12 Os4 O28'
_cell_volume   609.80082349
_cell_formula_units_Z   4
loop_
 _symmetry_equiv_pos_site_id
 _symmetry_equiv_pos_as_xyz
  1  'x, y, z'
loop_
 _atom_site_type_symbol
 _atom_site_label
 _atom_site_symmetry_multiplicity
 _atom_site_fract_x
 _atom_site_fract_y
 _atom_site_fract_z
 _atom_site_occupancy
  Sm  Sm0  1  0.00000000  0.00000000  0.00000000  1
  Sm  Sm1  1  0.00000000  0.00000000  0.50000000  1
  Sm  Sm2  1  0.70207450  0.77572050  0.75000000  1
  Sm  Sm3  1  0.29792550  0.22427950  0.25000000  1
  Sm  Sm4  1  0.70207450  0.22427950  0.75000000  1
  Sm  Sm5  1  0.29792550  0.77572050  0.25000000  1
  Sm  Sm6  1  0.50000000  0.50000000  0.00000000  1
  Sm  Sm7  1  0.50000000  0.50000000  0.50000000  1
  Sm  Sm8  1  0.20207450  0.27572050  0.75000000  1
  Sm  Sm9  1  0.79792550  0.72427950  0.25000000  1
  Sm  Sm10  1  0.20207450  0.72427950  0.75000000  1
  Sm  Sm11  1  0.79792550  0.27572050  0.25000000  1
  Os  Os12  1  0.50000000  0.00000000  0.00000000  1
  Os  Os13  1  0.50000000  0.00000000  0.50000000  1
  Os  Os14  1  0.00000000  0.50000000  0.00000000  1
  Os  Os15  1  0.00000000  0.50000000  0.50000000  1
  O  O16  1  0.58622800  0.00000000  0.75000000  1
  O  O17  1  0.41377200  0.00000000  0.25000000  1
  O  O18  1  0.47648050  0.36749750  0.75000000  1
  O  O19  1  0.52351950  0.63250250  0.25000000  1
  O  O20  1  0.47648050  0.63250250  0.75000000  1
  O  O21  1  0.52351950  0.36749750  0.25000000  1
  O  O22  1  0.31184200  0.12653600  0.96225400  1
  O  O23  1  0.68815800  0.87346400  0.46225400  1
  O  O24  1  0.31184200  0.87346400  0.96225400  1
  O  O25  1  0.68815800  0.12653600  0.46225400  1
  O  O26  1  0.31184200  0.12653600  0.53774600  1
  O  O27  1  0.68815800  0.87346400  0.03774600  1
  O  O28  1  0.68815800  0.12653600  0.03774600  1
  O  O29  1  0.31184200  0.87346400  0.53774600  1
  O  O30  1  0.08622800  0.50000000  0.75000000  1
  O  O31  1  0.91377200  0.50000000  0.25000000  1
  O  O32  1  0.97648050  0.86749750  0.75000000  1
  O  O33  1  0.02351950  0.13250250  0.25000000  1
  O  O34  1  0.97648050  0.13250250  0.75000000  1
  O  O35  1  0.02351950  0.86749750  0.25000000  1
  O  O36  1  0.81184200  0.62653600  0.96225400  1
  O  O37  1  0.18815800  0.37346400  0.46225400  1
  O  O38  1  0.81184200  0.37346400  0.96225400  1
  O  O39  1  0.18815800  0.62653600  0.46225400  1
  O  O40  1  0.81184200  0.62653600  0.53774600  1
  O  O41  1  0.18815800  0.37346400  0.03774600  1
  O  O42  1  0.18815800  0.62653600  0.03774600  1
  O  O43  1  0.81184200  0.37346400  0.53774600  1
