# generated using pymatgen
data_U3Ni3Sb4
_symmetry_space_group_name_H-M   'P 1'
_cell_length_a   9.38257200
_cell_length_b   9.38257200
_cell_length_c   9.38257200
_cell_angle_alpha   90.00000000
_cell_angle_beta   90.00000000
_cell_angle_gamma   90.00000000
_symmetry_Int_Tables_number   1
_chemical_formula_structural   U3Ni3Sb4
_chemical_formula_sum   'U12 Ni12 Sb16'
_cell_volume   825.97274580
_cell_formula_units_Z   4
loop_
 _symmetry_equiv_pos_site_id
 _symmetry_equiv_pos_as_xyz
  1  'x, y, z'
loop_
 _atom_site_type_symbol
 _atom_site_label
 _atom_site_symmetry_multiplicity
 _atom_site_fract_x
 _atom_site_fract_y
 _atom_site_fract_z
 _atom_site_occupancy
  U  U0  1  0.75000000  0.37500000  0.50000000  1
  U  U1  1  0.25000000  0.12500000  0.50000000  1
  U  U2  1  0.37500000  0.50000000  0.75000000  1
  U  U3  1  0.12500000  0.50000000  0.25000000  1
  U  U4  1  0.50000000  0.75000000  0.37500000  1
  U  U5  1  0.50000000  0.25000000  0.12500000  1
  U  U6  1  0.25000000  0.87500000  0.00000000  1
  U  U7  1  0.75000000  0.62500000  0.00000000  1
  U  U8  1  0.87500000  0.00000000  0.25000000  1
  U  U9  1  0.62500000  0.00000000  0.75000000  1
  U  U10  1  0.00000000  0.25000000  0.87500000  1
  U  U11  1  0.00000000  0.75000000  0.62500000  1
  Ni  Ni12  1  0.25000000  0.37500000  0.00000000  1
  Ni  Ni13  1  0.75000000  0.12500000  0.00000000  1
  Ni  Ni14  1  0.37500000  0.00000000  0.25000000  1
  Ni  Ni15  1  0.12500000  0.00000000  0.75000000  1
  Ni  Ni16  1  0.00000000  0.25000000  0.37500000  1
  Ni  Ni17  1  0.00000000  0.75000000  0.12500000  1
  Ni  Ni18  1  0.75000000  0.87500000  0.50000000  1
  Ni  Ni19  1  0.25000000  0.62500000  0.50000000  1
  Ni  Ni20  1  0.87500000  0.50000000  0.75000000  1
  Ni  Ni21  1  0.62500000  0.50000000  0.25000000  1
  Ni  Ni22  1  0.50000000  0.75000000  0.87500000  1
  Ni  Ni23  1  0.50000000  0.25000000  0.62500000  1
  Sb  Sb24  1  0.91585550  0.08414450  0.58414450  1
  Sb  Sb25  1  0.08414450  0.58414450  0.91585550  1
  Sb  Sb26  1  0.58414450  0.91585550  0.08414450  1
  Sb  Sb27  1  0.41585550  0.41585550  0.41585550  1
  Sb  Sb28  1  0.83414450  0.33414450  0.16585550  1
  Sb  Sb29  1  0.16585550  0.83414450  0.33414450  1
  Sb  Sb30  1  0.33414450  0.16585550  0.83414450  1
  Sb  Sb31  1  0.16585550  0.16585550  0.16585550  1
  Sb  Sb32  1  0.41585550  0.58414450  0.08414450  1
  Sb  Sb33  1  0.58414450  0.08414450  0.41585550  1
  Sb  Sb34  1  0.08414450  0.41585550  0.58414450  1
  Sb  Sb35  1  0.91585550  0.91585550  0.91585550  1
  Sb  Sb36  1  0.33414450  0.83414450  0.66585550  1
  Sb  Sb37  1  0.66585550  0.33414450  0.83414450  1
  Sb  Sb38  1  0.83414450  0.66585550  0.33414450  1
  Sb  Sb39  1  0.66585550  0.66585550  0.66585550  1
