# generated using pymatgen
data_Sr2Cu(BiO3)2
_symmetry_space_group_name_H-M   'P 1'
_cell_length_a   5.52519600
_cell_length_b   25.44462400
_cell_length_c   5.13305200
_cell_angle_alpha   90.00000000
_cell_angle_beta   90.00000000
_cell_angle_gamma   90.00000000
_symmetry_Int_Tables_number   1
_chemical_formula_structural   Sr2Cu(BiO3)2
_chemical_formula_sum   'Sr8 Cu4 Bi8 O24'
_cell_volume   721.63799335
_cell_formula_units_Z   4
loop_
 _symmetry_equiv_pos_site_id
 _symmetry_equiv_pos_as_xyz
  1  'x, y, z'
loop_
 _atom_site_type_symbol
 _atom_site_label
 _atom_site_symmetry_multiplicity
 _atom_site_fract_x
 _atom_site_fract_y
 _atom_site_fract_z
 _atom_site_occupancy
  Sr  Sr0  1  0.75409350  0.17944250  0.00000000  1
  Sr  Sr1  1  0.25409350  0.32055750  0.50000000  1
  Sr  Sr2  1  0.24590650  0.17944250  0.50000000  1
  Sr  Sr3  1  0.74590650  0.32055750  0.00000000  1
  Sr  Sr4  1  0.25409350  0.67944250  0.00000000  1
  Sr  Sr5  1  0.75409350  0.82055750  0.50000000  1
  Sr  Sr6  1  0.74590650  0.67944250  0.50000000  1
  Sr  Sr7  1  0.24590650  0.82055750  0.00000000  1
  Cu  Cu8  1  0.75000000  0.25000000  0.50000000  1
  Cu  Cu9  1  0.25000000  0.25000000  0.00000000  1
  Cu  Cu10  1  0.25000000  0.75000000  0.50000000  1
  Cu  Cu11  1  0.75000000  0.75000000  0.00000000  1
  Bi  Bi12  1  0.72656400  0.06386000  0.50000000  1
  Bi  Bi13  1  0.27343600  0.06386000  0.00000000  1
  Bi  Bi14  1  0.22656400  0.43614000  0.00000000  1
  Bi  Bi15  1  0.77343600  0.43614000  0.50000000  1
  Bi  Bi16  1  0.22656400  0.56386000  0.50000000  1
  Bi  Bi17  1  0.77343600  0.56386000  0.00000000  1
  Bi  Bi18  1  0.72656400  0.93614000  0.00000000  1
  Bi  Bi19  1  0.27343600  0.93614000  0.50000000  1
  O  O20  1  0.00000000  0.25183600  0.75000000  1
  O  O21  1  0.00000000  0.25183600  0.25000000  1
  O  O22  1  0.66477450  0.06550350  0.00000000  1
  O  O23  1  0.76874250  0.14446650  0.50000000  1
  O  O24  1  0.23125750  0.14446650  0.00000000  1
  O  O25  1  0.33522550  0.06550350  0.50000000  1
  O  O26  1  0.73125750  0.35553350  0.50000000  1
  O  O27  1  0.50000000  0.24816400  0.75000000  1
  O  O28  1  0.50000000  0.24816400  0.25000000  1
  O  O29  1  0.16477450  0.43449650  0.50000000  1
  O  O30  1  0.26874250  0.35553350  0.00000000  1
  O  O31  1  0.83522550  0.43449650  0.00000000  1
  O  O32  1  0.50000000  0.75183600  0.75000000  1
  O  O33  1  0.50000000  0.75183600  0.25000000  1
  O  O34  1  0.16477450  0.56550350  0.00000000  1
  O  O35  1  0.26874250  0.64446650  0.50000000  1
  O  O36  1  0.73125750  0.64446650  0.00000000  1
  O  O37  1  0.83522550  0.56550350  0.50000000  1
  O  O38  1  0.23125750  0.85553350  0.50000000  1
  O  O39  1  0.00000000  0.74816400  0.75000000  1
  O  O40  1  0.00000000  0.74816400  0.25000000  1
  O  O41  1  0.66477450  0.93449650  0.50000000  1
  O  O42  1  0.76874250  0.85553350  0.00000000  1
  O  O43  1  0.33522550  0.93449650  0.00000000  1
