# generated using pymatgen
data_Rb2Mo9Se10
_symmetry_space_group_name_H-M   'P 1'
_cell_length_a   9.72864759
_cell_length_b   9.72864759
_cell_length_c   38.63892103
_cell_angle_alpha   90.00000000
_cell_angle_beta   90.00000000
_cell_angle_gamma   120.00000000
_symmetry_Int_Tables_number   1
_chemical_formula_structural   Rb2Mo9Se10
_chemical_formula_sum   'Rb12 Mo54 Se60'
_cell_volume   3167.09117020
_cell_formula_units_Z   6
loop_
 _symmetry_equiv_pos_site_id
 _symmetry_equiv_pos_as_xyz
  1  'x, y, z'
loop_
 _atom_site_type_symbol
 _atom_site_label
 _atom_site_symmetry_multiplicity
 _atom_site_fract_x
 _atom_site_fract_y
 _atom_site_fract_z
 _atom_site_occupancy
  Rb  Rb0  1  0.00000000  0.00000000  0.29520700  1
  Rb  Rb1  1  0.66666667  0.33333333  0.03812633  1
  Rb  Rb2  1  0.33333333  0.66666667  0.09029267  1
  Rb  Rb3  1  0.33333333  0.66666667  0.24304067  1
  Rb  Rb4  1  0.66666667  0.33333333  0.62854033  1
  Rb  Rb5  1  0.33333333  0.66666667  0.37145967  1
  Rb  Rb6  1  0.00000000  0.00000000  0.42362600  1
  Rb  Rb7  1  0.00000000  0.00000000  0.57637400  1
  Rb  Rb8  1  0.33333333  0.66666667  0.96187367  1
  Rb  Rb9  1  0.00000000  0.00000000  0.70479300  1
  Rb  Rb10  1  0.66666667  0.33333333  0.75695933  1
  Rb  Rb11  1  0.66666667  0.33333333  0.90970733  1
  Mo  Mo12  1  0.85409000  0.83316500  0.14724100  1
  Mo  Mo13  1  0.97907500  0.14591000  0.14724100  1
  Mo  Mo14  1  0.16683500  0.02092500  0.14724100  1
  Mo  Mo15  1  0.81257667  0.50016833  0.18609233  1
  Mo  Mo16  1  0.68759167  0.18742333  0.18609233  1
  Mo  Mo17  1  0.49983167  0.31240833  0.18609233  1
  Mo  Mo18  1  0.15039500  0.16708200  0.08763100  1
  Mo  Mo19  1  0.01668700  0.84960500  0.08763100  1
  Mo  Mo20  1  0.83291800  0.98331300  0.08763100  1
  Mo  Mo21  1  0.51627167  0.16625133  0.24570233  1
  Mo  Mo22  1  0.64997967  0.48372833  0.24570233  1
  Mo  Mo23  1  0.83374867  0.35002033  0.24570233  1
  Mo  Mo24  1  0.81459067  0.50007633  0.30365033  1
  Mo  Mo25  1  0.68548567  0.18540933  0.30365033  1
  Mo  Mo26  1  0.49992367  0.31451433  0.30365033  1
  Mo  Mo27  1  0.85207600  0.83325700  0.02968300  1
  Mo  Mo28  1  0.98118100  0.14792400  0.02968300  1
  Mo  Mo29  1  0.16674300  0.01881900  0.02968300  1
  Mo  Mo30  1  0.52075667  0.16649833  0.48057433  1
  Mo  Mo31  1  0.64574167  0.47924333  0.48057433  1
  Mo  Mo32  1  0.83350167  0.35425833  0.48057433  1
  Mo  Mo33  1  0.47924333  0.83350167  0.51942567  1
  Mo  Mo34  1  0.35425833  0.52075667  0.51942567  1
  Mo  Mo35  1  0.16649833  0.64574167  0.51942567  1
  Mo  Mo36  1  0.81706167  0.50041533  0.42096433  1
  Mo  Mo37  1  0.68335367  0.18293833  0.42096433  1
  Mo  Mo38  1  0.49958467  0.31664633  0.42096433  1
  Mo  Mo39  1  0.18293833  0.49958467  0.57903567  1
  Mo  Mo40  1  0.31664633  0.81706167  0.57903567  1
  Mo  Mo41  1  0.50041533  0.68335367  0.57903567  1
  Mo  Mo42  1  0.48125733  0.83340967  0.63698367  1
  Mo  Mo43  1  0.35215233  0.51874267  0.63698367  1
  Mo  Mo44  1  0.16659033  0.64784767  0.63698367  1
  Mo  Mo45  1  0.51874267  0.16659033  0.36301633  1
  Mo  Mo46  1  0.64784767  0.48125733  0.36301633  1
  Mo  Mo47  1  0.83340967  0.35215233  0.36301633  1
  Mo  Mo48  1  0.18742333  0.49983167  0.81390767  1
  Mo  Mo49  1  0.31240833  0.81257667  0.81390767  1
  Mo  Mo50  1  0.50016833  0.68759167  0.81390767  1
  Mo  Mo51  1  0.14591000  0.16683500  0.85275900  1
  Mo  Mo52  1  0.02092500  0.85409000  0.85275900  1
  Mo  Mo53  1  0.83316500  0.97907500  0.85275900  1
  Mo  Mo54  1  0.48372833  0.83374867  0.75429767  1
  Mo  Mo55  1  0.35002033  0.51627167  0.75429767  1
  Mo  Mo56  1  0.16625133  0.64997967  0.75429767  1
  Mo  Mo57  1  0.84960500  0.83291800  0.91236900  1
  Mo  Mo58  1  0.98331300  0.15039500  0.91236900  1
  Mo  Mo59  1  0.16708200  0.01668700  0.91236900  1
  Mo  Mo60  1  0.14792400  0.16674300  0.97031700  1
  Mo  Mo61  1  0.01881900  0.85207600  0.97031700  1
  Mo  Mo62  1  0.83325700  0.98118100  0.97031700  1
  Mo  Mo63  1  0.18540933  0.49992367  0.69634967  1
  Mo  Mo64  1  0.31451433  0.81459067  0.69634967  1
  Mo  Mo65  1  0.50007633  0.68548567  0.69634967  1
  Se  Se66  1  0.00000000  0.00000000  0.19965600  1
  Se  Se67  1  0.66666667  0.33333333  0.13367733  1
  Se  Se68  1  0.29017333  0.32954467  0.14302767  1
  Se  Se69  1  0.03937133  0.70982667  0.14302767  1
  Se  Se70  1  0.67045533  0.96062867  0.14302767  1
  Se  Se71  1  0.37649333  0.00378867  0.19030567  1
  Se  Se72  1  0.62729533  0.62350667  0.19030567  1
  Se  Se73  1  0.99621133  0.37270467  0.19030567  1
  Se  Se74  1  0.95835367  0.65923233  0.24470233  1
  Se  Se75  1  0.70087867  0.04164633  0.24470233  1
  Se  Se76  1  0.34076767  0.29912133  0.24470233  1
  Se  Se77  1  0.70831300  0.67410100  0.08863100  1
  Se  Se78  1  0.96578800  0.29168700  0.08863100  1
  Se  Se79  1  0.32589900  0.03421200  0.08863100  1
  Se  Se80  1  0.99812567  0.37265433  0.30453233  1
  Se  Se81  1  0.37452867  0.00187433  0.30453233  1
  Se  Se82  1  0.62734567  0.62547133  0.30453233  1
  Se  Se83  1  0.66854100  0.96067900  0.02880100  1
  Se  Se84  1  0.29213800  0.33145900  0.02880100  1
  Se  Se85  1  0.03932100  0.70786200  0.02880100  1
  Se  Se86  1  0.66666667  0.33333333  0.53298933  1
  Se  Se87  1  0.33333333  0.66666667  0.46701067  1
  Se  Se88  1  0.95684000  0.66287800  0.47636100  1
  Se  Se89  1  0.70603800  0.04316000  0.47636100  1
  Se  Se90  1  0.33712200  0.29396200  0.47636100  1
  Se  Se91  1  0.04316000  0.33712200  0.52363900  1
  Se  Se92  1  0.29396200  0.95684000  0.52363900  1
  Se  Se93  1  0.66287800  0.70603800  0.52363900  1
  Se  Se94  1  0.62502033  0.99256567  0.57803567  1
  Se  Se95  1  0.36754533  0.37497967  0.57803567  1
  Se  Se96  1  0.00743433  0.63245467  0.57803567  1
  Se  Se97  1  0.37497967  0.00743433  0.42196433  1
  Se  Se98  1  0.63245467  0.62502033  0.42196433  1
  Se  Se99  1  0.99256567  0.36754533  0.42196433  1
  Se  Se100  1  0.66479233  0.70598767  0.63786567  1
  Se  Se101  1  0.04119533  0.33520767  0.63786567  1
  Se  Se102  1  0.29401233  0.95880467  0.63786567  1
  Se  Se103  1  0.33520767  0.29401233  0.36213433  1
  Se  Se104  1  0.95880467  0.66479233  0.36213433  1
  Se  Se105  1  0.70598767  0.04119533  0.36213433  1
  Se  Se106  1  0.33333333  0.66666667  0.86632267  1
  Se  Se107  1  0.00000000  0.00000000  0.80034400  1
  Se  Se108  1  0.62350667  0.99621133  0.80969433  1
  Se  Se109  1  0.37270467  0.37649333  0.80969433  1
  Se  Se110  1  0.00378867  0.62729533  0.80969433  1
  Se  Se111  1  0.70982667  0.67045533  0.85697233  1
  Se  Se112  1  0.96062867  0.29017333  0.85697233  1
  Se  Se113  1  0.32954467  0.03937133  0.85697233  1
  Se  Se114  1  0.29168700  0.32589900  0.91136900  1
  Se  Se115  1  0.03421200  0.70831300  0.91136900  1
  Se  Se116  1  0.67410100  0.96578800  0.91136900  1
  Se  Se117  1  0.04164633  0.34076767  0.75529767  1
  Se  Se118  1  0.29912133  0.95835367  0.75529767  1
  Se  Se119  1  0.65923233  0.70087867  0.75529767  1
  Se  Se120  1  0.33145900  0.03932100  0.97119900  1
  Se  Se121  1  0.70786200  0.66854100  0.97119900  1
  Se  Se122  1  0.96067900  0.29213800  0.97119900  1
  Se  Se123  1  0.00187433  0.62734567  0.69546767  1
  Se  Se124  1  0.62547133  0.99812567  0.69546767  1
  Se  Se125  1  0.37265433  0.37452867  0.69546767  1
