# generated using pymatgen
data_NpV4O12
_symmetry_space_group_name_H-M   'P 1'
_cell_length_a   8.66627200
_cell_length_b   8.66627200
_cell_length_c   29.20596800
_cell_angle_alpha   90.00000000
_cell_angle_beta   90.00000000
_cell_angle_gamma   90.00000000
_symmetry_Int_Tables_number   1
_chemical_formula_structural   NpV4O12
_chemical_formula_sum   'Np8 V32 O96'
_cell_volume   2193.49291732
_cell_formula_units_Z   8
loop_
 _symmetry_equiv_pos_site_id
 _symmetry_equiv_pos_as_xyz
  1  'x, y, z'
loop_
 _atom_site_type_symbol
 _atom_site_label
 _atom_site_symmetry_multiplicity
 _atom_site_fract_x
 _atom_site_fract_y
 _atom_site_fract_z
 _atom_site_occupancy
  Np  Np0  1  0.00000000  0.50000000  0.00000000  1
  Np  Np1  1  0.00000000  0.00000000  0.25000000  1
  Np  Np2  1  0.50000000  0.50000000  0.25000000  1
  Np  Np3  1  0.50000000  0.00000000  0.00000000  1
  Np  Np4  1  0.50000000  0.00000000  0.50000000  1
  Np  Np5  1  0.50000000  0.50000000  0.75000000  1
  Np  Np6  1  0.00000000  0.00000000  0.75000000  1
  Np  Np7  1  0.00000000  0.50000000  0.50000000  1
  V  V8  1  0.85650400  0.35470800  0.32340000  1
  V  V9  1  0.85470800  0.64349600  0.17660000  1
  V  V10  1  0.35650400  0.14529200  0.32340000  1
  V  V11  1  0.64349600  0.85470800  0.32340000  1
  V  V12  1  0.14529200  0.85650400  0.07340000  1
  V  V13  1  0.35650400  0.35470800  0.42660000  1
  V  V14  1  0.64349600  0.64529200  0.42660000  1
  V  V15  1  0.14349600  0.85470800  0.42660000  1
  V  V16  1  0.64529200  0.64349600  0.07340000  1
  V  V17  1  0.14349600  0.64529200  0.32340000  1
  V  V18  1  0.35470800  0.35650400  0.07340000  1
  V  V19  1  0.64529200  0.14349600  0.17660000  1
  V  V20  1  0.85650400  0.14529200  0.42660000  1
  V  V21  1  0.35470800  0.85650400  0.17660000  1
  V  V22  1  0.14529200  0.35650400  0.17660000  1
  V  V23  1  0.85470800  0.14349600  0.07340000  1
  V  V24  1  0.35650400  0.85470800  0.82340000  1
  V  V25  1  0.35470800  0.14349600  0.67660000  1
  V  V26  1  0.85650400  0.64529200  0.82340000  1
  V  V27  1  0.14349600  0.35470800  0.82340000  1
  V  V28  1  0.64529200  0.35650400  0.57340000  1
  V  V29  1  0.85650400  0.85470800  0.92660000  1
  V  V30  1  0.14349600  0.14529200  0.92660000  1
  V  V31  1  0.64349600  0.35470800  0.92660000  1
  V  V32  1  0.14529200  0.14349600  0.57340000  1
  V  V33  1  0.64349600  0.14529200  0.82340000  1
  V  V34  1  0.85470800  0.85650400  0.57340000  1
  V  V35  1  0.14529200  0.64349600  0.67660000  1
  V  V36  1  0.35650400  0.64529200  0.92660000  1
  V  V37  1  0.85470800  0.35650400  0.67660000  1
  V  V38  1  0.64529200  0.85650400  0.67660000  1
  V  V39  1  0.35470800  0.64349600  0.57340000  1
  O  O40  1  0.25000000  0.31059400  0.12500000  1
  O  O41  1  0.50000000  0.50000000  0.41456500  1
  O  O42  1  0.93076750  0.23097050  0.28506750  1
  O  O43  1  0.76902950  0.56923250  0.03506750  1
  O  O44  1  0.93487000  0.30705300  0.05146500  1
  O  O45  1  0.43076750  0.23097050  0.46493250  1
  O  O46  1  0.00000000  0.00000000  0.08543500  1
  O  O47  1  0.06513000  0.19294700  0.19853500  1
  O  O48  1  0.00000000  0.50000000  0.33543500  1
  O  O49  1  0.06513000  0.69294700  0.05146500  1
  O  O50  1  0.76902950  0.06923250  0.21493250  1
  O  O51  1  0.06923250  0.73097050  0.46493250  1
  O  O52  1  0.19294700  0.43487000  0.44853500  1
  O  O53  1  0.93076750  0.26902950  0.46493250  1
  O  O54  1  0.80705300  0.93487000  0.30146500  1
  O  O55  1  0.43076750  0.26902950  0.28506750  1
  O  O56  1  0.00000000  0.00000000  0.41456500  1
  O  O57  1  0.23097050  0.43076750  0.03506750  1
  O  O58  1  0.26902950  0.43076750  0.21493250  1
  O  O59  1  0.75000000  0.18940600  0.12500000  1
  O  O60  1  0.73097050  0.06923250  0.03506750  1
  O  O61  1  0.26902950  0.93076750  0.03506750  1
  O  O62  1  0.93487000  0.80705300  0.19853500  1
  O  O63  1  0.56513000  0.30705300  0.19853500  1
  O  O64  1  0.50000000  0.00000000  0.33543500  1
  O  O65  1  0.43487000  0.19294700  0.05146500  1
  O  O66  1  0.31059400  0.25000000  0.37500000  1
  O  O67  1  0.30705300  0.56513000  0.30146500  1
  O  O68  1  0.69294700  0.43487000  0.30146500  1
  O  O69  1  0.69294700  0.06513000  0.44853500  1
  O  O70  1  0.75000000  0.68940600  0.12500000  1
  O  O71  1  0.50000000  0.00000000  0.16456500  1
  O  O72  1  0.50000000  0.50000000  0.08543500  1
  O  O73  1  0.23097050  0.93076750  0.21493250  1
  O  O74  1  0.06923250  0.76902950  0.28506750  1
  O  O75  1  0.19294700  0.06513000  0.30146500  1
  O  O76  1  0.18940600  0.75000000  0.37500000  1
  O  O77  1  0.73097050  0.56923250  0.21493250  1
  O  O78  1  0.25000000  0.81059400  0.12500000  1
  O  O79  1  0.80705300  0.56513000  0.44853500  1
  O  O80  1  0.30705300  0.93487000  0.44853500  1
  O  O81  1  0.56923250  0.73097050  0.28506750  1
  O  O82  1  0.43487000  0.69294700  0.19853500  1
  O  O83  1  0.56513000  0.80705300  0.05146500  1
  O  O84  1  0.81059400  0.25000000  0.37500000  1
  O  O85  1  0.56923250  0.76902950  0.46493250  1
  O  O86  1  0.68940600  0.75000000  0.37500000  1
  O  O87  1  0.00000000  0.50000000  0.16456500  1
  O  O88  1  0.75000000  0.81059400  0.62500000  1
  O  O89  1  0.00000000  0.00000000  0.91456500  1
  O  O90  1  0.43076750  0.73097050  0.78506750  1
  O  O91  1  0.26902950  0.06923250  0.53506750  1
  O  O92  1  0.43487000  0.80705300  0.55146500  1
  O  O93  1  0.93076750  0.73097050  0.96493250  1
  O  O94  1  0.50000000  0.50000000  0.58543500  1
  O  O95  1  0.56513000  0.69294700  0.69853500  1
  O  O96  1  0.50000000  0.00000000  0.83543500  1
  O  O97  1  0.56513000  0.19294700  0.55146500  1
  O  O98  1  0.26902950  0.56923250  0.71493250  1
  O  O99  1  0.56923250  0.23097050  0.96493250  1
  O  O100  1  0.69294700  0.93487000  0.94853500  1
  O  O101  1  0.43076750  0.76902950  0.96493250  1
  O  O102  1  0.30705300  0.43487000  0.80146500  1
  O  O103  1  0.93076750  0.76902950  0.78506750  1
  O  O104  1  0.50000000  0.50000000  0.91456500  1
  O  O105  1  0.73097050  0.93076750  0.53506750  1
  O  O106  1  0.76902950  0.93076750  0.71493250  1
  O  O107  1  0.25000000  0.68940600  0.62500000  1
  O  O108  1  0.23097050  0.56923250  0.53506750  1
  O  O109  1  0.76902950  0.43076750  0.53506750  1
  O  O110  1  0.43487000  0.30705300  0.69853500  1
  O  O111  1  0.06513000  0.80705300  0.69853500  1
  O  O112  1  0.00000000  0.50000000  0.83543500  1
  O  O113  1  0.93487000  0.69294700  0.55146500  1
  O  O114  1  0.81059400  0.75000000  0.87500000  1
  O  O115  1  0.80705300  0.06513000  0.80146500  1
  O  O116  1  0.19294700  0.93487000  0.80146500  1
  O  O117  1  0.19294700  0.56513000  0.94853500  1
  O  O118  1  0.25000000  0.18940600  0.62500000  1
  O  O119  1  0.00000000  0.50000000  0.66456500  1
  O  O120  1  0.00000000  0.00000000  0.58543500  1
  O  O121  1  0.73097050  0.43076750  0.71493250  1
  O  O122  1  0.56923250  0.26902950  0.78506750  1
  O  O123  1  0.69294700  0.56513000  0.80146500  1
  O  O124  1  0.68940600  0.25000000  0.87500000  1
  O  O125  1  0.23097050  0.06923250  0.71493250  1
  O  O126  1  0.75000000  0.31059400  0.62500000  1
  O  O127  1  0.30705300  0.06513000  0.94853500  1
  O  O128  1  0.80705300  0.43487000  0.94853500  1
  O  O129  1  0.06923250  0.23097050  0.78506750  1
  O  O130  1  0.93487000  0.19294700  0.69853500  1
  O  O131  1  0.06513000  0.30705300  0.55146500  1
  O  O132  1  0.31059400  0.75000000  0.87500000  1
  O  O133  1  0.06923250  0.26902950  0.96493250  1
  O  O134  1  0.18940600  0.25000000  0.87500000  1
  O  O135  1  0.50000000  0.00000000  0.66456500  1
