# generated using pymatgen
data_MnFeH4O2F5
_symmetry_space_group_name_H-M   'P 1'
_cell_length_a   6.67308749
_cell_length_b   7.67688404
_cell_length_c   11.13155351
_cell_angle_alpha   90.00000000
_cell_angle_beta   90.00000000
_cell_angle_gamma   90.00000000
_symmetry_Int_Tables_number   1
_chemical_formula_structural   MnFeH4O2F5
_chemical_formula_sum   'Mn4 Fe4 H16 O8 F20'
_cell_volume   570.25299904
_cell_formula_units_Z   4
loop_
 _symmetry_equiv_pos_site_id
 _symmetry_equiv_pos_as_xyz
  1  'x, y, z'
loop_
 _atom_site_type_symbol
 _atom_site_label
 _atom_site_symmetry_multiplicity
 _atom_site_fract_x
 _atom_site_fract_y
 _atom_site_fract_z
 _atom_site_occupancy
  Mn  Mn0  1  0.50000000  0.50000000  0.50000000  1
  Mn  Mn1  1  0.50000000  0.50000000  0.00000000  1
  Mn  Mn2  1  0.00000000  0.00000000  0.00000000  1
  Mn  Mn3  1  0.00000000  0.00000000  0.50000000  1
  Fe  Fe4  1  0.25000000  0.75000000  0.75000000  1
  Fe  Fe5  1  0.75000000  0.75000000  0.25000000  1
  Fe  Fe6  1  0.75000000  0.25000000  0.25000000  1
  Fe  Fe7  1  0.25000000  0.25000000  0.75000000  1
  H  H8  1  0.61575850  0.89797000  0.90911250  1
  H  H9  1  0.11575850  0.60203000  0.09088750  1
  H  H10  1  0.38424150  0.89797000  0.09088750  1
  H  H11  1  0.88424150  0.60203000  0.90911250  1
  H  H12  1  0.38424150  0.10203000  0.09088750  1
  H  H13  1  0.88424150  0.39797000  0.90911250  1
  H  H14  1  0.61575850  0.10203000  0.90911250  1
  H  H15  1  0.11575850  0.39797000  0.09088750  1
  H  H16  1  0.11575850  0.39797000  0.40911250  1
  H  H17  1  0.61575850  0.10203000  0.59088750  1
  H  H18  1  0.88424150  0.39797000  0.59088750  1
  H  H19  1  0.38424150  0.10203000  0.40911250  1
  H  H20  1  0.88424150  0.60203000  0.59088750  1
  H  H21  1  0.38424150  0.89797000  0.40911250  1
  H  H22  1  0.11575850  0.60203000  0.40911250  1
  H  H23  1  0.61575850  0.89797000  0.59088750  1
  O  O24  1  0.19623450  0.50000000  0.43097050  1
  O  O25  1  0.19623450  0.50000000  0.06902950  1
  O  O26  1  0.80376550  0.50000000  0.56902950  1
  O  O27  1  0.80376550  0.50000000  0.93097050  1
  O  O28  1  0.69623450  0.00000000  0.93097050  1
  O  O29  1  0.69623450  0.00000000  0.56902950  1
  O  O30  1  0.30376550  0.00000000  0.06902950  1
  O  O31  1  0.30376550  0.00000000  0.43097050  1
  F  F32  1  0.82087100  0.50000000  0.25000000  1
  F  F33  1  0.17912900  0.50000000  0.75000000  1
  F  F34  1  0.44964500  0.71079450  0.87565900  1
  F  F35  1  0.94964500  0.78920550  0.12434100  1
  F  F36  1  0.55035500  0.71079450  0.12434100  1
  F  F37  1  0.05035500  0.78920550  0.87565900  1
  F  F38  1  0.55035500  0.28920550  0.12434100  1
  F  F39  1  0.05035500  0.21079450  0.87565900  1
  F  F40  1  0.44964500  0.28920550  0.87565900  1
  F  F41  1  0.94964500  0.21079450  0.12434100  1
  F  F42  1  0.32087100  0.00000000  0.75000000  1
  F  F43  1  0.67912900  0.00000000  0.25000000  1
  F  F44  1  0.94964500  0.21079450  0.37565900  1
  F  F45  1  0.44964500  0.28920550  0.62434100  1
  F  F46  1  0.05035500  0.21079450  0.62434100  1
  F  F47  1  0.55035500  0.28920550  0.37565900  1
  F  F48  1  0.05035500  0.78920550  0.62434100  1
  F  F49  1  0.55035500  0.71079450  0.37565900  1
  F  F50  1  0.94964500  0.78920550  0.37565900  1
  F  F51  1  0.44964500  0.71079450  0.62434100  1
