# generated using pymatgen
data_Li2Mo4O13
_symmetry_space_group_name_H-M   'P 1'
_cell_length_a   8.39412047
_cell_length_b   8.76748376
_cell_length_c   11.86346480
_cell_angle_alpha   110.95214466
_cell_angle_beta   94.44961563
_cell_angle_gamma   96.32477593
_symmetry_Int_Tables_number   1
_chemical_formula_structural   Li2Mo4O13
_chemical_formula_sum   'Li6 Mo12 O39'
_cell_volume   803.94176994
_cell_formula_units_Z   3
loop_
 _symmetry_equiv_pos_site_id
 _symmetry_equiv_pos_as_xyz
  1  'x, y, z'
loop_
 _atom_site_type_symbol
 _atom_site_label
 _atom_site_symmetry_multiplicity
 _atom_site_fract_x
 _atom_site_fract_y
 _atom_site_fract_z
 _atom_site_occupancy
  Li  Li0  1  0.69212368  0.66175031  0.37489262  1
  Li  Li1  1  0.30787632  0.33824969  0.62510738  1
  Li  Li2  1  0.70639243  0.48702849  0.98934111  1
  Li  Li3  1  0.29360757  0.51297151  0.01065889  1
  Li  Li4  1  0.89644194  0.38312785  0.62951812  1
  Li  Li5  1  0.10355806  0.61687215  0.37048188  1
  Mo  Mo6  1  0.02829874  0.80078900  0.03638230  1
  Mo  Mo7  1  0.97170126  0.19921100  0.96361770  1
  Mo  Mo8  1  0.63389122  0.81961340  0.03504183  1
  Mo  Mo9  1  0.36610878  0.18038660  0.96495817  1
  Mo  Mo10  1  0.77327334  0.31178463  0.36568610  1
  Mo  Mo11  1  0.22672666  0.68821537  0.63431390  1
  Mo  Mo12  1  0.37874535  0.33350404  0.36310887  1
  Mo  Mo13  1  0.62125465  0.66649596  0.63689113  1
  Mo  Mo14  1  0.58414320  0.03516615  0.63663783  1
  Mo  Mo15  1  0.41585680  0.96483385  0.36336217  1
  Mo  Mo16  1  0.97264648  0.01861245  0.63528385  1
  Mo  Mo17  1  0.02735352  0.98138755  0.36471615  1
  O  O18  1  0.93616592  0.27274480  0.80520667  1
  O  O19  1  0.06383408  0.72725520  0.19479333  1
  O  O20  1  0.98149621  0.91744657  0.79060404  1
  O  O21  1  0.01850379  0.08255343  0.20939596  1
  O  O22  1  0.88917465  0.81363486  0.38067200  1
  O  O23  1  0.11082535  0.18636514  0.61932800  1
  O  O24  1  0.50000000  0.00000000  0.00000000  1
  O  O25  1  0.49284248  0.67948876  0.99638153  1
  O  O26  1  0.50715752  0.32051124  0.00361847  1
  O  O27  1  0.40285478  0.57162218  0.61631170  1
  O  O28  1  0.59714522  0.42837782  0.38368830  1
  O  O29  1  0.43896964  0.86539074  0.60130155  1
  O  O30  1  0.56103036  0.13460926  0.39869845  1
  O  O31  1  0.45269476  0.20160550  0.58084354  1
  O  O32  1  0.54730524  0.79839450  0.41915646  1
  O  O33  1  0.39360998  0.02846614  0.20714256  1
  O  O34  1  0.60639002  0.97153386  0.79285744  1
  O  O35  1  0.34113231  0.41622874  0.20621837  1
  O  O36  1  0.65886769  0.58377126  0.79378163  1
  O  O37  1  0.34482076  0.25494389  0.80727284  1
  O  O38  1  0.65517924  0.74505611  0.19272716  1
  O  O39  1  0.24090448  0.62993905  0.78911254  1
  O  O40  1  0.75909552  0.37006095  0.21088746  1
  O  O41  1  0.21441696  0.82846060  0.40767955  1
  O  O42  1  0.78558304  0.17153940  0.59232045  1
  O  O43  1  0.25872573  0.12093076  0.38948874  1
  O  O44  1  0.74127427  0.87906924  0.61051126  1
  O  O45  1  0.26676425  0.44704640  0.41364825  1
  O  O46  1  0.73323575  0.55295360  0.58635175  1
  O  O47  1  0.15171437  0.00984193  0.99156225  1
  O  O48  1  0.84828563  0.99015807  0.00843775  1
  O  O49  1  0.18926978  0.29164536  0.99354675  1
  O  O50  1  0.81073022  0.70835464  0.00645325  1
  O  O51  1  0.13708657  0.67436071  0.99775662  1
  O  O52  1  0.86291343  0.32563929  0.00224338  1
  O  O53  1  0.08367303  0.54851799  0.59684482  1
  O  O54  1  0.91632697  0.45148201  0.40315518  1
  O  O55  1  0.08748378  0.88131015  0.58192554  1
  O  O56  1  0.91251622  0.11868985  0.41807446  1
