# generated using pymatgen
data_LiCoPO4
_symmetry_space_group_name_H-M   'P 1'
_cell_length_a   5.03629500
_cell_length_b   6.80037500
_cell_length_c   10.19458800
_cell_angle_alpha   90.00000000
_cell_angle_beta   90.00000000
_cell_angle_gamma   90.00000000
_symmetry_Int_Tables_number   1
_chemical_formula_structural   LiCoPO4
_chemical_formula_sum   'Li4 Co4 P4 O16'
_cell_volume   349.15133139
_cell_formula_units_Z   4
loop_
 _symmetry_equiv_pos_site_id
 _symmetry_equiv_pos_as_xyz
  1  'x, y, z'
loop_
 _atom_site_type_symbol
 _atom_site_label
 _atom_site_symmetry_multiplicity
 _atom_site_fract_x
 _atom_site_fract_y
 _atom_site_fract_z
 _atom_site_occupancy
  Li  Li0  1  0.68720850  0.78709600  0.65408000  1
  Li  Li1  1  0.18720850  0.28709600  0.84592000  1
  Li  Li2  1  0.31279150  0.28709600  0.34592000  1
  Li  Li3  1  0.81279150  0.78709600  0.15408000  1
  Co  Co4  1  0.18682150  0.78455300  0.84527900  1
  Co  Co5  1  0.68682150  0.28455300  0.65472100  1
  Co  Co6  1  0.81317850  0.28455300  0.15472100  1
  Co  Co7  1  0.31317850  0.78455300  0.34527900  1
  P  P8  1  0.18465650  0.53752200  0.59510500  1
  P  P9  1  0.68465650  0.03752200  0.90489500  1
  P  P10  1  0.31534350  0.53752200  0.09510500  1
  P  P11  1  0.81534350  0.03752200  0.40489500  1
  O  O12  1  0.19955850  0.72547100  0.16109600  1
  O  O13  1  0.30044150  0.72547100  0.66109600  1
  O  O14  1  0.80044150  0.22547100  0.83890400  1
  O  O15  1  0.69955850  0.22547100  0.33890400  1
  O  O16  1  0.25585050  0.53938300  0.44690700  1
  O  O17  1  0.24414950  0.53938300  0.94690700  1
  O  O18  1  0.75585050  0.03938300  0.05309300  1
  O  O19  1  0.74414950  0.03938300  0.55309300  1
  O  O20  1  0.69827050  0.84941300  0.33955200  1
  O  O21  1  0.19827050  0.34941300  0.16044800  1
  O  O22  1  0.80172950  0.84941300  0.83955200  1
  O  O23  1  0.30172950  0.34941300  0.66044800  1
  O  O24  1  0.12136250  0.03477500  0.38317000  1
  O  O25  1  0.37863750  0.03477500  0.88317000  1
  O  O26  1  0.62136250  0.53477500  0.11683000  1
  O  O27  1  0.87863750  0.53477500  0.61683000  1
