# generated using pymatgen
data_Li2Mo(PO4)2
_symmetry_space_group_name_H-M   'P 1'
_cell_length_a   9.36629400
_cell_length_b   4.72215800
_cell_length_c   13.93132837
_cell_angle_alpha   90.00000000
_cell_angle_beta   97.44731980
_cell_angle_gamma   90.00000000
_symmetry_Int_Tables_number   1
_chemical_formula_structural   Li2Mo(PO4)2
_chemical_formula_sum   'Li8 Mo4 P8 O32'
_cell_volume   610.97266212
_cell_formula_units_Z   4
loop_
 _symmetry_equiv_pos_site_id
 _symmetry_equiv_pos_as_xyz
  1  'x, y, z'
loop_
 _atom_site_type_symbol
 _atom_site_label
 _atom_site_symmetry_multiplicity
 _atom_site_fract_x
 _atom_site_fract_y
 _atom_site_fract_z
 _atom_site_occupancy
  Li  Li0  1  0.67991000  0.96888200  0.66472800  1
  Li  Li1  1  0.67991000  0.03111800  0.16472800  1
  Li  Li2  1  0.99646900  0.92995600  0.75837300  1
  Li  Li3  1  0.99646900  0.07004400  0.25837300  1
  Li  Li4  1  0.17991000  0.46888200  0.66472800  1
  Li  Li5  1  0.17991000  0.53111800  0.16472800  1
  Li  Li6  1  0.49646900  0.42995600  0.75837300  1
  Li  Li7  1  0.49646900  0.57004400  0.25837300  1
  Mo  Mo8  1  0.50084200  0.50023800  0.99769600  1
  Mo  Mo9  1  0.50084200  0.49976200  0.49769600  1
  Mo  Mo10  1  0.00084200  0.00023800  0.99769600  1
  Mo  Mo11  1  0.00084200  0.99976200  0.49769600  1
  P  P12  1  0.66004000  0.97130800  0.88172700  1
  P  P13  1  0.66004000  0.02869200  0.38172700  1
  P  P14  1  0.84046350  0.48643650  0.61427800  1
  P  P15  1  0.84046350  0.51356350  0.11427800  1
  P  P16  1  0.16004000  0.47130800  0.88172700  1
  P  P17  1  0.16004000  0.52869200  0.38172700  1
  P  P18  1  0.34046350  0.98643650  0.61427800  1
  P  P19  1  0.34046350  0.01356350  0.11427800  1
  O  O20  1  0.61272700  0.15885600  0.96488300  1
  O  O21  1  0.68853500  0.65123200  0.08467100  1
  O  O22  1  0.81781900  0.87765200  0.91165700  1
  O  O23  1  0.68853500  0.34876800  0.58467100  1
  O  O24  1  0.83506900  0.32043500  0.20054800  1
  O  O25  1  0.56427250  0.30505950  0.37778700  1
  O  O26  1  0.88638500  0.33751300  0.02860600  1
  O  O27  1  0.95085600  0.76879800  0.12799200  1
  O  O28  1  0.81781900  0.12234800  0.41165700  1
  O  O29  1  0.63770700  0.88210100  0.28437900  1
  O  O30  1  0.88638500  0.66248700  0.52860600  1
  O  O31  1  0.63770700  0.11789900  0.78437900  1
  O  O32  1  0.95085600  0.23120200  0.62799200  1
  O  O33  1  0.56427250  0.69494050  0.87778700  1
  O  O34  1  0.83506900  0.67956500  0.70054800  1
  O  O35  1  0.61272700  0.84114400  0.46488300  1
  O  O36  1  0.11272700  0.65885600  0.96488300  1
  O  O37  1  0.18853500  0.15123200  0.08467100  1
  O  O38  1  0.31781900  0.37765200  0.91165700  1
  O  O39  1  0.18853500  0.84876800  0.58467100  1
  O  O40  1  0.33506900  0.82043500  0.20054800  1
  O  O41  1  0.06427250  0.80505950  0.37778700  1
  O  O42  1  0.38638500  0.83751300  0.02860600  1
  O  O43  1  0.45085600  0.26879800  0.12799200  1
  O  O44  1  0.31781900  0.62234800  0.41165700  1
  O  O45  1  0.13770700  0.38210100  0.28437900  1
  O  O46  1  0.38638500  0.16248700  0.52860600  1
  O  O47  1  0.13770700  0.61789900  0.78437900  1
  O  O48  1  0.45085600  0.73120200  0.62799200  1
  O  O49  1  0.06427250  0.19494050  0.87778700  1
  O  O50  1  0.33506900  0.17956500  0.70054800  1
  O  O51  1  0.11272700  0.34114400  0.46488300  1
