# generated using pymatgen
data_BaMo(PO4)2
_symmetry_space_group_name_H-M   'P 1'
_cell_length_a   8.38964200
_cell_length_b   5.36011400
_cell_length_c   7.98541635
_cell_angle_alpha   90.00000000
_cell_angle_beta   94.42251470
_cell_angle_gamma   90.00000000
_symmetry_Int_Tables_number   1
_chemical_formula_structural   BaMo(PO4)2
_chemical_formula_sum   'Ba2 Mo2 P4 O16'
_cell_volume   358.03047269
_cell_formula_units_Z   2
loop_
 _symmetry_equiv_pos_site_id
 _symmetry_equiv_pos_as_xyz
  1  'x, y, z'
loop_
 _atom_site_type_symbol
 _atom_site_label
 _atom_site_symmetry_multiplicity
 _atom_site_fract_x
 _atom_site_fract_y
 _atom_site_fract_z
 _atom_site_occupancy
  Ba  Ba0  1  0.00000000  0.00000000  0.00000000  1
  Ba  Ba1  1  0.50000000  0.50000000  0.00000000  1
  Mo  Mo2  1  0.00000000  0.00000000  0.50000000  1
  Mo  Mo3  1  0.50000000  0.50000000  0.50000000  1
  P  P4  1  0.63229300  0.00000000  0.28834100  1
  P  P5  1  0.36770700  0.00000000  0.71165900  1
  P  P6  1  0.13229300  0.50000000  0.28834100  1
  P  P7  1  0.86770700  0.50000000  0.71165900  1
  O  O8  1  0.47142400  0.23809700  0.68932500  1
  O  O9  1  0.31117600  0.00000000  0.88847500  1
  O  O10  1  0.52857600  0.76190300  0.31067500  1
  O  O11  1  0.76597200  0.00000000  0.43463500  1
  O  O12  1  0.23402800  0.00000000  0.56536500  1
  O  O13  1  0.52857600  0.23809700  0.31067500  1
  O  O14  1  0.68882400  0.00000000  0.11152500  1
  O  O15  1  0.47142400  0.76190300  0.68932500  1
  O  O16  1  0.97142400  0.73809700  0.68932500  1
  O  O17  1  0.81117600  0.50000000  0.88847500  1
  O  O18  1  0.02857600  0.26190300  0.31067500  1
  O  O19  1  0.26597200  0.50000000  0.43463500  1
  O  O20  1  0.73402800  0.50000000  0.56536500  1
  O  O21  1  0.02857600  0.73809700  0.31067500  1
  O  O22  1  0.18882400  0.50000000  0.11152500  1
  O  O23  1  0.97142400  0.26190300  0.68932500  1
