# generated using pymatgen
data_Bi2Mo2O9
_symmetry_space_group_name_H-M   'P 1'
_cell_length_a   12.02915900
_cell_length_b   10.98605400
_cell_length_c   17.07636736
_cell_angle_alpha   90.00000000
_cell_angle_beta   134.51919118
_cell_angle_gamma   90.00000000
_symmetry_Int_Tables_number   1
_chemical_formula_structural   Bi2Mo2O9
_chemical_formula_sum   'Bi16 Mo16 O72'
_cell_volume   1609.05741119
_cell_formula_units_Z   8
loop_
 _symmetry_equiv_pos_site_id
 _symmetry_equiv_pos_as_xyz
  1  'x, y, z'
loop_
 _atom_site_type_symbol
 _atom_site_label
 _atom_site_symmetry_multiplicity
 _atom_site_fract_x
 _atom_site_fract_y
 _atom_site_fract_z
 _atom_site_occupancy
  Bi  Bi0  1  0.84706700  0.12375000  0.60453000  1
  Bi  Bi1  1  0.83941200  0.37746900  0.75232000  1
  Bi  Bi2  1  0.16058800  0.62253100  0.24768000  1
  Bi  Bi3  1  0.50145800  0.62400200  0.24315600  1
  Bi  Bi4  1  0.14234300  0.12044200  0.89990200  1
  Bi  Bi5  1  0.49854200  0.37599800  0.75684400  1
  Bi  Bi6  1  0.83941200  0.12253100  0.25232000  1
  Bi  Bi7  1  0.50145800  0.87599800  0.74315600  1
  Bi  Bi8  1  0.84706700  0.37625000  0.10453000  1
  Bi  Bi9  1  0.85765700  0.87955800  0.10009800  1
  Bi  Bi10  1  0.85765700  0.62044200  0.60009800  1
  Bi  Bi11  1  0.16058800  0.87746900  0.74768000  1
  Bi  Bi12  1  0.15293300  0.87625000  0.39547000  1
  Bi  Bi13  1  0.14234300  0.37955800  0.39990200  1
  Bi  Bi14  1  0.15293300  0.62375000  0.89547000  1
  Bi  Bi15  1  0.49854200  0.12400200  0.25684400  1
  Mo  Mo16  1  0.83607300  0.86988200  0.42049500  1
  Mo  Mo17  1  0.82761200  0.37756300  0.41654200  1
  Mo  Mo18  1  0.49424300  0.62467200  0.57785100  1
  Mo  Mo19  1  0.50575700  0.37532800  0.42214900  1
  Mo  Mo20  1  0.17238800  0.62243700  0.58345800  1
  Mo  Mo21  1  0.50801800  0.37223300  0.09021800  1
  Mo  Mo22  1  0.16392700  0.36988200  0.07950500  1
  Mo  Mo23  1  0.49198200  0.87223300  0.40978200  1
  Mo  Mo24  1  0.50801800  0.12776700  0.59021800  1
  Mo  Mo25  1  0.50575700  0.12467200  0.92214900  1
  Mo  Mo26  1  0.82761200  0.12243700  0.91654200  1
  Mo  Mo27  1  0.49424300  0.87532800  0.07785100  1
  Mo  Mo28  1  0.83607300  0.63011800  0.92049500  1
  Mo  Mo29  1  0.49198200  0.62776700  0.90978200  1
  Mo  Mo30  1  0.16392700  0.13011800  0.57950500  1
  Mo  Mo31  1  0.17238800  0.87756300  0.08345800  1
  O  O32  1  0.02654300  0.00788700  0.75229600  1
  O  O33  1  0.40145800  0.75522100  0.30452900  1
  O  O34  1  0.36264100  0.20415500  0.46427500  1
  O  O35  1  0.04117200  0.18456300  0.59491700  1
  O  O36  1  0.92852300  0.45514700  0.54321600  1
  O  O37  1  0.27513000  0.49197700  0.17790600  1
  O  O38  1  0.95882800  0.68456300  0.90508300  1
  O  O39  1  0.07147700  0.54485300  0.45678400  1
  O  O40  1  0.59854200  0.24477900  0.69547100  1
  O  O41  1  0.03049300  0.73732600  0.74682900  1
  O  O42  1  0.34991000  0.05566900  0.90130500  1
  O  O43  1  0.41876600  0.99538600  0.10121200  1
  O  O44  1  0.65888900  0.06600800  0.60219800  1
  O  O45  1  0.42134900  0.25828100  0.32145100  1
  O  O46  1  0.36264100  0.29584500  0.96427500  1
  O  O47  1  0.59146700  0.50519600  0.90583300  1
  O  O48  1  0.71876400  0.25525200  0.40832400  1
  O  O49  1  0.65009000  0.55566900  0.59869500  1
  O  O50  1  0.40853300  0.49480400  0.09416700  1
  O  O51  1  0.94236800  0.93310400  0.55685700  1
  O  O52  1  0.28572600  0.25247000  0.60275900  1
  O  O53  1  0.96950700  0.23732600  0.75317100  1
  O  O54  1  0.63735900  0.70415500  0.03572500  1
  O  O55  1  0.28123600  0.74474800  0.59167600  1
  O  O56  1  0.04117200  0.31543700  0.09491700  1
  O  O57  1  0.95390200  0.19075200  0.90450900  1
  O  O58  1  0.29512400  0.98737600  0.19184300  1
  O  O59  1  0.32749600  0.68628100  0.44080100  1
  O  O60  1  0.40145800  0.74477900  0.80452900  1
  O  O61  1  0.29512400  0.51262400  0.69184300  1
  O  O62  1  0.28572600  0.24753000  0.10275900  1
  O  O63  1  0.63735900  0.79584500  0.53572500  1
  O  O64  1  0.27513000  0.00802300  0.67790600  1
  O  O65  1  0.95882800  0.81543700  0.40508300  1
  O  O66  1  0.41876600  0.50461400  0.60121200  1
  O  O67  1  0.07147700  0.95514700  0.95678400  1
  O  O68  1  0.58123400  0.00461400  0.89878800  1
  O  O69  1  0.02654300  0.49211300  0.25229600  1
  O  O70  1  0.04609800  0.69075200  0.59549100  1
  O  O71  1  0.34991000  0.44433100  0.40130500  1
  O  O72  1  0.40853300  0.00519600  0.59416700  1
  O  O73  1  0.70487600  0.01262400  0.80815700  1
  O  O74  1  0.42134900  0.24171900  0.82145100  1
  O  O75  1  0.71427400  0.75247000  0.89724100  1
  O  O76  1  0.95390200  0.30924800  0.40450900  1
  O  O77  1  0.32749600  0.81371900  0.94080100  1
  O  O78  1  0.57865100  0.75828100  0.17854900  1
  O  O79  1  0.96950700  0.26267400  0.25317100  1
  O  O80  1  0.71876400  0.24474800  0.90832400  1
  O  O81  1  0.67250400  0.31371900  0.55919900  1
  O  O82  1  0.57865100  0.74171900  0.67854900  1
  O  O83  1  0.34111100  0.56600800  0.89780200  1
  O  O84  1  0.59146700  0.99480400  0.40583300  1
  O  O85  1  0.94236800  0.56689600  0.05685700  1
  O  O86  1  0.65888900  0.43399200  0.10219800  1
  O  O87  1  0.03049300  0.76267400  0.24682900  1
  O  O88  1  0.34111100  0.93399200  0.39780200  1
  O  O89  1  0.92852300  0.04485300  0.04321600  1
  O  O90  1  0.65009000  0.94433100  0.09869500  1
  O  O91  1  0.58123400  0.49538600  0.39878800  1
  O  O92  1  0.97345700  0.99211300  0.24770400  1
  O  O93  1  0.70487600  0.48737600  0.30815700  1
  O  O94  1  0.71427400  0.74753000  0.39724100  1
  O  O95  1  0.28123600  0.75525200  0.09167600  1
  O  O96  1  0.97345700  0.50788700  0.74770400  1
  O  O97  1  0.05763200  0.43310400  0.94314300  1
  O  O98  1  0.05763200  0.06689600  0.44314300  1
  O  O99  1  0.72487000  0.50802300  0.82209400  1
  O  O100  1  0.04609800  0.80924800  0.09549100  1
  O  O101  1  0.67250400  0.18628100  0.05919900  1
  O  O102  1  0.59854200  0.25522100  0.19547100  1
  O  O103  1  0.72487000  0.99197700  0.32209400  1
