# generated using pymatgen
data_Ni2Sn4Au
_symmetry_space_group_name_H-M   'P 1'
_cell_length_a   4.28035623
_cell_length_b   4.28035623
_cell_length_c   27.00251117
_cell_angle_alpha   90.00000000
_cell_angle_beta   90.00000000
_cell_angle_gamma   120.00000000
_symmetry_Int_Tables_number   1
_chemical_formula_structural   Ni2Sn4Au
_chemical_formula_sum   'Ni6 Sn12 Au3'
_cell_volume   428.44454322
_cell_formula_units_Z   3
loop_
 _symmetry_equiv_pos_site_id
 _symmetry_equiv_pos_as_xyz
  1  'x, y, z'
loop_
 _atom_site_type_symbol
 _atom_site_label
 _atom_site_symmetry_multiplicity
 _atom_site_fract_x
 _atom_site_fract_y
 _atom_site_fract_z
 _atom_site_occupancy
  Ni  Ni0  1  0.33333333  0.66666667  0.06724867  1
  Ni  Ni1  1  0.33333333  0.66666667  0.26608467  1
  Ni  Ni2  1  0.00000000  0.00000000  0.40058200  1
  Ni  Ni3  1  0.00000000  0.00000000  0.59941800  1
  Ni  Ni4  1  0.66666667  0.33333333  0.73391533  1
  Ni  Ni5  1  0.66666667  0.33333333  0.93275133  1
  Sn  Sn6  1  0.00000000  0.00000000  0.29968900  1
  Sn  Sn7  1  0.00000000  0.00000000  0.11142300  1
  Sn  Sn8  1  0.66666667  0.33333333  0.03364433  1
  Sn  Sn9  1  0.66666667  0.33333333  0.22191033  1
  Sn  Sn10  1  0.66666667  0.33333333  0.63302233  1
  Sn  Sn11  1  0.66666667  0.33333333  0.44475633  1
  Sn  Sn12  1  0.33333333  0.66666667  0.36697767  1
  Sn  Sn13  1  0.33333333  0.66666667  0.55524367  1
  Sn  Sn14  1  0.33333333  0.66666667  0.96635567  1
  Sn  Sn15  1  0.33333333  0.66666667  0.77808967  1
  Sn  Sn16  1  0.00000000  0.00000000  0.70031100  1
  Sn  Sn17  1  0.00000000  0.00000000  0.88857700  1
  Au  Au18  1  0.33333333  0.66666667  0.16666667  1
  Au  Au19  1  1.00000000  1.00000000  0.50000000  1
  Au  Au20  1  0.66666667  0.33333333  0.83333333  1
