# generated using pymatgen
data_ZrMnTlF7
_symmetry_space_group_name_H-M   'P 1'
_cell_length_a   6.78566800
_cell_length_b   11.20030200
_cell_length_c   8.41330900
_cell_angle_alpha   90.00000000
_cell_angle_beta   90.00000000
_cell_angle_gamma   90.00000000
_symmetry_Int_Tables_number   1
_chemical_formula_structural   ZrMnTlF7
_chemical_formula_sum   'Zr4 Mn4 Tl4 F28'
_cell_volume   639.42436370
_cell_formula_units_Z   4
loop_
 _symmetry_equiv_pos_site_id
 _symmetry_equiv_pos_as_xyz
  1  'x, y, z'
loop_
 _atom_site_type_symbol
 _atom_site_label
 _atom_site_symmetry_multiplicity
 _atom_site_fract_x
 _atom_site_fract_y
 _atom_site_fract_z
 _atom_site_occupancy
  Zr  Zr0  1  0.50000000  0.30736400  0.75000000  1
  Zr  Zr1  1  0.50000000  0.69263600  0.25000000  1
  Zr  Zr2  1  0.00000000  0.80736400  0.75000000  1
  Zr  Zr3  1  0.00000000  0.19263600  0.25000000  1
  Mn  Mn4  1  0.50000000  0.68766900  0.75000000  1
  Mn  Mn5  1  0.50000000  0.31233100  0.25000000  1
  Mn  Mn6  1  0.00000000  0.18766900  0.75000000  1
  Mn  Mn7  1  0.00000000  0.81233100  0.25000000  1
  Tl  Tl8  1  0.50000000  0.00000000  0.50000000  1
  Tl  Tl9  1  0.50000000  0.00000000  0.00000000  1
  Tl  Tl10  1  0.00000000  0.50000000  0.50000000  1
  Tl  Tl11  1  0.00000000  0.50000000  0.00000000  1
  F  F12  1  0.30189850  0.85435150  0.75000000  1
  F  F13  1  0.50000000  0.69564400  0.49429000  1
  F  F14  1  0.32069750  0.84590350  0.25000000  1
  F  F15  1  0.67930250  0.84590350  0.25000000  1
  F  F16  1  0.67930250  0.15409650  0.75000000  1
  F  F17  1  0.50000000  0.30435600  0.50571000  1
  F  F18  1  0.50000000  0.30435600  0.99429000  1
  F  F19  1  0.50000000  0.49231900  0.75000000  1
  F  F20  1  0.30189850  0.14564850  0.25000000  1
  F  F21  1  0.50000000  0.69564400  0.00571000  1
  F  F22  1  0.50000000  0.50768100  0.25000000  1
  F  F23  1  0.32069750  0.15409650  0.75000000  1
  F  F24  1  0.69810150  0.85435150  0.75000000  1
  F  F25  1  0.69810150  0.14564850  0.25000000  1
  F  F26  1  0.80189850  0.35435150  0.75000000  1
  F  F27  1  0.00000000  0.19564400  0.49429000  1
  F  F28  1  0.82069750  0.34590350  0.25000000  1
  F  F29  1  0.17930250  0.34590350  0.25000000  1
  F  F30  1  0.17930250  0.65409650  0.75000000  1
  F  F31  1  0.00000000  0.80435600  0.50571000  1
  F  F32  1  0.00000000  0.80435600  0.99429000  1
  F  F33  1  0.00000000  0.99231900  0.75000000  1
  F  F34  1  0.80189850  0.64564850  0.25000000  1
  F  F35  1  0.00000000  0.19564400  0.00571000  1
  F  F36  1  0.00000000  0.00768100  0.25000000  1
  F  F37  1  0.82069750  0.65409650  0.75000000  1
  F  F38  1  0.19810150  0.35435150  0.75000000  1
  F  F39  1  0.19810150  0.64564850  0.25000000  1
