# generated using pymatgen
data_Co3W3N
_symmetry_space_group_name_H-M   'P 1'
_cell_length_a   11.05029000
_cell_length_b   11.05029000
_cell_length_c   11.05029000
_cell_angle_alpha   90.00000000
_cell_angle_beta   90.00000000
_cell_angle_gamma   90.00000000
_symmetry_Int_Tables_number   1
_chemical_formula_structural   Co3W3N
_chemical_formula_sum   'Co48 W48 N16'
_cell_volume   1349.33885696
_cell_formula_units_Z   16
loop_
 _symmetry_equiv_pos_site_id
 _symmetry_equiv_pos_as_xyz
  1  'x, y, z'
loop_
 _atom_site_type_symbol
 _atom_site_label
 _atom_site_symmetry_multiplicity
 _atom_site_fract_x
 _atom_site_fract_y
 _atom_site_fract_z
 _atom_site_occupancy
  Co  Co0  1  0.16840333  0.83159667  0.16840333  1
  Co  Co1  1  0.08159667  0.08159667  0.41840333  1
  Co  Co2  1  0.41840333  0.08159667  0.08159667  1
  Co  Co3  1  0.41840333  0.41840333  0.41840333  1
  Co  Co4  1  0.33159667  0.66840333  0.16840333  1
  Co  Co5  1  0.33159667  0.83159667  0.33159667  1
  Co  Co6  1  0.16840333  0.66840333  0.33159667  1
  Co  Co7  1  0.08159667  0.41840333  0.08159667  1
  Co  Co8  1  0.37500000  0.62500000  0.37500000  1
  Co  Co9  1  0.37500000  0.87500000  0.12500000  1
  Co  Co10  1  0.12500000  0.87500000  0.37500000  1
  Co  Co11  1  0.12500000  0.62500000  0.12500000  1
  Co  Co12  1  0.16840333  0.33159667  0.66840333  1
  Co  Co13  1  0.08159667  0.58159667  0.91840333  1
  Co  Co14  1  0.41840333  0.58159667  0.58159667  1
  Co  Co15  1  0.41840333  0.91840333  0.91840333  1
  Co  Co16  1  0.33159667  0.16840333  0.66840333  1
  Co  Co17  1  0.33159667  0.33159667  0.83159667  1
  Co  Co18  1  0.16840333  0.16840333  0.83159667  1
  Co  Co19  1  0.08159667  0.91840333  0.58159667  1
  Co  Co20  1  0.37500000  0.12500000  0.87500000  1
  Co  Co21  1  0.37500000  0.37500000  0.62500000  1
  Co  Co22  1  0.12500000  0.37500000  0.87500000  1
  Co  Co23  1  0.12500000  0.12500000  0.62500000  1
  Co  Co24  1  0.66840333  0.83159667  0.66840333  1
  Co  Co25  1  0.58159667  0.08159667  0.91840333  1
  Co  Co26  1  0.91840333  0.08159667  0.58159667  1
  Co  Co27  1  0.91840333  0.41840333  0.91840333  1
  Co  Co28  1  0.83159667  0.66840333  0.66840333  1
  Co  Co29  1  0.83159667  0.83159667  0.83159667  1
  Co  Co30  1  0.66840333  0.66840333  0.83159667  1
  Co  Co31  1  0.58159667  0.41840333  0.58159667  1
  Co  Co32  1  0.87500000  0.62500000  0.87500000  1
  Co  Co33  1  0.87500000  0.87500000  0.62500000  1
  Co  Co34  1  0.62500000  0.87500000  0.87500000  1
  Co  Co35  1  0.62500000  0.62500000  0.62500000  1
  Co  Co36  1  0.66840333  0.33159667  0.16840333  1
  Co  Co37  1  0.58159667  0.58159667  0.41840333  1
  Co  Co38  1  0.91840333  0.58159667  0.08159667  1
  Co  Co39  1  0.91840333  0.91840333  0.41840333  1
  Co  Co40  1  0.83159667  0.16840333  0.16840333  1
  Co  Co41  1  0.83159667  0.33159667  0.33159667  1
  Co  Co42  1  0.66840333  0.16840333  0.33159667  1
  Co  Co43  1  0.58159667  0.91840333  0.08159667  1
  Co  Co44  1  0.87500000  0.12500000  0.37500000  1
  Co  Co45  1  0.87500000  0.37500000  0.12500000  1
  Co  Co46  1  0.62500000  0.37500000  0.37500000  1
  Co  Co47  1  0.62500000  0.12500000  0.12500000  1
  W  W48  1  0.25000000  0.25000000  0.45423800  1
  W  W49  1  0.29576200  0.00000000  0.50000000  1
  W  W50  1  0.70423800  0.00000000  0.50000000  1
  W  W51  1  0.00000000  0.00000000  0.20423800  1
  W  W52  1  0.50000000  0.20423800  0.50000000  1
  W  W53  1  0.50000000  0.79576200  0.50000000  1
  W  W54  1  0.25000000  0.04576200  0.25000000  1
  W  W55  1  0.45423800  0.25000000  0.25000000  1
  W  W56  1  0.04576200  0.25000000  0.25000000  1
  W  W57  1  0.25000000  0.45423800  0.25000000  1
  W  W58  1  0.50000000  0.00000000  0.29576200  1
  W  W59  1  0.25000000  0.25000000  0.04576200  1
  W  W60  1  0.25000000  0.75000000  0.95423800  1
  W  W61  1  0.29576200  0.50000000  0.00000000  1
  W  W62  1  0.70423800  0.50000000  0.00000000  1
  W  W63  1  0.00000000  0.50000000  0.70423800  1
  W  W64  1  0.50000000  0.70423800  0.00000000  1
  W  W65  1  0.50000000  0.29576200  0.00000000  1
  W  W66  1  0.25000000  0.54576200  0.75000000  1
  W  W67  1  0.45423800  0.75000000  0.75000000  1
  W  W68  1  0.04576200  0.75000000  0.75000000  1
  W  W69  1  0.25000000  0.95423800  0.75000000  1
  W  W70  1  0.50000000  0.50000000  0.79576200  1
  W  W71  1  0.25000000  0.75000000  0.54576200  1
  W  W72  1  0.75000000  0.25000000  0.95423800  1
  W  W73  1  0.79576200  0.00000000  0.00000000  1
  W  W74  1  0.20423800  0.00000000  0.00000000  1
  W  W75  1  0.50000000  0.00000000  0.70423800  1
  W  W76  1  0.00000000  0.20423800  0.00000000  1
  W  W77  1  0.00000000  0.79576200  0.00000000  1
  W  W78  1  0.75000000  0.04576200  0.75000000  1
  W  W79  1  0.95423800  0.25000000  0.75000000  1
  W  W80  1  0.54576200  0.25000000  0.75000000  1
  W  W81  1  0.75000000  0.45423800  0.75000000  1
  W  W82  1  0.00000000  0.00000000  0.79576200  1
  W  W83  1  0.75000000  0.25000000  0.54576200  1
  W  W84  1  0.75000000  0.75000000  0.45423800  1
  W  W85  1  0.79576200  0.50000000  0.50000000  1
  W  W86  1  0.20423800  0.50000000  0.50000000  1
  W  W87  1  0.50000000  0.50000000  0.20423800  1
  W  W88  1  0.00000000  0.70423800  0.50000000  1
  W  W89  1  0.00000000  0.29576200  0.50000000  1
  W  W90  1  0.75000000  0.54576200  0.25000000  1
  W  W91  1  0.95423800  0.75000000  0.25000000  1
  W  W92  1  0.54576200  0.75000000  0.25000000  1
  W  W93  1  0.75000000  0.95423800  0.25000000  1
  W  W94  1  0.00000000  0.50000000  0.29576200  1
  W  W95  1  0.75000000  0.75000000  0.04576200  1
  N  N96  1  0.37500000  0.12500000  0.37500000  1
  N  N97  1  0.87500000  0.87500000  0.12500000  1
  N  N98  1  0.62500000  0.87500000  0.37500000  1
  N  N99  1  0.12500000  0.12500000  0.12500000  1
  N  N100  1  0.37500000  0.62500000  0.87500000  1
  N  N101  1  0.87500000  0.37500000  0.62500000  1
  N  N102  1  0.62500000  0.37500000  0.87500000  1
  N  N103  1  0.12500000  0.62500000  0.62500000  1
  N  N104  1  0.87500000  0.12500000  0.87500000  1
  N  N105  1  0.37500000  0.87500000  0.62500000  1
  N  N106  1  0.12500000  0.87500000  0.87500000  1
  N  N107  1  0.62500000  0.12500000  0.62500000  1
  N  N108  1  0.87500000  0.62500000  0.37500000  1
  N  N109  1  0.37500000  0.37500000  0.12500000  1
  N  N110  1  0.12500000  0.37500000  0.37500000  1
  N  N111  1  0.62500000  0.62500000  0.12500000  1
