# generated using pymatgen
data_SrYbSi4N7
_symmetry_space_group_name_H-M   'P 1'
_cell_length_a   6.08390593
_cell_length_b   6.08390593
_cell_length_c   9.86528200
_cell_angle_alpha   90.00000000
_cell_angle_beta   90.00000000
_cell_angle_gamma   120.00000000
_symmetry_Int_Tables_number   1
_chemical_formula_structural   SrYbSi4N7
_chemical_formula_sum   'Sr2 Yb2 Si8 N14'
_cell_volume   316.23149206
_cell_formula_units_Z   2
loop_
 _symmetry_equiv_pos_site_id
 _symmetry_equiv_pos_as_xyz
  1  'x, y, z'
loop_
 _atom_site_type_symbol
 _atom_site_label
 _atom_site_symmetry_multiplicity
 _atom_site_fract_x
 _atom_site_fract_y
 _atom_site_fract_z
 _atom_site_occupancy
  Sr  Sr0  1  0.66666667  0.33333333  0.86908900  1
  Sr  Sr1  1  0.33333333  0.66666667  0.36908900  1
  Yb  Yb2  1  0.33333333  0.66666667  0.73487900  1
  Yb  Yb3  1  0.66666667  0.33333333  0.23487900  1
  Si  Si4  1  0.00000000  0.00000000  0.81295500  1
  Si  Si5  1  0.00000000  0.00000000  0.31295500  1
  Si  Si6  1  0.34836000  0.17418000  0.54715200  1
  Si  Si7  1  0.17418000  0.34836000  0.04715200  1
  Si  Si8  1  0.17418000  0.82582000  0.04715200  1
  Si  Si9  1  0.82582000  0.17418000  0.54715200  1
  Si  Si10  1  0.82582000  0.65164000  0.54715200  1
  Si  Si11  1  0.65164000  0.82582000  0.04715200  1
  N  N12  1  0.00000000  0.00000000  0.62446900  1
  N  N13  1  0.00000000  0.00000000  0.12446900  1
  N  N14  1  0.51168600  0.48831400  0.59527900  1
  N  N15  1  0.02337200  0.51168600  0.09527900  1
  N  N16  1  0.48831400  0.97662800  0.09527900  1
  N  N17  1  0.51168600  0.02337200  0.59527900  1
  N  N18  1  0.97662800  0.48831400  0.59527900  1
  N  N19  1  0.48831400  0.51168600  0.09527900  1
  N  N20  1  0.69839700  0.84919850  0.87467200  1
  N  N21  1  0.84919850  0.69839700  0.37467200  1
  N  N22  1  0.84919850  0.15080150  0.37467200  1
  N  N23  1  0.15080150  0.84919850  0.87467200  1
  N  N24  1  0.15080150  0.30160300  0.87467200  1
  N  N25  1  0.30160300  0.15080150  0.37467200  1
