# generated using pymatgen
data_LiCo(PO3)3
_symmetry_space_group_name_H-M   'P 1'
_cell_length_a   6.54121666
_cell_length_b   6.87567889
_cell_length_c   7.34373378
_cell_angle_alpha   102.14885361
_cell_angle_beta   92.65048972
_cell_angle_gamma   90.58696049
_symmetry_Int_Tables_number   1
_chemical_formula_structural   LiCo(PO3)3
_chemical_formula_sum   'Li2 Co2 P6 O18'
_cell_volume   322.47670343
_cell_formula_units_Z   2
loop_
 _symmetry_equiv_pos_site_id
 _symmetry_equiv_pos_as_xyz
  1  'x, y, z'
loop_
 _atom_site_type_symbol
 _atom_site_label
 _atom_site_symmetry_multiplicity
 _atom_site_fract_x
 _atom_site_fract_y
 _atom_site_fract_z
 _atom_site_occupancy
  Li  Li0  1  0.85594400  0.42212200  0.16938800  1
  Li  Li1  1  0.14405600  0.57787800  0.83061200  1
  Co  Co2  1  0.15055500  0.08853300  0.85809900  1
  Co  Co3  1  0.84944500  0.91146700  0.14190100  1
  P  P4  1  0.86012400  0.77910700  0.55224400  1
  P  P5  1  0.13987600  0.22089300  0.44775600  1
  P  P6  1  0.34831000  0.44478400  0.20169800  1
  P  P7  1  0.65169000  0.55521600  0.79830200  1
  P  P8  1  0.33924900  0.88733100  0.21510800  1
  P  P9  1  0.66075100  0.11266900  0.78489200  1
  O  O10  1  0.44945900  0.05611300  0.82188500  1
  O  O11  1  0.55054100  0.94388700  0.17811500  1
  O  O12  1  0.56210800  0.39169300  0.16075800  1
  O  O13  1  0.43789200  0.60830700  0.83924200  1
  O  O14  1  0.05056100  0.80942100  0.68076900  1
  O  O15  1  0.94943900  0.19057900  0.31923100  1
  O  O16  1  0.32647800  0.68045300  0.27616400  1
  O  O17  1  0.67352200  0.31954700  0.72383600  1
  O  O18  1  0.11692100  0.27683300  0.65569200  1
  O  O19  1  0.88307900  0.72316700  0.34430800  1
  O  O20  1  0.83268700  0.10218600  0.93049000  1
  O  O21  1  0.16731300  0.89781400  0.06951000  1
  O  O22  1  0.82631700  0.62517500  0.94456200  1
  O  O23  1  0.17368300  0.37482500  0.05543800  1
  O  O24  1  0.28811700  0.38661500  0.39652500  1
  O  O25  1  0.71188300  0.61338500  0.60347500  1
  O  O26  1  0.27558100  0.02430800  0.41014600  1
  O  O27  1  0.72441900  0.97569200  0.58985400  1
