# generated using pymatgen
data_GdRuC2
_symmetry_space_group_name_H-M   'P 1'
_cell_length_a   4.37658600
_cell_length_b   9.30538400
_cell_length_c   5.25034900
_cell_angle_alpha   90.00000000
_cell_angle_beta   90.00000000
_cell_angle_gamma   90.00000000
_symmetry_Int_Tables_number   1
_chemical_formula_structural   GdRuC2
_chemical_formula_sum   'Gd4 Ru4 C8'
_cell_volume   213.82473334
_cell_formula_units_Z   4
loop_
 _symmetry_equiv_pos_site_id
 _symmetry_equiv_pos_as_xyz
  1  'x, y, z'
loop_
 _atom_site_type_symbol
 _atom_site_label
 _atom_site_symmetry_multiplicity
 _atom_site_fract_x
 _atom_site_fract_y
 _atom_site_fract_z
 _atom_site_occupancy
  Gd  Gd0  1  0.50000000  0.31696800  0.75000000  1
  Gd  Gd1  1  0.00000000  0.18303200  0.25000000  1
  Gd  Gd2  1  0.00000000  0.81696800  0.75000000  1
  Gd  Gd3  1  0.50000000  0.68303200  0.25000000  1
  Ru  Ru4  1  0.50000000  0.00000000  0.50000000  1
  Ru  Ru5  1  0.50000000  0.00000000  0.00000000  1
  Ru  Ru6  1  0.00000000  0.50000000  0.50000000  1
  Ru  Ru7  1  0.00000000  0.50000000  0.00000000  1
  C  C8  1  0.34276350  0.41537850  0.25000000  1
  C  C9  1  0.84276350  0.08462150  0.75000000  1
  C  C10  1  0.15723650  0.08462150  0.75000000  1
  C  C11  1  0.65723650  0.41537850  0.25000000  1
  C  C12  1  0.84276350  0.91537850  0.25000000  1
  C  C13  1  0.34276350  0.58462150  0.75000000  1
  C  C14  1  0.65723650  0.58462150  0.75000000  1
  C  C15  1  0.15723650  0.91537850  0.25000000  1
