# generated using pymatgen
data_Li3Ni2(PO4)3
_symmetry_space_group_name_H-M   'P 1'
_cell_length_a   11.57318400
_cell_length_b   12.52263000
_cell_length_c   6.31662298
_cell_angle_alpha   90.00000000
_cell_angle_beta   113.58875678
_cell_angle_gamma   90.00000000
_symmetry_Int_Tables_number   1
_chemical_formula_structural   Li3Ni2(PO4)3
_chemical_formula_sum   'Li12 Ni8 P12 O48'
_cell_volume   838.95371661
_cell_formula_units_Z   4
loop_
 _symmetry_equiv_pos_site_id
 _symmetry_equiv_pos_as_xyz
  1  'x, y, z'
loop_
 _atom_site_type_symbol
 _atom_site_label
 _atom_site_symmetry_multiplicity
 _atom_site_fract_x
 _atom_site_fract_y
 _atom_site_fract_z
 _atom_site_occupancy
  Li  Li0  1  0.50000000  0.48067700  0.75000000  1
  Li  Li1  1  0.50000000  0.21284400  0.75000000  1
  Li  Li2  1  0.50000000  0.00000000  0.50000000  1
  Li  Li3  1  0.50000000  0.78715600  0.25000000  1
  Li  Li4  1  0.50000000  0.51932300  0.25000000  1
  Li  Li5  1  0.50000000  0.00000000  0.00000000  1
  Li  Li6  1  0.00000000  0.98067700  0.75000000  1
  Li  Li7  1  0.00000000  0.71284400  0.75000000  1
  Li  Li8  1  0.00000000  0.50000000  0.50000000  1
  Li  Li9  1  0.00000000  0.28715600  0.25000000  1
  Li  Li10  1  0.00000000  0.01932300  0.25000000  1
  Li  Li11  1  0.00000000  0.50000000  0.00000000  1
  Ni  Ni12  1  0.21438950  0.83926050  0.63097200  1
  Ni  Ni13  1  0.21438950  0.16073950  0.13097200  1
  Ni  Ni14  1  0.78561050  0.83926050  0.86902800  1
  Ni  Ni15  1  0.78561050  0.16073950  0.36902800  1
  Ni  Ni16  1  0.71438950  0.33926050  0.63097200  1
  Ni  Ni17  1  0.71438950  0.66073950  0.13097200  1
  Ni  Ni18  1  0.28561050  0.33926050  0.86902800  1
  Ni  Ni19  1  0.28561050  0.66073950  0.36902800  1
  P  P20  1  0.76458750  0.89992550  0.36507300  1
  P  P21  1  0.76458750  0.10007450  0.86507300  1
  P  P22  1  0.50000000  0.21247900  0.25000000  1
  P  P23  1  0.50000000  0.78752100  0.75000000  1
  P  P24  1  0.23541250  0.10007450  0.63492700  1
  P  P25  1  0.23541250  0.89992550  0.13492700  1
  P  P26  1  0.26458750  0.39992550  0.36507300  1
  P  P27  1  0.26458750  0.60007450  0.86507300  1
  P  P28  1  0.00000000  0.71247900  0.25000000  1
  P  P29  1  0.00000000  0.28752100  0.75000000  1
  P  P30  1  0.73541250  0.60007450  0.63492700  1
  P  P31  1  0.73541250  0.39992550  0.13492700  1
  O  O32  1  0.15120200  0.00124900  0.10380600  1
  O  O33  1  0.84879800  0.00124900  0.39619400  1
  O  O34  1  0.77685450  0.82423850  0.17661100  1
  O  O35  1  0.82765450  0.83574450  0.59446400  1
  O  O36  1  0.17234550  0.83574450  0.90553600  1
  O  O37  1  0.15120200  0.99875100  0.60380600  1
  O  O38  1  0.22314550  0.17576150  0.82338900  1
  O  O39  1  0.17234550  0.16425550  0.40553600  1
  O  O40  1  0.82765450  0.16425550  0.09446400  1
  O  O41  1  0.22314550  0.82423850  0.32338900  1
  O  O42  1  0.37467000  0.07716000  0.69849000  1
  O  O43  1  0.39966050  0.86579950  0.76819900  1
  O  O44  1  0.54161500  0.71934800  0.97284700  1
  O  O45  1  0.37467000  0.92284000  0.19849000  1
  O  O46  1  0.84879800  0.99875100  0.89619400  1
  O  O47  1  0.45838500  0.71934800  0.52715300  1
  O  O48  1  0.54161500  0.28065200  0.47284700  1
  O  O49  1  0.60033950  0.86579950  0.73180100  1
  O  O50  1  0.62533000  0.07716000  0.80151000  1
  O  O51  1  0.45838500  0.28065200  0.02715300  1
  O  O52  1  0.60033950  0.13420050  0.23180100  1
  O  O53  1  0.62533000  0.92284000  0.30151000  1
  O  O54  1  0.77685450  0.17576150  0.67661100  1
  O  O55  1  0.39966050  0.13420050  0.26819900  1
  O  O56  1  0.65120200  0.50124900  0.10380600  1
  O  O57  1  0.34879800  0.50124900  0.39619400  1
  O  O58  1  0.27685450  0.32423850  0.17661100  1
  O  O59  1  0.32765450  0.33574450  0.59446400  1
  O  O60  1  0.67234550  0.33574450  0.90553600  1
  O  O61  1  0.65120200  0.49875100  0.60380600  1
  O  O62  1  0.72314550  0.67576150  0.82338900  1
  O  O63  1  0.67234550  0.66425550  0.40553600  1
  O  O64  1  0.32765450  0.66425550  0.09446400  1
  O  O65  1  0.72314550  0.32423850  0.32338900  1
  O  O66  1  0.87467000  0.57716000  0.69849000  1
  O  O67  1  0.89966050  0.36579950  0.76819900  1
  O  O68  1  0.04161500  0.21934800  0.97284700  1
  O  O69  1  0.87467000  0.42284000  0.19849000  1
  O  O70  1  0.34879800  0.49875100  0.89619400  1
  O  O71  1  0.95838500  0.21934800  0.52715300  1
  O  O72  1  0.04161500  0.78065200  0.47284700  1
  O  O73  1  0.10033950  0.36579950  0.73180100  1
  O  O74  1  0.12533000  0.57716000  0.80151000  1
  O  O75  1  0.95838500  0.78065200  0.02715300  1
  O  O76  1  0.10033950  0.63420050  0.23180100  1
  O  O77  1  0.12533000  0.42284000  0.30151000  1
  O  O78  1  0.27685450  0.67576150  0.67661100  1
  O  O79  1  0.89966050  0.63420050  0.26819900  1
