# generated using pymatgen
data_Ti6O11
_symmetry_space_group_name_H-M   'P 1'
_cell_length_a   10.00484200
_cell_length_b   3.76115600
_cell_length_c   21.22273274
_cell_angle_alpha   90.00000000
_cell_angle_beta   93.57036257
_cell_angle_gamma   90.00000000
_symmetry_Int_Tables_number   1
_chemical_formula_structural   Ti6O11
_chemical_formula_sum   'Ti24 O44'
_cell_volume   797.05654822
_cell_formula_units_Z   4
loop_
 _symmetry_equiv_pos_site_id
 _symmetry_equiv_pos_as_xyz
  1  'x, y, z'
loop_
 _atom_site_type_symbol
 _atom_site_label
 _atom_site_symmetry_multiplicity
 _atom_site_fract_x
 _atom_site_fract_y
 _atom_site_fract_z
 _atom_site_occupancy
  Ti  Ti0  1  0.53036400  0.50000000  0.64637600  1
  Ti  Ti1  1  0.86248300  0.00000000  0.52385800  1
  Ti  Ti2  1  0.63751700  0.50000000  0.47614200  1
  Ti  Ti3  1  0.78985500  0.00000000  0.88567100  1
  Ti  Ti4  1  0.90074500  0.00000000  0.20750100  1
  Ti  Ti5  1  0.93175100  0.00000000  0.06014000  1
  Ti  Ti6  1  0.56824900  0.50000000  0.93986000  1
  Ti  Ti7  1  0.96963600  0.00000000  0.35362400  1
  Ti  Ti8  1  0.71014500  0.50000000  0.11432900  1
  Ti  Ti9  1  0.59925500  0.50000000  0.79249900  1
  Ti  Ti10  1  0.76550800  0.00000000  0.69910100  1
  Ti  Ti11  1  0.73449200  0.50000000  0.30089900  1
  Ti  Ti12  1  0.03036400  0.00000000  0.64637600  1
  Ti  Ti13  1  0.36248300  0.50000000  0.52385800  1
  Ti  Ti14  1  0.13751700  0.00000000  0.47614200  1
  Ti  Ti15  1  0.28985500  0.50000000  0.88567100  1
  Ti  Ti16  1  0.40074500  0.50000000  0.20750100  1
  Ti  Ti17  1  0.43175100  0.50000000  0.06014000  1
  Ti  Ti18  1  0.06824900  0.00000000  0.93986000  1
  Ti  Ti19  1  0.46963600  0.50000000  0.35362400  1
  Ti  Ti20  1  0.21014500  0.00000000  0.11432900  1
  Ti  Ti21  1  0.09925500  0.00000000  0.79249900  1
  Ti  Ti22  1  0.26550800  0.50000000  0.69910100  1
  Ti  Ti23  1  0.23449200  0.00000000  0.30089900  1
  O  O24  1  0.82993000  0.50000000  0.20617400  1
  O  O25  1  0.76113900  0.00000000  0.12292500  1
  O  O26  1  0.57702300  0.00000000  0.65527300  1
  O  O27  1  0.61426600  0.00000000  0.93296900  1
  O  O28  1  0.88573400  0.50000000  0.06703100  1
  O  O29  1  0.65877200  0.50000000  0.38109700  1
  O  O30  1  0.67007000  0.00000000  0.79382600  1
  O  O31  1  0.61413400  0.50000000  0.03300000  1
  O  O32  1  0.84122800  0.00000000  0.61890300  1
  O  O33  1  0.88586600  0.00000000  0.96700000  1
  O  O34  1  0.71650100  0.50000000  0.70901100  1
  O  O35  1  0.67664400  0.00000000  0.48060200  1
  O  O36  1  0.78349900  0.00000000  0.29098900  1
  O  O37  1  0.55045200  0.50000000  0.55638900  1
  O  O38  1  0.73886100  0.50000000  0.87707500  1
  O  O39  1  0.55208200  0.50000000  0.26731200  1
  O  O40  1  0.94791800  0.00000000  0.73268800  1
  O  O41  1  0.82335600  0.50000000  0.51939800  1
  O  O42  1  0.94954800  0.00000000  0.44361100  1
  O  O43  1  0.53466600  0.50000000  0.14609600  1
  O  O44  1  0.92297700  0.50000000  0.34472700  1
  O  O45  1  0.96533400  0.00000000  0.85390400  1
  O  O46  1  0.32993000  0.00000000  0.20617400  1
  O  O47  1  0.26113900  0.50000000  0.12292500  1
  O  O48  1  0.07702300  0.50000000  0.65527300  1
  O  O49  1  0.11426600  0.50000000  0.93296900  1
  O  O50  1  0.38573400  0.00000000  0.06703100  1
  O  O51  1  0.15877200  0.00000000  0.38109700  1
  O  O52  1  0.17007000  0.50000000  0.79382600  1
  O  O53  1  0.11413400  0.00000000  0.03300000  1
  O  O54  1  0.34122800  0.50000000  0.61890300  1
  O  O55  1  0.38586600  0.50000000  0.96700000  1
  O  O56  1  0.21650100  0.00000000  0.70901100  1
  O  O57  1  0.17664400  0.50000000  0.48060200  1
  O  O58  1  0.28349900  0.50000000  0.29098900  1
  O  O59  1  0.05045200  0.00000000  0.55638900  1
  O  O60  1  0.23886100  0.00000000  0.87707500  1
  O  O61  1  0.05208200  0.00000000  0.26731200  1
  O  O62  1  0.44791800  0.50000000  0.73268800  1
  O  O63  1  0.32335600  0.00000000  0.51939800  1
  O  O64  1  0.44954800  0.50000000  0.44361100  1
  O  O65  1  0.03466600  0.00000000  0.14609600  1
  O  O66  1  0.42297700  0.00000000  0.34472700  1
  O  O67  1  0.46533400  0.50000000  0.85390400  1
