# generated using pymatgen
data_TmMnO3
_symmetry_space_group_name_H-M   'P 1'
_cell_length_a   6.14426158
_cell_length_b   6.14426158
_cell_length_c   11.48985100
_cell_angle_alpha   90.00000000
_cell_angle_beta   90.00000000
_cell_angle_gamma   120.00000000
_symmetry_Int_Tables_number   1
_chemical_formula_structural   TmMnO3
_chemical_formula_sum   'Tm6 Mn6 O18'
_cell_volume   375.65088924
_cell_formula_units_Z   6
loop_
 _symmetry_equiv_pos_site_id
 _symmetry_equiv_pos_as_xyz
  1  'x, y, z'
loop_
 _atom_site_type_symbol
 _atom_site_label
 _atom_site_symmetry_multiplicity
 _atom_site_fract_x
 _atom_site_fract_y
 _atom_site_fract_z
 _atom_site_occupancy
  Tm  Tm0  1  0.33333333  0.66666667  0.22801400  1
  Tm  Tm1  1  0.00000000  0.00000000  0.27191300  1
  Tm  Tm2  1  0.66666667  0.33333333  0.72801400  1
  Tm  Tm3  1  0.33333333  0.66666667  0.72801400  1
  Tm  Tm4  1  0.00000000  0.00000000  0.77191300  1
  Tm  Tm5  1  0.66666667  0.33333333  0.22801400  1
  Mn  Mn6  1  0.66662300  0.00000000  0.49719400  1
  Mn  Mn7  1  0.33337700  0.33337700  0.49719400  1
  Mn  Mn8  1  0.66662300  0.66662300  0.99719400  1
  Mn  Mn9  1  0.00000000  0.66662300  0.49719400  1
  Mn  Mn10  1  0.00000000  0.33337700  0.99719400  1
  Mn  Mn11  1  0.33337700  0.00000000  0.99719400  1
  O  O12  1  0.33333333  0.66666667  0.01937700  1
  O  O13  1  0.64002600  0.00000000  0.33148400  1
  O  O14  1  0.00000000  0.64002600  0.33148400  1
  O  O15  1  0.00000000  0.30639750  0.16308100  1
  O  O16  1  0.35997400  0.35997400  0.33148400  1
  O  O17  1  0.66666667  0.33333333  0.01937700  1
  O  O18  1  0.30639750  0.30639750  0.66308100  1
  O  O19  1  0.35997400  0.00000000  0.83148400  1
  O  O20  1  0.64002600  0.64002600  0.83148400  1
  O  O21  1  0.30639750  0.00000000  0.16308100  1
  O  O22  1  0.69360250  0.00000000  0.66308100  1
  O  O23  1  0.00000000  0.00000000  0.47102500  1
  O  O24  1  0.00000000  0.69360250  0.66308100  1
  O  O25  1  0.66666667  0.33333333  0.51937700  1
  O  O26  1  0.69360250  0.69360250  0.16308100  1
  O  O27  1  0.00000000  0.35997400  0.83148400  1
  O  O28  1  0.00000000  0.00000000  0.97102500  1
  O  O29  1  0.33333333  0.66666667  0.51937700  1
