# generated using pymatgen
data_Ni2Hg2OF6
_symmetry_space_group_name_H-M   'P 1'
_cell_length_a   10.51568320
_cell_length_b   10.51568320
_cell_length_c   10.51568320
_cell_angle_alpha   90.00000000
_cell_angle_beta   90.00000000
_cell_angle_gamma   90.00000000
_symmetry_Int_Tables_number   1
_chemical_formula_structural   Ni2Hg2OF6
_chemical_formula_sum   'Ni16 Hg16 O8 F48'
_cell_volume   1162.81996912
_cell_formula_units_Z   8
loop_
 _symmetry_equiv_pos_site_id
 _symmetry_equiv_pos_as_xyz
  1  'x, y, z'
loop_
 _atom_site_type_symbol
 _atom_site_label
 _atom_site_symmetry_multiplicity
 _atom_site_fract_x
 _atom_site_fract_y
 _atom_site_fract_z
 _atom_site_occupancy
  Ni  Ni0  1  0.12500000  0.37500000  0.87500000  1
  Ni  Ni1  1  0.12500000  0.62500000  0.12500000  1
  Ni  Ni2  1  0.87500000  0.62500000  0.87500000  1
  Ni  Ni3  1  0.87500000  0.37500000  0.12500000  1
  Ni  Ni4  1  0.12500000  0.87500000  0.37500000  1
  Ni  Ni5  1  0.12500000  0.12500000  0.62500000  1
  Ni  Ni6  1  0.87500000  0.12500000  0.37500000  1
  Ni  Ni7  1  0.87500000  0.87500000  0.62500000  1
  Ni  Ni8  1  0.62500000  0.37500000  0.37500000  1
  Ni  Ni9  1  0.62500000  0.62500000  0.62500000  1
  Ni  Ni10  1  0.37500000  0.62500000  0.37500000  1
  Ni  Ni11  1  0.37500000  0.37500000  0.62500000  1
  Ni  Ni12  1  0.62500000  0.87500000  0.87500000  1
  Ni  Ni13  1  0.62500000  0.12500000  0.12500000  1
  Ni  Ni14  1  0.37500000  0.12500000  0.87500000  1
  Ni  Ni15  1  0.37500000  0.87500000  0.12500000  1
  Hg  Hg16  1  0.87500000  0.12500000  0.87500000  1
  Hg  Hg17  1  0.87500000  0.37500000  0.62500000  1
  Hg  Hg18  1  0.62500000  0.37500000  0.87500000  1
  Hg  Hg19  1  0.62500000  0.12500000  0.62500000  1
  Hg  Hg20  1  0.87500000  0.62500000  0.37500000  1
  Hg  Hg21  1  0.87500000  0.87500000  0.12500000  1
  Hg  Hg22  1  0.62500000  0.87500000  0.37500000  1
  Hg  Hg23  1  0.62500000  0.62500000  0.12500000  1
  Hg  Hg24  1  0.37500000  0.12500000  0.37500000  1
  Hg  Hg25  1  0.37500000  0.37500000  0.12500000  1
  Hg  Hg26  1  0.12500000  0.37500000  0.37500000  1
  Hg  Hg27  1  0.12500000  0.12500000  0.12500000  1
  Hg  Hg28  1  0.37500000  0.62500000  0.87500000  1
  Hg  Hg29  1  0.37500000  0.87500000  0.62500000  1
  Hg  Hg30  1  0.12500000  0.87500000  0.87500000  1
  Hg  Hg31  1  0.12500000  0.62500000  0.62500000  1
  O  O32  1  0.75000000  0.25000000  0.75000000  1
  O  O33  1  0.00000000  0.00000000  0.00000000  1
  O  O34  1  0.75000000  0.75000000  0.25000000  1
  O  O35  1  0.00000000  0.50000000  0.50000000  1
  O  O36  1  0.25000000  0.25000000  0.25000000  1
  O  O37  1  0.50000000  0.00000000  0.50000000  1
  O  O38  1  0.25000000  0.75000000  0.75000000  1
  O  O39  1  0.50000000  0.50000000  0.00000000  1
  F  F40  1  0.00000000  0.00000000  0.69792600  1
  F  F41  1  0.05207400  0.25000000  0.75000000  1
  F  F42  1  0.94792600  0.25000000  0.25000000  1
  F  F43  1  0.25000000  0.25000000  0.94792600  1
  F  F44  1  0.75000000  0.94792600  0.75000000  1
  F  F45  1  0.25000000  0.55207400  0.25000000  1
  F  F46  1  0.00000000  0.30207400  0.00000000  1
  F  F47  1  0.69792600  0.00000000  0.00000000  1
  F  F48  1  0.80207400  0.00000000  0.50000000  1
  F  F49  1  0.50000000  0.69792600  0.50000000  1
  F  F50  1  0.75000000  0.25000000  0.05207400  1
  F  F51  1  0.50000000  0.00000000  0.80207400  1
  F  F52  1  0.00000000  0.50000000  0.19792600  1
  F  F53  1  0.05207400  0.75000000  0.25000000  1
  F  F54  1  0.94792600  0.75000000  0.75000000  1
  F  F55  1  0.25000000  0.75000000  0.44792600  1
  F  F56  1  0.75000000  0.44792600  0.25000000  1
  F  F57  1  0.25000000  0.05207400  0.75000000  1
  F  F58  1  0.00000000  0.80207400  0.50000000  1
  F  F59  1  0.69792600  0.50000000  0.50000000  1
  F  F60  1  0.80207400  0.50000000  0.00000000  1
  F  F61  1  0.50000000  0.19792600  0.00000000  1
  F  F62  1  0.75000000  0.75000000  0.55207400  1
  F  F63  1  0.50000000  0.50000000  0.30207400  1
  F  F64  1  0.50000000  0.00000000  0.19792600  1
  F  F65  1  0.55207400  0.25000000  0.25000000  1
  F  F66  1  0.44792600  0.25000000  0.75000000  1
  F  F67  1  0.75000000  0.25000000  0.44792600  1
  F  F68  1  0.25000000  0.94792600  0.25000000  1
  F  F69  1  0.75000000  0.55207400  0.75000000  1
  F  F70  1  0.50000000  0.30207400  0.50000000  1
  F  F71  1  0.19792600  0.00000000  0.50000000  1
  F  F72  1  0.30207400  0.00000000  0.00000000  1
  F  F73  1  0.00000000  0.69792600  0.00000000  1
  F  F74  1  0.25000000  0.25000000  0.55207400  1
  F  F75  1  0.00000000  0.00000000  0.30207400  1
  F  F76  1  0.50000000  0.50000000  0.69792600  1
  F  F77  1  0.55207400  0.75000000  0.75000000  1
  F  F78  1  0.44792600  0.75000000  0.25000000  1
  F  F79  1  0.75000000  0.75000000  0.94792600  1
  F  F80  1  0.25000000  0.44792600  0.75000000  1
  F  F81  1  0.75000000  0.05207400  0.25000000  1
  F  F82  1  0.50000000  0.80207400  0.00000000  1
  F  F83  1  0.19792600  0.50000000  0.00000000  1
  F  F84  1  0.30207400  0.50000000  0.50000000  1
  F  F85  1  0.00000000  0.19792600  0.50000000  1
  F  F86  1  0.25000000  0.75000000  0.05207400  1
  F  F87  1  0.00000000  0.50000000  0.80207400  1
