# generated using pymatgen
data_FeSiP3O11
_symmetry_space_group_name_H-M   'P 1'
_cell_length_a   8.45701631
_cell_length_b   8.45701631
_cell_length_c   39.68021116
_cell_angle_alpha   90.00000000
_cell_angle_beta   90.00000000
_cell_angle_gamma   120.00000000
_symmetry_Int_Tables_number   1
_chemical_formula_structural   FeSiP3O11
_chemical_formula_sum   'Fe12 Si12 P36 O132'
_cell_volume   2457.75700665
_cell_formula_units_Z   12
loop_
 _symmetry_equiv_pos_site_id
 _symmetry_equiv_pos_as_xyz
  1  'x, y, z'
loop_
 _atom_site_type_symbol
 _atom_site_label
 _atom_site_symmetry_multiplicity
 _atom_site_fract_x
 _atom_site_fract_y
 _atom_site_fract_z
 _atom_site_occupancy
  Fe  Fe0  1  0.66666667  0.33333333  0.17519233  1
  Fe  Fe1  1  0.33333333  0.66666667  0.32480767  1
  Fe  Fe2  1  0.00000000  0.00000000  0.15814100  1
  Fe  Fe3  1  0.33333333  0.66666667  0.00852567  1
  Fe  Fe4  1  0.33333333  0.66666667  0.50852567  1
  Fe  Fe5  1  0.00000000  0.00000000  0.65814100  1
  Fe  Fe6  1  0.66666667  0.33333333  0.49147433  1
  Fe  Fe7  1  0.00000000  0.00000000  0.34185900  1
  Fe  Fe8  1  0.00000000  0.00000000  0.84185900  1
  Fe  Fe9  1  0.66666667  0.33333333  0.99147433  1
  Fe  Fe10  1  0.33333333  0.66666667  0.82480767  1
  Fe  Fe11  1  0.66666667  0.33333333  0.67519233  1
  Si  Si12  1  0.66666667  0.33333333  0.29334533  1
  Si  Si13  1  0.33333333  0.66666667  0.20665467  1
  Si  Si14  1  0.00000000  0.00000000  0.03998800  1
  Si  Si15  1  0.33333333  0.66666667  0.12667867  1
  Si  Si16  1  0.33333333  0.66666667  0.62667867  1
  Si  Si17  1  0.00000000  0.00000000  0.53998800  1
  Si  Si18  1  0.66666667  0.33333333  0.37332133  1
  Si  Si19  1  0.00000000  0.00000000  0.46001200  1
  Si  Si20  1  0.00000000  0.00000000  0.96001200  1
  Si  Si21  1  0.66666667  0.33333333  0.87332133  1
  Si  Si22  1  0.33333333  0.66666667  0.70665467  1
  Si  Si23  1  0.66666667  0.33333333  0.79334533  1
  P  P24  1  0.29497300  0.29557900  0.21325900  1
  P  P25  1  0.70442100  0.99939400  0.21325900  1
  P  P26  1  0.00060600  0.70502700  0.21325900  1
  P  P27  1  0.99939400  0.70442100  0.28674100  1
  P  P28  1  0.29557900  0.29497300  0.28674100  1
  P  P29  1  0.70502700  0.00060600  0.28674100  1
  P  P30  1  0.37169367  0.03775433  0.12007433  1
  P  P31  1  0.96224567  0.33393933  0.12007433  1
  P  P32  1  0.66606067  0.62830633  0.12007433  1
  P  P33  1  0.66727267  0.62891233  0.04659233  1
  P  P34  1  0.37108767  0.03836033  0.04659233  1
  P  P35  1  0.96163967  0.33272733  0.04659233  1
  P  P36  1  0.96163967  0.62891233  0.54659233  1
  P  P37  1  0.37108767  0.33272733  0.54659233  1
  P  P38  1  0.66727267  0.03836033  0.54659233  1
  P  P39  1  0.66606067  0.03775433  0.62007433  1
  P  P40  1  0.96224567  0.62830633  0.62007433  1
  P  P41  1  0.37169367  0.33393933  0.62007433  1
  P  P42  1  0.03836033  0.37108767  0.45340767  1
  P  P43  1  0.62891233  0.66727267  0.45340767  1
  P  P44  1  0.33272733  0.96163967  0.45340767  1
  P  P45  1  0.33393933  0.96224567  0.37992567  1
  P  P46  1  0.03775433  0.37169367  0.37992567  1
  P  P47  1  0.62830633  0.66606067  0.37992567  1
  P  P48  1  0.62830633  0.96224567  0.87992567  1
  P  P49  1  0.03775433  0.66606067  0.87992567  1
  P  P50  1  0.33393933  0.37169367  0.87992567  1
  P  P51  1  0.33272733  0.37108767  0.95340767  1
  P  P52  1  0.62891233  0.96163967  0.95340767  1
  P  P53  1  0.03836033  0.66727267  0.95340767  1
  P  P54  1  0.70502700  0.70442100  0.78674100  1
  P  P55  1  0.29557900  0.00060600  0.78674100  1
  P  P56  1  0.99939400  0.29497300  0.78674100  1
  P  P57  1  0.00060600  0.29557900  0.71325900  1
  P  P58  1  0.70442100  0.70502700  0.71325900  1
  P  P59  1  0.29497300  0.99939400  0.71325900  1
  O  O60  1  0.62641133  0.13407967  0.28014867  1
  O  O61  1  0.86592033  0.49233167  0.28014867  1
  O  O62  1  0.50766833  0.37358867  0.28014867  1
  O  O63  1  0.49233167  0.86592033  0.21985133  1
  O  O64  1  0.13407967  0.62641133  0.21985133  1
  O  O65  1  0.37358867  0.50766833  0.21985133  1
  O  O66  1  0.04025533  0.19925367  0.05318467  1
  O  O67  1  0.80074633  0.84100167  0.05318467  1
  O  O68  1  0.15899833  0.95974467  0.05318467  1
  O  O69  1  0.17433500  0.46741300  0.11348200  1
  O  O70  1  0.53258700  0.70692200  0.11348200  1
  O  O71  1  0.29307800  0.82566500  0.11348200  1
  O  O72  1  0.44919600  0.26146500  0.20528100  1
  O  O73  1  0.73853500  0.18773100  0.20528100  1
  O  O74  1  0.81226900  0.55080400  0.20528100  1
  O  O75  1  0.18773100  0.73853500  0.29471900  1
  O  O76  1  0.26146500  0.44919600  0.29471900  1
  O  O77  1  0.55080400  0.81226900  0.29471900  1
  O  O78  1  0.21747067  0.07186833  0.12805233  1
  O  O79  1  0.92813167  0.14560233  0.12805233  1
  O  O80  1  0.85439767  0.78252933  0.12805233  1
  O  O81  1  0.47893567  0.59479833  0.03861433  1
  O  O82  1  0.40520167  0.88413733  0.03861433  1
  O  O83  1  0.11586267  0.52106433  0.03861433  1
  O  O84  1  0.52920300  0.11022100  0.14454700  1
  O  O85  1  0.88977900  0.41898200  0.14454700  1
  O  O86  1  0.58101800  0.47079700  0.14454700  1
  O  O87  1  0.75231533  0.55644567  0.02211967  1
  O  O88  1  0.44355433  0.19586967  0.02211967  1
  O  O89  1  0.80413033  0.24768467  0.02211967  1
  O  O90  1  0.13746367  0.22311233  0.18878633  1
  O  O91  1  0.77688767  0.91435133  0.18878633  1
  O  O92  1  0.08564867  0.86253633  0.18878633  1
  O  O93  1  0.91435133  0.77688767  0.31121367  1
  O  O94  1  0.22311233  0.13746367  0.31121367  1
  O  O95  1  0.86253633  0.08564867  0.31121367  1
  O  O96  1  0.78726700  0.00000000  0.25000000  1
  O  O97  1  0.00000000  0.78726700  0.25000000  1
  O  O98  1  0.21273300  0.21273300  0.25000000  1
  O  O99  1  0.87939967  0.33333333  0.08333333  1
  O  O100  1  0.66666667  0.54606633  0.08333333  1
  O  O101  1  0.45393367  0.12060033  0.08333333  1
  O  O102  1  0.00000000  0.00000000  0.00000000  1
  O  O103  1  0.33333333  0.66666667  0.16666667  1
  O  O104  1  0.29307800  0.46741300  0.61348200  1
  O  O105  1  0.53258700  0.82566500  0.61348200  1
  O  O106  1  0.17433500  0.70692200  0.61348200  1
  O  O107  1  0.15899833  0.19925367  0.55318467  1
  O  O108  1  0.80074633  0.95974467  0.55318467  1
  O  O109  1  0.04025533  0.84100167  0.55318467  1
  O  O110  1  0.70692200  0.53258700  0.38651800  1
  O  O111  1  0.46741300  0.17433500  0.38651800  1
  O  O112  1  0.82566500  0.29307800  0.38651800  1
  O  O113  1  0.84100167  0.80074633  0.44681533  1
  O  O114  1  0.19925367  0.04025533  0.44681533  1
  O  O115  1  0.95974467  0.15899833  0.44681533  1
  O  O116  1  0.11586267  0.59479833  0.53861433  1
  O  O117  1  0.40520167  0.52106433  0.53861433  1
  O  O118  1  0.47893567  0.88413733  0.53861433  1
  O  O119  1  0.85439767  0.07186833  0.62805233  1
  O  O120  1  0.92813167  0.78252933  0.62805233  1
  O  O121  1  0.21747067  0.14560233  0.62805233  1
  O  O122  1  0.88413733  0.40520167  0.46138567  1
  O  O123  1  0.59479833  0.47893567  0.46138567  1
  O  O124  1  0.52106433  0.11586267  0.46138567  1
  O  O125  1  0.14560233  0.92813167  0.37194767  1
  O  O126  1  0.07186833  0.21747067  0.37194767  1
  O  O127  1  0.78252933  0.85439767  0.37194767  1
  O  O128  1  0.19586967  0.44355433  0.47788033  1
  O  O129  1  0.55644567  0.75231533  0.47788033  1
  O  O130  1  0.24768467  0.80413033  0.47788033  1
  O  O131  1  0.41898200  0.88977900  0.35545300  1
  O  O132  1  0.11022100  0.52920300  0.35545300  1
  O  O133  1  0.47079700  0.58101800  0.35545300  1
  O  O134  1  0.80413033  0.55644567  0.52211967  1
  O  O135  1  0.44355433  0.24768467  0.52211967  1
  O  O136  1  0.75231533  0.19586967  0.52211967  1
  O  O137  1  0.58101800  0.11022100  0.64454700  1
  O  O138  1  0.88977900  0.47079700  0.64454700  1
  O  O139  1  0.52920300  0.41898200  0.64454700  1
  O  O140  1  0.45393367  0.33333333  0.58333333  1
  O  O141  1  0.66666667  0.12060033  0.58333333  1
  O  O142  1  0.87939967  0.54606633  0.58333333  1
  O  O143  1  0.54606633  0.66666667  0.41666667  1
  O  O144  1  0.33333333  0.87939967  0.41666667  1
  O  O145  1  0.12060033  0.45393367  0.41666667  1
  O  O146  1  0.66666667  0.33333333  0.33333333  1
  O  O147  1  0.00000000  0.00000000  0.50000000  1
  O  O148  1  0.95974467  0.80074633  0.94681533  1
  O  O149  1  0.19925367  0.15899833  0.94681533  1
  O  O150  1  0.84100167  0.04025533  0.94681533  1
  O  O151  1  0.82566500  0.53258700  0.88651800  1
  O  O152  1  0.46741300  0.29307800  0.88651800  1
  O  O153  1  0.70692200  0.17433500  0.88651800  1
  O  O154  1  0.37358867  0.86592033  0.71985133  1
  O  O155  1  0.13407967  0.50766833  0.71985133  1
  O  O156  1  0.49233167  0.62641133  0.71985133  1
  O  O157  1  0.50766833  0.13407967  0.78014867  1
  O  O158  1  0.86592033  0.37358867  0.78014867  1
  O  O159  1  0.62641133  0.49233167  0.78014867  1
  O  O160  1  0.78252933  0.92813167  0.87194767  1
  O  O161  1  0.07186833  0.85439767  0.87194767  1
  O  O162  1  0.14560233  0.21747067  0.87194767  1
  O  O163  1  0.52106433  0.40520167  0.96138567  1
  O  O164  1  0.59479833  0.11586267  0.96138567  1
  O  O165  1  0.88413733  0.47893567  0.96138567  1
  O  O166  1  0.55080400  0.73853500  0.79471900  1
  O  O167  1  0.26146500  0.81226900  0.79471900  1
  O  O168  1  0.18773100  0.44919600  0.79471900  1
  O  O169  1  0.81226900  0.26146500  0.70528100  1
  O  O170  1  0.73853500  0.55080400  0.70528100  1
  O  O171  1  0.44919600  0.18773100  0.70528100  1
  O  O172  1  0.86253633  0.77688767  0.81121367  1
  O  O173  1  0.22311233  0.08564867  0.81121367  1
  O  O174  1  0.91435133  0.13746367  0.81121367  1
  O  O175  1  0.08564867  0.22311233  0.68878633  1
  O  O176  1  0.77688767  0.86253633  0.68878633  1
  O  O177  1  0.13746367  0.91435133  0.68878633  1
  O  O178  1  0.47079700  0.88977900  0.85545300  1
  O  O179  1  0.11022100  0.58101800  0.85545300  1
  O  O180  1  0.41898200  0.52920300  0.85545300  1
  O  O181  1  0.24768467  0.44355433  0.97788033  1
  O  O182  1  0.55644567  0.80413033  0.97788033  1
  O  O183  1  0.19586967  0.75231533  0.97788033  1
  O  O184  1  0.12060033  0.66666667  0.91666667  1
  O  O185  1  0.33333333  0.45393367  0.91666667  1
  O  O186  1  0.54606633  0.87939967  0.91666667  1
  O  O187  1  0.21273300  0.00000000  0.75000000  1
  O  O188  1  0.00000000  0.21273300  0.75000000  1
  O  O189  1  0.78726700  0.78726700  0.75000000  1
  O  O190  1  0.33333333  0.66666667  0.66666667  1
  O  O191  1  0.66666667  0.33333333  0.83333333  1
