# generated using pymatgen
data_Dy4InRh
_symmetry_space_group_name_H-M   'P 1'
_cell_length_a   13.65749800
_cell_length_b   13.65749800
_cell_length_c   13.65749800
_cell_angle_alpha   90.00000000
_cell_angle_beta   90.00000000
_cell_angle_gamma   90.00000000
_symmetry_Int_Tables_number   1
_chemical_formula_structural   Dy4InRh
_chemical_formula_sum   'Dy64 In16 Rh16'
_cell_volume   2547.49556595
_cell_formula_units_Z   16
loop_
 _symmetry_equiv_pos_site_id
 _symmetry_equiv_pos_as_xyz
  1  'x, y, z'
loop_
 _atom_site_type_symbol
 _atom_site_label
 _atom_site_symmetry_multiplicity
 _atom_site_fract_x
 _atom_site_fract_y
 _atom_site_fract_z
 _atom_site_occupancy
  Dy  Dy0  1  0.31090900  0.00000000  0.00000000  1
  Dy  Dy1  1  0.00000000  0.31090900  0.00000000  1
  Dy  Dy2  1  0.50000000  0.00000000  0.81090900  1
  Dy  Dy3  1  0.25000000  0.06206700  0.25000000  1
  Dy  Dy4  1  0.34981067  0.34981067  0.84981067  1
  Dy  Dy5  1  0.25000000  0.25000000  0.06206700  1
  Dy  Dy6  1  0.15018933  0.34981067  0.65018933  1
  Dy  Dy7  1  0.50000000  0.18909100  0.00000000  1
  Dy  Dy8  1  0.06206700  0.25000000  0.25000000  1
  Dy  Dy9  1  0.25000000  0.43793300  0.25000000  1
  Dy  Dy10  1  0.43793300  0.25000000  0.25000000  1
  Dy  Dy11  1  0.25000000  0.25000000  0.43793300  1
  Dy  Dy12  1  0.34981067  0.15018933  0.65018933  1
  Dy  Dy13  1  0.68909100  0.00000000  0.00000000  1
  Dy  Dy14  1  0.50000000  0.00000000  0.18909100  1
  Dy  Dy15  1  0.15018933  0.15018933  0.84981067  1
  Dy  Dy16  1  0.31090900  0.50000000  0.50000000  1
  Dy  Dy17  1  0.00000000  0.81090900  0.50000000  1
  Dy  Dy18  1  0.50000000  0.50000000  0.31090900  1
  Dy  Dy19  1  0.25000000  0.56206700  0.75000000  1
  Dy  Dy20  1  0.34981067  0.84981067  0.34981067  1
  Dy  Dy21  1  0.25000000  0.75000000  0.56206700  1
  Dy  Dy22  1  0.15018933  0.84981067  0.15018933  1
  Dy  Dy23  1  0.50000000  0.68909100  0.50000000  1
  Dy  Dy24  1  0.06206700  0.75000000  0.75000000  1
  Dy  Dy25  1  0.25000000  0.93793300  0.75000000  1
  Dy  Dy26  1  0.43793300  0.75000000  0.75000000  1
  Dy  Dy27  1  0.25000000  0.75000000  0.93793300  1
  Dy  Dy28  1  0.34981067  0.65018933  0.15018933  1
  Dy  Dy29  1  0.68909100  0.50000000  0.50000000  1
  Dy  Dy30  1  0.50000000  0.50000000  0.68909100  1
  Dy  Dy31  1  0.15018933  0.65018933  0.34981067  1
  Dy  Dy32  1  0.81090900  0.00000000  0.50000000  1
  Dy  Dy33  1  0.50000000  0.31090900  0.50000000  1
  Dy  Dy34  1  0.00000000  0.00000000  0.31090900  1
  Dy  Dy35  1  0.75000000  0.06206700  0.75000000  1
  Dy  Dy36  1  0.84981067  0.34981067  0.34981067  1
  Dy  Dy37  1  0.75000000  0.25000000  0.56206700  1
  Dy  Dy38  1  0.65018933  0.34981067  0.15018933  1
  Dy  Dy39  1  0.00000000  0.18909100  0.50000000  1
  Dy  Dy40  1  0.56206700  0.25000000  0.75000000  1
  Dy  Dy41  1  0.75000000  0.43793300  0.75000000  1
  Dy  Dy42  1  0.93793300  0.25000000  0.75000000  1
  Dy  Dy43  1  0.75000000  0.25000000  0.93793300  1
  Dy  Dy44  1  0.84981067  0.15018933  0.15018933  1
  Dy  Dy45  1  0.18909100  0.00000000  0.50000000  1
  Dy  Dy46  1  0.00000000  0.00000000  0.68909100  1
  Dy  Dy47  1  0.65018933  0.15018933  0.34981067  1
  Dy  Dy48  1  0.81090900  0.50000000  0.00000000  1
  Dy  Dy49  1  0.50000000  0.81090900  0.00000000  1
  Dy  Dy50  1  0.00000000  0.50000000  0.81090900  1
  Dy  Dy51  1  0.75000000  0.56206700  0.25000000  1
  Dy  Dy52  1  0.84981067  0.84981067  0.84981067  1
  Dy  Dy53  1  0.75000000  0.75000000  0.06206700  1
  Dy  Dy54  1  0.65018933  0.84981067  0.65018933  1
  Dy  Dy55  1  0.00000000  0.68909100  0.00000000  1
  Dy  Dy56  1  0.56206700  0.75000000  0.25000000  1
  Dy  Dy57  1  0.75000000  0.93793300  0.25000000  1
  Dy  Dy58  1  0.93793300  0.75000000  0.25000000  1
  Dy  Dy59  1  0.75000000  0.75000000  0.43793300  1
  Dy  Dy60  1  0.84981067  0.65018933  0.65018933  1
  Dy  Dy61  1  0.18909100  0.50000000  0.00000000  1
  Dy  Dy62  1  0.00000000  0.50000000  0.18909100  1
  Dy  Dy63  1  0.65018933  0.65018933  0.84981067  1
  In  In64  1  0.08273300  0.08273300  0.08273300  1
  In  In65  1  0.41726700  0.41726700  0.08273300  1
  In  In66  1  0.08273300  0.41726700  0.41726700  1
  In  In67  1  0.41726700  0.08273300  0.41726700  1
  In  In68  1  0.08273300  0.58273300  0.58273300  1
  In  In69  1  0.41726700  0.91726700  0.58273300  1
  In  In70  1  0.08273300  0.91726700  0.91726700  1
  In  In71  1  0.41726700  0.58273300  0.91726700  1
  In  In72  1  0.58273300  0.08273300  0.58273300  1
  In  In73  1  0.91726700  0.41726700  0.58273300  1
  In  In74  1  0.58273300  0.41726700  0.91726700  1
  In  In75  1  0.91726700  0.08273300  0.91726700  1
  In  In76  1  0.58273300  0.58273300  0.08273300  1
  In  In77  1  0.91726700  0.91726700  0.08273300  1
  In  In78  1  0.58273300  0.91726700  0.41726700  1
  In  In79  1  0.91726700  0.58273300  0.41726700  1
  Rh  Rh80  1  0.35749700  0.14250300  0.85749700  1
  Rh  Rh81  1  0.85749700  0.35749700  0.14250300  1
  Rh  Rh82  1  0.64250300  0.14250300  0.14250300  1
  Rh  Rh83  1  0.14250300  0.35749700  0.85749700  1
  Rh  Rh84  1  0.35749700  0.64250300  0.35749700  1
  Rh  Rh85  1  0.85749700  0.85749700  0.64250300  1
  Rh  Rh86  1  0.64250300  0.64250300  0.64250300  1
  Rh  Rh87  1  0.14250300  0.85749700  0.35749700  1
  Rh  Rh88  1  0.85749700  0.14250300  0.35749700  1
  Rh  Rh89  1  0.35749700  0.35749700  0.64250300  1
  Rh  Rh90  1  0.14250300  0.14250300  0.64250300  1
  Rh  Rh91  1  0.64250300  0.35749700  0.35749700  1
  Rh  Rh92  1  0.85749700  0.64250300  0.85749700  1
  Rh  Rh93  1  0.35749700  0.85749700  0.14250300  1
  Rh  Rh94  1  0.14250300  0.64250300  0.14250300  1
  Rh  Rh95  1  0.64250300  0.85749700  0.85749700  1
