# generated using pymatgen
data_BaYMn2O6
_symmetry_space_group_name_H-M   'P 1'
_cell_length_a   7.94337600
_cell_length_b   7.80129800
_cell_length_c   7.85606111
_cell_angle_alpha   90.00000000
_cell_angle_beta   90.52125907
_cell_angle_gamma   90.00000000
_symmetry_Int_Tables_number   1
_chemical_formula_structural   BaYMn2O6
_chemical_formula_sum   'Ba4 Y4 Mn8 O24'
_cell_volume   486.80930206
_cell_formula_units_Z   4
loop_
 _symmetry_equiv_pos_site_id
 _symmetry_equiv_pos_as_xyz
  1  'x, y, z'
loop_
 _atom_site_type_symbol
 _atom_site_label
 _atom_site_symmetry_multiplicity
 _atom_site_fract_x
 _atom_site_fract_y
 _atom_site_fract_z
 _atom_site_occupancy
  Ba  Ba0  1  0.75274600  0.00000000  0.00596300  1
  Ba  Ba1  1  0.24725400  0.00000000  0.99403700  1
  Ba  Ba2  1  0.25274600  0.50000000  0.00596300  1
  Ba  Ba3  1  0.74725400  0.50000000  0.99403700  1
  Y  Y4  1  0.23120500  0.00000000  0.49285500  1
  Y  Y5  1  0.76879500  0.00000000  0.50714500  1
  Y  Y6  1  0.73120500  0.50000000  0.49285500  1
  Y  Y7  1  0.26879500  0.50000000  0.50714500  1
  Mn  Mn8  1  0.50114550  0.75181350  0.74161100  1
  Mn  Mn9  1  0.49885450  0.75181350  0.25838900  1
  Mn  Mn10  1  0.49885450  0.24818650  0.25838900  1
  Mn  Mn11  1  0.50114550  0.24818650  0.74161100  1
  Mn  Mn12  1  0.00114550  0.25181350  0.74161100  1
  Mn  Mn13  1  0.99885450  0.25181350  0.25838900  1
  Mn  Mn14  1  0.99885450  0.74818650  0.25838900  1
  Mn  Mn15  1  0.00114550  0.74818650  0.74161100  1
  O  O16  1  0.96778900  0.00000000  0.75700200  1
  O  O17  1  0.03221100  0.00000000  0.24299800  1
  O  O18  1  0.50000000  0.69362600  0.50000000  1
  O  O19  1  0.50000000  0.76858800  0.00000000  1
  O  O20  1  0.46602200  0.00000000  0.30632300  1
  O  O21  1  0.25217500  0.78090600  0.71430500  1
  O  O22  1  0.50000000  0.30637400  0.50000000  1
  O  O23  1  0.50000000  0.23141200  0.00000000  1
  O  O24  1  0.74782500  0.21909400  0.28569500  1
  O  O25  1  0.25217500  0.21909400  0.71430500  1
  O  O26  1  0.53397800  0.00000000  0.69367700  1
  O  O27  1  0.74782500  0.78090600  0.28569500  1
  O  O28  1  0.46778900  0.50000000  0.75700200  1
  O  O29  1  0.53221100  0.50000000  0.24299800  1
  O  O30  1  0.00000000  0.19362600  0.50000000  1
  O  O31  1  0.00000000  0.26858800  0.00000000  1
  O  O32  1  0.96602200  0.50000000  0.30632300  1
  O  O33  1  0.75217500  0.28090600  0.71430500  1
  O  O34  1  0.00000000  0.80637400  0.50000000  1
  O  O35  1  0.00000000  0.73141200  0.00000000  1
  O  O36  1  0.24782500  0.71909400  0.28569500  1
  O  O37  1  0.75217500  0.71909400  0.71430500  1
  O  O38  1  0.03397800  0.50000000  0.69367700  1
  O  O39  1  0.24782500  0.28090600  0.28569500  1
