# generated using pymatgen
data_Sr5In3
_symmetry_space_group_name_H-M   'P 1'
_cell_length_a   8.82628000
_cell_length_b   8.82628000
_cell_length_c   16.50383000
_cell_angle_alpha   90.00000000
_cell_angle_beta   90.00000000
_cell_angle_gamma   90.00000000
_symmetry_Int_Tables_number   1
_chemical_formula_structural   Sr5In3
_chemical_formula_sum   'Sr20 In12'
_cell_volume   1285.70147686
_cell_formula_units_Z   4
loop_
 _symmetry_equiv_pos_site_id
 _symmetry_equiv_pos_as_xyz
  1  'x, y, z'
loop_
 _atom_site_type_symbol
 _atom_site_label
 _atom_site_symmetry_multiplicity
 _atom_site_fract_x
 _atom_site_fract_y
 _atom_site_fract_z
 _atom_site_occupancy
  Sr  Sr0  1  0.17540950  0.67540950  0.35424000  1
  Sr  Sr1  1  0.67540950  0.17540950  0.14576000  1
  Sr  Sr2  1  0.32459050  0.82459050  0.14576000  1
  Sr  Sr3  1  0.00000000  0.00000000  0.00000000  1
  Sr  Sr4  1  0.17540950  0.32459050  0.14576000  1
  Sr  Sr5  1  0.67540950  0.82459050  0.35424000  1
  Sr  Sr6  1  0.82459050  0.32459050  0.35424000  1
  Sr  Sr7  1  0.32459050  0.17540950  0.35424000  1
  Sr  Sr8  1  0.82459050  0.67540950  0.14576000  1
  Sr  Sr9  1  0.50000000  0.50000000  0.00000000  1
  Sr  Sr10  1  0.67540950  0.17540950  0.85424000  1
  Sr  Sr11  1  0.17540950  0.67540950  0.64576000  1
  Sr  Sr12  1  0.82459050  0.32459050  0.64576000  1
  Sr  Sr13  1  0.50000000  0.50000000  0.50000000  1
  Sr  Sr14  1  0.67540950  0.82459050  0.64576000  1
  Sr  Sr15  1  0.17540950  0.32459050  0.85424000  1
  Sr  Sr16  1  0.32459050  0.82459050  0.85424000  1
  Sr  Sr17  1  0.82459050  0.67540950  0.85424000  1
  Sr  Sr18  1  0.32459050  0.17540950  0.64576000  1
  Sr  Sr19  1  0.00000000  0.00000000  0.50000000  1
  In  In20  1  0.61598450  0.88401550  0.00000000  1
  In  In21  1  0.11598450  0.61598450  0.00000000  1
  In  In22  1  0.38401550  0.11598450  0.00000000  1
  In  In23  1  0.00000000  0.00000000  0.25000000  1
  In  In24  1  0.38401550  0.88401550  0.50000000  1
  In  In25  1  0.50000000  0.50000000  0.25000000  1
  In  In26  1  0.11598450  0.38401550  0.50000000  1
  In  In27  1  0.61598450  0.11598450  0.50000000  1
  In  In28  1  0.88401550  0.61598450  0.50000000  1
  In  In29  1  0.50000000  0.50000000  0.75000000  1
  In  In30  1  0.88401550  0.38401550  0.00000000  1
  In  In31  1  0.00000000  0.00000000  0.75000000  1
