# generated using pymatgen
data_K2WO8
_symmetry_space_group_name_H-M   'P 1'
_cell_length_a   11.88134219
_cell_length_b   11.88134219
_cell_length_c   26.43650087
_cell_angle_alpha   90.00000000
_cell_angle_beta   90.00000000
_cell_angle_gamma   120.00000000
_symmetry_Int_Tables_number   1
_chemical_formula_structural   K2WO8
_chemical_formula_sum   'K36 W18 O144'
_cell_volume   3231.95727525
_cell_formula_units_Z   18
loop_
 _symmetry_equiv_pos_site_id
 _symmetry_equiv_pos_as_xyz
  1  'x, y, z'
loop_
 _atom_site_type_symbol
 _atom_site_label
 _atom_site_symmetry_multiplicity
 _atom_site_fract_x
 _atom_site_fract_y
 _atom_site_fract_z
 _atom_site_occupancy
  K  K0  1  0.35649600  0.35649600  0.25000000  1
  K  K1  1  0.64350400  0.00000000  0.25000000  1
  K  K2  1  0.00000000  0.64350400  0.25000000  1
  K  K3  1  0.31017067  0.97683733  0.08333333  1
  K  K4  1  0.02316267  0.33333333  0.08333333  1
  K  K5  1  0.66666667  0.68982933  0.08333333  1
  K  K6  1  0.00000000  0.00000000  0.00000000  1
  K  K7  1  0.33333333  0.66666667  0.16666667  1
  K  K8  1  0.33333333  0.66666667  0.99923967  1
  K  K9  1  0.33333333  0.66666667  0.83409367  1
  K  K10  1  0.33333333  0.66666667  0.33409367  1
  K  K11  1  0.33333333  0.66666667  0.49923967  1
  K  K12  1  0.02316267  0.68982933  0.58333333  1
  K  K13  1  0.31017067  0.33333333  0.58333333  1
  K  K14  1  0.66666667  0.97683733  0.58333333  1
  K  K15  1  0.97683733  0.31017067  0.41666667  1
  K  K16  1  0.68982933  0.66666667  0.41666667  1
  K  K17  1  0.33333333  0.02316267  0.41666667  1
  K  K18  1  0.66666667  0.33333333  0.33333333  1
  K  K19  1  0.00000000  0.00000000  0.50000000  1
  K  K20  1  0.00000000  0.00000000  0.33257300  1
  K  K21  1  1.00000000  0.00000000  0.16742700  1
  K  K22  1  0.00000000  0.00000000  0.66742700  1
  K  K23  1  0.00000000  0.00000000  0.83257300  1
  K  K24  1  0.68982933  0.02316267  0.91666667  1
  K  K25  1  0.97683733  0.66666667  0.91666667  1
  K  K26  1  0.33333333  0.31017067  0.91666667  1
  K  K27  1  0.64350400  0.64350400  0.75000000  1
  K  K28  1  0.35649600  0.00000000  0.75000000  1
  K  K29  1  0.00000000  0.35649600  0.75000000  1
  K  K30  1  0.33333333  0.66666667  0.66666667  1
  K  K31  1  0.66666667  0.33333333  0.83333333  1
  K  K32  1  0.66666667  0.33333333  0.66590633  1
  K  K33  1  0.66666667  0.33333333  0.50076033  1
  K  K34  1  0.66666667  0.33333333  0.00076033  1
  K  K35  1  0.66666667  0.33333333  0.16590633  1
  W  W36  1  0.68255800  0.68255800  0.25000000  1
  W  W37  1  0.31744200  0.00000000  0.25000000  1
  W  W38  1  0.00000000  0.31744200  0.25000000  1
  W  W39  1  0.98410867  0.65077533  0.08333333  1
  W  W40  1  0.34922467  0.33333333  0.08333333  1
  W  W41  1  0.66666667  0.01589133  0.08333333  1
  W  W42  1  0.34922467  0.01589133  0.58333333  1
  W  W43  1  0.98410867  0.33333333  0.58333333  1
  W  W44  1  0.66666667  0.65077533  0.58333333  1
  W  W45  1  0.65077533  0.98410867  0.41666667  1
  W  W46  1  0.01589133  0.66666667  0.41666667  1
  W  W47  1  0.33333333  0.34922467  0.41666667  1
  W  W48  1  0.01589133  0.34922467  0.91666667  1
  W  W49  1  0.65077533  0.66666667  0.91666667  1
  W  W50  1  0.33333333  0.98410867  0.91666667  1
  W  W51  1  0.31744200  0.31744200  0.75000000  1
  W  W52  1  0.68255800  0.00000000  0.75000000  1
  W  W53  1  0.00000000  0.68255800  0.75000000  1
  O  O54  1  0.48105667  0.16749733  0.23696033  1
  O  O55  1  0.83250267  0.31355933  0.23696033  1
  O  O56  1  0.68644067  0.51894333  0.23696033  1
  O  O57  1  0.51894333  0.68644067  0.26303967  1
  O  O58  1  0.31355933  0.83250267  0.26303967  1
  O  O59  1  0.16749733  0.48105667  0.26303967  1
  O  O60  1  0.18561000  0.16583600  0.09637300  1
  O  O61  1  0.83416400  0.01977400  0.09637300  1
  O  O62  1  0.98022600  0.81439000  0.09637300  1
  O  O63  1  0.14772333  0.64689267  0.07029367  1
  O  O64  1  0.35310733  0.50083067  0.07029367  1
  O  O65  1  0.49916933  0.85227667  0.07029367  1
  O  O66  1  0.49061000  0.10399900  0.28487900  1
  O  O67  1  0.89600100  0.38661100  0.28487900  1
  O  O68  1  0.61338900  0.50939000  0.28487900  1
  O  O69  1  0.50939000  0.61338900  0.21512100  1
  O  O70  1  0.38661100  0.89600100  0.21512100  1
  O  O71  1  0.10399900  0.49061000  0.21512100  1
  O  O72  1  0.42859833  0.51647467  0.37778867  1
  O  O73  1  0.08787633  0.57140167  0.37778867  1
  O  O74  1  0.48352533  0.91212367  0.37778867  1
  O  O75  1  0.91212367  0.48352533  0.12221133  1
  O  O76  1  0.57140167  0.08787633  0.12221133  1
  O  O77  1  0.51647467  0.42859833  0.12221133  1
  O  O78  1  0.23806833  0.81685867  0.95554467  1
  O  O79  1  0.57879033  0.76193167  0.95554467  1
  O  O80  1  0.18314133  0.42120967  0.95554467  1
  O  O81  1  0.75454300  0.84980800  0.21112200  1
  O  O82  1  0.09526500  0.24545700  0.21112200  1
  O  O83  1  0.15019200  0.90473500  0.21112200  1
  O  O84  1  0.30650333  0.41756867  0.35139167  1
  O  O85  1  0.11106533  0.69349667  0.35139167  1
  O  O86  1  0.58243133  0.88893467  0.35139167  1
  O  O87  1  0.88893467  0.58243133  0.14860833  1
  O  O88  1  0.69349667  0.11106533  0.14860833  1
  O  O89  1  0.41756867  0.30650333  0.14860833  1
  O  O90  1  0.36016333  0.91576467  0.98194167  1
  O  O91  1  0.55560133  0.63983667  0.98194167  1
  O  O92  1  0.08423533  0.44439867  0.98194167  1
  O  O93  1  0.77773200  0.75090200  0.18472500  1
  O  O94  1  0.97317000  0.22226800  0.18472500  1
  O  O95  1  0.24909800  0.02683000  0.18472500  1
  O  O96  1  0.56266767  0.84272333  0.11821233  1
  O  O97  1  0.28005567  0.43733233  0.11821233  1
  O  O98  1  0.15727667  0.71994433  0.11821233  1
  O  O99  1  0.05327767  0.82394333  0.04845433  1
  O  O100  1  0.77066567  0.94672233  0.04845433  1
  O  O101  1  0.17605667  0.22933433  0.04845433  1
  O  O102  1  0.14772333  0.50083067  0.57029367  1
  O  O103  1  0.49916933  0.64689267  0.57029367  1
  O  O104  1  0.35310733  0.85227667  0.57029367  1
  O  O105  1  0.18561000  0.01977400  0.59637300  1
  O  O106  1  0.98022600  0.16583600  0.59637300  1
  O  O107  1  0.83416400  0.81439000  0.59637300  1
  O  O108  1  0.85227667  0.49916933  0.42970633  1
  O  O109  1  0.50083067  0.35310733  0.42970633  1
  O  O110  1  0.64689267  0.14772333  0.42970633  1
  O  O111  1  0.81439000  0.98022600  0.40362700  1
  O  O112  1  0.01977400  0.83416400  0.40362700  1
  O  O113  1  0.16583600  0.18561000  0.40362700  1
  O  O114  1  0.15727667  0.43733233  0.61821233  1
  O  O115  1  0.56266767  0.71994433  0.61821233  1
  O  O116  1  0.28005567  0.84272333  0.61821233  1
  O  O117  1  0.17605667  0.94672233  0.54845433  1
  O  O118  1  0.05327767  0.22933433  0.54845433  1
  O  O119  1  0.77066567  0.82394333  0.54845433  1
  O  O120  1  0.09526500  0.84980800  0.71112200  1
  O  O121  1  0.75454300  0.90473500  0.71112200  1
  O  O122  1  0.15019200  0.24545700  0.71112200  1
  O  O123  1  0.57879033  0.81685867  0.45554467  1
  O  O124  1  0.23806833  0.42120967  0.45554467  1
  O  O125  1  0.18314133  0.76193167  0.45554467  1
  O  O126  1  0.90473500  0.15019200  0.28887800  1
  O  O127  1  0.24545700  0.09526500  0.28887800  1
  O  O128  1  0.84980800  0.75454300  0.28887800  1
  O  O129  1  0.42120967  0.18314133  0.54445533  1
  O  O130  1  0.76193167  0.57879033  0.54445533  1
  O  O131  1  0.81685867  0.23806833  0.54445533  1
  O  O132  1  0.97317000  0.75090200  0.68472500  1
  O  O133  1  0.77773200  0.02683000  0.68472500  1
  O  O134  1  0.24909800  0.22226800  0.68472500  1
  O  O135  1  0.55560133  0.91576467  0.48194167  1
  O  O136  1  0.36016333  0.44439867  0.48194167  1
  O  O137  1  0.08423533  0.63983667  0.48194167  1
  O  O138  1  0.02683000  0.24909800  0.31527500  1
  O  O139  1  0.22226800  0.97317000  0.31527500  1
  O  O140  1  0.75090200  0.77773200  0.31527500  1
  O  O141  1  0.44439867  0.08423533  0.51805833  1
  O  O142  1  0.63983667  0.55560133  0.51805833  1
  O  O143  1  0.91576467  0.36016333  0.51805833  1
  O  O144  1  0.22933433  0.17605667  0.45154567  1
  O  O145  1  0.94672233  0.77066567  0.45154567  1
  O  O146  1  0.82394333  0.05327767  0.45154567  1
  O  O147  1  0.71994433  0.15727667  0.38178767  1
  O  O148  1  0.43733233  0.28005567  0.38178767  1
  O  O149  1  0.84272333  0.56266767  0.38178767  1
  O  O150  1  0.81439000  0.83416400  0.90362700  1
  O  O151  1  0.16583600  0.98022600  0.90362700  1
  O  O152  1  0.01977400  0.18561000  0.90362700  1
  O  O153  1  0.85227667  0.35310733  0.92970633  1
  O  O154  1  0.64689267  0.49916933  0.92970633  1
  O  O155  1  0.50083067  0.14772333  0.92970633  1
  O  O156  1  0.51894333  0.83250267  0.76303967  1
  O  O157  1  0.16749733  0.68644067  0.76303967  1
  O  O158  1  0.31355933  0.48105667  0.76303967  1
  O  O159  1  0.48105667  0.31355933  0.73696033  1
  O  O160  1  0.68644067  0.16749733  0.73696033  1
  O  O161  1  0.83250267  0.51894333  0.73696033  1
  O  O162  1  0.82394333  0.77066567  0.95154567  1
  O  O163  1  0.22933433  0.05327767  0.95154567  1
  O  O164  1  0.94672233  0.17605667  0.95154567  1
  O  O165  1  0.84272333  0.28005567  0.88178767  1
  O  O166  1  0.71994433  0.56266767  0.88178767  1
  O  O167  1  0.43733233  0.15727667  0.88178767  1
  O  O168  1  0.76193167  0.18314133  0.04445533  1
  O  O169  1  0.42120967  0.23806833  0.04445533  1
  O  O170  1  0.81685867  0.57879033  0.04445533  1
  O  O171  1  0.24545700  0.15019200  0.78887800  1
  O  O172  1  0.90473500  0.75454300  0.78887800  1
  O  O173  1  0.84980800  0.09526500  0.78887800  1
  O  O174  1  0.57140167  0.48352533  0.62221133  1
  O  O175  1  0.91212367  0.42859833  0.62221133  1
  O  O176  1  0.51647467  0.08787633  0.62221133  1
  O  O177  1  0.08787633  0.51647467  0.87778867  1
  O  O178  1  0.42859833  0.91212367  0.87778867  1
  O  O179  1  0.48352533  0.57140167  0.87778867  1
  O  O180  1  0.63983667  0.08423533  0.01805833  1
  O  O181  1  0.44439867  0.36016333  0.01805833  1
  O  O182  1  0.91576467  0.55560133  0.01805833  1
  O  O183  1  0.22226800  0.24909800  0.81527500  1
  O  O184  1  0.02683000  0.77773200  0.81527500  1
  O  O185  1  0.75090200  0.97317000  0.81527500  1
  O  O186  1  0.69349667  0.58243133  0.64860833  1
  O  O187  1  0.88893467  0.30650333  0.64860833  1
  O  O188  1  0.41756867  0.11106533  0.64860833  1
  O  O189  1  0.11106533  0.41756867  0.85139167  1
  O  O190  1  0.30650333  0.88893467  0.85139167  1
  O  O191  1  0.58243133  0.69349667  0.85139167  1
  O  O192  1  0.89600100  0.50939000  0.78487900  1
  O  O193  1  0.61338900  0.10399900  0.78487900  1
  O  O194  1  0.49061000  0.38661100  0.78487900  1
  O  O195  1  0.38661100  0.49061000  0.71512100  1
  O  O196  1  0.10399900  0.61338900  0.71512100  1
  O  O197  1  0.50939000  0.89600100  0.71512100  1
