# generated using pymatgen
data_Ce5Si3
_symmetry_space_group_name_H-M   'P 1'
_cell_length_a   7.74429000
_cell_length_b   7.74429000
_cell_length_c   12.90389400
_cell_angle_alpha   90.00000000
_cell_angle_beta   90.00000000
_cell_angle_gamma   90.00000000
_symmetry_Int_Tables_number   1
_chemical_formula_structural   Ce5Si3
_chemical_formula_sum   'Ce20 Si12'
_cell_volume   773.89849496
_cell_formula_units_Z   4
loop_
 _symmetry_equiv_pos_site_id
 _symmetry_equiv_pos_as_xyz
  1  'x, y, z'
loop_
 _atom_site_type_symbol
 _atom_site_label
 _atom_site_symmetry_multiplicity
 _atom_site_fract_x
 _atom_site_fract_y
 _atom_site_fract_z
 _atom_site_occupancy
  Ce  Ce0  1  0.31932850  0.18067150  0.34589550  1
  Ce  Ce1  1  0.81932850  0.68067150  0.15410450  1
  Ce  Ce2  1  0.68067150  0.18067150  0.15410450  1
  Ce  Ce3  1  0.18067150  0.31932850  0.15410450  1
  Ce  Ce4  1  0.68067150  0.81932850  0.34589550  1
  Ce  Ce5  1  0.50000000  0.50000000  0.00000000  1
  Ce  Ce6  1  0.31932850  0.81932850  0.15410450  1
  Ce  Ce7  1  0.81932850  0.31932850  0.34589550  1
  Ce  Ce8  1  0.00000000  0.00000000  0.00000000  1
  Ce  Ce9  1  0.18067150  0.68067150  0.34589550  1
  Ce  Ce10  1  0.81932850  0.68067150  0.84589550  1
  Ce  Ce11  1  0.31932850  0.18067150  0.65410450  1
  Ce  Ce12  1  0.18067150  0.68067150  0.65410450  1
  Ce  Ce13  1  0.68067150  0.81932850  0.65410450  1
  Ce  Ce14  1  0.18067150  0.31932850  0.84589550  1
  Ce  Ce15  1  0.00000000  0.00000000  0.50000000  1
  Ce  Ce16  1  0.81932850  0.31932850  0.65410450  1
  Ce  Ce17  1  0.31932850  0.81932850  0.84589550  1
  Ce  Ce18  1  0.50000000  0.50000000  0.50000000  1
  Ce  Ce19  1  0.68067150  0.18067150  0.84589550  1
  Si  Si20  1  0.61393600  0.88606400  0.00000000  1
  Si  Si21  1  0.88606400  0.38606400  0.00000000  1
  Si  Si22  1  0.11393600  0.61393600  0.00000000  1
  Si  Si23  1  0.38606400  0.11393600  0.00000000  1
  Si  Si24  1  0.00000000  0.00000000  0.25000000  1
  Si  Si25  1  0.50000000  0.50000000  0.25000000  1
  Si  Si26  1  0.11393600  0.38606400  0.50000000  1
  Si  Si27  1  0.38606400  0.88606400  0.50000000  1
  Si  Si28  1  0.61393600  0.11393600  0.50000000  1
  Si  Si29  1  0.88606400  0.61393600  0.50000000  1
  Si  Si30  1  0.50000000  0.50000000  0.75000000  1
  Si  Si31  1  0.00000000  0.00000000  0.75000000  1
