# generated using pymatgen
data_Ca3(B3Rh4)2
_symmetry_space_group_name_H-M   'P 1'
_cell_length_a   5.55189400
_cell_length_b   9.81463600
_cell_length_c   17.13369800
_cell_angle_alpha   90.00000000
_cell_angle_beta   90.00000000
_cell_angle_gamma   90.00000000
_symmetry_Int_Tables_number   1
_chemical_formula_structural   Ca3(B3Rh4)2
_chemical_formula_sum   'Ca12 B24 Rh32'
_cell_volume   933.61209803
_cell_formula_units_Z   4
loop_
 _symmetry_equiv_pos_site_id
 _symmetry_equiv_pos_as_xyz
  1  'x, y, z'
loop_
 _atom_site_type_symbol
 _atom_site_label
 _atom_site_symmetry_multiplicity
 _atom_site_fract_x
 _atom_site_fract_y
 _atom_site_fract_z
 _atom_site_occupancy
  Ca  Ca0  1  0.50000000  0.00000000  0.81794100  1
  Ca  Ca1  1  0.00000000  0.00000000  0.68205900  1
  Ca  Ca2  1  0.50000000  0.00000000  0.00000000  1
  Ca  Ca3  1  0.50000000  0.50000000  0.31794100  1
  Ca  Ca4  1  0.00000000  0.50000000  0.18205900  1
  Ca  Ca5  1  0.50000000  0.50000000  0.50000000  1
  Ca  Ca6  1  0.00000000  0.00000000  0.31794100  1
  Ca  Ca7  1  0.50000000  0.00000000  0.18205900  1
  Ca  Ca8  1  0.00000000  0.00000000  0.50000000  1
  Ca  Ca9  1  0.00000000  0.50000000  0.81794100  1
  Ca  Ca10  1  0.50000000  0.50000000  0.68205900  1
  Ca  Ca11  1  0.00000000  0.50000000  0.00000000  1
  B  B12  1  0.00000000  0.83985500  0.82887600  1
  B  B13  1  0.50000000  0.66014500  0.82887600  1
  B  B14  1  0.00000000  0.66014500  0.67112400  1
  B  B15  1  0.50000000  0.83985500  0.67112400  1
  B  B16  1  0.50000000  0.66635700  0.00000000  1
  B  B17  1  0.00000000  0.83364300  0.00000000  1
  B  B18  1  0.00000000  0.33985500  0.32887600  1
  B  B19  1  0.50000000  0.16014500  0.32887600  1
  B  B20  1  0.00000000  0.16014500  0.17112400  1
  B  B21  1  0.50000000  0.33985500  0.17112400  1
  B  B22  1  0.50000000  0.16635700  0.50000000  1
  B  B23  1  0.00000000  0.33364300  0.50000000  1
  B  B24  1  0.50000000  0.83985500  0.32887600  1
  B  B25  1  0.00000000  0.66014500  0.32887600  1
  B  B26  1  0.50000000  0.66014500  0.17112400  1
  B  B27  1  0.00000000  0.83985500  0.17112400  1
  B  B28  1  0.00000000  0.66635700  0.50000000  1
  B  B29  1  0.50000000  0.83364300  0.50000000  1
  B  B30  1  0.50000000  0.33985500  0.82887600  1
  B  B31  1  0.00000000  0.16014500  0.82887600  1
  B  B32  1  0.50000000  0.16014500  0.67112400  1
  B  B33  1  0.00000000  0.33985500  0.67112400  1
  B  B34  1  0.00000000  0.16635700  0.00000000  1
  B  B35  1  0.50000000  0.33364300  0.00000000  1
  Rh  Rh36  1  0.75000000  0.75000000  0.58476400  1
  Rh  Rh37  1  0.00000000  0.00000000  0.91346800  1
  Rh  Rh38  1  0.25000000  0.75000000  0.91523600  1
  Rh  Rh39  1  0.25000000  0.75000000  0.58476400  1
  Rh  Rh40  1  0.75000000  0.75000000  0.91523600  1
  Rh  Rh41  1  0.25000000  0.75000000  0.75000000  1
  Rh  Rh42  1  0.50000000  0.00000000  0.58653200  1
  Rh  Rh43  1  0.75000000  0.75000000  0.75000000  1
  Rh  Rh44  1  0.75000000  0.25000000  0.08476400  1
  Rh  Rh45  1  0.00000000  0.50000000  0.41346800  1
  Rh  Rh46  1  0.25000000  0.25000000  0.41523600  1
  Rh  Rh47  1  0.25000000  0.25000000  0.08476400  1
  Rh  Rh48  1  0.75000000  0.25000000  0.41523600  1
  Rh  Rh49  1  0.25000000  0.25000000  0.25000000  1
  Rh  Rh50  1  0.50000000  0.50000000  0.08653200  1
  Rh  Rh51  1  0.75000000  0.25000000  0.25000000  1
  Rh  Rh52  1  0.25000000  0.75000000  0.08476400  1
  Rh  Rh53  1  0.50000000  0.00000000  0.41346800  1
  Rh  Rh54  1  0.75000000  0.75000000  0.41523600  1
  Rh  Rh55  1  0.75000000  0.75000000  0.08476400  1
  Rh  Rh56  1  0.25000000  0.75000000  0.41523600  1
  Rh  Rh57  1  0.75000000  0.75000000  0.25000000  1
  Rh  Rh58  1  0.00000000  0.00000000  0.08653200  1
  Rh  Rh59  1  0.25000000  0.75000000  0.25000000  1
  Rh  Rh60  1  0.25000000  0.25000000  0.58476400  1
  Rh  Rh61  1  0.50000000  0.50000000  0.91346800  1
  Rh  Rh62  1  0.75000000  0.25000000  0.91523600  1
  Rh  Rh63  1  0.75000000  0.25000000  0.58476400  1
  Rh  Rh64  1  0.25000000  0.25000000  0.91523600  1
  Rh  Rh65  1  0.75000000  0.25000000  0.75000000  1
  Rh  Rh66  1  0.00000000  0.50000000  0.58653200  1
  Rh  Rh67  1  0.25000000  0.25000000  0.75000000  1
