# generated using pymatgen
data_Na2GaNiF7
_symmetry_space_group_name_H-M   'P 1'
_cell_length_a   7.23167000
_cell_length_b   7.52223800
_cell_length_c   10.35033600
_cell_angle_alpha   90.00000000
_cell_angle_beta   90.00000000
_cell_angle_gamma   90.00000000
_symmetry_Int_Tables_number   1
_chemical_formula_structural   Na2GaNiF7
_chemical_formula_sum   'Na8 Ga4 Ni4 F28'
_cell_volume   563.04112662
_cell_formula_units_Z   4
loop_
 _symmetry_equiv_pos_site_id
 _symmetry_equiv_pos_as_xyz
  1  'x, y, z'
loop_
 _atom_site_type_symbol
 _atom_site_label
 _atom_site_symmetry_multiplicity
 _atom_site_fract_x
 _atom_site_fract_y
 _atom_site_fract_z
 _atom_site_occupancy
  Na  Na0  1  0.75000000  0.25000000  0.25000000  1
  Na  Na1  1  0.00000000  0.00000000  0.00000000  1
  Na  Na2  1  0.25000000  0.25000000  0.25000000  1
  Na  Na3  1  0.00000000  0.00000000  0.50000000  1
  Na  Na4  1  0.25000000  0.75000000  0.75000000  1
  Na  Na5  1  0.50000000  0.50000000  0.50000000  1
  Na  Na6  1  0.75000000  0.75000000  0.75000000  1
  Na  Na7  1  0.50000000  0.50000000  0.00000000  1
  Ga  Ga8  1  0.50000000  0.00000000  0.00000000  1
  Ga  Ga9  1  0.50000000  0.00000000  0.50000000  1
  Ga  Ga10  1  0.00000000  0.50000000  0.50000000  1
  Ga  Ga11  1  0.00000000  0.50000000  0.00000000  1
  Ni  Ni12  1  0.25000000  0.75000000  0.25000000  1
  Ni  Ni13  1  0.75000000  0.75000000  0.25000000  1
  Ni  Ni14  1  0.75000000  0.25000000  0.75000000  1
  Ni  Ni15  1  0.25000000  0.25000000  0.75000000  1
  F  F16  1  0.00000000  0.85914000  0.25000000  1
  F  F17  1  0.00000000  0.27253600  0.41127800  1
  F  F18  1  0.30338650  0.93660550  0.11516950  1
  F  F19  1  0.69661350  0.06339450  0.61516950  1
  F  F20  1  0.50000000  0.77253600  0.58872200  1
  F  F21  1  0.69661350  0.93660550  0.38483050  1
  F  F22  1  0.69661350  0.93660550  0.11516950  1
  F  F23  1  0.30338650  0.06339450  0.61516950  1
  F  F24  1  0.00000000  0.14086000  0.75000000  1
  F  F25  1  0.30338650  0.06339450  0.88483050  1
  F  F26  1  0.00000000  0.72746400  0.58872200  1
  F  F27  1  0.69661350  0.06339450  0.88483050  1
  F  F28  1  0.30338650  0.93660550  0.38483050  1
  F  F29  1  0.50000000  0.22746400  0.41127800  1
  F  F30  1  0.50000000  0.35914000  0.75000000  1
  F  F31  1  0.50000000  0.77253600  0.91127800  1
  F  F32  1  0.80338650  0.43660550  0.61516950  1
  F  F33  1  0.19661350  0.56339450  0.11516950  1
  F  F34  1  0.00000000  0.27253600  0.08872200  1
  F  F35  1  0.19661350  0.43660550  0.88483050  1
  F  F36  1  0.19661350  0.43660550  0.61516950  1
  F  F37  1  0.80338650  0.56339450  0.11516950  1
  F  F38  1  0.50000000  0.64086000  0.25000000  1
  F  F39  1  0.80338650  0.56339450  0.38483050  1
  F  F40  1  0.50000000  0.22746400  0.08872200  1
  F  F41  1  0.19661350  0.56339450  0.38483050  1
  F  F42  1  0.80338650  0.43660550  0.88483050  1
  F  F43  1  0.00000000  0.72746400  0.91127800  1
