# generated using pymatgen
data_NdSbMo2O9
_symmetry_space_group_name_H-M   'P 1'
_cell_length_a   13.26828400
_cell_length_b   14.70076600
_cell_length_c   11.06000266
_cell_angle_alpha   90.00000000
_cell_angle_beta   123.44603383
_cell_angle_gamma   90.00000000
_symmetry_Int_Tables_number   1
_chemical_formula_structural   NdSbMo2O9
_chemical_formula_sum   'Nd8 Sb8 Mo16 O72'
_cell_volume   1800.06014600
_cell_formula_units_Z   8
loop_
 _symmetry_equiv_pos_site_id
 _symmetry_equiv_pos_as_xyz
  1  'x, y, z'
loop_
 _atom_site_type_symbol
 _atom_site_label
 _atom_site_symmetry_multiplicity
 _atom_site_fract_x
 _atom_site_fract_y
 _atom_site_fract_z
 _atom_site_occupancy
  Nd  Nd0  1  0.50000000  0.62446000  0.25000000  1
  Nd  Nd1  1  0.50000000  0.82550800  0.75000000  1
  Nd  Nd2  1  0.50000000  0.37554000  0.75000000  1
  Nd  Nd3  1  0.50000000  0.17449200  0.25000000  1
  Nd  Nd4  1  0.00000000  0.12446000  0.25000000  1
  Nd  Nd5  1  0.00000000  0.32550800  0.75000000  1
  Nd  Nd6  1  0.00000000  0.87554000  0.75000000  1
  Nd  Nd7  1  0.00000000  0.67449200  0.25000000  1
  Sb  Sb8  1  0.36563700  0.98750700  0.96236200  1
  Sb  Sb9  1  0.36563700  0.01249300  0.46236200  1
  Sb  Sb10  1  0.63436300  0.98750700  0.53763800  1
  Sb  Sb11  1  0.63436300  0.01249300  0.03763800  1
  Sb  Sb12  1  0.86563700  0.48750700  0.96236200  1
  Sb  Sb13  1  0.86563700  0.51249300  0.46236200  1
  Sb  Sb14  1  0.13436300  0.48750700  0.53763800  1
  Sb  Sb15  1  0.13436300  0.51249300  0.03763800  1
  Mo  Mo16  1  0.15402850  0.89494350  0.52639700  1
  Mo  Mo17  1  0.15402850  0.10505650  0.02639700  1
  Mo  Mo18  1  0.84597150  0.10505650  0.47360300  1
  Mo  Mo19  1  0.24770400  0.81293500  0.19526100  1
  Mo  Mo20  1  0.75229600  0.81293500  0.30473900  1
  Mo  Mo21  1  0.24770400  0.18706500  0.69526100  1
  Mo  Mo22  1  0.75229600  0.18706500  0.80473900  1
  Mo  Mo23  1  0.84597150  0.89494350  0.97360300  1
  Mo  Mo24  1  0.65402850  0.39494350  0.52639700  1
  Mo  Mo25  1  0.65402850  0.60505650  0.02639700  1
  Mo  Mo26  1  0.34597150  0.60505650  0.47360300  1
  Mo  Mo27  1  0.74770400  0.31293500  0.19526100  1
  Mo  Mo28  1  0.25229600  0.31293500  0.30473900  1
  Mo  Mo29  1  0.74770400  0.68706500  0.69526100  1
  Mo  Mo30  1  0.25229600  0.68706500  0.80473900  1
  Mo  Mo31  1  0.34597150  0.39494350  0.97360300  1
  O  O32  1  0.41345250  0.28935150  0.06181100  1
  O  O33  1  0.70713700  0.07997700  0.69894000  1
  O  O34  1  0.29286300  0.07997700  0.80106000  1
  O  O35  1  0.51754250  0.94175050  0.59797800  1
  O  O36  1  0.32378150  0.76456050  0.75068900  1
  O  O37  1  0.35401300  0.66090500  0.99110200  1
  O  O38  1  0.37923700  0.76111300  0.22295300  1
  O  O39  1  0.68863550  0.09211650  0.42410800  1
  O  O40  1  0.37923700  0.23888700  0.72295300  1
  O  O41  1  0.67621850  0.23543950  0.24931100  1
  O  O42  1  0.68863550  0.90788350  0.92410800  1
  O  O43  1  0.64598700  0.66090500  0.50889800  1
  O  O44  1  0.07969000  0.01592100  0.90021600  1
  O  O45  1  0.48245750  0.05824950  0.40202200  1
  O  O46  1  0.07969000  0.98407900  0.40021600  1
  O  O47  1  0.92031000  0.98407900  0.09978400  1
  O  O48  1  0.62076300  0.76111300  0.27704700  1
  O  O49  1  0.62076300  0.23888700  0.77704700  1
  O  O50  1  0.48245750  0.94175050  0.90202200  1
  O  O51  1  0.86139900  0.91222400  0.82370900  1
  O  O52  1  0.31136450  0.90788350  0.57589200  1
  O  O53  1  0.32378150  0.23543950  0.25068900  1
  O  O54  1  0.31136450  0.09211650  0.07589200  1
  O  O55  1  0.64598700  0.33909500  0.00889800  1
  O  O56  1  0.13860100  0.91222400  0.67629100  1
  O  O57  1  0.70713700  0.92002300  0.19894000  1
  O  O58  1  0.51754250  0.05824950  0.09797800  1
  O  O59  1  0.67621850  0.76456050  0.74931100  1
  O  O60  1  0.86139900  0.08777600  0.32370900  1
  O  O61  1  0.35401300  0.33909500  0.49110200  1
  O  O62  1  0.58654750  0.28935150  0.43818900  1
  O  O63  1  0.41345250  0.71064850  0.56181100  1
  O  O64  1  0.13860100  0.08777600  0.17629100  1
  O  O65  1  0.92031000  0.01592100  0.59978400  1
  O  O66  1  0.29286300  0.92002300  0.30106000  1
  O  O67  1  0.58654750  0.71064850  0.93818900  1
  O  O68  1  0.91345250  0.78935150  0.06181100  1
  O  O69  1  0.20713700  0.57997700  0.69894000  1
  O  O70  1  0.79286300  0.57997700  0.80106000  1
  O  O71  1  0.01754250  0.44175050  0.59797800  1
  O  O72  1  0.82378150  0.26456050  0.75068900  1
  O  O73  1  0.85401300  0.16090500  0.99110200  1
  O  O74  1  0.87923700  0.26111300  0.22295300  1
  O  O75  1  0.18863550  0.59211650  0.42410800  1
  O  O76  1  0.87923700  0.73888700  0.72295300  1
  O  O77  1  0.17621850  0.73543950  0.24931100  1
  O  O78  1  0.18863550  0.40788350  0.92410800  1
  O  O79  1  0.14598700  0.16090500  0.50889800  1
  O  O80  1  0.57969000  0.51592100  0.90021600  1
  O  O81  1  0.98245750  0.55824950  0.40202200  1
  O  O82  1  0.57969000  0.48407900  0.40021600  1
  O  O83  1  0.42031000  0.48407900  0.09978400  1
  O  O84  1  0.12076300  0.26111300  0.27704700  1
  O  O85  1  0.12076300  0.73888700  0.77704700  1
  O  O86  1  0.98245750  0.44175050  0.90202200  1
  O  O87  1  0.36139900  0.41222400  0.82370900  1
  O  O88  1  0.81136450  0.40788350  0.57589200  1
  O  O89  1  0.82378150  0.73543950  0.25068900  1
  O  O90  1  0.81136450  0.59211650  0.07589200  1
  O  O91  1  0.14598700  0.83909500  0.00889800  1
  O  O92  1  0.63860100  0.41222400  0.67629100  1
  O  O93  1  0.20713700  0.42002300  0.19894000  1
  O  O94  1  0.01754250  0.55824950  0.09797800  1
  O  O95  1  0.17621850  0.26456050  0.74931100  1
  O  O96  1  0.36139900  0.58777600  0.32370900  1
  O  O97  1  0.85401300  0.83909500  0.49110200  1
  O  O98  1  0.08654750  0.78935150  0.43818900  1
  O  O99  1  0.91345250  0.21064850  0.56181100  1
  O  O100  1  0.63860100  0.58777600  0.17629100  1
  O  O101  1  0.42031000  0.51592100  0.59978400  1
  O  O102  1  0.79286300  0.42002300  0.30106000  1
  O  O103  1  0.08654750  0.21064850  0.93818900  1
