# generated using pymatgen
data_KMo2Cl7O2
_symmetry_space_group_name_H-M   'P 1'
_cell_length_a   11.39524200
_cell_length_b   11.96424600
_cell_length_c   10.68755167
_cell_angle_alpha   90.00000000
_cell_angle_beta   108.87545942
_cell_angle_gamma   90.00000000
_symmetry_Int_Tables_number   1
_chemical_formula_structural   KMo2Cl7O2
_chemical_formula_sum   'K4 Mo8 Cl28 O8'
_cell_volume   1378.73588119
_cell_formula_units_Z   4
loop_
 _symmetry_equiv_pos_site_id
 _symmetry_equiv_pos_as_xyz
  1  'x, y, z'
loop_
 _atom_site_type_symbol
 _atom_site_label
 _atom_site_symmetry_multiplicity
 _atom_site_fract_x
 _atom_site_fract_y
 _atom_site_fract_z
 _atom_site_occupancy
  K  K0  1  0.50000000  0.09082300  0.75000000  1
  K  K1  1  0.50000000  0.90917700  0.25000000  1
  K  K2  1  0.00000000  0.59082300  0.75000000  1
  K  K3  1  0.00000000  0.40917700  0.25000000  1
  Mo  Mo4  1  0.38802300  0.74237200  0.83768200  1
  Mo  Mo5  1  0.61197700  0.25762800  0.16231800  1
  Mo  Mo6  1  0.61197700  0.74237200  0.66231800  1
  Mo  Mo7  1  0.38802300  0.25762800  0.33768200  1
  Mo  Mo8  1  0.88802300  0.24237200  0.83768200  1
  Mo  Mo9  1  0.11197700  0.75762800  0.16231800  1
  Mo  Mo10  1  0.11197700  0.24237200  0.66231800  1
  Mo  Mo11  1  0.88802300  0.75762800  0.33768200  1
  Cl  Cl12  1  0.62832000  0.16614700  0.37167600  1
  Cl  Cl13  1  0.48612450  0.67997950  0.05461100  1
  Cl  Cl14  1  0.50000000  0.59682600  0.75000000  1
  Cl  Cl15  1  0.34541100  0.08435200  0.41839700  1
  Cl  Cl16  1  0.65458900  0.91564800  0.58160300  1
  Cl  Cl17  1  0.50000000  0.40317400  0.25000000  1
  Cl  Cl18  1  0.37168000  0.16614700  0.12832400  1
  Cl  Cl19  1  0.51387550  0.67997950  0.44538900  1
  Cl  Cl20  1  0.65458900  0.08435200  0.08160300  1
  Cl  Cl21  1  0.37168000  0.83385300  0.62832400  1
  Cl  Cl22  1  0.51387550  0.32002050  0.94538900  1
  Cl  Cl23  1  0.34541100  0.91564800  0.91839700  1
  Cl  Cl24  1  0.62832000  0.83385300  0.87167600  1
  Cl  Cl25  1  0.48612450  0.32002050  0.55461100  1
  Cl  Cl26  1  0.12832000  0.66614700  0.37167600  1
  Cl  Cl27  1  0.98612450  0.17997950  0.05461100  1
  Cl  Cl28  1  0.00000000  0.09682600  0.75000000  1
  Cl  Cl29  1  0.84541100  0.58435200  0.41839700  1
  Cl  Cl30  1  0.15458900  0.41564800  0.58160300  1
  Cl  Cl31  1  0.00000000  0.90317400  0.25000000  1
  Cl  Cl32  1  0.87168000  0.66614700  0.12832400  1
  Cl  Cl33  1  0.01387550  0.17997950  0.44538900  1
  Cl  Cl34  1  0.15458900  0.58435200  0.08160300  1
  Cl  Cl35  1  0.87168000  0.33385300  0.62832400  1
  Cl  Cl36  1  0.01387550  0.82002050  0.94538900  1
  Cl  Cl37  1  0.84541100  0.41564800  0.91839700  1
  Cl  Cl38  1  0.12832000  0.33385300  0.87167600  1
  Cl  Cl39  1  0.98612450  0.82002050  0.55461100  1
  O  O40  1  0.25098450  0.82463250  0.20532300  1
  O  O41  1  0.74901550  0.82463250  0.29467700  1
  O  O42  1  0.74901550  0.17536750  0.79467700  1
  O  O43  1  0.25098450  0.17536750  0.70532300  1
  O  O44  1  0.75098450  0.32463250  0.20532300  1
  O  O45  1  0.24901550  0.32463250  0.29467700  1
  O  O46  1  0.24901550  0.67536750  0.79467700  1
  O  O47  1  0.75098450  0.67536750  0.70532300  1
