# generated using pymatgen
data_Li3VF6
_symmetry_space_group_name_H-M   'P 1'
_cell_length_a   14.63655000
_cell_length_b   8.83236200
_cell_length_c   10.27292026
_cell_angle_alpha   90.00000000
_cell_angle_beta   96.00939043
_cell_angle_gamma   90.00000000
_symmetry_Int_Tables_number   1
_chemical_formula_structural   Li3VF6
_chemical_formula_sum   'Li36 V12 F72'
_cell_volume   1320.73704769
_cell_formula_units_Z   12
loop_
 _symmetry_equiv_pos_site_id
 _symmetry_equiv_pos_as_xyz
  1  'x, y, z'
loop_
 _atom_site_type_symbol
 _atom_site_label
 _atom_site_symmetry_multiplicity
 _atom_site_fract_x
 _atom_site_fract_y
 _atom_site_fract_z
 _atom_site_occupancy
  Li  Li0  1  0.50000000  0.68983100  0.25000000  1
  Li  Li1  1  0.35833300  0.65048900  0.72568200  1
  Li  Li2  1  0.64166700  0.65048900  0.77431800  1
  Li  Li3  1  0.64166700  0.34951100  0.27431800  1
  Li  Li4  1  0.35833300  0.34951100  0.22568200  1
  Li  Li5  1  0.47698350  0.84863850  0.97026300  1
  Li  Li6  1  0.52301650  0.84863850  0.52973700  1
  Li  Li7  1  0.50000000  0.31016900  0.75000000  1
  Li  Li8  1  0.20147300  0.14430400  0.42979700  1
  Li  Li9  1  0.79852700  0.14430400  0.07020300  1
  Li  Li10  1  0.79852700  0.85569600  0.57020300  1
  Li  Li11  1  0.20147300  0.85569600  0.92979700  1
  Li  Li12  1  0.66885600  0.80169400  0.04930300  1
  Li  Li13  1  0.33114400  0.80169400  0.45069700  1
  Li  Li14  1  0.33114400  0.19830600  0.95069700  1
  Li  Li15  1  0.66885600  0.19830600  0.54930300  1
  Li  Li16  1  0.47698350  0.15136150  0.47026300  1
  Li  Li17  1  0.52301650  0.15136150  0.02973700  1
  Li  Li18  1  0.00000000  0.18983100  0.25000000  1
  Li  Li19  1  0.85833300  0.15048900  0.72568200  1
  Li  Li20  1  0.14166700  0.15048900  0.77431800  1
  Li  Li21  1  0.14166700  0.84951100  0.27431800  1
  Li  Li22  1  0.85833300  0.84951100  0.22568200  1
  Li  Li23  1  0.97698350  0.34863850  0.97026300  1
  Li  Li24  1  0.02301650  0.34863850  0.52973700  1
  Li  Li25  1  0.00000000  0.81016900  0.75000000  1
  Li  Li26  1  0.70147300  0.64430400  0.42979700  1
  Li  Li27  1  0.29852700  0.64430400  0.07020300  1
  Li  Li28  1  0.29852700  0.35569600  0.57020300  1
  Li  Li29  1  0.70147300  0.35569600  0.92979700  1
  Li  Li30  1  0.16885600  0.30169400  0.04930300  1
  Li  Li31  1  0.83114400  0.30169400  0.45069700  1
  Li  Li32  1  0.83114400  0.69830600  0.95069700  1
  Li  Li33  1  0.16885600  0.69830600  0.54930300  1
  Li  Li34  1  0.97698350  0.65136150  0.47026300  1
  Li  Li35  1  0.02301650  0.65136150  0.02973700  1
  V  V36  1  0.33797600  0.99827300  0.20625900  1
  V  V37  1  0.66202400  0.99827300  0.29374100  1
  V  V38  1  0.66202400  0.00172700  0.79374100  1
  V  V39  1  0.33797600  0.00172700  0.70625900  1
  V  V40  1  0.00000000  0.00000000  0.50000000  1
  V  V41  1  0.00000000  0.00000000  0.00000000  1
  V  V42  1  0.83797600  0.49827300  0.20625900  1
  V  V43  1  0.16202400  0.49827300  0.29374100  1
  V  V44  1  0.16202400  0.50172700  0.79374100  1
  V  V45  1  0.83797600  0.50172700  0.70625900  1
  V  V46  1  0.50000000  0.50000000  0.50000000  1
  V  V47  1  0.50000000  0.50000000  0.00000000  1
  F  F48  1  0.07245450  0.00235750  0.16924100  1
  F  F49  1  0.25942300  0.15369900  0.60669800  1
  F  F50  1  0.74057700  0.15369900  0.89330200  1
  F  F51  1  0.07245450  0.99764250  0.66924100  1
  F  F52  1  0.92754550  0.99764250  0.83075900  1
  F  F53  1  0.92754550  0.00235750  0.33075900  1
  F  F54  1  0.59180400  0.83870800  0.19336800  1
  F  F55  1  0.40819600  0.83870800  0.30663200  1
  F  F56  1  0.40819600  0.16129200  0.80663200  1
  F  F57  1  0.59180400  0.16129200  0.69336800  1
  F  F58  1  0.73127650  0.83439950  0.88701400  1
  F  F59  1  0.26872350  0.83439950  0.61298600  1
  F  F60  1  0.26872350  0.16560050  0.11298600  1
  F  F61  1  0.73127650  0.16560050  0.38701400  1
  F  F62  1  0.59901950  0.83925950  0.69110400  1
  F  F63  1  0.40098050  0.83925950  0.80889600  1
  F  F64  1  0.40098050  0.16074050  0.30889600  1
  F  F65  1  0.59901950  0.16074050  0.19110400  1
  F  F66  1  0.24859550  0.97881050  0.34209400  1
  F  F67  1  0.75140450  0.97881050  0.15790600  1
  F  F68  1  0.75140450  0.02118950  0.65790600  1
  F  F69  1  0.24859550  0.02118950  0.84209400  1
  F  F70  1  0.42183000  0.66234900  0.56027800  1
  F  F71  1  0.57817000  0.66234900  0.93972200  1
  F  F72  1  0.57817000  0.33765100  0.43972200  1
  F  F73  1  0.42183000  0.33765100  0.06027800  1
  F  F74  1  0.57295450  0.67112650  0.43117800  1
  F  F75  1  0.42704550  0.67112650  0.06882200  1
  F  F76  1  0.42704550  0.32887350  0.56882200  1
  F  F77  1  0.57295450  0.32887350  0.93117800  1
  F  F78  1  0.57949600  0.98665600  0.93599700  1
  F  F79  1  0.42050400  0.98665600  0.56400300  1
  F  F80  1  0.42050400  0.01334400  0.06400300  1
  F  F81  1  0.57949600  0.01334400  0.43599700  1
  F  F82  1  0.74057700  0.84630100  0.39330200  1
  F  F83  1  0.25942300  0.84630100  0.10669800  1
  F  F84  1  0.57245450  0.50235750  0.16924100  1
  F  F85  1  0.75942300  0.65369900  0.60669800  1
  F  F86  1  0.24057700  0.65369900  0.89330200  1
  F  F87  1  0.57245450  0.49764250  0.66924100  1
  F  F88  1  0.42754550  0.49764250  0.83075900  1
  F  F89  1  0.42754550  0.50235750  0.33075900  1
  F  F90  1  0.09180400  0.33870800  0.19336800  1
  F  F91  1  0.90819600  0.33870800  0.30663200  1
  F  F92  1  0.90819600  0.66129200  0.80663200  1
  F  F93  1  0.09180400  0.66129200  0.69336800  1
  F  F94  1  0.23127650  0.33439950  0.88701400  1
  F  F95  1  0.76872350  0.33439950  0.61298600  1
  F  F96  1  0.76872350  0.66560050  0.11298600  1
  F  F97  1  0.23127650  0.66560050  0.38701400  1
  F  F98  1  0.09901950  0.33925950  0.69110400  1
  F  F99  1  0.90098050  0.33925950  0.80889600  1
  F  F100  1  0.90098050  0.66074050  0.30889600  1
  F  F101  1  0.09901950  0.66074050  0.19110400  1
  F  F102  1  0.74859550  0.47881050  0.34209400  1
  F  F103  1  0.25140450  0.47881050  0.15790600  1
  F  F104  1  0.25140450  0.52118950  0.65790600  1
  F  F105  1  0.74859550  0.52118950  0.84209400  1
  F  F106  1  0.92183000  0.16234900  0.56027800  1
  F  F107  1  0.07817000  0.16234900  0.93972200  1
  F  F108  1  0.07817000  0.83765100  0.43972200  1
  F  F109  1  0.92183000  0.83765100  0.06027800  1
  F  F110  1  0.07295450  0.17112650  0.43117800  1
  F  F111  1  0.92704550  0.17112650  0.06882200  1
  F  F112  1  0.92704550  0.82887350  0.56882200  1
  F  F113  1  0.07295450  0.82887350  0.93117800  1
  F  F114  1  0.07949600  0.48665600  0.93599700  1
  F  F115  1  0.92050400  0.48665600  0.56400300  1
  F  F116  1  0.92050400  0.51334400  0.06400300  1
  F  F117  1  0.07949600  0.51334400  0.43599700  1
  F  F118  1  0.24057700  0.34630100  0.39330200  1
  F  F119  1  0.75942300  0.34630100  0.10669800  1
