# generated using pymatgen
data_Pb3WCl2O5
_symmetry_space_group_name_H-M   'P 1'
_cell_length_a   5.72423000
_cell_length_b   13.27873600
_cell_length_c   11.27935300
_cell_angle_alpha   90.00000000
_cell_angle_beta   90.00000000
_cell_angle_gamma   90.00000000
_symmetry_Int_Tables_number   1
_chemical_formula_structural   Pb3WCl2O5
_chemical_formula_sum   'Pb12 W4 Cl8 O20'
_cell_volume   857.34970080
_cell_formula_units_Z   4
loop_
 _symmetry_equiv_pos_site_id
 _symmetry_equiv_pos_as_xyz
  1  'x, y, z'
loop_
 _atom_site_type_symbol
 _atom_site_label
 _atom_site_symmetry_multiplicity
 _atom_site_fract_x
 _atom_site_fract_y
 _atom_site_fract_z
 _atom_site_occupancy
  Pb  Pb0  1  0.00000000  0.09666500  0.25000000  1
  Pb  Pb1  1  0.00000000  0.34649500  0.03226500  1
  Pb  Pb2  1  0.50000000  0.15350500  0.96773500  1
  Pb  Pb3  1  0.00000000  0.34649500  0.46773500  1
  Pb  Pb4  1  0.50000000  0.15350500  0.53226500  1
  Pb  Pb5  1  0.50000000  0.40333500  0.75000000  1
  Pb  Pb6  1  0.50000000  0.59666500  0.25000000  1
  Pb  Pb7  1  0.50000000  0.84649500  0.03226500  1
  Pb  Pb8  1  0.00000000  0.65350500  0.96773500  1
  Pb  Pb9  1  0.50000000  0.84649500  0.46773500  1
  Pb  Pb10  1  0.00000000  0.65350500  0.53226500  1
  Pb  Pb11  1  0.00000000  0.90333500  0.75000000  1
  W  W12  1  0.00000000  0.23681800  0.75000000  1
  W  W13  1  0.50000000  0.26318200  0.25000000  1
  W  W14  1  0.50000000  0.73681800  0.75000000  1
  W  W15  1  0.00000000  0.76318200  0.25000000  1
  Cl  Cl16  1  0.00000000  0.47353000  0.75000000  1
  Cl  Cl17  1  0.50000000  0.02647000  0.25000000  1
  Cl  Cl18  1  0.00000000  0.00000000  0.00000000  1
  Cl  Cl19  1  0.00000000  0.00000000  0.50000000  1
  Cl  Cl20  1  0.50000000  0.97353000  0.75000000  1
  Cl  Cl21  1  0.00000000  0.52647000  0.25000000  1
  Cl  Cl22  1  0.50000000  0.50000000  0.00000000  1
  Cl  Cl23  1  0.50000000  0.50000000  0.50000000  1
  O  O24  1  0.50000000  0.39526600  0.25000000  1
  O  O25  1  0.26683850  0.22898250  0.13030900  1
  O  O26  1  0.76683850  0.27101750  0.86969100  1
  O  O27  1  0.73316150  0.22898250  0.13030900  1
  O  O28  1  0.23316150  0.27101750  0.86969100  1
  O  O29  1  0.00000000  0.10473400  0.75000000  1
  O  O30  1  0.26683850  0.22898250  0.36969100  1
  O  O31  1  0.73316150  0.22898250  0.36969100  1
  O  O32  1  0.23316150  0.27101750  0.63030900  1
  O  O33  1  0.76683850  0.27101750  0.63030900  1
  O  O34  1  0.00000000  0.89526600  0.25000000  1
  O  O35  1  0.76683850  0.72898250  0.13030900  1
  O  O36  1  0.26683850  0.77101750  0.86969100  1
  O  O37  1  0.23316150  0.72898250  0.13030900  1
  O  O38  1  0.73316150  0.77101750  0.86969100  1
  O  O39  1  0.50000000  0.60473400  0.75000000  1
  O  O40  1  0.76683850  0.72898250  0.36969100  1
  O  O41  1  0.23316150  0.72898250  0.36969100  1
  O  O42  1  0.73316150  0.77101750  0.63030900  1
  O  O43  1  0.26683850  0.77101750  0.63030900  1
