# generated using pymatgen
data_Sr2Fe2Se2OF2
_symmetry_space_group_name_H-M   'P 1'
_cell_length_a   4.16459235
_cell_length_b   4.16459235
_cell_length_c   18.91521471
_cell_angle_alpha   90.00000000
_cell_angle_beta   90.00000000
_cell_angle_gamma   90.00000000
_symmetry_Int_Tables_number   1
_chemical_formula_structural   Sr2Fe2Se2OF2
_chemical_formula_sum   'Sr4 Fe4 Se4 O2 F4'
_cell_volume   328.06225811
_cell_formula_units_Z   2
loop_
 _symmetry_equiv_pos_site_id
 _symmetry_equiv_pos_as_xyz
  1  'x, y, z'
loop_
 _atom_site_type_symbol
 _atom_site_label
 _atom_site_symmetry_multiplicity
 _atom_site_fract_x
 _atom_site_fract_y
 _atom_site_fract_z
 _atom_site_occupancy
  Sr  Sr0  1  0.00000000  0.00000000  0.67553750  1
  Sr  Sr1  1  0.50000000  0.50000000  0.82446250  1
  Sr  Sr2  1  0.50000000  0.50000000  0.17553750  1
  Sr  Sr3  1  0.00000000  0.00000000  0.32446250  1
  Fe  Fe4  1  0.00000000  0.50000000  0.00000000  1
  Fe  Fe5  1  0.00000000  0.50000000  0.50000000  1
  Fe  Fe6  1  0.50000000  0.00000000  0.50000000  1
  Fe  Fe7  1  0.50000000  0.00000000  0.00000000  1
  Se  Se8  1  0.00000000  0.00000000  0.90243450  1
  Se  Se9  1  0.50000000  0.50000000  0.59756550  1
  Se  Se10  1  0.50000000  0.50000000  0.40243450  1
  Se  Se11  1  0.00000000  0.00000000  0.09756550  1
  O  O12  1  0.50000000  0.50000000  0.00000000  1
  O  O13  1  0.00000000  0.00000000  0.50000000  1
  F  F14  1  0.00000000  0.50000000  0.75000000  1
  F  F15  1  0.50000000  0.00000000  0.75000000  1
  F  F16  1  0.50000000  0.00000000  0.25000000  1
  F  F17  1  0.00000000  0.50000000  0.25000000  1
