# generated using pymatgen
data_KEr(WO4)2
_symmetry_space_group_name_H-M   'P 1'
_cell_length_a   10.94601600
_cell_length_b   10.55297200
_cell_length_c   7.45118120
_cell_angle_alpha   90.00000000
_cell_angle_beta   130.55510371
_cell_angle_gamma   90.00000000
_symmetry_Int_Tables_number   1
_chemical_formula_structural   KEr(WO4)2
_chemical_formula_sum   'K4 Er4 W8 O32'
_cell_volume   653.94982149
_cell_formula_units_Z   4
loop_
 _symmetry_equiv_pos_site_id
 _symmetry_equiv_pos_as_xyz
  1  'x, y, z'
loop_
 _atom_site_type_symbol
 _atom_site_label
 _atom_site_symmetry_multiplicity
 _atom_site_fract_x
 _atom_site_fract_y
 _atom_site_fract_z
 _atom_site_occupancy
  K  K0  1  0.00000000  0.79225700  0.25000000  1
  K  K1  1  0.00000000  0.20774300  0.75000000  1
  K  K2  1  0.50000000  0.29225700  0.25000000  1
  K  K3  1  0.50000000  0.70774300  0.75000000  1
  Er  Er4  1  0.00000000  0.77573700  0.75000000  1
  Er  Er5  1  0.00000000  0.22426300  0.25000000  1
  Er  Er6  1  0.50000000  0.27573700  0.75000000  1
  Er  Er7  1  0.50000000  0.72426300  0.25000000  1
  W  W8  1  0.19687300  0.50425200  0.71728400  1
  W  W9  1  0.19687300  0.49574800  0.21728400  1
  W  W10  1  0.80312700  0.49574800  0.28271600  1
  W  W11  1  0.80312700  0.50425200  0.78271600  1
  W  W12  1  0.69687300  0.00425200  0.71728400  1
  W  W13  1  0.69687300  0.99574800  0.21728400  1
  W  W14  1  0.30312700  0.99574800  0.28271600  1
  W  W15  1  0.30312700  0.00425200  0.78271600  1
  O  O16  1  0.81056900  0.56685500  0.05577600  1
  O  O17  1  0.70990750  0.34533150  0.11944500  1
  O  O18  1  0.63168550  0.59308650  0.18905200  1
  O  O19  1  0.63168550  0.40691350  0.68905200  1
  O  O20  1  0.29009250  0.65466850  0.88055500  1
  O  O21  1  0.98283150  0.38861750  0.03593800  1
  O  O22  1  0.18943100  0.43314500  0.94422400  1
  O  O23  1  0.18943100  0.56685500  0.44422400  1
  O  O24  1  0.81056900  0.43314500  0.55577600  1
  O  O25  1  0.01716850  0.38861750  0.46406200  1
  O  O26  1  0.36831450  0.59308650  0.31094800  1
  O  O27  1  0.70990750  0.65466850  0.61944500  1
  O  O28  1  0.36831450  0.40691350  0.81094800  1
  O  O29  1  0.01716850  0.61138250  0.96406200  1
  O  O30  1  0.29009250  0.34533150  0.38055500  1
  O  O31  1  0.98283150  0.61138250  0.53593800  1
  O  O32  1  0.31056900  0.06685500  0.05577600  1
  O  O33  1  0.20990750  0.84533150  0.11944500  1
  O  O34  1  0.13168550  0.09308650  0.18905200  1
  O  O35  1  0.13168550  0.90691350  0.68905200  1
  O  O36  1  0.79009250  0.15466850  0.88055500  1
  O  O37  1  0.48283150  0.88861750  0.03593800  1
  O  O38  1  0.68943100  0.93314500  0.94422400  1
  O  O39  1  0.68943100  0.06685500  0.44422400  1
  O  O40  1  0.31056900  0.93314500  0.55577600  1
  O  O41  1  0.51716850  0.88861750  0.46406200  1
  O  O42  1  0.86831450  0.09308650  0.31094800  1
  O  O43  1  0.20990750  0.15466850  0.61944500  1
  O  O44  1  0.86831450  0.90691350  0.81094800  1
  O  O45  1  0.51716850  0.11138250  0.96406200  1
  O  O46  1  0.79009250  0.84533150  0.38055500  1
  O  O47  1  0.48283150  0.11138250  0.53593800  1
