# generated using pymatgen
data_K3MnO3
_symmetry_space_group_name_H-M   'P 1'
_cell_length_a   6.73677576
_cell_length_b   11.67632100
_cell_length_c   6.83150335
_cell_angle_alpha   90.00000000
_cell_angle_beta   96.06409427
_cell_angle_gamma   90.00000000
_symmetry_Int_Tables_number   1
_chemical_formula_structural   K3MnO3
_chemical_formula_sum   'K12 Mn4 O12'
_cell_volume   534.36427413
_cell_formula_units_Z   4
loop_
 _symmetry_equiv_pos_site_id
 _symmetry_equiv_pos_as_xyz
  1  'x, y, z'
loop_
 _atom_site_type_symbol
 _atom_site_label
 _atom_site_symmetry_multiplicity
 _atom_site_fract_x
 _atom_site_fract_y
 _atom_site_fract_z
 _atom_site_occupancy
  K  K0  1  0.34730650  0.99026000  0.14146150  1
  K  K1  1  0.65269350  0.49026000  0.35853850  1
  K  K2  1  0.65269350  0.00974000  0.85853850  1
  K  K3  1  0.34730650  0.50974000  0.64146150  1
  K  K4  1  0.47325850  0.21218300  0.49245450  1
  K  K5  1  0.52674150  0.71218300  0.00754550  1
  K  K6  1  0.52674150  0.78781700  0.50754550  1
  K  K7  1  0.47325850  0.28781700  0.99245450  1
  K  K8  1  0.98018650  0.72605500  0.41997250  1
  K  K9  1  0.01981350  0.22605500  0.08002750  1
  K  K10  1  0.01981350  0.27394500  0.58002750  1
  K  K11  1  0.98018650  0.77394500  0.91997250  1
  Mn  Mn12  1  0.84153150  0.49630400  0.84108950  1
  Mn  Mn13  1  0.84153150  0.00369600  0.34108950  1
  Mn  Mn14  1  0.15846850  0.99630400  0.65891050  1
  Mn  Mn15  1  0.15846850  0.50369600  0.15891050  1
  O  O16  1  0.89069450  0.92611700  0.59952950  1
  O  O17  1  0.10930550  0.42611700  0.90047050  1
  O  O18  1  0.10930550  0.07388300  0.40047050  1
  O  O19  1  0.89069450  0.57388300  0.09952950  1
  O  O20  1  0.30062650  0.87200400  0.78334450  1
  O  O21  1  0.69937350  0.37200400  0.71665550  1
  O  O22  1  0.69937350  0.12799600  0.21665550  1
  O  O23  1  0.30062650  0.62799600  0.28334450  1
  O  O24  1  0.72316150  0.88018700  0.19415450  1
  O  O25  1  0.27683850  0.38018700  0.30584550  1
  O  O26  1  0.27683850  0.11981300  0.80584550  1
  O  O27  1  0.72316150  0.61981300  0.69415450  1
