# generated using pymatgen
data_Ca4Al6MoO16
_symmetry_space_group_name_H-M   'P 1'
_cell_length_a   9.43609400
_cell_length_b   13.22438000
_cell_length_c   26.36826800
_cell_angle_alpha   90.00000000
_cell_angle_beta   90.00000000
_cell_angle_gamma   90.00000000
_symmetry_Int_Tables_number   1
_chemical_formula_structural   Ca4Al6MoO16
_chemical_formula_sum   'Ca32 Al48 Mo8 O128'
_cell_volume   3290.40368418
_cell_formula_units_Z   8
loop_
 _symmetry_equiv_pos_site_id
 _symmetry_equiv_pos_as_xyz
  1  'x, y, z'
loop_
 _atom_site_type_symbol
 _atom_site_label
 _atom_site_symmetry_multiplicity
 _atom_site_fract_x
 _atom_site_fract_y
 _atom_site_fract_z
 _atom_site_occupancy
  Ca  Ca0  1  0.70474800  0.26677900  0.51704300  1
  Ca  Ca1  1  0.24864100  0.76088100  0.75009200  1
  Ca  Ca2  1  0.70474800  0.73322100  0.48295700  1
  Ca  Ca3  1  0.28113350  0.97271150  0.86229600  1
  Ca  Ca4  1  0.24864100  0.23911900  0.24990800  1
  Ca  Ca5  1  0.70474800  0.76677900  0.98295700  1
  Ca  Ca6  1  0.24728900  0.01436800  0.62046500  1
  Ca  Ca7  1  0.78113350  0.02728850  0.36229600  1
  Ca  Ca8  1  0.74864100  0.76088100  0.74990800  1
  Ca  Ca9  1  0.28113350  0.02728850  0.13770400  1
  Ca  Ca10  1  0.70474800  0.23322100  0.01704300  1
  Ca  Ca11  1  0.78113350  0.97271150  0.63770400  1
  Ca  Ca12  1  0.24728900  0.98563200  0.37953500  1
  Ca  Ca13  1  0.74864100  0.23911900  0.25009200  1
  Ca  Ca14  1  0.74728900  0.01436800  0.87953500  1
  Ca  Ca15  1  0.74728900  0.98563200  0.12046500  1
  Ca  Ca16  1  0.20474800  0.76677900  0.51704300  1
  Ca  Ca17  1  0.74864100  0.26088100  0.75009200  1
  Ca  Ca18  1  0.20474800  0.23322100  0.48295700  1
  Ca  Ca19  1  0.78113350  0.47271150  0.86229600  1
  Ca  Ca20  1  0.74864100  0.73911900  0.24990800  1
  Ca  Ca21  1  0.20474800  0.26677900  0.98295700  1
  Ca  Ca22  1  0.74728900  0.51436800  0.62046500  1
  Ca  Ca23  1  0.28113350  0.52728850  0.36229600  1
  Ca  Ca24  1  0.24864100  0.26088100  0.74990800  1
  Ca  Ca25  1  0.78113350  0.52728850  0.13770400  1
  Ca  Ca26  1  0.20474800  0.73322100  0.01704300  1
  Ca  Ca27  1  0.28113350  0.47271150  0.63770400  1
  Ca  Ca28  1  0.74728900  0.48563200  0.37953500  1
  Ca  Ca29  1  0.24864100  0.73911900  0.25009200  1
  Ca  Ca30  1  0.24728900  0.51436800  0.87953500  1
  Ca  Ca31  1  0.24728900  0.48563200  0.12046500  1
  Al  Al32  1  0.74349000  0.00000000  0.00000000  1
  Al  Al33  1  0.49927200  0.37511200  0.81464200  1
  Al  Al34  1  0.49927200  0.62488800  0.18535800  1
  Al  Al35  1  0.47752900  0.11395600  0.93724500  1
  Al  Al36  1  0.49465100  0.13406700  0.44037400  1
  Al  Al37  1  0.75589650  0.99763350  0.24351400  1
  Al  Al38  1  0.47752900  0.88604400  0.06275500  1
  Al  Al39  1  0.51045500  0.37465300  0.31019700  1
  Al  Al40  1  0.51045500  0.87465300  0.18980300  1
  Al  Al41  1  0.49465100  0.36593300  0.94037400  1
  Al  Al42  1  0.51045500  0.62534700  0.68980300  1
  Al  Al43  1  0.72874300  0.00000000  0.50000000  1
  Al  Al44  1  0.49465100  0.63406700  0.05962600  1
  Al  Al45  1  0.49927200  0.12488800  0.31464200  1
  Al  Al46  1  0.47752900  0.61395600  0.56275500  1
  Al  Al47  1  0.47752900  0.38604400  0.43724500  1
  Al  Al48  1  0.25589650  0.99763350  0.25648600  1
  Al  Al49  1  0.75589650  0.00236650  0.75648600  1
  Al  Al50  1  0.22874300  0.00000000  0.00000000  1
  Al  Al51  1  0.24349000  0.00000000  0.50000000  1
  Al  Al52  1  0.51045500  0.12534700  0.81019700  1
  Al  Al53  1  0.49465100  0.86593300  0.55962600  1
  Al  Al54  1  0.25589650  0.00236650  0.74351400  1
  Al  Al55  1  0.49927200  0.87511200  0.68535800  1
  Al  Al56  1  0.24349000  0.50000000  0.00000000  1
  Al  Al57  1  0.99927200  0.87511200  0.81464200  1
  Al  Al58  1  0.99927200  0.12488800  0.18535800  1
  Al  Al59  1  0.97752900  0.61395600  0.93724500  1
  Al  Al60  1  0.99465100  0.63406700  0.44037400  1
  Al  Al61  1  0.25589650  0.49763350  0.24351400  1
  Al  Al62  1  0.97752900  0.38604400  0.06275500  1
  Al  Al63  1  0.01045500  0.87465300  0.31019700  1
  Al  Al64  1  0.01045500  0.37465300  0.18980300  1
  Al  Al65  1  0.99465100  0.86593300  0.94037400  1
  Al  Al66  1  0.01045500  0.12534700  0.68980300  1
  Al  Al67  1  0.22874300  0.50000000  0.50000000  1
  Al  Al68  1  0.99465100  0.13406700  0.05962600  1
  Al  Al69  1  0.99927200  0.62488800  0.31464200  1
  Al  Al70  1  0.97752900  0.11395600  0.56275500  1
  Al  Al71  1  0.97752900  0.88604400  0.43724500  1
  Al  Al72  1  0.75589650  0.49763350  0.25648600  1
  Al  Al73  1  0.25589650  0.50236650  0.75648600  1
  Al  Al74  1  0.72874300  0.50000000  0.00000000  1
  Al  Al75  1  0.74349000  0.50000000  0.50000000  1
  Al  Al76  1  0.01045500  0.62534700  0.81019700  1
  Al  Al77  1  0.99465100  0.36593300  0.55962600  1
  Al  Al78  1  0.75589650  0.50236650  0.74351400  1
  Al  Al79  1  0.99927200  0.37511200  0.68535800  1
  Mo  Mo80  1  0.50114750  0.23977650  0.63623300  1
  Mo  Mo81  1  0.50114750  0.73977650  0.86376700  1
  Mo  Mo82  1  0.50114750  0.76022350  0.36376700  1
  Mo  Mo83  1  0.50114750  0.26022350  0.13623300  1
  Mo  Mo84  1  0.00114750  0.73977650  0.63623300  1
  Mo  Mo85  1  0.00114750  0.23977650  0.86376700  1
  Mo  Mo86  1  0.00114750  0.26022350  0.36376700  1
  Mo  Mo87  1  0.00114750  0.76022350  0.13623300  1
  O  O88  1  0.51817100  0.91488700  0.12625200  1
  O  O89  1  0.43623150  0.26002550  0.45339100  1
  O  O90  1  0.41495050  0.86371950  0.39405000  1
  O  O91  1  0.32680100  0.07517900  0.30528400  1
  O  O92  1  0.63162450  0.19260250  0.67918800  1
  O  O93  1  0.51817100  0.41488700  0.37374800  1
  O  O94  1  0.82680100  0.92482100  0.80528400  1
  O  O95  1  0.55260450  0.60542250  0.12184300  1
  O  O96  1  0.41495050  0.13628050  0.60595000  1
  O  O97  1  0.37431950  0.04816250  0.78829600  1
  O  O98  1  0.64454200  0.07729800  0.27955400  1
  O  O99  1  0.18738700  0.10504700  0.70930200  1
  O  O100  1  0.58559700  0.31804900  0.58922400  1
  O  O101  1  0.68738700  0.10504700  0.79069800  1
  O  O102  1  0.33487950  0.93227350  0.54710600  1
  O  O103  1  0.68738700  0.89495300  0.20930200  1
  O  O104  1  0.63162450  0.69260250  0.82081200  1
  O  O105  1  0.64454200  0.92270200  0.72044600  1
  O  O106  1  0.37187950  0.31554750  0.66987200  1
  O  O107  1  0.63162450  0.80739750  0.32081200  1
  O  O108  1  0.55260450  0.10542250  0.37815700  1
  O  O109  1  0.63162450  0.30739750  0.17918800  1
  O  O110  1  0.64246950  0.90861450  0.03242100  1
  O  O111  1  0.58559700  0.81804900  0.91077600  1
  O  O112  1  0.58559700  0.18195100  0.08922400  1
  O  O113  1  0.55260450  0.89457750  0.62184300  1
  O  O114  1  0.14454200  0.07729800  0.22044600  1
  O  O115  1  0.32875650  0.03512450  0.94586500  1
  O  O116  1  0.43623150  0.73997450  0.54660900  1
  O  O117  1  0.37187950  0.81554750  0.83012800  1
  O  O118  1  0.63462050  0.88812350  0.51675700  1
  O  O119  1  0.82875650  0.96487550  0.44586500  1
  O  O120  1  0.51817100  0.58511300  0.62625200  1
  O  O121  1  0.47818650  0.25057850  0.79166600  1
  O  O122  1  0.37187950  0.18445250  0.16987200  1
  O  O123  1  0.47818650  0.24942150  0.29166600  1
  O  O124  1  0.51817100  0.08511300  0.87374800  1
  O  O125  1  0.33487950  0.06772650  0.45289400  1
  O  O126  1  0.55260450  0.39457750  0.87815700  1
  O  O127  1  0.64246950  0.09138550  0.96757900  1
  O  O128  1  0.41495050  0.63628050  0.89405000  1
  O  O129  1  0.32680100  0.92482100  0.69471600  1
  O  O130  1  0.37431950  0.95183750  0.21170400  1
  O  O131  1  0.47818650  0.75057850  0.70833400  1
  O  O132  1  0.43623150  0.76002550  0.04660900  1
  O  O133  1  0.82680100  0.07517900  0.19471600  1
  O  O134  1  0.32875650  0.96487550  0.05413500  1
  O  O135  1  0.63462050  0.11187650  0.48324300  1
  O  O136  1  0.14454200  0.92270200  0.77955400  1
  O  O137  1  0.41495050  0.36371950  0.10595000  1
  O  O138  1  0.13462050  0.88812350  0.98324300  1
  O  O139  1  0.37187950  0.68445250  0.33012800  1
  O  O140  1  0.13462050  0.11187650  0.01675700  1
  O  O141  1  0.18738700  0.89495300  0.29069800  1
  O  O142  1  0.14246950  0.09138550  0.53242100  1
  O  O143  1  0.83487950  0.06772650  0.04710600  1
  O  O144  1  0.87431950  0.95183750  0.28829600  1
  O  O145  1  0.47818650  0.74942150  0.20833400  1
  O  O146  1  0.82875650  0.03512450  0.55413500  1
  O  O147  1  0.87431950  0.04816250  0.71170400  1
  O  O148  1  0.14246950  0.90861450  0.46757900  1
  O  O149  1  0.83487950  0.93227350  0.95289400  1
  O  O150  1  0.58559700  0.68195100  0.41077600  1
  O  O151  1  0.43623150  0.23997450  0.95339100  1
  O  O152  1  0.01817100  0.41488700  0.12625200  1
  O  O153  1  0.93623150  0.76002550  0.45339100  1
  O  O154  1  0.91495050  0.36371950  0.39405000  1
  O  O155  1  0.82680100  0.57517900  0.30528400  1
  O  O156  1  0.13162450  0.69260250  0.67918800  1
  O  O157  1  0.01817100  0.91488700  0.37374800  1
  O  O158  1  0.32680100  0.42482100  0.80528400  1
  O  O159  1  0.05260450  0.10542250  0.12184300  1
  O  O160  1  0.91495050  0.63628050  0.60595000  1
  O  O161  1  0.87431950  0.54816250  0.78829600  1
  O  O162  1  0.14454200  0.57729800  0.27955400  1
  O  O163  1  0.68738700  0.60504700  0.70930200  1
  O  O164  1  0.08559700  0.81804900  0.58922400  1
  O  O165  1  0.18738700  0.60504700  0.79069800  1
  O  O166  1  0.83487950  0.43227350  0.54710600  1
  O  O167  1  0.18738700  0.39495300  0.20930200  1
  O  O168  1  0.13162450  0.19260250  0.82081200  1
  O  O169  1  0.14454200  0.42270200  0.72044600  1
  O  O170  1  0.87187950  0.81554750  0.66987200  1
  O  O171  1  0.13162450  0.30739750  0.32081200  1
  O  O172  1  0.05260450  0.60542250  0.37815700  1
  O  O173  1  0.13162450  0.80739750  0.17918800  1
  O  O174  1  0.14246950  0.40861450  0.03242100  1
  O  O175  1  0.08559700  0.31804900  0.91077600  1
  O  O176  1  0.08559700  0.68195100  0.08922400  1
  O  O177  1  0.05260450  0.39457750  0.62184300  1
  O  O178  1  0.64454200  0.57729800  0.22044600  1
  O  O179  1  0.82875650  0.53512450  0.94586500  1
  O  O180  1  0.93623150  0.23997450  0.54660900  1
  O  O181  1  0.87187950  0.31554750  0.83012800  1
  O  O182  1  0.13462050  0.38812350  0.51675700  1
  O  O183  1  0.32875650  0.46487550  0.44586500  1
  O  O184  1  0.01817100  0.08511300  0.62625200  1
  O  O185  1  0.97818650  0.75057850  0.79166600  1
  O  O186  1  0.87187950  0.68445250  0.16987200  1
  O  O187  1  0.97818650  0.74942150  0.29166600  1
  O  O188  1  0.01817100  0.58511300  0.87374800  1
  O  O189  1  0.83487950  0.56772650  0.45289400  1
  O  O190  1  0.05260450  0.89457750  0.87815700  1
  O  O191  1  0.14246950  0.59138550  0.96757900  1
  O  O192  1  0.91495050  0.13628050  0.89405000  1
  O  O193  1  0.82680100  0.42482100  0.69471600  1
  O  O194  1  0.87431950  0.45183750  0.21170400  1
  O  O195  1  0.97818650  0.25057850  0.70833400  1
  O  O196  1  0.93623150  0.26002550  0.04660900  1
  O  O197  1  0.32680100  0.57517900  0.19471600  1
  O  O198  1  0.82875650  0.46487550  0.05413500  1
  O  O199  1  0.13462050  0.61187650  0.48324300  1
  O  O200  1  0.64454200  0.42270200  0.77955400  1
  O  O201  1  0.91495050  0.86371950  0.10595000  1
  O  O202  1  0.63462050  0.38812350  0.98324300  1
  O  O203  1  0.87187950  0.18445250  0.33012800  1
  O  O204  1  0.63462050  0.61187650  0.01675700  1
  O  O205  1  0.68738700  0.39495300  0.29069800  1
  O  O206  1  0.64246950  0.59138550  0.53242100  1
  O  O207  1  0.33487950  0.56772650  0.04710600  1
  O  O208  1  0.37431950  0.45183750  0.28829600  1
  O  O209  1  0.97818650  0.24942150  0.20833400  1
  O  O210  1  0.32875650  0.53512450  0.55413500  1
  O  O211  1  0.37431950  0.54816250  0.71170400  1
  O  O212  1  0.64246950  0.40861450  0.46757900  1
  O  O213  1  0.33487950  0.43227350  0.95289400  1
  O  O214  1  0.08559700  0.18195100  0.41077600  1
  O  O215  1  0.93623150  0.73997450  0.95339100  1
