# generated using pymatgen
data_Dy2MoO6
_symmetry_space_group_name_H-M   'P 1'
_cell_length_a   16.50431400
_cell_length_b   11.13903600
_cell_length_c   5.40324615
_cell_angle_alpha   90.00000000
_cell_angle_beta   108.18345314
_cell_angle_gamma   90.00000000
_symmetry_Int_Tables_number   1
_chemical_formula_structural   Dy2MoO6
_chemical_formula_sum   'Dy16 Mo8 O48'
_cell_volume   943.73895837
_cell_formula_units_Z   8
loop_
 _symmetry_equiv_pos_site_id
 _symmetry_equiv_pos_as_xyz
  1  'x, y, z'
loop_
 _atom_site_type_symbol
 _atom_site_label
 _atom_site_symmetry_multiplicity
 _atom_site_fract_x
 _atom_site_fract_y
 _atom_site_fract_z
 _atom_site_occupancy
  Dy  Dy0  1  0.66779250  0.88407150  0.37859100  1
  Dy  Dy1  1  0.33220750  0.88407150  0.12140900  1
  Dy  Dy2  1  0.33220750  0.11592850  0.62140900  1
  Dy  Dy3  1  0.66779250  0.11592850  0.87859100  1
  Dy  Dy4  1  0.50000000  0.63604300  0.25000000  1
  Dy  Dy5  1  0.50000000  0.36395700  0.75000000  1
  Dy  Dy6  1  0.50000000  0.10690300  0.25000000  1
  Dy  Dy7  1  0.50000000  0.89309700  0.75000000  1
  Dy  Dy8  1  0.16779250  0.38407150  0.37859100  1
  Dy  Dy9  1  0.83220750  0.38407150  0.12140900  1
  Dy  Dy10  1  0.83220750  0.61592850  0.62140900  1
  Dy  Dy11  1  0.16779250  0.61592850  0.87859100  1
  Dy  Dy12  1  0.00000000  0.13604300  0.25000000  1
  Dy  Dy13  1  0.00000000  0.86395700  0.75000000  1
  Dy  Dy14  1  0.00000000  0.60690300  0.25000000  1
  Dy  Dy15  1  0.00000000  0.39309700  0.75000000  1
  Mo  Mo16  1  0.84613100  0.85800000  0.06029200  1
  Mo  Mo17  1  0.15386900  0.85800000  0.43970800  1
  Mo  Mo18  1  0.15386900  0.14200000  0.93970800  1
  Mo  Mo19  1  0.84613100  0.14200000  0.56029200  1
  Mo  Mo20  1  0.34613100  0.35800000  0.06029200  1
  Mo  Mo21  1  0.65386900  0.35800000  0.43970800  1
  Mo  Mo22  1  0.65386900  0.64200000  0.93970800  1
  Mo  Mo23  1  0.34613100  0.64200000  0.56029200  1
  O  O24  1  0.40879350  0.98224150  0.92173100  1
  O  O25  1  0.59120650  0.98224150  0.57826900  1
  O  O26  1  0.59120650  0.01775850  0.07826900  1
  O  O27  1  0.40879350  0.01775850  0.42173100  1
  O  O28  1  0.42760500  0.23548000  0.91734400  1
  O  O29  1  0.57239500  0.23548000  0.58265600  1
  O  O30  1  0.57239500  0.76452000  0.08265600  1
  O  O31  1  0.42760500  0.76452000  0.41734400  1
  O  O32  1  0.39469100  0.27863900  0.37099500  1
  O  O33  1  0.60530900  0.27863900  0.12900500  1
  O  O34  1  0.60530900  0.72136100  0.62900500  1
  O  O35  1  0.39469100  0.72136100  0.87099500  1
  O  O36  1  0.76352600  0.05336800  0.63658300  1
  O  O37  1  0.23647400  0.05336800  0.86341700  1
  O  O38  1  0.23647400  0.94663200  0.36341700  1
  O  O39  1  0.76352600  0.94663200  0.13658300  1
  O  O40  1  0.92053750  0.03049650  0.51463600  1
  O  O41  1  0.07946250  0.03049650  0.98536400  1
  O  O42  1  0.07946250  0.96950350  0.48536400  1
  O  O43  1  0.92053750  0.96950350  0.01463600  1
  O  O44  1  0.77189900  0.20291500  0.25416100  1
  O  O45  1  0.22810100  0.20291500  0.24583900  1
  O  O46  1  0.22810100  0.79708500  0.74583900  1
  O  O47  1  0.77189900  0.79708500  0.75416100  1
  O  O48  1  0.90879350  0.48224150  0.92173100  1
  O  O49  1  0.09120650  0.48224150  0.57826900  1
  O  O50  1  0.09120650  0.51775850  0.07826900  1
  O  O51  1  0.90879350  0.51775850  0.42173100  1
  O  O52  1  0.92760500  0.73548000  0.91734400  1
  O  O53  1  0.07239500  0.73548000  0.58265600  1
  O  O54  1  0.07239500  0.26452000  0.08265600  1
  O  O55  1  0.92760500  0.26452000  0.41734400  1
  O  O56  1  0.89469100  0.77863900  0.37099500  1
  O  O57  1  0.10530900  0.77863900  0.12900500  1
  O  O58  1  0.10530900  0.22136100  0.62900500  1
  O  O59  1  0.89469100  0.22136100  0.87099500  1
  O  O60  1  0.26352600  0.55336800  0.63658300  1
  O  O61  1  0.73647400  0.55336800  0.86341700  1
  O  O62  1  0.73647400  0.44663200  0.36341700  1
  O  O63  1  0.26352600  0.44663200  0.13658300  1
  O  O64  1  0.42053750  0.53049650  0.51463600  1
  O  O65  1  0.57946250  0.53049650  0.98536400  1
  O  O66  1  0.57946250  0.46950350  0.48536400  1
  O  O67  1  0.42053750  0.46950350  0.01463600  1
  O  O68  1  0.27189900  0.70291500  0.25416100  1
  O  O69  1  0.72810100  0.70291500  0.24583900  1
  O  O70  1  0.72810100  0.29708500  0.74583900  1
  O  O71  1  0.27189900  0.29708500  0.75416100  1
