# generated using pymatgen
data_Hf2Te
_symmetry_space_group_name_H-M   'P 1'
_cell_length_a   15.23756000
_cell_length_b   3.75675800
_cell_length_c   10.12845894
_cell_angle_alpha   90.00000000
_cell_angle_beta   90.24676649
_cell_angle_gamma   90.00000000
_symmetry_Int_Tables_number   1
_chemical_formula_structural   Hf2Te
_chemical_formula_sum   'Hf16 Te8'
_cell_volume   579.78635796
_cell_formula_units_Z   8
loop_
 _symmetry_equiv_pos_site_id
 _symmetry_equiv_pos_as_xyz
  1  'x, y, z'
loop_
 _atom_site_type_symbol
 _atom_site_label
 _atom_site_symmetry_multiplicity
 _atom_site_fract_x
 _atom_site_fract_y
 _atom_site_fract_z
 _atom_site_occupancy
  Hf  Hf0  1  0.75506100  0.50000000  0.61755400  1
  Hf  Hf1  1  0.78155800  0.00000000  0.87267700  1
  Hf  Hf2  1  0.90738300  0.50000000  0.34761300  1
  Hf  Hf3  1  0.71844200  0.50000000  0.12732300  1
  Hf  Hf4  1  0.74493900  0.00000000  0.38244600  1
  Hf  Hf5  1  0.58556600  0.50000000  0.41943900  1
  Hf  Hf6  1  0.91443400  0.00000000  0.58056100  1
  Hf  Hf7  1  0.59261700  0.00000000  0.65238700  1
  Hf  Hf8  1  0.25506100  0.00000000  0.61755400  1
  Hf  Hf9  1  0.28155800  0.50000000  0.87267700  1
  Hf  Hf10  1  0.40738300  0.00000000  0.34761300  1
  Hf  Hf11  1  0.21844200  0.00000000  0.12732300  1
  Hf  Hf12  1  0.24493900  0.50000000  0.38244600  1
  Hf  Hf13  1  0.08556600  0.00000000  0.41943900  1
  Hf  Hf14  1  0.41443400  0.50000000  0.58056100  1
  Hf  Hf15  1  0.09261700  0.50000000  0.65238700  1
  Te  Te16  1  0.92107200  0.50000000  0.80539100  1
  Te  Te17  1  0.63501700  0.50000000  0.86709500  1
  Te  Te18  1  0.86498300  0.00000000  0.13290500  1
  Te  Te19  1  0.57892800  0.00000000  0.19460900  1
  Te  Te20  1  0.42107200  0.00000000  0.80539100  1
  Te  Te21  1  0.13501700  0.00000000  0.86709500  1
  Te  Te22  1  0.36498300  0.50000000  0.13290500  1
  Te  Te23  1  0.07892800  0.50000000  0.19460900  1
