# generated using pymatgen
data_Cr2(PO4)3
_symmetry_space_group_name_H-M   'P 1'
_cell_length_a   8.35921983
_cell_length_b   8.36272059
_cell_length_c   8.68514383
_cell_angle_alpha   118.04619268
_cell_angle_beta   90.04132279
_cell_angle_gamma   119.83506619
_symmetry_Int_Tables_number   1
_chemical_formula_structural   Cr2(PO4)3
_chemical_formula_sum   'Cr4 P6 O24'
_cell_volume   442.45564914
_cell_formula_units_Z   2
loop_
 _symmetry_equiv_pos_site_id
 _symmetry_equiv_pos_as_xyz
  1  'x, y, z'
loop_
 _atom_site_type_symbol
 _atom_site_label
 _atom_site_symmetry_multiplicity
 _atom_site_fract_x
 _atom_site_fract_y
 _atom_site_fract_z
 _atom_site_occupancy
  Cr  Cr0  1  0.35247458  0.13928559  0.07858431  1
  Cr  Cr1  1  0.14678470  0.35238197  0.43471822  1
  Cr  Cr2  1  0.64752542  0.86071441  0.92141569  1
  Cr  Cr3  1  0.85321530  0.64761803  0.56528178  1
  P  P4  1  0.25271694  0.97122261  0.74858926  1
  P  P5  1  0.74728306  0.02877739  0.25141074  1
  P  P6  1  0.03035355  0.74797128  0.24653202  1
  P  P7  1  0.46883106  0.45985518  0.25736753  1
  P  P8  1  0.53116894  0.54014482  0.74263247  1
  P  P9  1  0.96964645  0.25202872  0.75346798  1
  O  O10  1  0.28729788  0.17393155  0.59551463  1
  O  O11  1  0.28840042  0.99572275  0.92602720  1
  O  O12  1  0.01030446  0.53615413  0.29781159  1
  O  O13  1  0.60080015  0.10856029  0.22145583  1
  O  O14  1  0.98905359  0.77210830  0.38618628  1
  O  O15  1  0.04637290  0.82818511  0.69526056  1
  O  O16  1  0.29886624  0.47533593  0.27072637  1
  O  O17  1  0.35466122  0.53146546  0.56973421  1
  O  O18  1  0.01094641  0.22789170  0.61381372  1
  O  O19  1  0.51932552  0.62067920  0.08433733  1
  O  O20  1  0.95362710  0.17181489  0.30473944  1
  O  O21  1  0.88621033  0.80443190  0.05366923  1
  O  O22  1  0.71270212  0.82606845  0.40448537  1
  O  O23  1  0.98969554  0.46384587  0.70218841  1
  O  O24  1  0.64533878  0.46853454  0.43026579  1
  O  O25  1  0.71159958  0.00427725  0.07397280  1
  O  O26  1  0.60002718  0.74197505  0.75837158  1
  O  O27  1  0.23709211  0.88896107  0.24114550  1
  O  O28  1  0.39919985  0.89143971  0.77854417  1
  O  O29  1  0.76290789  0.11103893  0.75885450  1
  O  O30  1  0.48067448  0.37932080  0.91566267  1
  O  O31  1  0.70113376  0.52466407  0.72927363  1
  O  O32  1  0.39997282  0.25802495  0.24162842  1
  O  O33  1  0.11378967  0.19556810  0.94633077  1
