# generated using pymatgen
data_Ce3(Si4Ni)2
_symmetry_space_group_name_H-M   'P 1'
_cell_length_a   4.09329000
_cell_length_b   26.01636200
_cell_length_c   4.19367900
_cell_angle_alpha   90.00000000
_cell_angle_beta   90.00000000
_cell_angle_gamma   90.00000000
_symmetry_Int_Tables_number   1
_chemical_formula_structural   Ce3(Si4Ni)2
_chemical_formula_sum   'Ce6 Si16 Ni4'
_cell_volume   446.59542134
_cell_formula_units_Z   2
loop_
 _symmetry_equiv_pos_site_id
 _symmetry_equiv_pos_as_xyz
  1  'x, y, z'
loop_
 _atom_site_type_symbol
 _atom_site_label
 _atom_site_symmetry_multiplicity
 _atom_site_fract_x
 _atom_site_fract_y
 _atom_site_fract_z
 _atom_site_occupancy
  Ce  Ce0  1  0.00000000  0.00000000  0.00000000  1
  Ce  Ce1  1  0.50000000  0.81210000  0.50000000  1
  Ce  Ce2  1  0.00000000  0.68790000  0.50000000  1
  Ce  Ce3  1  0.50000000  0.50000000  0.00000000  1
  Ce  Ce4  1  0.00000000  0.31210000  0.50000000  1
  Ce  Ce5  1  0.50000000  0.18790000  0.50000000  1
  Si  Si6  1  0.50000000  0.90475600  0.00000000  1
  Si  Si7  1  0.00000000  0.59524400  0.00000000  1
  Si  Si8  1  0.50000000  0.72432600  0.00000000  1
  Si  Si9  1  0.00000000  0.77567400  0.00000000  1
  Si  Si10  1  0.50000000  0.59713800  0.50000000  1
  Si  Si11  1  0.00000000  0.90286200  0.50000000  1
  Si  Si12  1  0.50000000  0.95473500  0.50000000  1
  Si  Si13  1  0.00000000  0.54526500  0.50000000  1
  Si  Si14  1  0.00000000  0.40475600  0.00000000  1
  Si  Si15  1  0.50000000  0.09524400  0.00000000  1
  Si  Si16  1  0.00000000  0.22432600  0.00000000  1
  Si  Si17  1  0.50000000  0.27567400  0.00000000  1
  Si  Si18  1  0.00000000  0.09713800  0.50000000  1
  Si  Si19  1  0.50000000  0.40286200  0.50000000  1
  Si  Si20  1  0.00000000  0.45473500  0.50000000  1
  Si  Si21  1  0.50000000  0.04526500  0.50000000  1
  Ni  Ni22  1  0.50000000  0.63399500  0.00000000  1
  Ni  Ni23  1  0.00000000  0.86600500  0.00000000  1
  Ni  Ni24  1  0.00000000  0.13399500  0.00000000  1
  Ni  Ni25  1  0.50000000  0.36600500  0.00000000  1
