# generated using pymatgen
data_Ca7(B7Rh10)2
_symmetry_space_group_name_H-M   'P 1'
_cell_length_a   5.59369400
_cell_length_b   9.75789400
_cell_length_c   40.59657000
_cell_angle_alpha   90.00000000
_cell_angle_beta   90.00000000
_cell_angle_gamma   90.00000000
_symmetry_Int_Tables_number   1
_chemical_formula_structural   Ca7(B7Rh10)2
_chemical_formula_sum   'Ca28 B56 Rh80'
_cell_volume   2215.86931012
_cell_formula_units_Z   4
loop_
 _symmetry_equiv_pos_site_id
 _symmetry_equiv_pos_as_xyz
  1  'x, y, z'
loop_
 _atom_site_type_symbol
 _atom_site_label
 _atom_site_symmetry_multiplicity
 _atom_site_fract_x
 _atom_site_fract_y
 _atom_site_fract_z
 _atom_site_occupancy
  Ca  Ca0  1  0.00000000  0.00000000  0.64653500  1
  Ca  Ca1  1  0.50000000  0.00000000  0.77780100  1
  Ca  Ca2  1  0.00000000  0.00000000  0.72219900  1
  Ca  Ca3  1  0.50000000  0.00000000  0.00000000  1
  Ca  Ca4  1  0.50000000  0.00000000  0.85346500  1
  Ca  Ca5  1  0.00000000  0.00000000  0.57293900  1
  Ca  Ca6  1  0.50000000  0.00000000  0.92706100  1
  Ca  Ca7  1  0.00000000  0.50000000  0.14653500  1
  Ca  Ca8  1  0.50000000  0.50000000  0.27780100  1
  Ca  Ca9  1  0.00000000  0.50000000  0.22219900  1
  Ca  Ca10  1  0.50000000  0.50000000  0.50000000  1
  Ca  Ca11  1  0.50000000  0.50000000  0.35346500  1
  Ca  Ca12  1  0.00000000  0.50000000  0.07293900  1
  Ca  Ca13  1  0.50000000  0.50000000  0.42706100  1
  Ca  Ca14  1  0.50000000  0.00000000  0.14653500  1
  Ca  Ca15  1  0.00000000  0.00000000  0.27780100  1
  Ca  Ca16  1  0.50000000  0.00000000  0.22219900  1
  Ca  Ca17  1  0.00000000  0.00000000  0.50000000  1
  Ca  Ca18  1  0.00000000  0.00000000  0.35346500  1
  Ca  Ca19  1  0.50000000  0.00000000  0.07293900  1
  Ca  Ca20  1  0.00000000  0.00000000  0.42706100  1
  Ca  Ca21  1  0.50000000  0.50000000  0.64653500  1
  Ca  Ca22  1  0.00000000  0.50000000  0.77780100  1
  Ca  Ca23  1  0.50000000  0.50000000  0.72219900  1
  Ca  Ca24  1  0.00000000  0.50000000  0.00000000  1
  Ca  Ca25  1  0.00000000  0.50000000  0.85346500  1
  Ca  Ca26  1  0.50000000  0.50000000  0.57293900  1
  Ca  Ca27  1  0.00000000  0.50000000  0.92706100  1
  B  B28  1  0.00000000  0.83355550  0.92780250  1
  B  B29  1  0.50000000  0.66660100  0.85572500  1
  B  B30  1  0.00000000  0.66660100  0.64427500  1
  B  B31  1  0.50000000  0.83339900  0.64427500  1
  B  B32  1  0.00000000  0.66132850  0.71648650  1
  B  B33  1  0.00000000  0.66644450  0.57219750  1
  B  B34  1  0.50000000  0.66632700  0.00000000  1
  B  B35  1  0.50000000  0.83867150  0.71648650  1
  B  B36  1  0.50000000  0.83355550  0.57219750  1
  B  B37  1  0.50000000  0.66644450  0.92780250  1
  B  B38  1  0.00000000  0.83367300  0.00000000  1
  B  B39  1  0.50000000  0.66132850  0.78351350  1
  B  B40  1  0.00000000  0.83339900  0.85572500  1
  B  B41  1  0.00000000  0.83867150  0.78351350  1
  B  B42  1  0.00000000  0.33355550  0.42780250  1
  B  B43  1  0.50000000  0.16660100  0.35572500  1
  B  B44  1  0.00000000  0.16660100  0.14427500  1
  B  B45  1  0.50000000  0.33339900  0.14427500  1
  B  B46  1  0.00000000  0.16132850  0.21648650  1
  B  B47  1  0.00000000  0.16644450  0.07219750  1
  B  B48  1  0.50000000  0.16632700  0.50000000  1
  B  B49  1  0.50000000  0.33867150  0.21648650  1
  B  B50  1  0.50000000  0.33355550  0.07219750  1
  B  B51  1  0.50000000  0.16644450  0.42780250  1
  B  B52  1  0.00000000  0.33367300  0.50000000  1
  B  B53  1  0.50000000  0.16132850  0.28351350  1
  B  B54  1  0.00000000  0.33339900  0.35572500  1
  B  B55  1  0.00000000  0.33867150  0.28351350  1
  B  B56  1  0.50000000  0.83355550  0.42780250  1
  B  B57  1  0.00000000  0.66660100  0.35572500  1
  B  B58  1  0.50000000  0.66660100  0.14427500  1
  B  B59  1  0.00000000  0.83339900  0.14427500  1
  B  B60  1  0.50000000  0.66132850  0.21648650  1
  B  B61  1  0.50000000  0.66644450  0.07219750  1
  B  B62  1  0.00000000  0.66632700  0.50000000  1
  B  B63  1  0.00000000  0.83867150  0.21648650  1
  B  B64  1  0.00000000  0.83355550  0.07219750  1
  B  B65  1  0.00000000  0.66644450  0.42780250  1
  B  B66  1  0.50000000  0.83367300  0.50000000  1
  B  B67  1  0.00000000  0.66132850  0.28351350  1
  B  B68  1  0.50000000  0.83339900  0.35572500  1
  B  B69  1  0.50000000  0.83867150  0.28351350  1
  B  B70  1  0.50000000  0.33355550  0.92780250  1
  B  B71  1  0.00000000  0.16660100  0.85572500  1
  B  B72  1  0.50000000  0.16660100  0.64427500  1
  B  B73  1  0.00000000  0.33339900  0.64427500  1
  B  B74  1  0.50000000  0.16132850  0.71648650  1
  B  B75  1  0.50000000  0.16644450  0.57219750  1
  B  B76  1  0.00000000  0.16632700  0.00000000  1
  B  B77  1  0.00000000  0.33867150  0.71648650  1
  B  B78  1  0.00000000  0.33355550  0.57219750  1
  B  B79  1  0.00000000  0.16644450  0.92780250  1
  B  B80  1  0.50000000  0.33367300  0.00000000  1
  B  B81  1  0.00000000  0.16132850  0.78351350  1
  B  B82  1  0.50000000  0.33339900  0.85572500  1
  B  B83  1  0.50000000  0.33867150  0.78351350  1
  Rh  Rh84  1  0.25000000  0.75000000  0.81973100  1
  Rh  Rh85  1  0.50000000  0.00000000  0.60803300  1
  Rh  Rh86  1  0.75000000  0.75000000  0.96396900  1
  Rh  Rh87  1  0.00000000  0.00000000  0.81928600  1
  Rh  Rh88  1  0.75000000  0.75000000  0.60829200  1
  Rh  Rh89  1  0.00000000  0.00000000  0.89196700  1
  Rh  Rh90  1  0.50000000  0.00000000  0.53597600  1
  Rh  Rh91  1  0.25000000  0.75000000  0.60829200  1
  Rh  Rh92  1  0.25000000  0.75000000  0.68026900  1
  Rh  Rh93  1  0.75000000  0.75000000  0.53603100  1
  Rh  Rh94  1  0.25000000  0.75000000  0.53603100  1
  Rh  Rh95  1  0.75000000  0.75000000  0.68026900  1
  Rh  Rh96  1  0.25000000  0.75000000  0.89170800  1
  Rh  Rh97  1  0.25000000  0.75000000  0.75000000  1
  Rh  Rh98  1  0.25000000  0.75000000  0.96396900  1
  Rh  Rh99  1  0.50000000  0.00000000  0.68071400  1
  Rh  Rh100  1  0.00000000  0.00000000  0.96402400  1
  Rh  Rh101  1  0.75000000  0.75000000  0.89170800  1
  Rh  Rh102  1  0.75000000  0.75000000  0.75000000  1
  Rh  Rh103  1  0.75000000  0.75000000  0.81973100  1
  Rh  Rh104  1  0.25000000  0.25000000  0.31973100  1
  Rh  Rh105  1  0.50000000  0.50000000  0.10803300  1
  Rh  Rh106  1  0.75000000  0.25000000  0.46396900  1
  Rh  Rh107  1  0.00000000  0.50000000  0.31928600  1
  Rh  Rh108  1  0.75000000  0.25000000  0.10829200  1
  Rh  Rh109  1  0.00000000  0.50000000  0.39196700  1
  Rh  Rh110  1  0.50000000  0.50000000  0.03597600  1
  Rh  Rh111  1  0.25000000  0.25000000  0.10829200  1
  Rh  Rh112  1  0.25000000  0.25000000  0.18026900  1
  Rh  Rh113  1  0.75000000  0.25000000  0.03603100  1
  Rh  Rh114  1  0.25000000  0.25000000  0.03603100  1
  Rh  Rh115  1  0.75000000  0.25000000  0.18026900  1
  Rh  Rh116  1  0.25000000  0.25000000  0.39170800  1
  Rh  Rh117  1  0.25000000  0.25000000  0.25000000  1
  Rh  Rh118  1  0.25000000  0.25000000  0.46396900  1
  Rh  Rh119  1  0.50000000  0.50000000  0.18071400  1
  Rh  Rh120  1  0.00000000  0.50000000  0.46402400  1
  Rh  Rh121  1  0.75000000  0.25000000  0.39170800  1
  Rh  Rh122  1  0.75000000  0.25000000  0.25000000  1
  Rh  Rh123  1  0.75000000  0.25000000  0.31973100  1
  Rh  Rh124  1  0.75000000  0.75000000  0.31973100  1
  Rh  Rh125  1  0.00000000  0.00000000  0.10803300  1
  Rh  Rh126  1  0.25000000  0.75000000  0.46396900  1
  Rh  Rh127  1  0.50000000  0.00000000  0.31928600  1
  Rh  Rh128  1  0.25000000  0.75000000  0.10829200  1
  Rh  Rh129  1  0.50000000  0.00000000  0.39196700  1
  Rh  Rh130  1  0.00000000  0.00000000  0.03597600  1
  Rh  Rh131  1  0.75000000  0.75000000  0.10829200  1
  Rh  Rh132  1  0.75000000  0.75000000  0.18026900  1
  Rh  Rh133  1  0.25000000  0.75000000  0.03603100  1
  Rh  Rh134  1  0.75000000  0.75000000  0.03603100  1
  Rh  Rh135  1  0.25000000  0.75000000  0.18026900  1
  Rh  Rh136  1  0.75000000  0.75000000  0.39170800  1
  Rh  Rh137  1  0.75000000  0.75000000  0.25000000  1
  Rh  Rh138  1  0.75000000  0.75000000  0.46396900  1
  Rh  Rh139  1  0.00000000  0.00000000  0.18071400  1
  Rh  Rh140  1  0.50000000  0.00000000  0.46402400  1
  Rh  Rh141  1  0.25000000  0.75000000  0.39170800  1
  Rh  Rh142  1  0.25000000  0.75000000  0.25000000  1
  Rh  Rh143  1  0.25000000  0.75000000  0.31973100  1
  Rh  Rh144  1  0.75000000  0.25000000  0.81973100  1
  Rh  Rh145  1  0.00000000  0.50000000  0.60803300  1
  Rh  Rh146  1  0.25000000  0.25000000  0.96396900  1
  Rh  Rh147  1  0.50000000  0.50000000  0.81928600  1
  Rh  Rh148  1  0.25000000  0.25000000  0.60829200  1
  Rh  Rh149  1  0.50000000  0.50000000  0.89196700  1
  Rh  Rh150  1  0.00000000  0.50000000  0.53597600  1
  Rh  Rh151  1  0.75000000  0.25000000  0.60829200  1
  Rh  Rh152  1  0.75000000  0.25000000  0.68026900  1
  Rh  Rh153  1  0.25000000  0.25000000  0.53603100  1
  Rh  Rh154  1  0.75000000  0.25000000  0.53603100  1
  Rh  Rh155  1  0.25000000  0.25000000  0.68026900  1
  Rh  Rh156  1  0.75000000  0.25000000  0.89170800  1
  Rh  Rh157  1  0.75000000  0.25000000  0.75000000  1
  Rh  Rh158  1  0.75000000  0.25000000  0.96396900  1
  Rh  Rh159  1  0.00000000  0.50000000  0.68071400  1
  Rh  Rh160  1  0.50000000  0.50000000  0.96402400  1
  Rh  Rh161  1  0.25000000  0.25000000  0.89170800  1
  Rh  Rh162  1  0.25000000  0.25000000  0.75000000  1
  Rh  Rh163  1  0.25000000  0.25000000  0.81973100  1
