# generated using pymatgen
data_MnP2O7
_symmetry_space_group_name_H-M   'P 1'
_cell_length_a   10.07134400
_cell_length_b   8.45255600
_cell_length_c   6.80766211
_cell_angle_alpha   90.00000000
_cell_angle_beta   118.91937158
_cell_angle_gamma   90.00000000
_symmetry_Int_Tables_number   1
_chemical_formula_structural   MnP2O7
_chemical_formula_sum   'Mn4 P8 O28'
_cell_volume   507.26038073
_cell_formula_units_Z   4
loop_
 _symmetry_equiv_pos_site_id
 _symmetry_equiv_pos_as_xyz
  1  'x, y, z'
loop_
 _atom_site_type_symbol
 _atom_site_label
 _atom_site_symmetry_multiplicity
 _atom_site_fract_x
 _atom_site_fract_y
 _atom_site_fract_z
 _atom_site_occupancy
  Mn  Mn0  1  0.00000000  0.31445000  0.50000000  1
  Mn  Mn1  1  0.00000000  0.68555000  0.50000000  1
  Mn  Mn2  1  0.50000000  0.81445000  0.50000000  1
  Mn  Mn3  1  0.50000000  0.18555000  0.50000000  1
  P  P4  1  0.19388200  0.50000000  0.94293600  1
  P  P5  1  0.80611800  0.50000000  0.05706400  1
  P  P6  1  0.27225700  0.50000000  0.43441600  1
  P  P7  1  0.72774300  0.50000000  0.56558400  1
  P  P8  1  0.69388200  0.00000000  0.94293600  1
  P  P9  1  0.30611800  0.00000000  0.05706400  1
  P  P10  1  0.77225700  0.00000000  0.43441600  1
  P  P11  1  0.22774300  0.00000000  0.56558400  1
  O  O12  1  0.14066400  0.50000000  0.49689700  1
  O  O13  1  0.86231300  0.15104700  0.51652000  1
  O  O14  1  0.35838400  0.50000000  0.99684600  1
  O  O15  1  0.82402900  0.50000000  0.83603100  1
  O  O16  1  0.13768700  0.15104700  0.48348000  1
  O  O17  1  0.17597100  0.50000000  0.16396900  1
  O  O18  1  0.88954250  0.34508350  0.17789000  1
  O  O19  1  0.11045750  0.34508350  0.82211000  1
  O  O20  1  0.86231300  0.84895300  0.51652000  1
  O  O21  1  0.11045750  0.65491650  0.82211000  1
  O  O22  1  0.88954250  0.65491650  0.17789000  1
  O  O23  1  0.85933600  0.50000000  0.50310300  1
  O  O24  1  0.64161600  0.50000000  0.00315400  1
  O  O25  1  0.13768700  0.84895300  0.48348000  1
  O  O26  1  0.64066400  0.00000000  0.49689700  1
  O  O27  1  0.36231300  0.65104700  0.51652000  1
  O  O28  1  0.85838400  0.00000000  0.99684600  1
  O  O29  1  0.32402900  0.00000000  0.83603100  1
  O  O30  1  0.63768700  0.65104700  0.48348000  1
  O  O31  1  0.67597100  0.00000000  0.16396900  1
  O  O32  1  0.38954250  0.84508350  0.17789000  1
  O  O33  1  0.61045750  0.84508350  0.82211000  1
  O  O34  1  0.36231300  0.34895300  0.51652000  1
  O  O35  1  0.61045750  0.15491650  0.82211000  1
  O  O36  1  0.38954250  0.15491650  0.17789000  1
  O  O37  1  0.35933600  0.00000000  0.50310300  1
  O  O38  1  0.14161600  0.00000000  0.00315400  1
  O  O39  1  0.63768700  0.34895300  0.48348000  1
