# generated using pymatgen
data_Ca4Al6WO16
_symmetry_space_group_name_H-M   'P 1'
_cell_length_a   9.42704400
_cell_length_b   13.22381400
_cell_length_c   26.38657500
_cell_angle_alpha   90.00000000
_cell_angle_beta   90.00000000
_cell_angle_gamma   90.00000000
_symmetry_Int_Tables_number   1
_chemical_formula_structural   Ca4Al6WO16
_chemical_formula_sum   'Ca32 Al48 W8 O128'
_cell_volume   3289.38939732
_cell_formula_units_Z   8
loop_
 _symmetry_equiv_pos_site_id
 _symmetry_equiv_pos_as_xyz
  1  'x, y, z'
loop_
 _atom_site_type_symbol
 _atom_site_label
 _atom_site_symmetry_multiplicity
 _atom_site_fract_x
 _atom_site_fract_y
 _atom_site_fract_z
 _atom_site_occupancy
  Ca  Ca0  1  0.74631600  0.01363000  0.87985700  1
  Ca  Ca1  1  0.74827700  0.76165700  0.75003400  1
  Ca  Ca2  1  0.78022800  0.97416200  0.63836700  1
  Ca  Ca3  1  0.24631600  0.01363000  0.62014300  1
  Ca  Ca4  1  0.74631600  0.98637000  0.12014300  1
  Ca  Ca5  1  0.70415950  0.73247250  0.48321500  1
  Ca  Ca6  1  0.24827700  0.76165700  0.74996600  1
  Ca  Ca7  1  0.70415950  0.23247250  0.01678500  1
  Ca  Ca8  1  0.24631600  0.98637000  0.37985700  1
  Ca  Ca9  1  0.28022800  0.97416200  0.86163300  1
  Ca  Ca10  1  0.70415950  0.76752750  0.98321500  1
  Ca  Ca11  1  0.70415950  0.26752750  0.51678500  1
  Ca  Ca12  1  0.28022800  0.02583800  0.13836700  1
  Ca  Ca13  1  0.78022800  0.02583800  0.36163300  1
  Ca  Ca14  1  0.24827700  0.23834300  0.25003400  1
  Ca  Ca15  1  0.74827700  0.23834300  0.24996600  1
  Ca  Ca16  1  0.24631600  0.51363000  0.87985700  1
  Ca  Ca17  1  0.24827700  0.26165700  0.75003400  1
  Ca  Ca18  1  0.28022800  0.47416200  0.63836700  1
  Ca  Ca19  1  0.74631600  0.51363000  0.62014300  1
  Ca  Ca20  1  0.24631600  0.48637000  0.12014300  1
  Ca  Ca21  1  0.20415950  0.23247250  0.48321500  1
  Ca  Ca22  1  0.74827700  0.26165700  0.74996600  1
  Ca  Ca23  1  0.20415950  0.73247250  0.01678500  1
  Ca  Ca24  1  0.74631600  0.48637000  0.37985700  1
  Ca  Ca25  1  0.78022800  0.47416200  0.86163300  1
  Ca  Ca26  1  0.20415950  0.26752750  0.98321500  1
  Ca  Ca27  1  0.20415950  0.76752750  0.51678500  1
  Ca  Ca28  1  0.78022800  0.52583800  0.13836700  1
  Ca  Ca29  1  0.28022800  0.52583800  0.36163300  1
  Ca  Ca30  1  0.74827700  0.73834300  0.25003400  1
  Ca  Ca31  1  0.24827700  0.73834300  0.24996600  1
  Al  Al32  1  0.47672700  0.88620500  0.06284300  1
  Al  Al33  1  0.47672700  0.11379500  0.93715700  1
  Al  Al34  1  0.47672700  0.61379500  0.56284300  1
  Al  Al35  1  0.49896200  0.37535000  0.81465500  1
  Al  Al36  1  0.49445550  0.86564650  0.55950300  1
  Al  Al37  1  0.75641700  0.99724700  0.24338600  1
  Al  Al38  1  0.24314500  0.00000000  0.50000000  1
  Al  Al39  1  0.51162450  0.87431150  0.18996500  1
  Al  Al40  1  0.22840900  0.00000000  0.00000000  1
  Al  Al41  1  0.75641700  0.00275300  0.75661400  1
  Al  Al42  1  0.51162450  0.62568850  0.68996500  1
  Al  Al43  1  0.25641700  0.00275300  0.74338600  1
  Al  Al44  1  0.51162450  0.12568850  0.81003500  1
  Al  Al45  1  0.49896200  0.62465000  0.18534500  1
  Al  Al46  1  0.49896200  0.87535000  0.68534500  1
  Al  Al47  1  0.25641700  0.99724700  0.25661400  1
  Al  Al48  1  0.74314500  0.00000000  0.00000000  1
  Al  Al49  1  0.51162450  0.37431150  0.31003500  1
  Al  Al50  1  0.49896200  0.12465000  0.31465500  1
  Al  Al51  1  0.47672700  0.38620500  0.43715700  1
  Al  Al52  1  0.49445550  0.13435350  0.44049700  1
  Al  Al53  1  0.49445550  0.36564650  0.94049700  1
  Al  Al54  1  0.72840900  0.00000000  0.50000000  1
  Al  Al55  1  0.49445550  0.63435350  0.05950300  1
  Al  Al56  1  0.97672700  0.38620500  0.06284300  1
  Al  Al57  1  0.97672700  0.61379500  0.93715700  1
  Al  Al58  1  0.97672700  0.11379500  0.56284300  1
  Al  Al59  1  0.99896200  0.87535000  0.81465500  1
  Al  Al60  1  0.99445550  0.36564650  0.55950300  1
  Al  Al61  1  0.25641700  0.49724700  0.24338600  1
  Al  Al62  1  0.74314500  0.50000000  0.50000000  1
  Al  Al63  1  0.01162450  0.37431150  0.18996500  1
  Al  Al64  1  0.72840900  0.50000000  0.00000000  1
  Al  Al65  1  0.25641700  0.50275300  0.75661400  1
  Al  Al66  1  0.01162450  0.12568850  0.68996500  1
  Al  Al67  1  0.75641700  0.50275300  0.74338600  1
  Al  Al68  1  0.01162450  0.62568850  0.81003500  1
  Al  Al69  1  0.99896200  0.12465000  0.18534500  1
  Al  Al70  1  0.99896200  0.37535000  0.68534500  1
  Al  Al71  1  0.75641700  0.49724700  0.25661400  1
  Al  Al72  1  0.24314500  0.50000000  0.00000000  1
  Al  Al73  1  0.01162450  0.87431150  0.31003500  1
  Al  Al74  1  0.99896200  0.62465000  0.31465500  1
  Al  Al75  1  0.97672700  0.88620500  0.43715700  1
  Al  Al76  1  0.99445550  0.63435350  0.44049700  1
  Al  Al77  1  0.99445550  0.86564650  0.94049700  1
  Al  Al78  1  0.22840900  0.50000000  0.50000000  1
  Al  Al79  1  0.99445550  0.13435350  0.05950300  1
  W  W80  1  0.50127950  0.73970150  0.86358900  1
  W  W81  1  0.50127950  0.76029850  0.36358900  1
  W  W82  1  0.50127950  0.23970150  0.63641100  1
  W  W83  1  0.50127950  0.26029850  0.13641100  1
  W  W84  1  0.00127950  0.23970150  0.86358900  1
  W  W85  1  0.00127950  0.26029850  0.36358900  1
  W  W86  1  0.00127950  0.73970150  0.63641100  1
  W  W87  1  0.00127950  0.76029850  0.13641100  1
  O  O88  1  0.33462600  0.06816000  0.45315900  1
  O  O89  1  0.87677750  0.04788050  0.71235400  1
  O  O90  1  0.37677750  0.95211950  0.21235400  1
  O  O91  1  0.13449500  0.11214600  0.01663800  1
  O  O92  1  0.82800700  0.03476100  0.55431500  1
  O  O93  1  0.64405750  0.07528350  0.28001200  1
  O  O94  1  0.63449500  0.11214600  0.48336200  1
  O  O95  1  0.18929600  0.10549300  0.70887700  1
  O  O96  1  0.32800700  0.96523900  0.05431500  1
  O  O97  1  0.55170850  0.89432850  0.62177100  1
  O  O98  1  0.48019100  0.24906700  0.29121600  1
  O  O99  1  0.58549100  0.18062900  0.08895100  1
  O  O100  1  0.51720400  0.08565400  0.87360700  1
  O  O101  1  0.43585900  0.76028200  0.04637100  1
  O  O102  1  0.41241900  0.36411300  0.10569400  1
  O  O103  1  0.68929600  0.89450700  0.20887700  1
  O  O104  1  0.64405750  0.92471650  0.71998800  1
  O  O105  1  0.43585900  0.73971800  0.54637100  1
  O  O106  1  0.63479700  0.80893300  0.32089200  1
  O  O107  1  0.63479700  0.30893300  0.17910800  1
  O  O108  1  0.14405750  0.07528350  0.21998800  1
  O  O109  1  0.82529650  0.92354850  0.80519100  1
  O  O110  1  0.58549100  0.68062900  0.41104900  1
  O  O111  1  0.14183100  0.09083300  0.53266000  1
  O  O112  1  0.43585900  0.26028200  0.45362900  1
  O  O113  1  0.64183100  0.90916700  0.03266000  1
  O  O114  1  0.51720400  0.58565400  0.62639300  1
  O  O115  1  0.48019100  0.75093300  0.70878400  1
  O  O116  1  0.33462600  0.93184000  0.54684100  1
  O  O117  1  0.41241900  0.63588700  0.89430600  1
  O  O118  1  0.48019100  0.25093300  0.79121600  1
  O  O119  1  0.63479700  0.19106700  0.67910800  1
  O  O120  1  0.83462600  0.93184000  0.95315900  1
  O  O121  1  0.51720400  0.41434600  0.37360700  1
  O  O122  1  0.32529650  0.07645150  0.30519100  1
  O  O123  1  0.37677750  0.04788050  0.78764600  1
  O  O124  1  0.63449500  0.88785400  0.51663800  1
  O  O125  1  0.37242300  0.81674200  0.82913700  1
  O  O126  1  0.82529650  0.07645150  0.19480900  1
  O  O127  1  0.55170850  0.60567150  0.12177100  1
  O  O128  1  0.58549100  0.81937100  0.91104900  1
  O  O129  1  0.68929600  0.10549300  0.79112300  1
  O  O130  1  0.55170850  0.10567150  0.37822900  1
  O  O131  1  0.82800700  0.96523900  0.44568500  1
  O  O132  1  0.18929600  0.89450700  0.29112300  1
  O  O133  1  0.48019100  0.74906700  0.20878400  1
  O  O134  1  0.64183100  0.09083300  0.96734000  1
  O  O135  1  0.13449500  0.88785400  0.98336200  1
  O  O136  1  0.87677750  0.95211950  0.28764600  1
  O  O137  1  0.58549100  0.31937100  0.58895100  1
  O  O138  1  0.41241900  0.13588700  0.60569400  1
  O  O139  1  0.51720400  0.91434600  0.12639300  1
  O  O140  1  0.55170850  0.39432850  0.87822900  1
  O  O141  1  0.63479700  0.69106700  0.82089200  1
  O  O142  1  0.32800700  0.03476100  0.94568500  1
  O  O143  1  0.43585900  0.23971800  0.95362900  1
  O  O144  1  0.83462600  0.06816000  0.04684100  1
  O  O145  1  0.14183100  0.90916700  0.46734000  1
  O  O146  1  0.41241900  0.86411300  0.39430600  1
  O  O147  1  0.14405750  0.92471650  0.78001200  1
  O  O148  1  0.37242300  0.68325800  0.32913700  1
  O  O149  1  0.37242300  0.31674200  0.67086300  1
  O  O150  1  0.32529650  0.92354850  0.69480900  1
  O  O151  1  0.37242300  0.18325800  0.17086300  1
  O  O152  1  0.83462600  0.56816000  0.45315900  1
  O  O153  1  0.37677750  0.54788050  0.71235400  1
  O  O154  1  0.87677750  0.45211950  0.21235400  1
  O  O155  1  0.63449500  0.61214600  0.01663800  1
  O  O156  1  0.32800700  0.53476100  0.55431500  1
  O  O157  1  0.14405750  0.57528350  0.28001200  1
  O  O158  1  0.13449500  0.61214600  0.48336200  1
  O  O159  1  0.68929600  0.60549300  0.70887700  1
  O  O160  1  0.82800700  0.46523900  0.05431500  1
  O  O161  1  0.05170850  0.39432850  0.62177100  1
  O  O162  1  0.98019100  0.74906700  0.29121600  1
  O  O163  1  0.08549100  0.68062900  0.08895100  1
  O  O164  1  0.01720400  0.58565400  0.87360700  1
  O  O165  1  0.93585900  0.26028200  0.04637100  1
  O  O166  1  0.91241900  0.86411300  0.10569400  1
  O  O167  1  0.18929600  0.39450700  0.20887700  1
  O  O168  1  0.14405750  0.42471650  0.71998800  1
  O  O169  1  0.93585900  0.23971800  0.54637100  1
  O  O170  1  0.13479700  0.30893300  0.32089200  1
  O  O171  1  0.13479700  0.80893300  0.17910800  1
  O  O172  1  0.64405750  0.57528350  0.21998800  1
  O  O173  1  0.32529650  0.42354850  0.80519100  1
  O  O174  1  0.08549100  0.18062900  0.41104900  1
  O  O175  1  0.64183100  0.59083300  0.53266000  1
  O  O176  1  0.93585900  0.76028200  0.45362900  1
  O  O177  1  0.14183100  0.40916700  0.03266000  1
  O  O178  1  0.01720400  0.08565400  0.62639300  1
  O  O179  1  0.98019100  0.25093300  0.70878400  1
  O  O180  1  0.83462600  0.43184000  0.54684100  1
  O  O181  1  0.91241900  0.13588700  0.89430600  1
  O  O182  1  0.98019100  0.75093300  0.79121600  1
  O  O183  1  0.13479700  0.69106700  0.67910800  1
  O  O184  1  0.33462600  0.43184000  0.95315900  1
  O  O185  1  0.01720400  0.91434600  0.37360700  1
  O  O186  1  0.82529650  0.57645150  0.30519100  1
  O  O187  1  0.87677750  0.54788050  0.78764600  1
  O  O188  1  0.13449500  0.38785400  0.51663800  1
  O  O189  1  0.87242300  0.31674200  0.82913700  1
  O  O190  1  0.32529650  0.57645150  0.19480900  1
  O  O191  1  0.05170850  0.10567150  0.12177100  1
  O  O192  1  0.08549100  0.31937100  0.91104900  1
  O  O193  1  0.18929600  0.60549300  0.79112300  1
  O  O194  1  0.05170850  0.60567150  0.37822900  1
  O  O195  1  0.32800700  0.46523900  0.44568500  1
  O  O196  1  0.68929600  0.39450700  0.29112300  1
  O  O197  1  0.98019100  0.24906700  0.20878400  1
  O  O198  1  0.14183100  0.59083300  0.96734000  1
  O  O199  1  0.63449500  0.38785400  0.98336200  1
  O  O200  1  0.37677750  0.45211950  0.28764600  1
  O  O201  1  0.08549100  0.81937100  0.58895100  1
  O  O202  1  0.91241900  0.63588700  0.60569400  1
  O  O203  1  0.01720400  0.41434600  0.12639300  1
  O  O204  1  0.05170850  0.89432850  0.87822900  1
  O  O205  1  0.13479700  0.19106700  0.82089200  1
  O  O206  1  0.82800700  0.53476100  0.94568500  1
  O  O207  1  0.93585900  0.73971800  0.95362900  1
  O  O208  1  0.33462600  0.56816000  0.04684100  1
  O  O209  1  0.64183100  0.40916700  0.46734000  1
  O  O210  1  0.91241900  0.36411300  0.39430600  1
  O  O211  1  0.64405750  0.42471650  0.78001200  1
  O  O212  1  0.87242300  0.18325800  0.32913700  1
  O  O213  1  0.87242300  0.81674200  0.67086300  1
  O  O214  1  0.82529650  0.42354850  0.69480900  1
  O  O215  1  0.87242300  0.68325800  0.17086300  1
