# generated using pymatgen
data_Li4MoP2O9
_symmetry_space_group_name_H-M   'P 1'
_cell_length_a   14.45939600
_cell_length_b   7.03771800
_cell_length_c   7.18524977
_cell_angle_alpha   90.00000000
_cell_angle_beta   90.19300507
_cell_angle_gamma   90.00000000
_symmetry_Int_Tables_number   1
_chemical_formula_structural   Li4MoP2O9
_chemical_formula_sum   'Li16 Mo4 P8 O36'
_cell_volume   731.17514160
_cell_formula_units_Z   4
loop_
 _symmetry_equiv_pos_site_id
 _symmetry_equiv_pos_as_xyz
  1  'x, y, z'
loop_
 _atom_site_type_symbol
 _atom_site_label
 _atom_site_symmetry_multiplicity
 _atom_site_fract_x
 _atom_site_fract_y
 _atom_site_fract_z
 _atom_site_occupancy
  Li  Li0  1  0.60024500  0.50000000  0.24009700  1
  Li  Li1  1  0.63121300  0.00000000  0.69101400  1
  Li  Li2  1  0.75000000  0.25000000  0.50000000  1
  Li  Li3  1  0.75000000  0.75000000  0.50000000  1
  Li  Li4  1  0.86878700  0.50000000  0.30898600  1
  Li  Li5  1  0.89975500  0.00000000  0.75990300  1
  Li  Li6  1  0.00000000  0.23110700  0.00000000  1
  Li  Li7  1  0.00000000  0.76889300  0.00000000  1
  Li  Li8  1  0.10024500  0.00000000  0.24009700  1
  Li  Li9  1  0.13121300  0.50000000  0.69101400  1
  Li  Li10  1  0.25000000  0.75000000  0.50000000  1
  Li  Li11  1  0.25000000  0.25000000  0.50000000  1
  Li  Li12  1  0.36878700  0.00000000  0.30898600  1
  Li  Li13  1  0.39975500  0.50000000  0.75990300  1
  Li  Li14  1  0.50000000  0.73110700  0.00000000  1
  Li  Li15  1  0.50000000  0.26889300  0.00000000  1
  Mo  Mo16  1  0.75000000  0.25000000  0.00000000  1
  Mo  Mo17  1  0.75000000  0.75000000  0.00000000  1
  Mo  Mo18  1  0.25000000  0.75000000  0.00000000  1
  Mo  Mo19  1  0.25000000  0.25000000  0.00000000  1
  P  P20  1  0.59712900  0.00000000  0.24340300  1
  P  P21  1  0.62229900  0.50000000  0.69939300  1
  P  P22  1  0.87770100  0.00000000  0.30060700  1
  P  P23  1  0.90287100  0.50000000  0.75659700  1
  P  P24  1  0.09712900  0.50000000  0.24340300  1
  P  P25  1  0.12229900  0.00000000  0.69939300  1
  P  P26  1  0.37770100  0.50000000  0.30060700  1
  P  P27  1  0.40287100  0.00000000  0.75659700  1
  O  O28  1  0.50714600  0.00000000  0.75175400  1
  O  O29  1  0.53361400  0.50000000  0.81809100  1
  O  O30  1  0.61735900  0.50000000  0.48942700  1
  O  O31  1  0.62413550  0.81836950  0.12041900  1
  O  O32  1  0.62413550  0.18163050  0.12041900  1
  O  O33  1  0.65332000  0.00000000  0.42428900  1
  O  O34  1  0.68016100  0.68442300  0.75106900  1
  O  O35  1  0.68016100  0.31557700  0.75106900  1
  O  O36  1  0.74041700  0.50000000  0.12978700  1
  O  O37  1  0.75958300  0.00000000  0.87021300  1
  O  O38  1  0.81983900  0.18442300  0.24893100  1
  O  O39  1  0.81983900  0.81557700  0.24893100  1
  O  O40  1  0.84668000  0.50000000  0.57571100  1
  O  O41  1  0.87586450  0.31836950  0.87958100  1
  O  O42  1  0.87586450  0.68163050  0.87958100  1
  O  O43  1  0.88264100  0.00000000  0.51057300  1
  O  O44  1  0.96638600  0.00000000  0.18190900  1
  O  O45  1  0.99285400  0.50000000  0.24824600  1
  O  O46  1  0.00714600  0.50000000  0.75175400  1
  O  O47  1  0.03361400  0.00000000  0.81809100  1
  O  O48  1  0.11735900  0.00000000  0.48942700  1
  O  O49  1  0.12413550  0.31836950  0.12041900  1
  O  O50  1  0.12413550  0.68163050  0.12041900  1
  O  O51  1  0.15332000  0.50000000  0.42428900  1
  O  O52  1  0.18016100  0.18442300  0.75106900  1
  O  O53  1  0.18016100  0.81557700  0.75106900  1
  O  O54  1  0.24041700  0.00000000  0.12978700  1
  O  O55  1  0.25958300  0.50000000  0.87021300  1
  O  O56  1  0.31983900  0.68442300  0.24893100  1
  O  O57  1  0.31983900  0.31557700  0.24893100  1
  O  O58  1  0.34668000  0.00000000  0.57571100  1
  O  O59  1  0.37586450  0.81836950  0.87958100  1
  O  O60  1  0.37586450  0.18163050  0.87958100  1
  O  O61  1  0.38264100  0.50000000  0.51057300  1
  O  O62  1  0.46638600  0.50000000  0.18190900  1
  O  O63  1  0.49285400  0.00000000  0.24824600  1
