# generated using pymatgen
data_Ga8Cu3Mo2
_symmetry_space_group_name_H-M   'P 1'
_cell_length_a   12.01469400
_cell_length_b   12.01469400
_cell_length_c   12.01469400
_cell_angle_alpha   90.00000000
_cell_angle_beta   90.00000000
_cell_angle_gamma   90.00000000
_symmetry_Int_Tables_number   1
_chemical_formula_structural   Ga8Cu3Mo2
_chemical_formula_sum   'Ga64 Cu24 Mo16'
_cell_volume   1734.35558406
_cell_formula_units_Z   8
loop_
 _symmetry_equiv_pos_site_id
 _symmetry_equiv_pos_as_xyz
  1  'x, y, z'
loop_
 _atom_site_type_symbol
 _atom_site_label
 _atom_site_symmetry_multiplicity
 _atom_site_fract_x
 _atom_site_fract_y
 _atom_site_fract_z
 _atom_site_occupancy
  Ga  Ga0  1  0.87878800  0.37883600  0.61358500  1
  Ga  Ga1  1  0.60652500  0.89347500  0.10652500  1
  Ga  Ga2  1  0.12116400  0.38641500  0.37878800  1
  Ga  Ga3  1  0.12116400  0.61358500  0.12121200  1
  Ga  Ga4  1  0.10652500  0.60652500  0.89347500  1
  Ga  Ga5  1  0.38641500  0.62121200  0.37883600  1
  Ga  Ga6  1  0.12883600  0.37121200  0.13641500  1
  Ga  Ga7  1  0.62121200  0.37883600  0.38641500  1
  Ga  Ga8  1  0.14347500  0.14347500  0.14347500  1
  Ga  Ga9  1  0.38641500  0.37878800  0.12116400  1
  Ga  Ga10  1  0.89347500  0.10652500  0.60652500  1
  Ga  Ga11  1  0.14347500  0.85652500  0.35652500  1
  Ga  Ga12  1  0.37121200  0.13641500  0.12883600  1
  Ga  Ga13  1  0.37878800  0.12116400  0.38641500  1
  Ga  Ga14  1  0.85652500  0.35652500  0.14347500  1
  Ga  Ga15  1  0.12883600  0.62878800  0.36358500  1
  Ga  Ga16  1  0.39347500  0.39347500  0.39347500  1
  Ga  Ga17  1  0.35652500  0.14347500  0.85652500  1
  Ga  Ga18  1  0.62878800  0.36358500  0.12883600  1
  Ga  Ga19  1  0.37883600  0.38641500  0.62121200  1
  Ga  Ga20  1  0.36358500  0.12883600  0.62878800  1
  Ga  Ga21  1  0.13641500  0.12883600  0.37121200  1
  Ga  Ga22  1  0.86358500  0.37116400  0.37121200  1
  Ga  Ga23  1  0.61358500  0.12121200  0.12116400  1
  Ga  Ga24  1  0.37121200  0.86358500  0.37116400  1
  Ga  Ga25  1  0.63641500  0.37116400  0.62878800  1
  Ga  Ga26  1  0.62878800  0.63641500  0.37116400  1
  Ga  Ga27  1  0.12121200  0.12116400  0.61358500  1
  Ga  Ga28  1  0.37116400  0.62878800  0.63641500  1
  Ga  Ga29  1  0.37116400  0.37121200  0.86358500  1
  Ga  Ga30  1  0.61358500  0.87878800  0.37883600  1
  Ga  Ga31  1  0.37883600  0.61358500  0.87878800  1
  Ga  Ga32  1  0.37878800  0.87883600  0.11358500  1
  Ga  Ga33  1  0.10652500  0.39347500  0.60652500  1
  Ga  Ga34  1  0.62116400  0.88641500  0.87878800  1
  Ga  Ga35  1  0.62116400  0.11358500  0.62121200  1
  Ga  Ga36  1  0.60652500  0.10652500  0.39347500  1
  Ga  Ga37  1  0.88641500  0.12121200  0.87883600  1
  Ga  Ga38  1  0.62883600  0.87121200  0.63641500  1
  Ga  Ga39  1  0.12121200  0.87883600  0.88641500  1
  Ga  Ga40  1  0.64347500  0.64347500  0.64347500  1
  Ga  Ga41  1  0.88641500  0.87878800  0.62116400  1
  Ga  Ga42  1  0.39347500  0.60652500  0.10652500  1
  Ga  Ga43  1  0.64347500  0.35652500  0.85652500  1
  Ga  Ga44  1  0.87121200  0.63641500  0.62883600  1
  Ga  Ga45  1  0.87878800  0.62116400  0.88641500  1
  Ga  Ga46  1  0.35652500  0.85652500  0.64347500  1
  Ga  Ga47  1  0.62883600  0.12878800  0.86358500  1
  Ga  Ga48  1  0.89347500  0.89347500  0.89347500  1
  Ga  Ga49  1  0.85652500  0.64347500  0.35652500  1
  Ga  Ga50  1  0.12878800  0.86358500  0.62883600  1
  Ga  Ga51  1  0.87883600  0.88641500  0.12121200  1
  Ga  Ga52  1  0.86358500  0.62883600  0.12878800  1
  Ga  Ga53  1  0.63641500  0.62883600  0.87121200  1
  Ga  Ga54  1  0.36358500  0.87116400  0.87121200  1
  Ga  Ga55  1  0.11358500  0.62121200  0.62116400  1
  Ga  Ga56  1  0.87121200  0.36358500  0.87116400  1
  Ga  Ga57  1  0.13641500  0.87116400  0.12878800  1
  Ga  Ga58  1  0.12878800  0.13641500  0.87116400  1
  Ga  Ga59  1  0.62121200  0.62116400  0.11358500  1
  Ga  Ga60  1  0.87116400  0.12878800  0.13641500  1
  Ga  Ga61  1  0.87116400  0.87121200  0.36358500  1
  Ga  Ga62  1  0.11358500  0.37878800  0.87883600  1
  Ga  Ga63  1  0.87883600  0.11358500  0.37878800  1
  Cu  Cu64  1  0.98564500  0.50000000  0.25000000  1
  Cu  Cu65  1  0.50000000  0.25000000  0.98564500  1
  Cu  Cu66  1  0.25000000  0.26435500  0.50000000  1
  Cu  Cu67  1  0.25000000  0.98564500  0.50000000  1
  Cu  Cu68  1  0.73564500  0.00000000  0.25000000  1
  Cu  Cu69  1  0.00000000  0.25000000  0.73564500  1
  Cu  Cu70  1  0.25000000  0.73564500  0.00000000  1
  Cu  Cu71  1  0.26435500  0.50000000  0.25000000  1
  Cu  Cu72  1  0.01435500  0.00000000  0.25000000  1
  Cu  Cu73  1  0.00000000  0.25000000  0.01435500  1
  Cu  Cu74  1  0.50000000  0.25000000  0.26435500  1
  Cu  Cu75  1  0.25000000  0.01435500  0.00000000  1
  Cu  Cu76  1  0.48564500  0.00000000  0.75000000  1
  Cu  Cu77  1  0.00000000  0.75000000  0.48564500  1
  Cu  Cu78  1  0.75000000  0.76435500  0.00000000  1
  Cu  Cu79  1  0.75000000  0.48564500  0.00000000  1
  Cu  Cu80  1  0.23564500  0.50000000  0.75000000  1
  Cu  Cu81  1  0.50000000  0.75000000  0.23564500  1
  Cu  Cu82  1  0.75000000  0.23564500  0.50000000  1
  Cu  Cu83  1  0.76435500  0.00000000  0.75000000  1
  Cu  Cu84  1  0.51435500  0.50000000  0.75000000  1
  Cu  Cu85  1  0.50000000  0.75000000  0.51435500  1
  Cu  Cu86  1  0.00000000  0.75000000  0.76435500  1
  Cu  Cu87  1  0.75000000  0.51435500  0.50000000  1
  Mo  Mo88  1  0.23037600  0.73037600  0.76962400  1
  Mo  Mo89  1  0.01962400  0.98037600  0.48037600  1
  Mo  Mo90  1  0.76962400  0.23037600  0.73037600  1
  Mo  Mo91  1  0.26962400  0.26962400  0.26962400  1
  Mo  Mo92  1  0.48037600  0.01962400  0.98037600  1
  Mo  Mo93  1  0.73037600  0.76962400  0.23037600  1
  Mo  Mo94  1  0.98037600  0.48037600  0.01962400  1
  Mo  Mo95  1  0.01962400  0.01962400  0.01962400  1
  Mo  Mo96  1  0.73037600  0.23037600  0.26962400  1
  Mo  Mo97  1  0.51962400  0.48037600  0.98037600  1
  Mo  Mo98  1  0.26962400  0.73037600  0.23037600  1
  Mo  Mo99  1  0.76962400  0.76962400  0.76962400  1
  Mo  Mo100  1  0.98037600  0.51962400  0.48037600  1
  Mo  Mo101  1  0.23037600  0.26962400  0.73037600  1
  Mo  Mo102  1  0.48037600  0.98037600  0.51962400  1
  Mo  Mo103  1  0.51962400  0.51962400  0.51962400  1
