# generated using pymatgen
data_Li22Si5
_symmetry_space_group_name_H-M   'P 1'
_cell_length_a   18.58123600
_cell_length_b   18.58123600
_cell_length_c   18.58123600
_cell_angle_alpha   90.00000000
_cell_angle_beta   90.00000000
_cell_angle_gamma   90.00000000
_symmetry_Int_Tables_number   1
_chemical_formula_structural   Li22Si5
_chemical_formula_sum   'Li352 Si80'
_cell_volume   6415.40085957
_cell_formula_units_Z   16
loop_
 _symmetry_equiv_pos_site_id
 _symmetry_equiv_pos_as_xyz
  1  'x, y, z'
loop_
 _atom_site_type_symbol
 _atom_site_label
 _atom_site_symmetry_multiplicity
 _atom_site_fract_x
 _atom_site_fract_y
 _atom_site_fract_z
 _atom_site_occupancy
  Li  Li0  1  0.50000000  0.00000000  0.50000000  1
  Li  Li1  1  0.82679975  0.17320025  0.82679975  1
  Li  Li2  1  0.67320025  0.32679975  0.82679975  1
  Li  Li3  1  0.67320025  0.17320025  0.67320025  1
  Li  Li4  1  0.82679975  0.32679975  0.67320025  1
  Li  Li5  1  0.00000000  0.00000000  0.17233675  1
  Li  Li6  1  0.00000000  0.32766325  0.50000000  1
  Li  Li7  1  0.67233675  0.00000000  0.50000000  1
  Li  Li8  1  0.32766325  0.00000000  0.50000000  1
  Li  Li9  1  0.50000000  0.17233675  0.50000000  1
  Li  Li10  1  0.00000000  0.00000000  0.82766325  1
  Li  Li11  1  0.75000000  0.25000000  0.58306875  1
  Li  Li12  1  0.75000000  0.41693125  0.75000000  1
  Li  Li13  1  0.58306875  0.25000000  0.75000000  1
  Li  Li14  1  0.91693125  0.25000000  0.75000000  1
  Li  Li15  1  0.75000000  0.08306875  0.75000000  1
  Li  Li16  1  0.75000000  0.25000000  0.91693125  1
  Li  Li17  1  0.99412375  0.33733950  0.33733950  1
  Li  Li18  1  0.66266050  0.16266050  0.49412375  1
  Li  Li19  1  0.83733950  0.00587625  0.16266050  1
  Li  Li20  1  0.66266050  0.49412375  0.16266050  1
  Li  Li21  1  0.83733950  0.16266050  0.00587625  1
  Li  Li22  1  0.83733950  0.33733950  0.49412375  1
  Li  Li23  1  0.83733950  0.49412375  0.33733950  1
  Li  Li24  1  0.66266050  0.33733950  0.00587625  1
  Li  Li25  1  0.66266050  0.00587625  0.33733950  1
  Li  Li26  1  0.50587625  0.33733950  0.16266050  1
  Li  Li27  1  0.50587625  0.16266050  0.33733950  1
  Li  Li28  1  0.99412375  0.16266050  0.16266050  1
  Li  Li29  1  0.50641175  0.33861125  0.66138875  1
  Li  Li30  1  0.66138875  0.33861125  0.50641175  1
  Li  Li31  1  0.66138875  0.49358825  0.66138875  1
  Li  Li32  1  0.83861125  0.00641175  0.66138875  1
  Li  Li33  1  0.33861125  0.33861125  0.49358825  1
  Li  Li34  1  0.83861125  0.16138875  0.50641175  1
  Li  Li35  1  0.16138875  0.00641175  0.33861125  1
  Li  Li36  1  0.16138875  0.16138875  0.49358825  1
  Li  Li37  1  0.33861125  0.49358825  0.33861125  1
  Li  Li38  1  0.49358825  0.33861125  0.33861125  1
  Li  Li39  1  0.99358825  0.16138875  0.66138875  1
  Li  Li40  1  0.00641175  0.16138875  0.33861125  1
  Li  Li41  1  0.59056575  0.40943425  0.25850275  1
  Li  Li42  1  0.09056575  0.24149725  0.59056575  1
  Li  Li43  1  0.25850275  0.40943425  0.59056575  1
  Li  Li44  1  0.24149725  0.09056575  0.59056575  1
  Li  Li45  1  0.90943425  0.24149725  0.40943425  1
  Li  Li46  1  0.40943425  0.25850275  0.59056575  1
  Li  Li47  1  0.75850275  0.09056575  0.40943425  1
  Li  Li48  1  0.59056575  0.25850275  0.40943425  1
  Li  Li49  1  0.74149725  0.40943425  0.40943425  1
  Li  Li50  1  0.40943425  0.40943425  0.74149725  1
  Li  Li51  1  0.90943425  0.09056575  0.25850275  1
  Li  Li52  1  0.09056575  0.09056575  0.74149725  1
  Li  Li53  1  0.58566325  0.41433675  0.74989375  1
  Li  Li54  1  0.58566325  0.25010625  0.58566325  1
  Li  Li55  1  0.74989375  0.41433675  0.58566325  1
  Li  Li56  1  0.75010625  0.08566325  0.58566325  1
  Li  Li57  1  0.41433675  0.25010625  0.41433675  1
  Li  Li58  1  0.91433675  0.24989375  0.58566325  1
  Li  Li59  1  0.24989375  0.08566325  0.41433675  1
  Li  Li60  1  0.08566325  0.24989375  0.41433675  1
  Li  Li61  1  0.25010625  0.41433675  0.41433675  1
  Li  Li62  1  0.41433675  0.41433675  0.25010625  1
  Li  Li63  1  0.91433675  0.08566325  0.74989375  1
  Li  Li64  1  0.08566325  0.08566325  0.25010625  1
  Li  Li65  1  0.00000000  0.00000000  0.50000000  1
  Li  Li66  1  0.75000000  0.25000000  0.25000000  1
  Li  Li67  1  0.75000000  0.25000000  0.75000000  1
  Li  Li68  1  0.57148475  0.42851525  0.07148475  1
  Li  Li69  1  0.92851525  0.07148475  0.07148475  1
  Li  Li70  1  0.92851525  0.42851525  0.42851525  1
  Li  Li71  1  0.57148475  0.07148475  0.42851525  1
  Li  Li72  1  0.66792975  0.33207025  0.16792975  1
  Li  Li73  1  0.83207025  0.16792975  0.16792975  1
  Li  Li74  1  0.83207025  0.33207025  0.33207025  1
  Li  Li75  1  0.66792975  0.16792975  0.33207025  1
  Li  Li76  1  0.82494108  0.17505892  0.32494108  1
  Li  Li77  1  0.67505892  0.32494108  0.32494108  1
  Li  Li78  1  0.67505892  0.17505892  0.17505892  1
  Li  Li79  1  0.82494108  0.32494108  0.17505892  1
  Li  Li80  1  0.92326375  0.07673625  0.42326375  1
  Li  Li81  1  0.57673625  0.42326375  0.42326375  1
  Li  Li82  1  0.07673625  0.07673625  0.57673625  1
  Li  Li83  1  0.42326375  0.42326375  0.57673625  1
  Li  Li84  1  0.58281975  0.41718025  0.58281975  1
  Li  Li85  1  0.91718025  0.08281975  0.58281975  1
  Li  Li86  1  0.41718025  0.41718025  0.41718025  1
  Li  Li87  1  0.08281975  0.08281975  0.41718025  1
  Li  Li88  1  0.50000000  0.50000000  0.00000000  1
  Li  Li89  1  0.82679975  0.67320025  0.32679975  1
  Li  Li90  1  0.67320025  0.82679975  0.32679975  1
  Li  Li91  1  0.67320025  0.67320025  0.17320025  1
  Li  Li92  1  0.82679975  0.82679975  0.17320025  1
  Li  Li93  1  0.00000000  0.50000000  0.67233675  1
  Li  Li94  1  0.00000000  0.82766325  0.00000000  1
  Li  Li95  1  0.67233675  0.50000000  0.00000000  1
  Li  Li96  1  0.32766325  0.50000000  0.00000000  1
  Li  Li97  1  0.50000000  0.67233675  0.00000000  1
  Li  Li98  1  0.00000000  0.50000000  0.32766325  1
  Li  Li99  1  0.75000000  0.75000000  0.08306875  1
  Li  Li100  1  0.75000000  0.91693125  0.25000000  1
  Li  Li101  1  0.58306875  0.75000000  0.25000000  1
  Li  Li102  1  0.91693125  0.75000000  0.25000000  1
  Li  Li103  1  0.75000000  0.58306875  0.25000000  1
  Li  Li104  1  0.75000000  0.75000000  0.41693125  1
  Li  Li105  1  0.99412375  0.83733950  0.83733950  1
  Li  Li106  1  0.66266050  0.66266050  0.99412375  1
  Li  Li107  1  0.83733950  0.50587625  0.66266050  1
  Li  Li108  1  0.66266050  0.99412375  0.66266050  1
  Li  Li109  1  0.83733950  0.66266050  0.50587625  1
  Li  Li110  1  0.83733950  0.83733950  0.99412375  1
  Li  Li111  1  0.83733950  0.99412375  0.83733950  1
  Li  Li112  1  0.66266050  0.83733950  0.50587625  1
  Li  Li113  1  0.66266050  0.50587625  0.83733950  1
  Li  Li114  1  0.50587625  0.83733950  0.66266050  1
  Li  Li115  1  0.50587625  0.66266050  0.83733950  1
  Li  Li116  1  0.99412375  0.66266050  0.66266050  1
  Li  Li117  1  0.50641175  0.83861125  0.16138875  1
  Li  Li118  1  0.66138875  0.83861125  0.00641175  1
  Li  Li119  1  0.66138875  0.99358825  0.16138875  1
  Li  Li120  1  0.83861125  0.50641175  0.16138875  1
  Li  Li121  1  0.33861125  0.83861125  0.99358825  1
  Li  Li122  1  0.83861125  0.66138875  0.00641175  1
  Li  Li123  1  0.16138875  0.50641175  0.83861125  1
  Li  Li124  1  0.16138875  0.66138875  0.99358825  1
  Li  Li125  1  0.33861125  0.99358825  0.83861125  1
  Li  Li126  1  0.49358825  0.83861125  0.83861125  1
  Li  Li127  1  0.99358825  0.66138875  0.16138875  1
  Li  Li128  1  0.00641175  0.66138875  0.83861125  1
  Li  Li129  1  0.59056575  0.90943425  0.75850275  1
  Li  Li130  1  0.09056575  0.74149725  0.09056575  1
  Li  Li131  1  0.25850275  0.90943425  0.09056575  1
  Li  Li132  1  0.24149725  0.59056575  0.09056575  1
  Li  Li133  1  0.90943425  0.74149725  0.90943425  1
  Li  Li134  1  0.40943425  0.75850275  0.09056575  1
  Li  Li135  1  0.75850275  0.59056575  0.90943425  1
  Li  Li136  1  0.59056575  0.75850275  0.90943425  1
  Li  Li137  1  0.74149725  0.90943425  0.90943425  1
  Li  Li138  1  0.40943425  0.90943425  0.24149725  1
  Li  Li139  1  0.90943425  0.59056575  0.75850275  1
  Li  Li140  1  0.09056575  0.59056575  0.24149725  1
  Li  Li141  1  0.58566325  0.91433675  0.24989375  1
  Li  Li142  1  0.58566325  0.75010625  0.08566325  1
  Li  Li143  1  0.74989375  0.91433675  0.08566325  1
  Li  Li144  1  0.75010625  0.58566325  0.08566325  1
  Li  Li145  1  0.41433675  0.75010625  0.91433675  1
  Li  Li146  1  0.91433675  0.74989375  0.08566325  1
  Li  Li147  1  0.24989375  0.58566325  0.91433675  1
  Li  Li148  1  0.08566325  0.74989375  0.91433675  1
  Li  Li149  1  0.25010625  0.91433675  0.91433675  1
  Li  Li150  1  0.41433675  0.91433675  0.75010625  1
  Li  Li151  1  0.91433675  0.58566325  0.24989375  1
  Li  Li152  1  0.08566325  0.58566325  0.75010625  1
  Li  Li153  1  0.00000000  0.50000000  0.00000000  1
  Li  Li154  1  0.75000000  0.75000000  0.75000000  1
  Li  Li155  1  0.75000000  0.75000000  0.25000000  1
  Li  Li156  1  0.57148475  0.92851525  0.57148475  1
  Li  Li157  1  0.92851525  0.57148475  0.57148475  1
  Li  Li158  1  0.92851525  0.92851525  0.92851525  1
  Li  Li159  1  0.57148475  0.57148475  0.92851525  1
  Li  Li160  1  0.66792975  0.83207025  0.66792975  1
  Li  Li161  1  0.83207025  0.66792975  0.66792975  1
  Li  Li162  1  0.83207025  0.83207025  0.83207025  1
  Li  Li163  1  0.66792975  0.66792975  0.83207025  1
  Li  Li164  1  0.82494108  0.67505892  0.82494108  1
  Li  Li165  1  0.67505892  0.82494108  0.82494108  1
  Li  Li166  1  0.67505892  0.67505892  0.67505892  1
  Li  Li167  1  0.82494108  0.82494108  0.67505892  1
  Li  Li168  1  0.92326375  0.57673625  0.92326375  1
  Li  Li169  1  0.57673625  0.92326375  0.92326375  1
  Li  Li170  1  0.07673625  0.57673625  0.07673625  1
  Li  Li171  1  0.42326375  0.92326375  0.07673625  1
  Li  Li172  1  0.58281975  0.91718025  0.08281975  1
  Li  Li173  1  0.91718025  0.58281975  0.08281975  1
  Li  Li174  1  0.41718025  0.91718025  0.91718025  1
  Li  Li175  1  0.08281975  0.58281975  0.91718025  1
  Li  Li176  1  0.00000000  0.00000000  0.00000000  1
  Li  Li177  1  0.32679975  0.17320025  0.32679975  1
  Li  Li178  1  0.17320025  0.32679975  0.32679975  1
  Li  Li179  1  0.17320025  0.17320025  0.17320025  1
  Li  Li180  1  0.32679975  0.32679975  0.17320025  1
  Li  Li181  1  0.50000000  0.00000000  0.67233675  1
  Li  Li182  1  0.50000000  0.32766325  0.00000000  1
  Li  Li183  1  0.17233675  0.00000000  0.00000000  1
  Li  Li184  1  0.82766325  0.00000000  0.00000000  1
  Li  Li185  1  0.00000000  0.17233675  0.00000000  1
  Li  Li186  1  0.50000000  0.00000000  0.32766325  1
  Li  Li187  1  0.25000000  0.25000000  0.08306875  1
  Li  Li188  1  0.25000000  0.41693125  0.25000000  1
  Li  Li189  1  0.08306875  0.25000000  0.25000000  1
  Li  Li190  1  0.41693125  0.25000000  0.25000000  1
  Li  Li191  1  0.25000000  0.08306875  0.25000000  1
  Li  Li192  1  0.25000000  0.25000000  0.41693125  1
  Li  Li193  1  0.49412375  0.33733950  0.83733950  1
  Li  Li194  1  0.16266050  0.16266050  0.99412375  1
  Li  Li195  1  0.33733950  0.00587625  0.66266050  1
  Li  Li196  1  0.16266050  0.49412375  0.66266050  1
  Li  Li197  1  0.33733950  0.16266050  0.50587625  1
  Li  Li198  1  0.33733950  0.33733950  0.99412375  1
  Li  Li199  1  0.33733950  0.49412375  0.83733950  1
  Li  Li200  1  0.16266050  0.33733950  0.50587625  1
  Li  Li201  1  0.16266050  0.00587625  0.83733950  1
  Li  Li202  1  0.00587625  0.33733950  0.66266050  1
  Li  Li203  1  0.00587625  0.16266050  0.83733950  1
  Li  Li204  1  0.49412375  0.16266050  0.66266050  1
  Li  Li205  1  0.00641175  0.33861125  0.16138875  1
  Li  Li206  1  0.16138875  0.33861125  0.00641175  1
  Li  Li207  1  0.16138875  0.49358825  0.16138875  1
  Li  Li208  1  0.33861125  0.00641175  0.16138875  1
  Li  Li209  1  0.83861125  0.33861125  0.99358825  1
  Li  Li210  1  0.33861125  0.16138875  0.00641175  1
  Li  Li211  1  0.66138875  0.00641175  0.83861125  1
  Li  Li212  1  0.66138875  0.16138875  0.99358825  1
  Li  Li213  1  0.83861125  0.49358825  0.83861125  1
  Li  Li214  1  0.99358825  0.33861125  0.83861125  1
  Li  Li215  1  0.49358825  0.16138875  0.16138875  1
  Li  Li216  1  0.50641175  0.16138875  0.83861125  1
  Li  Li217  1  0.09056575  0.40943425  0.75850275  1
  Li  Li218  1  0.59056575  0.24149725  0.09056575  1
  Li  Li219  1  0.75850275  0.40943425  0.09056575  1
  Li  Li220  1  0.74149725  0.09056575  0.09056575  1
  Li  Li221  1  0.40943425  0.24149725  0.90943425  1
  Li  Li222  1  0.90943425  0.25850275  0.09056575  1
  Li  Li223  1  0.25850275  0.09056575  0.90943425  1
  Li  Li224  1  0.09056575  0.25850275  0.90943425  1
  Li  Li225  1  0.24149725  0.40943425  0.90943425  1
  Li  Li226  1  0.90943425  0.40943425  0.24149725  1
  Li  Li227  1  0.40943425  0.09056575  0.75850275  1
  Li  Li228  1  0.59056575  0.09056575  0.24149725  1
  Li  Li229  1  0.08566325  0.41433675  0.24989375  1
  Li  Li230  1  0.08566325  0.25010625  0.08566325  1
  Li  Li231  1  0.24989375  0.41433675  0.08566325  1
  Li  Li232  1  0.25010625  0.08566325  0.08566325  1
  Li  Li233  1  0.91433675  0.25010625  0.91433675  1
  Li  Li234  1  0.41433675  0.24989375  0.08566325  1
  Li  Li235  1  0.74989375  0.08566325  0.91433675  1
  Li  Li236  1  0.58566325  0.24989375  0.91433675  1
  Li  Li237  1  0.75010625  0.41433675  0.91433675  1
  Li  Li238  1  0.91433675  0.41433675  0.75010625  1
  Li  Li239  1  0.41433675  0.08566325  0.24989375  1
  Li  Li240  1  0.58566325  0.08566325  0.75010625  1
  Li  Li241  1  0.50000000  0.00000000  0.00000000  1
  Li  Li242  1  0.25000000  0.25000000  0.75000000  1
  Li  Li243  1  0.25000000  0.25000000  0.25000000  1
  Li  Li244  1  0.07148475  0.42851525  0.57148475  1
  Li  Li245  1  0.42851525  0.07148475  0.57148475  1
  Li  Li246  1  0.42851525  0.42851525  0.92851525  1
  Li  Li247  1  0.07148475  0.07148475  0.92851525  1
  Li  Li248  1  0.16792975  0.33207025  0.66792975  1
  Li  Li249  1  0.33207025  0.16792975  0.66792975  1
  Li  Li250  1  0.33207025  0.33207025  0.83207025  1
  Li  Li251  1  0.16792975  0.16792975  0.83207025  1
  Li  Li252  1  0.32494108  0.17505892  0.82494108  1
  Li  Li253  1  0.17505892  0.32494108  0.82494108  1
  Li  Li254  1  0.17505892  0.17505892  0.67505892  1
  Li  Li255  1  0.32494108  0.32494108  0.67505892  1
  Li  Li256  1  0.42326375  0.07673625  0.92326375  1
  Li  Li257  1  0.07673625  0.42326375  0.92326375  1
  Li  Li258  1  0.57673625  0.07673625  0.07673625  1
  Li  Li259  1  0.92326375  0.42326375  0.07673625  1
  Li  Li260  1  0.08281975  0.41718025  0.08281975  1
  Li  Li261  1  0.41718025  0.08281975  0.08281975  1
  Li  Li262  1  0.91718025  0.41718025  0.91718025  1
  Li  Li263  1  0.58281975  0.08281975  0.91718025  1
  Li  Li264  1  0.00000000  0.50000000  0.50000000  1
  Li  Li265  1  0.32679975  0.67320025  0.82679975  1
  Li  Li266  1  0.17320025  0.82679975  0.82679975  1
  Li  Li267  1  0.17320025  0.67320025  0.67320025  1
  Li  Li268  1  0.32679975  0.82679975  0.67320025  1
  Li  Li269  1  0.50000000  0.50000000  0.17233675  1
  Li  Li270  1  0.50000000  0.82766325  0.50000000  1
  Li  Li271  1  0.17233675  0.50000000  0.50000000  1
  Li  Li272  1  0.82766325  0.50000000  0.50000000  1
  Li  Li273  1  0.00000000  0.67233675  0.50000000  1
  Li  Li274  1  0.50000000  0.50000000  0.82766325  1
  Li  Li275  1  0.25000000  0.75000000  0.58306875  1
  Li  Li276  1  0.25000000  0.91693125  0.75000000  1
  Li  Li277  1  0.08306875  0.75000000  0.75000000  1
  Li  Li278  1  0.41693125  0.75000000  0.75000000  1
  Li  Li279  1  0.25000000  0.58306875  0.75000000  1
  Li  Li280  1  0.25000000  0.75000000  0.91693125  1
  Li  Li281  1  0.49412375  0.83733950  0.33733950  1
  Li  Li282  1  0.16266050  0.66266050  0.49412375  1
  Li  Li283  1  0.33733950  0.50587625  0.16266050  1
  Li  Li284  1  0.16266050  0.99412375  0.16266050  1
  Li  Li285  1  0.33733950  0.66266050  0.00587625  1
  Li  Li286  1  0.33733950  0.83733950  0.49412375  1
  Li  Li287  1  0.33733950  0.99412375  0.33733950  1
  Li  Li288  1  0.16266050  0.83733950  0.00587625  1
  Li  Li289  1  0.16266050  0.50587625  0.33733950  1
  Li  Li290  1  0.00587625  0.83733950  0.16266050  1
  Li  Li291  1  0.00587625  0.66266050  0.33733950  1
  Li  Li292  1  0.49412375  0.66266050  0.16266050  1
  Li  Li293  1  0.00641175  0.83861125  0.66138875  1
  Li  Li294  1  0.16138875  0.83861125  0.50641175  1
  Li  Li295  1  0.16138875  0.99358825  0.66138875  1
  Li  Li296  1  0.33861125  0.50641175  0.66138875  1
  Li  Li297  1  0.83861125  0.83861125  0.49358825  1
  Li  Li298  1  0.33861125  0.66138875  0.50641175  1
  Li  Li299  1  0.66138875  0.50641175  0.33861125  1
  Li  Li300  1  0.66138875  0.66138875  0.49358825  1
  Li  Li301  1  0.83861125  0.99358825  0.33861125  1
  Li  Li302  1  0.99358825  0.83861125  0.33861125  1
  Li  Li303  1  0.49358825  0.66138875  0.66138875  1
  Li  Li304  1  0.50641175  0.66138875  0.33861125  1
  Li  Li305  1  0.09056575  0.90943425  0.25850275  1
  Li  Li306  1  0.59056575  0.74149725  0.59056575  1
  Li  Li307  1  0.75850275  0.90943425  0.59056575  1
  Li  Li308  1  0.74149725  0.59056575  0.59056575  1
  Li  Li309  1  0.40943425  0.74149725  0.40943425  1
  Li  Li310  1  0.90943425  0.75850275  0.59056575  1
  Li  Li311  1  0.25850275  0.59056575  0.40943425  1
  Li  Li312  1  0.09056575  0.75850275  0.40943425  1
  Li  Li313  1  0.24149725  0.90943425  0.40943425  1
  Li  Li314  1  0.90943425  0.90943425  0.74149725  1
  Li  Li315  1  0.40943425  0.59056575  0.25850275  1
  Li  Li316  1  0.59056575  0.59056575  0.74149725  1
  Li  Li317  1  0.08566325  0.91433675  0.74989375  1
  Li  Li318  1  0.08566325  0.75010625  0.58566325  1
  Li  Li319  1  0.24989375  0.91433675  0.58566325  1
  Li  Li320  1  0.25010625  0.58566325  0.58566325  1
  Li  Li321  1  0.91433675  0.75010625  0.41433675  1
  Li  Li322  1  0.41433675  0.74989375  0.58566325  1
  Li  Li323  1  0.74989375  0.58566325  0.41433675  1
  Li  Li324  1  0.58566325  0.74989375  0.41433675  1
  Li  Li325  1  0.75010625  0.91433675  0.41433675  1
  Li  Li326  1  0.91433675  0.91433675  0.25010625  1
  Li  Li327  1  0.41433675  0.58566325  0.74989375  1
  Li  Li328  1  0.58566325  0.58566325  0.25010625  1
  Li  Li329  1  0.50000000  0.50000000  0.50000000  1
  Li  Li330  1  0.25000000  0.75000000  0.25000000  1
  Li  Li331  1  0.25000000  0.75000000  0.75000000  1
  Li  Li332  1  0.07148475  0.92851525  0.07148475  1
  Li  Li333  1  0.42851525  0.57148475  0.07148475  1
  Li  Li334  1  0.42851525  0.92851525  0.42851525  1
  Li  Li335  1  0.07148475  0.57148475  0.42851525  1
  Li  Li336  1  0.16792975  0.83207025  0.16792975  1
  Li  Li337  1  0.33207025  0.66792975  0.16792975  1
  Li  Li338  1  0.33207025  0.83207025  0.33207025  1
  Li  Li339  1  0.16792975  0.66792975  0.33207025  1
  Li  Li340  1  0.32494108  0.67505892  0.32494108  1
  Li  Li341  1  0.17505892  0.82494108  0.32494108  1
  Li  Li342  1  0.17505892  0.67505892  0.17505892  1
  Li  Li343  1  0.32494108  0.82494108  0.17505892  1
  Li  Li344  1  0.42326375  0.57673625  0.42326375  1
  Li  Li345  1  0.07673625  0.92326375  0.42326375  1
  Li  Li346  1  0.57673625  0.57673625  0.57673625  1
  Li  Li347  1  0.92326375  0.92326375  0.57673625  1
  Li  Li348  1  0.08281975  0.91718025  0.58281975  1
  Li  Li349  1  0.41718025  0.58281975  0.58281975  1
  Li  Li350  1  0.91718025  0.91718025  0.41718025  1
  Li  Li351  1  0.58281975  0.58281975  0.41718025  1
  Si  Si352  1  0.91154475  0.08845525  0.91154475  1
  Si  Si353  1  0.58845525  0.41154475  0.91154475  1
  Si  Si354  1  0.58845525  0.08845525  0.58845525  1
  Si  Si355  1  0.91154475  0.41154475  0.58845525  1
  Si  Si356  1  0.66666875  0.33333125  0.66666875  1
  Si  Si357  1  0.83333125  0.16666875  0.66666875  1
  Si  Si358  1  0.83333125  0.33333125  0.83333125  1
  Si  Si359  1  0.66666875  0.16666875  0.83333125  1
  Si  Si360  1  0.00000000  0.00000000  0.32417675  1
  Si  Si361  1  0.00000000  0.17582325  0.50000000  1
  Si  Si362  1  0.82417675  0.00000000  0.50000000  1
  Si  Si363  1  0.17582325  0.00000000  0.50000000  1
  Si  Si364  1  0.50000000  0.32417675  0.50000000  1
  Si  Si365  1  0.00000000  0.00000000  0.67582325  1
  Si  Si366  1  0.75000000  0.25000000  0.07409175  1
  Si  Si367  1  0.75000000  0.42590825  0.25000000  1
  Si  Si368  1  0.57409175  0.25000000  0.25000000  1
  Si  Si369  1  0.92590825  0.25000000  0.25000000  1
  Si  Si370  1  0.75000000  0.07409175  0.25000000  1
  Si  Si371  1  0.75000000  0.25000000  0.42590825  1
  Si  Si372  1  0.91154475  0.58845525  0.41154475  1
  Si  Si373  1  0.58845525  0.91154475  0.41154475  1
  Si  Si374  1  0.58845525  0.58845525  0.08845525  1
  Si  Si375  1  0.91154475  0.91154475  0.08845525  1
  Si  Si376  1  0.66666875  0.83333125  0.16666875  1
  Si  Si377  1  0.83333125  0.66666875  0.16666875  1
  Si  Si378  1  0.83333125  0.83333125  0.33333125  1
  Si  Si379  1  0.66666875  0.66666875  0.33333125  1
  Si  Si380  1  0.00000000  0.50000000  0.82417675  1
  Si  Si381  1  0.00000000  0.67582325  0.00000000  1
  Si  Si382  1  0.82417675  0.50000000  0.00000000  1
  Si  Si383  1  0.17582325  0.50000000  0.00000000  1
  Si  Si384  1  0.50000000  0.82417675  0.00000000  1
  Si  Si385  1  0.00000000  0.50000000  0.17582325  1
  Si  Si386  1  0.75000000  0.75000000  0.57409175  1
  Si  Si387  1  0.75000000  0.92590825  0.75000000  1
  Si  Si388  1  0.57409175  0.75000000  0.75000000  1
  Si  Si389  1  0.92590825  0.75000000  0.75000000  1
  Si  Si390  1  0.75000000  0.57409175  0.75000000  1
  Si  Si391  1  0.75000000  0.75000000  0.92590825  1
  Si  Si392  1  0.41154475  0.08845525  0.41154475  1
  Si  Si393  1  0.08845525  0.41154475  0.41154475  1
  Si  Si394  1  0.08845525  0.08845525  0.08845525  1
  Si  Si395  1  0.41154475  0.41154475  0.08845525  1
  Si  Si396  1  0.16666875  0.33333125  0.16666875  1
  Si  Si397  1  0.33333125  0.16666875  0.16666875  1
  Si  Si398  1  0.33333125  0.33333125  0.33333125  1
  Si  Si399  1  0.16666875  0.16666875  0.33333125  1
  Si  Si400  1  0.50000000  0.00000000  0.82417675  1
  Si  Si401  1  0.50000000  0.17582325  0.00000000  1
  Si  Si402  1  0.32417675  0.00000000  0.00000000  1
  Si  Si403  1  0.67582325  0.00000000  0.00000000  1
  Si  Si404  1  0.00000000  0.32417675  0.00000000  1
  Si  Si405  1  0.50000000  0.00000000  0.17582325  1
  Si  Si406  1  0.25000000  0.25000000  0.57409175  1
  Si  Si407  1  0.25000000  0.42590825  0.75000000  1
  Si  Si408  1  0.07409175  0.25000000  0.75000000  1
  Si  Si409  1  0.42590825  0.25000000  0.75000000  1
  Si  Si410  1  0.25000000  0.07409175  0.75000000  1
  Si  Si411  1  0.25000000  0.25000000  0.92590825  1
  Si  Si412  1  0.41154475  0.58845525  0.91154475  1
  Si  Si413  1  0.08845525  0.91154475  0.91154475  1
  Si  Si414  1  0.08845525  0.58845525  0.58845525  1
  Si  Si415  1  0.41154475  0.91154475  0.58845525  1
  Si  Si416  1  0.16666875  0.83333125  0.66666875  1
  Si  Si417  1  0.33333125  0.66666875  0.66666875  1
  Si  Si418  1  0.33333125  0.83333125  0.83333125  1
  Si  Si419  1  0.16666875  0.66666875  0.83333125  1
  Si  Si420  1  0.50000000  0.50000000  0.32417675  1
  Si  Si421  1  0.50000000  0.67582325  0.50000000  1
  Si  Si422  1  0.32417675  0.50000000  0.50000000  1
  Si  Si423  1  0.67582325  0.50000000  0.50000000  1
  Si  Si424  1  0.00000000  0.82417675  0.50000000  1
  Si  Si425  1  0.50000000  0.50000000  0.67582325  1
  Si  Si426  1  0.25000000  0.75000000  0.07409175  1
  Si  Si427  1  0.25000000  0.92590825  0.25000000  1
  Si  Si428  1  0.07409175  0.75000000  0.25000000  1
  Si  Si429  1  0.42590825  0.75000000  0.25000000  1
  Si  Si430  1  0.25000000  0.57409175  0.25000000  1
  Si  Si431  1  0.25000000  0.75000000  0.42590825  1
