# generated using pymatgen
data_FeP2O7
_symmetry_space_group_name_H-M   'P 1'
_cell_length_a   6.79905805
_cell_length_b   8.43673325
_cell_length_c   9.16880796
_cell_angle_alpha   90.00000000
_cell_angle_beta   102.13801285
_cell_angle_gamma   90.00000000
_symmetry_Int_Tables_number   1
_chemical_formula_structural   FeP2O7
_chemical_formula_sum   'Fe4 P8 O28'
_cell_volume   514.18175322
_cell_formula_units_Z   4
loop_
 _symmetry_equiv_pos_site_id
 _symmetry_equiv_pos_as_xyz
  1  'x, y, z'
loop_
 _atom_site_type_symbol
 _atom_site_label
 _atom_site_symmetry_multiplicity
 _atom_site_fract_x
 _atom_site_fract_y
 _atom_site_fract_z
 _atom_site_occupancy
  Fe  Fe0  1  0.51621550  0.82575450  0.49256600  1
  Fe  Fe1  1  0.51621550  0.17424550  0.99256600  1
  Fe  Fe2  1  0.01621550  0.32575450  0.49256600  1
  Fe  Fe3  1  0.01621550  0.67424550  0.99256600  1
  P  P4  1  0.78949150  0.98694750  0.79883400  1
  P  P5  1  0.20717350  0.01645350  0.70467700  1
  P  P6  1  0.78949150  0.01305250  0.29883400  1
  P  P7  1  0.20717350  0.98354650  0.20467700  1
  P  P8  1  0.28949150  0.48694750  0.79883400  1
  P  P9  1  0.70717350  0.51645350  0.70467700  1
  P  P10  1  0.28949150  0.51305250  0.29883400  1
  P  P11  1  0.70717350  0.48354650  0.20467700  1
  O  O12  1  0.82597350  0.15931850  0.39899300  1
  O  O13  1  0.63001400  0.03172400  0.15456900  1
  O  O14  1  0.49265550  0.47792250  0.24593900  1
  O  O15  1  0.63001400  0.96827600  0.65456900  1
  O  O16  1  0.35947950  0.97975750  0.35279500  1
  O  O17  1  0.23710250  0.13368050  0.11716300  1
  O  O18  1  0.74022150  0.86493350  0.38167200  1
  O  O19  1  0.74022150  0.13506650  0.88167200  1
  O  O20  1  0.20565400  0.84030200  0.10143100  1
  O  O21  1  0.49265550  0.52207750  0.74593900  1
  O  O22  1  0.20565400  0.15969800  0.60143100  1
  O  O23  1  0.23710250  0.86631950  0.61716300  1
  O  O24  1  0.82597350  0.84068150  0.89899300  1
  O  O25  1  0.35947950  0.02024250  0.85279500  1
  O  O26  1  0.32597350  0.65931850  0.39899300  1
  O  O27  1  0.13001400  0.53172400  0.15456900  1
  O  O28  1  0.99265550  0.97792250  0.24593900  1
  O  O29  1  0.13001400  0.46827600  0.65456900  1
  O  O30  1  0.85947950  0.47975750  0.35279500  1
  O  O31  1  0.73710250  0.63368050  0.11716300  1
  O  O32  1  0.24022150  0.36493350  0.38167200  1
  O  O33  1  0.24022150  0.63506650  0.88167200  1
  O  O34  1  0.70565400  0.34030200  0.10143100  1
  O  O35  1  0.99265550  0.02207750  0.74593900  1
  O  O36  1  0.70565400  0.65969800  0.60143100  1
  O  O37  1  0.73710250  0.36631950  0.61716300  1
  O  O38  1  0.32597350  0.34068150  0.89899300  1
  O  O39  1  0.85947950  0.52024250  0.85279500  1
