# generated using pymatgen
data_KMn5(SeO3)6
_symmetry_space_group_name_H-M   'P 1'
_cell_length_a   18.07543800
_cell_length_b   10.43636800
_cell_length_c   9.76410826
_cell_angle_alpha   90.00000000
_cell_angle_beta   91.40589070
_cell_angle_gamma   90.00000000
_symmetry_Int_Tables_number   1
_chemical_formula_structural   KMn5(SeO3)6
_chemical_formula_sum   'K4 Mn20 Se24 O72'
_cell_volume   1841.36568824
_cell_formula_units_Z   4
loop_
 _symmetry_equiv_pos_site_id
 _symmetry_equiv_pos_as_xyz
  1  'x, y, z'
loop_
 _atom_site_type_symbol
 _atom_site_label
 _atom_site_symmetry_multiplicity
 _atom_site_fract_x
 _atom_site_fract_y
 _atom_site_fract_z
 _atom_site_occupancy
  K  K0  1  0.50000000  0.50036100  0.75000000  1
  K  K1  1  0.50000000  0.49963900  0.25000000  1
  K  K2  1  0.00000000  0.00036100  0.75000000  1
  K  K3  1  0.00000000  0.99963900  0.25000000  1
  Mn  Mn4  1  0.66863250  0.00055250  0.16670600  1
  Mn  Mn5  1  0.68708300  0.68848800  0.24928000  1
  Mn  Mn6  1  0.31291700  0.31151200  0.75072000  1
  Mn  Mn7  1  0.31291700  0.68848800  0.25072000  1
  Mn  Mn8  1  0.50000000  0.11346900  0.25000000  1
  Mn  Mn9  1  0.68708300  0.31151200  0.74928000  1
  Mn  Mn10  1  0.33136750  0.00055250  0.33329400  1
  Mn  Mn11  1  0.33136750  0.99944750  0.83329400  1
  Mn  Mn12  1  0.66863250  0.99944750  0.66670600  1
  Mn  Mn13  1  0.50000000  0.88653100  0.75000000  1
  Mn  Mn14  1  0.16863250  0.50055250  0.16670600  1
  Mn  Mn15  1  0.18708300  0.18848800  0.24928000  1
  Mn  Mn16  1  0.81291700  0.81151200  0.75072000  1
  Mn  Mn17  1  0.81291700  0.18848800  0.25072000  1
  Mn  Mn18  1  0.00000000  0.61346900  0.25000000  1
  Mn  Mn19  1  0.18708300  0.81151200  0.74928000  1
  Mn  Mn20  1  0.83136750  0.50055250  0.33329400  1
  Mn  Mn21  1  0.83136750  0.49944750  0.83329400  1
  Mn  Mn22  1  0.16863250  0.49944750  0.66670600  1
  Mn  Mn23  1  0.00000000  0.38653100  0.75000000  1
  Se  Se24  1  0.80700250  0.88764650  0.41689100  1
  Se  Se25  1  0.53722950  0.15094550  0.91577600  1
  Se  Se26  1  0.80700250  0.11235350  0.91689100  1
  Se  Se27  1  0.19299750  0.11235350  0.58310900  1
  Se  Se28  1  0.64924550  0.73810950  0.91099400  1
  Se  Se29  1  0.46277050  0.15094550  0.58422400  1
  Se  Se30  1  0.35075450  0.73810950  0.58900600  1
  Se  Se31  1  0.53722950  0.84905450  0.41577600  1
  Se  Se32  1  0.35075450  0.26189050  0.08900600  1
  Se  Se33  1  0.19299750  0.88764650  0.08310900  1
  Se  Se34  1  0.46277050  0.84905450  0.08422400  1
  Se  Se35  1  0.64924550  0.26189050  0.41099400  1
  Se  Se36  1  0.30700250  0.38764650  0.41689100  1
  Se  Se37  1  0.03722950  0.65094550  0.91577600  1
  Se  Se38  1  0.30700250  0.61235350  0.91689100  1
  Se  Se39  1  0.69299750  0.61235350  0.58310900  1
  Se  Se40  1  0.14924550  0.23810950  0.91099400  1
  Se  Se41  1  0.96277050  0.65094550  0.58422400  1
  Se  Se42  1  0.85075450  0.23810950  0.58900600  1
  Se  Se43  1  0.03722950  0.34905450  0.41577600  1
  Se  Se44  1  0.85075450  0.76189050  0.08900600  1
  Se  Se45  1  0.69299750  0.38764650  0.08310900  1
  Se  Se46  1  0.96277050  0.34905450  0.08422400  1
  Se  Se47  1  0.14924550  0.76189050  0.41099400  1
  O  O48  1  0.69671100  0.84418700  0.81094200  1
  O  O49  1  0.23087000  0.92722100  0.92531000  1
  O  O50  1  0.72809900  0.87908500  0.31118700  1
  O  O51  1  0.57086650  0.97605550  0.31146200  1
  O  O52  1  0.41538550  0.71938750  0.14243300  1
  O  O53  1  0.57823250  0.10994350  0.07242300  1
  O  O54  1  0.55735550  0.74900850  0.84873300  1
  O  O55  1  0.85201550  0.97620650  0.86414100  1
  O  O56  1  0.27190100  0.12091500  0.68881300  1
  O  O57  1  0.41538550  0.28061250  0.64243300  1
  O  O58  1  0.42176750  0.10994350  0.42757700  1
  O  O59  1  0.14798450  0.02379350  0.13585900  1
  O  O60  1  0.57086650  0.02394450  0.81146200  1
  O  O61  1  0.72809900  0.12091500  0.81118700  1
  O  O62  1  0.34852750  0.18697850  0.93031600  1
  O  O63  1  0.34852750  0.81302150  0.43031600  1
  O  O64  1  0.30328900  0.15581300  0.18905800  1
  O  O65  1  0.76913000  0.07277900  0.07469000  1
  O  O66  1  0.30328900  0.84418700  0.68905800  1
  O  O67  1  0.65147250  0.81302150  0.06968400  1
  O  O68  1  0.58461450  0.71938750  0.35756700  1
  O  O69  1  0.44264450  0.25099150  0.15126700  1
  O  O70  1  0.42913350  0.97605550  0.18853800  1
  O  O71  1  0.44264450  0.74900850  0.65126700  1
  O  O72  1  0.55735550  0.25099150  0.34873300  1
  O  O73  1  0.65147250  0.18697850  0.56968400  1
  O  O74  1  0.27190100  0.87908500  0.18881300  1
  O  O75  1  0.76913000  0.92722100  0.57469000  1
  O  O76  1  0.57823250  0.89005650  0.57242300  1
  O  O77  1  0.42913350  0.02394450  0.68853800  1
  O  O78  1  0.85201550  0.02379350  0.36414100  1
  O  O79  1  0.14798450  0.97620650  0.63585900  1
  O  O80  1  0.58461450  0.28061250  0.85756700  1
  O  O81  1  0.69671100  0.15581300  0.31094200  1
  O  O82  1  0.23087000  0.07277900  0.42531000  1
  O  O83  1  0.42176750  0.89005650  0.92757700  1
  O  O84  1  0.19671100  0.34418700  0.81094200  1
  O  O85  1  0.73087000  0.42722100  0.92531000  1
  O  O86  1  0.22809900  0.37908500  0.31118700  1
  O  O87  1  0.07086650  0.47605550  0.31146200  1
  O  O88  1  0.91538550  0.21938750  0.14243300  1
  O  O89  1  0.07823250  0.60994350  0.07242300  1
  O  O90  1  0.05735550  0.24900850  0.84873300  1
  O  O91  1  0.35201550  0.47620650  0.86414100  1
  O  O92  1  0.77190100  0.62091500  0.68881300  1
  O  O93  1  0.91538550  0.78061250  0.64243300  1
  O  O94  1  0.92176750  0.60994350  0.42757700  1
  O  O95  1  0.64798450  0.52379350  0.13585900  1
  O  O96  1  0.07086650  0.52394450  0.81146200  1
  O  O97  1  0.22809900  0.62091500  0.81118700  1
  O  O98  1  0.84852750  0.68697850  0.93031600  1
  O  O99  1  0.84852750  0.31302150  0.43031600  1
  O  O100  1  0.80328900  0.65581300  0.18905800  1
  O  O101  1  0.26913000  0.57277900  0.07469000  1
  O  O102  1  0.80328900  0.34418700  0.68905800  1
  O  O103  1  0.15147250  0.31302150  0.06968400  1
  O  O104  1  0.08461450  0.21938750  0.35756700  1
  O  O105  1  0.94264450  0.75099150  0.15126700  1
  O  O106  1  0.92913350  0.47605550  0.18853800  1
  O  O107  1  0.94264450  0.24900850  0.65126700  1
  O  O108  1  0.05735550  0.75099150  0.34873300  1
  O  O109  1  0.15147250  0.68697850  0.56968400  1
  O  O110  1  0.77190100  0.37908500  0.18881300  1
  O  O111  1  0.26913000  0.42722100  0.57469000  1
  O  O112  1  0.07823250  0.39005650  0.57242300  1
  O  O113  1  0.92913350  0.52394450  0.68853800  1
  O  O114  1  0.35201550  0.52379350  0.36414100  1
  O  O115  1  0.64798450  0.47620650  0.63585900  1
  O  O116  1  0.08461450  0.78061250  0.85756700  1
  O  O117  1  0.19671100  0.65581300  0.31094200  1
  O  O118  1  0.73087000  0.57277900  0.42531000  1
  O  O119  1  0.92176750  0.39005650  0.92757700  1
