# generated using pymatgen
data_Ce3Bi4Pd3
_symmetry_space_group_name_H-M   'P 1'
_cell_length_a   10.08290800
_cell_length_b   10.08290800
_cell_length_c   10.08290800
_cell_angle_alpha   90.00000000
_cell_angle_beta   90.00000000
_cell_angle_gamma   90.00000000
_symmetry_Int_Tables_number   1
_chemical_formula_structural   Ce3Bi4Pd3
_chemical_formula_sum   'Ce12 Bi16 Pd12'
_cell_volume   1025.07918198
_cell_formula_units_Z   4
loop_
 _symmetry_equiv_pos_site_id
 _symmetry_equiv_pos_as_xyz
  1  'x, y, z'
loop_
 _atom_site_type_symbol
 _atom_site_label
 _atom_site_symmetry_multiplicity
 _atom_site_fract_x
 _atom_site_fract_y
 _atom_site_fract_z
 _atom_site_occupancy
  Ce  Ce0  1  0.00000000  0.25000000  0.37500000  1
  Ce  Ce1  1  0.37500000  0.00000000  0.25000000  1
  Ce  Ce2  1  0.12500000  0.00000000  0.75000000  1
  Ce  Ce3  1  0.00000000  0.75000000  0.12500000  1
  Ce  Ce4  1  0.25000000  0.37500000  0.00000000  1
  Ce  Ce5  1  0.75000000  0.12500000  0.00000000  1
  Ce  Ce6  1  0.50000000  0.75000000  0.87500000  1
  Ce  Ce7  1  0.87500000  0.50000000  0.75000000  1
  Ce  Ce8  1  0.62500000  0.50000000  0.25000000  1
  Ce  Ce9  1  0.50000000  0.25000000  0.62500000  1
  Ce  Ce10  1  0.75000000  0.87500000  0.50000000  1
  Ce  Ce11  1  0.25000000  0.62500000  0.50000000  1
  Bi  Bi12  1  0.16492300  0.66492300  0.83507700  1
  Bi  Bi13  1  0.08507700  0.08507700  0.08507700  1
  Bi  Bi14  1  0.66492300  0.83507700  0.16492300  1
  Bi  Bi15  1  0.91492300  0.41492300  0.08507700  1
  Bi  Bi16  1  0.08507700  0.91492300  0.41492300  1
  Bi  Bi17  1  0.83507700  0.16492300  0.66492300  1
  Bi  Bi18  1  0.33507700  0.33507700  0.33507700  1
  Bi  Bi19  1  0.41492300  0.08507700  0.91492300  1
  Bi  Bi20  1  0.66492300  0.16492300  0.33507700  1
  Bi  Bi21  1  0.58507700  0.58507700  0.58507700  1
  Bi  Bi22  1  0.16492300  0.33507700  0.66492300  1
  Bi  Bi23  1  0.41492300  0.91492300  0.58507700  1
  Bi  Bi24  1  0.58507700  0.41492300  0.91492300  1
  Bi  Bi25  1  0.33507700  0.66492300  0.16492300  1
  Bi  Bi26  1  0.83507700  0.83507700  0.83507700  1
  Bi  Bi27  1  0.91492300  0.58507700  0.41492300  1
  Pd  Pd28  1  0.75000000  0.37500000  0.50000000  1
  Pd  Pd29  1  0.37500000  0.50000000  0.75000000  1
  Pd  Pd30  1  0.50000000  0.75000000  0.37500000  1
  Pd  Pd31  1  0.25000000  0.12500000  0.50000000  1
  Pd  Pd32  1  0.12500000  0.50000000  0.25000000  1
  Pd  Pd33  1  0.50000000  0.25000000  0.12500000  1
  Pd  Pd34  1  0.25000000  0.87500000  0.00000000  1
  Pd  Pd35  1  0.87500000  0.00000000  0.25000000  1
  Pd  Pd36  1  0.00000000  0.25000000  0.87500000  1
  Pd  Pd37  1  0.75000000  0.62500000  0.00000000  1
  Pd  Pd38  1  0.62500000  0.00000000  0.75000000  1
  Pd  Pd39  1  0.00000000  0.75000000  0.62500000  1
