# generated using pymatgen
data_FeH4(ClO)2
_symmetry_space_group_name_H-M   'P 1'
_cell_length_a   7.56177600
_cell_length_b   8.56945200
_cell_length_c   3.72111720
_cell_angle_alpha   90.00000000
_cell_angle_beta   101.39757906
_cell_angle_gamma   90.00000000
_symmetry_Int_Tables_number   1
_chemical_formula_structural   FeH4(ClO)2
_chemical_formula_sum   'Fe2 H8 Cl4 O4'
_cell_volume   236.37423648
_cell_formula_units_Z   2
loop_
 _symmetry_equiv_pos_site_id
 _symmetry_equiv_pos_as_xyz
  1  'x, y, z'
loop_
 _atom_site_type_symbol
 _atom_site_label
 _atom_site_symmetry_multiplicity
 _atom_site_fract_x
 _atom_site_fract_y
 _atom_site_fract_z
 _atom_site_occupancy
  Fe  Fe0  1  0.00000000  0.00000000  0.00000000  1
  Fe  Fe1  1  0.50000000  0.50000000  0.00000000  1
  H  H2  1  0.58776100  0.18901100  0.15856600  1
  H  H3  1  0.41223900  0.18901100  0.84143400  1
  H  H4  1  0.58776100  0.81098900  0.15856600  1
  H  H5  1  0.41223900  0.81098900  0.84143400  1
  H  H6  1  0.08776100  0.68901100  0.15856600  1
  H  H7  1  0.91223900  0.68901100  0.84143400  1
  H  H8  1  0.08776100  0.31098900  0.15856600  1
  H  H9  1  0.91223900  0.31098900  0.84143400  1
  Cl  Cl10  1  0.76375800  0.00000000  0.42053900  1
  Cl  Cl11  1  0.23624200  0.00000000  0.57946100  1
  Cl  Cl12  1  0.26375800  0.50000000  0.42053900  1
  Cl  Cl13  1  0.73624200  0.50000000  0.57946100  1
  O  O14  1  0.50000000  0.74296100  0.00000000  1
  O  O15  1  0.50000000  0.25703900  0.00000000  1
  O  O16  1  0.00000000  0.24296100  0.00000000  1
  O  O17  1  0.00000000  0.75703900  0.00000000  1
