# generated using pymatgen
data_Nb3Co2Si
_symmetry_space_group_name_H-M   'P 1'
_cell_length_a   11.19075000
_cell_length_b   11.19075000
_cell_length_c   11.19075000
_cell_angle_alpha   90.00000000
_cell_angle_beta   90.00000000
_cell_angle_gamma   90.00000000
_symmetry_Int_Tables_number   1
_chemical_formula_structural   Nb3Co2Si
_chemical_formula_sum   'Nb48 Co32 Si16'
_cell_volume   1401.44991411
_cell_formula_units_Z   16
loop_
 _symmetry_equiv_pos_site_id
 _symmetry_equiv_pos_as_xyz
  1  'x, y, z'
loop_
 _atom_site_type_symbol
 _atom_site_label
 _atom_site_symmetry_multiplicity
 _atom_site_fract_x
 _atom_site_fract_y
 _atom_site_fract_z
 _atom_site_occupancy
  Nb  Nb0  1  0.25000000  0.25000000  0.45142000  1
  Nb  Nb1  1  0.29858000  0.00000000  0.50000000  1
  Nb  Nb2  1  0.70142000  0.00000000  0.50000000  1
  Nb  Nb3  1  0.00000000  0.00000000  0.20142000  1
  Nb  Nb4  1  0.50000000  0.20142000  0.50000000  1
  Nb  Nb5  1  0.50000000  0.79858000  0.50000000  1
  Nb  Nb6  1  0.25000000  0.04858000  0.25000000  1
  Nb  Nb7  1  0.45142000  0.25000000  0.25000000  1
  Nb  Nb8  1  0.04858000  0.25000000  0.25000000  1
  Nb  Nb9  1  0.25000000  0.45142000  0.25000000  1
  Nb  Nb10  1  0.50000000  0.00000000  0.29858000  1
  Nb  Nb11  1  0.25000000  0.25000000  0.04858000  1
  Nb  Nb12  1  0.25000000  0.75000000  0.95142000  1
  Nb  Nb13  1  0.29858000  0.50000000  0.00000000  1
  Nb  Nb14  1  0.70142000  0.50000000  0.00000000  1
  Nb  Nb15  1  0.00000000  0.50000000  0.70142000  1
  Nb  Nb16  1  0.50000000  0.70142000  0.00000000  1
  Nb  Nb17  1  0.50000000  0.29858000  0.00000000  1
  Nb  Nb18  1  0.25000000  0.54858000  0.75000000  1
  Nb  Nb19  1  0.45142000  0.75000000  0.75000000  1
  Nb  Nb20  1  0.04858000  0.75000000  0.75000000  1
  Nb  Nb21  1  0.25000000  0.95142000  0.75000000  1
  Nb  Nb22  1  0.50000000  0.50000000  0.79858000  1
  Nb  Nb23  1  0.25000000  0.75000000  0.54858000  1
  Nb  Nb24  1  0.75000000  0.25000000  0.95142000  1
  Nb  Nb25  1  0.79858000  0.00000000  0.00000000  1
  Nb  Nb26  1  0.20142000  0.00000000  0.00000000  1
  Nb  Nb27  1  0.50000000  0.00000000  0.70142000  1
  Nb  Nb28  1  0.00000000  0.20142000  0.00000000  1
  Nb  Nb29  1  0.00000000  0.79858000  0.00000000  1
  Nb  Nb30  1  0.75000000  0.04858000  0.75000000  1
  Nb  Nb31  1  0.95142000  0.25000000  0.75000000  1
  Nb  Nb32  1  0.54858000  0.25000000  0.75000000  1
  Nb  Nb33  1  0.75000000  0.45142000  0.75000000  1
  Nb  Nb34  1  0.00000000  0.00000000  0.79858000  1
  Nb  Nb35  1  0.75000000  0.25000000  0.54858000  1
  Nb  Nb36  1  0.75000000  0.75000000  0.45142000  1
  Nb  Nb37  1  0.79858000  0.50000000  0.50000000  1
  Nb  Nb38  1  0.20142000  0.50000000  0.50000000  1
  Nb  Nb39  1  0.50000000  0.50000000  0.20142000  1
  Nb  Nb40  1  0.00000000  0.70142000  0.50000000  1
  Nb  Nb41  1  0.00000000  0.29858000  0.50000000  1
  Nb  Nb42  1  0.75000000  0.54858000  0.25000000  1
  Nb  Nb43  1  0.95142000  0.75000000  0.25000000  1
  Nb  Nb44  1  0.54858000  0.75000000  0.25000000  1
  Nb  Nb45  1  0.75000000  0.95142000  0.25000000  1
  Nb  Nb46  1  0.00000000  0.50000000  0.29858000  1
  Nb  Nb47  1  0.75000000  0.75000000  0.04858000  1
  Co  Co48  1  0.08260867  0.41739133  0.08260867  1
  Co  Co49  1  0.16739133  0.66739133  0.33260867  1
  Co  Co50  1  0.33260867  0.66739133  0.16739133  1
  Co  Co51  1  0.33260867  0.83260867  0.33260867  1
  Co  Co52  1  0.41739133  0.08260867  0.08260867  1
  Co  Co53  1  0.41739133  0.41739133  0.41739133  1
  Co  Co54  1  0.08260867  0.08260867  0.41739133  1
  Co  Co55  1  0.16739133  0.83260867  0.16739133  1
  Co  Co56  1  0.08260867  0.91739133  0.58260867  1
  Co  Co57  1  0.16739133  0.16739133  0.83260867  1
  Co  Co58  1  0.33260867  0.16739133  0.66739133  1
  Co  Co59  1  0.33260867  0.33260867  0.83260867  1
  Co  Co60  1  0.41739133  0.58260867  0.58260867  1
  Co  Co61  1  0.41739133  0.91739133  0.91739133  1
  Co  Co62  1  0.08260867  0.58260867  0.91739133  1
  Co  Co63  1  0.16739133  0.33260867  0.66739133  1
  Co  Co64  1  0.58260867  0.41739133  0.58260867  1
  Co  Co65  1  0.66739133  0.66739133  0.83260867  1
  Co  Co66  1  0.83260867  0.66739133  0.66739133  1
  Co  Co67  1  0.83260867  0.83260867  0.83260867  1
  Co  Co68  1  0.91739133  0.08260867  0.58260867  1
  Co  Co69  1  0.91739133  0.41739133  0.91739133  1
  Co  Co70  1  0.58260867  0.08260867  0.91739133  1
  Co  Co71  1  0.66739133  0.83260867  0.66739133  1
  Co  Co72  1  0.58260867  0.91739133  0.08260867  1
  Co  Co73  1  0.66739133  0.16739133  0.33260867  1
  Co  Co74  1  0.83260867  0.16739133  0.16739133  1
  Co  Co75  1  0.83260867  0.33260867  0.33260867  1
  Co  Co76  1  0.91739133  0.58260867  0.08260867  1
  Co  Co77  1  0.91739133  0.91739133  0.41739133  1
  Co  Co78  1  0.58260867  0.58260867  0.41739133  1
  Co  Co79  1  0.66739133  0.33260867  0.16739133  1
  Si  Si80  1  0.37500000  0.62500000  0.37500000  1
  Si  Si81  1  0.37500000  0.87500000  0.12500000  1
  Si  Si82  1  0.12500000  0.87500000  0.37500000  1
  Si  Si83  1  0.12500000  0.62500000  0.12500000  1
  Si  Si84  1  0.37500000  0.12500000  0.87500000  1
  Si  Si85  1  0.37500000  0.37500000  0.62500000  1
  Si  Si86  1  0.12500000  0.37500000  0.87500000  1
  Si  Si87  1  0.12500000  0.12500000  0.62500000  1
  Si  Si88  1  0.87500000  0.62500000  0.87500000  1
  Si  Si89  1  0.87500000  0.87500000  0.62500000  1
  Si  Si90  1  0.62500000  0.87500000  0.87500000  1
  Si  Si91  1  0.62500000  0.62500000  0.62500000  1
  Si  Si92  1  0.87500000  0.12500000  0.37500000  1
  Si  Si93  1  0.87500000  0.37500000  0.12500000  1
  Si  Si94  1  0.62500000  0.37500000  0.37500000  1
  Si  Si95  1  0.62500000  0.12500000  0.12500000  1
