# generated using pymatgen
data_Cr2PIO4
_symmetry_space_group_name_H-M   'P 1'
_cell_length_a   6.52798448
_cell_length_b   6.43080100
_cell_length_c   12.82069114
_cell_angle_alpha   90.00000000
_cell_angle_beta   105.00361769
_cell_angle_gamma   90.00000000
_symmetry_Int_Tables_number   1
_chemical_formula_structural   Cr2PIO4
_chemical_formula_sum   'Cr8 P4 I4 O16'
_cell_volume   519.86676138
_cell_formula_units_Z   4
loop_
 _symmetry_equiv_pos_site_id
 _symmetry_equiv_pos_as_xyz
  1  'x, y, z'
loop_
 _atom_site_type_symbol
 _atom_site_label
 _atom_site_symmetry_multiplicity
 _atom_site_fract_x
 _atom_site_fract_y
 _atom_site_fract_z
 _atom_site_occupancy
  Cr  Cr0  1  0.95933100  0.14931400  0.39677900  1
  Cr  Cr1  1  0.04066900  0.64931400  0.10322100  1
  Cr  Cr2  1  0.41151900  0.48768800  0.60714500  1
  Cr  Cr3  1  0.58848100  0.98768800  0.89285500  1
  Cr  Cr4  1  0.95933100  0.35068600  0.89677900  1
  Cr  Cr5  1  0.04066900  0.85068600  0.60322100  1
  Cr  Cr6  1  0.58848100  0.51231200  0.39285500  1
  Cr  Cr7  1  0.41151900  0.01231200  0.10714500  1
  P  P8  1  0.92700600  0.13121100  0.12213800  1
  P  P9  1  0.07299400  0.63121100  0.37786200  1
  P  P10  1  0.92700600  0.36878900  0.62213800  1
  P  P11  1  0.07299400  0.86878900  0.87786200  1
  I  I12  1  0.49938700  0.97000800  0.65980900  1
  I  I13  1  0.50061300  0.02999200  0.34019100  1
  I  I14  1  0.50061300  0.47000800  0.84019100  1
  I  I15  1  0.49938700  0.52999200  0.15980900  1
  O  O16  1  0.94441100  0.32608500  0.73905500  1
  O  O17  1  0.05558900  0.82608500  0.76094500  1
  O  O18  1  0.05558900  0.67391500  0.26094500  1
  O  O19  1  0.94441100  0.17391500  0.23905500  1
  O  O20  1  0.96482500  0.16561300  0.56153000  1
  O  O21  1  0.03517500  0.83438700  0.43847000  1
  O  O22  1  0.03517500  0.66561300  0.93847000  1
  O  O23  1  0.96482500  0.33438700  0.06153000  1
  O  O24  1  0.09858700  0.96902500  0.10852900  1
  O  O25  1  0.09858700  0.53097500  0.60852900  1
  O  O26  1  0.90141300  0.03097500  0.89147100  1
  O  O27  1  0.90141300  0.46902500  0.39147100  1
  O  O28  1  0.29776000  0.53650800  0.43621400  1
  O  O29  1  0.70224000  0.46349200  0.56378600  1
  O  O30  1  0.29776000  0.96349200  0.93621400  1
  O  O31  1  0.70224000  0.03650800  0.06378600  1
