# generated using pymatgen
data_Nd2B5
_symmetry_space_group_name_H-M   'P 1'
_cell_length_a   15.18142000
_cell_length_b   7.29082000
_cell_length_c   7.31947839
_cell_angle_alpha   90.00000000
_cell_angle_beta   109.13547259
_cell_angle_gamma   90.00000000
_symmetry_Int_Tables_number   1
_chemical_formula_structural   Nd2B5
_chemical_formula_sum   'Nd16 B40'
_cell_volume   765.39220247
_cell_formula_units_Z   8
loop_
 _symmetry_equiv_pos_site_id
 _symmetry_equiv_pos_as_xyz
  1  'x, y, z'
loop_
 _atom_site_type_symbol
 _atom_site_label
 _atom_site_symmetry_multiplicity
 _atom_site_fract_x
 _atom_site_fract_y
 _atom_site_fract_z
 _atom_site_occupancy
  Nd  Nd0  1  0.38084850  0.07025950  0.40127300  1
  Nd  Nd1  1  0.11915150  0.42974050  0.59872700  1
  Nd  Nd2  1  0.38135300  0.56181800  0.27692800  1
  Nd  Nd3  1  0.11864700  0.06181800  0.22307200  1
  Nd  Nd4  1  0.38135300  0.43818200  0.77692800  1
  Nd  Nd5  1  0.11915150  0.57025950  0.09872700  1
  Nd  Nd6  1  0.11864700  0.93818200  0.72307200  1
  Nd  Nd7  1  0.38084850  0.92974050  0.90127300  1
  Nd  Nd8  1  0.88084850  0.57025950  0.40127300  1
  Nd  Nd9  1  0.61915150  0.92974050  0.59872700  1
  Nd  Nd10  1  0.88135300  0.06181800  0.27692800  1
  Nd  Nd11  1  0.61864700  0.56181800  0.22307200  1
  Nd  Nd12  1  0.88135300  0.93818200  0.77692800  1
  Nd  Nd13  1  0.61915150  0.07025950  0.09872700  1
  Nd  Nd14  1  0.61864700  0.43818200  0.72307200  1
  Nd  Nd15  1  0.88084850  0.42974050  0.90127300  1
  B  B16  1  0.24981750  0.57820650  0.46018700  1
  B  B17  1  0.25018250  0.07820650  0.03981300  1
  B  B18  1  0.34012900  0.74930300  0.56055200  1
  B  B19  1  0.15987100  0.75069700  0.43944800  1
  B  B20  1  0.24943700  0.65840000  0.90812100  1
  B  B21  1  0.24943700  0.34160000  0.40812100  1
  B  B22  1  0.25018250  0.92179350  0.53981300  1
  B  B23  1  0.24981750  0.42179350  0.96018700  1
  B  B24  1  0.04254650  0.75538350  0.35185500  1
  B  B25  1  0.25056300  0.15840000  0.59187900  1
  B  B26  1  0.15987100  0.24930300  0.93944800  1
  B  B27  1  0.45745350  0.25538350  0.14814500  1
  B  B28  1  0.24887900  0.71048000  0.67083500  1
  B  B29  1  0.25112100  0.78952000  0.32916500  1
  B  B30  1  0.34012900  0.25069700  0.06055200  1
  B  B31  1  0.24887900  0.28952000  0.17083500  1
  B  B32  1  0.04254650  0.24461650  0.85185500  1
  B  B33  1  0.25112100  0.21048000  0.82916500  1
  B  B34  1  0.25056300  0.84160000  0.09187900  1
  B  B35  1  0.45745350  0.74461650  0.64814500  1
  B  B36  1  0.74981750  0.07820650  0.46018700  1
  B  B37  1  0.75018250  0.57820650  0.03981300  1
  B  B38  1  0.84012900  0.24930300  0.56055200  1
  B  B39  1  0.65987100  0.25069700  0.43944800  1
  B  B40  1  0.74943700  0.15840000  0.90812100  1
  B  B41  1  0.74943700  0.84160000  0.40812100  1
  B  B42  1  0.75018250  0.42179350  0.53981300  1
  B  B43  1  0.74981750  0.92179350  0.96018700  1
  B  B44  1  0.54254650  0.25538350  0.35185500  1
  B  B45  1  0.75056300  0.65840000  0.59187900  1
  B  B46  1  0.65987100  0.74930300  0.93944800  1
  B  B47  1  0.95745350  0.75538350  0.14814500  1
  B  B48  1  0.74887900  0.21048000  0.67083500  1
  B  B49  1  0.75112100  0.28952000  0.32916500  1
  B  B50  1  0.84012900  0.75069700  0.06055200  1
  B  B51  1  0.74887900  0.78952000  0.17083500  1
  B  B52  1  0.54254650  0.74461650  0.85185500  1
  B  B53  1  0.75112100  0.71048000  0.82916500  1
  B  B54  1  0.75056300  0.34160000  0.09187900  1
  B  B55  1  0.95745350  0.24461650  0.64814500  1
