# generated using pymatgen
data_Mg8BRh4
_symmetry_space_group_name_H-M   'P 1'
_cell_length_a   12.24030600
_cell_length_b   12.24030600
_cell_length_c   12.24030600
_cell_angle_alpha   90.00000000
_cell_angle_beta   90.00000000
_cell_angle_gamma   90.00000000
_symmetry_Int_Tables_number   1
_chemical_formula_structural   Mg8BRh4
_chemical_formula_sum   'Mg64 B8 Rh32'
_cell_volume   1833.90496000
_cell_formula_units_Z   8
loop_
 _symmetry_equiv_pos_site_id
 _symmetry_equiv_pos_as_xyz
  1  'x, y, z'
loop_
 _atom_site_type_symbol
 _atom_site_label
 _atom_site_symmetry_multiplicity
 _atom_site_fract_x
 _atom_site_fract_y
 _atom_site_fract_z
 _atom_site_occupancy
  Mg  Mg0  1  0.25000000  0.25000000  0.44937900  1
  Mg  Mg1  1  0.50000000  0.80062100  0.50000000  1
  Mg  Mg2  1  0.50000000  0.19937900  0.50000000  1
  Mg  Mg3  1  0.50000000  0.00000000  0.30062100  1
  Mg  Mg4  1  0.30062100  0.00000000  0.50000000  1
  Mg  Mg5  1  0.00000000  0.00000000  0.19937900  1
  Mg  Mg6  1  0.37500000  0.87500000  0.12500000  1
  Mg  Mg7  1  0.05062100  0.25000000  0.25000000  1
  Mg  Mg8  1  0.44937900  0.25000000  0.25000000  1
  Mg  Mg9  1  0.25000000  0.05062100  0.25000000  1
  Mg  Mg10  1  0.37500000  0.62500000  0.37500000  1
  Mg  Mg11  1  0.25000000  0.25000000  0.05062100  1
  Mg  Mg12  1  0.25000000  0.44937900  0.25000000  1
  Mg  Mg13  1  0.12500000  0.62500000  0.12500000  1
  Mg  Mg14  1  0.12500000  0.87500000  0.37500000  1
  Mg  Mg15  1  0.69937900  0.00000000  0.50000000  1
  Mg  Mg16  1  0.25000000  0.75000000  0.94937900  1
  Mg  Mg17  1  0.50000000  0.30062100  0.00000000  1
  Mg  Mg18  1  0.50000000  0.69937900  0.00000000  1
  Mg  Mg19  1  0.50000000  0.50000000  0.80062100  1
  Mg  Mg20  1  0.30062100  0.50000000  0.00000000  1
  Mg  Mg21  1  0.00000000  0.50000000  0.69937900  1
  Mg  Mg22  1  0.37500000  0.37500000  0.62500000  1
  Mg  Mg23  1  0.05062100  0.75000000  0.75000000  1
  Mg  Mg24  1  0.44937900  0.75000000  0.75000000  1
  Mg  Mg25  1  0.25000000  0.55062100  0.75000000  1
  Mg  Mg26  1  0.37500000  0.12500000  0.87500000  1
  Mg  Mg27  1  0.25000000  0.75000000  0.55062100  1
  Mg  Mg28  1  0.25000000  0.94937900  0.75000000  1
  Mg  Mg29  1  0.12500000  0.12500000  0.62500000  1
  Mg  Mg30  1  0.12500000  0.37500000  0.87500000  1
  Mg  Mg31  1  0.69937900  0.50000000  0.00000000  1
  Mg  Mg32  1  0.75000000  0.25000000  0.94937900  1
  Mg  Mg33  1  0.00000000  0.80062100  0.00000000  1
  Mg  Mg34  1  0.00000000  0.19937900  0.00000000  1
  Mg  Mg35  1  0.00000000  0.00000000  0.80062100  1
  Mg  Mg36  1  0.80062100  0.00000000  0.00000000  1
  Mg  Mg37  1  0.50000000  0.00000000  0.69937900  1
  Mg  Mg38  1  0.87500000  0.87500000  0.62500000  1
  Mg  Mg39  1  0.55062100  0.25000000  0.75000000  1
  Mg  Mg40  1  0.94937900  0.25000000  0.75000000  1
  Mg  Mg41  1  0.75000000  0.05062100  0.75000000  1
  Mg  Mg42  1  0.87500000  0.62500000  0.87500000  1
  Mg  Mg43  1  0.75000000  0.25000000  0.55062100  1
  Mg  Mg44  1  0.75000000  0.44937900  0.75000000  1
  Mg  Mg45  1  0.62500000  0.62500000  0.62500000  1
  Mg  Mg46  1  0.62500000  0.87500000  0.87500000  1
  Mg  Mg47  1  0.19937900  0.00000000  0.00000000  1
  Mg  Mg48  1  0.75000000  0.75000000  0.44937900  1
  Mg  Mg49  1  0.00000000  0.30062100  0.50000000  1
  Mg  Mg50  1  0.00000000  0.69937900  0.50000000  1
  Mg  Mg51  1  0.00000000  0.50000000  0.30062100  1
  Mg  Mg52  1  0.80062100  0.50000000  0.50000000  1
  Mg  Mg53  1  0.50000000  0.50000000  0.19937900  1
  Mg  Mg54  1  0.87500000  0.37500000  0.12500000  1
  Mg  Mg55  1  0.55062100  0.75000000  0.25000000  1
  Mg  Mg56  1  0.94937900  0.75000000  0.25000000  1
  Mg  Mg57  1  0.75000000  0.55062100  0.25000000  1
  Mg  Mg58  1  0.87500000  0.12500000  0.37500000  1
  Mg  Mg59  1  0.75000000  0.75000000  0.05062100  1
  Mg  Mg60  1  0.75000000  0.94937900  0.25000000  1
  Mg  Mg61  1  0.62500000  0.12500000  0.12500000  1
  Mg  Mg62  1  0.62500000  0.37500000  0.37500000  1
  Mg  Mg63  1  0.19937900  0.50000000  0.50000000  1
  B  B64  1  0.25000000  0.75000000  0.25000000  1
  B  B65  1  0.00000000  0.00000000  0.50000000  1
  B  B66  1  0.25000000  0.25000000  0.75000000  1
  B  B67  1  0.00000000  0.50000000  0.00000000  1
  B  B68  1  0.75000000  0.75000000  0.75000000  1
  B  B69  1  0.50000000  0.00000000  0.00000000  1
  B  B70  1  0.75000000  0.25000000  0.25000000  1
  B  B71  1  0.50000000  0.50000000  0.50000000  1
  Rh  Rh72  1  0.40420900  0.40420900  0.40420900  1
  Rh  Rh73  1  0.09579100  0.40420900  0.09579100  1
  Rh  Rh74  1  0.40420900  0.09579100  0.09579100  1
  Rh  Rh75  1  0.65420900  0.15420900  0.34579100  1
  Rh  Rh76  1  0.84579100  0.15420900  0.15420900  1
  Rh  Rh77  1  0.09579100  0.09579100  0.40420900  1
  Rh  Rh78  1  0.15420900  0.84579100  0.15420900  1
  Rh  Rh79  1  0.34579100  0.84579100  0.34579100  1
  Rh  Rh80  1  0.40420900  0.90420900  0.90420900  1
  Rh  Rh81  1  0.09579100  0.90420900  0.59579100  1
  Rh  Rh82  1  0.40420900  0.59579100  0.59579100  1
  Rh  Rh83  1  0.65420900  0.65420900  0.84579100  1
  Rh  Rh84  1  0.84579100  0.65420900  0.65420900  1
  Rh  Rh85  1  0.09579100  0.59579100  0.90420900  1
  Rh  Rh86  1  0.15420900  0.34579100  0.65420900  1
  Rh  Rh87  1  0.34579100  0.34579100  0.84579100  1
  Rh  Rh88  1  0.90420900  0.40420900  0.90420900  1
  Rh  Rh89  1  0.59579100  0.40420900  0.59579100  1
  Rh  Rh90  1  0.90420900  0.09579100  0.59579100  1
  Rh  Rh91  1  0.15420900  0.15420900  0.84579100  1
  Rh  Rh92  1  0.34579100  0.15420900  0.65420900  1
  Rh  Rh93  1  0.59579100  0.09579100  0.90420900  1
  Rh  Rh94  1  0.65420900  0.84579100  0.65420900  1
  Rh  Rh95  1  0.84579100  0.84579100  0.84579100  1
  Rh  Rh96  1  0.90420900  0.90420900  0.40420900  1
  Rh  Rh97  1  0.59579100  0.90420900  0.09579100  1
  Rh  Rh98  1  0.90420900  0.59579100  0.09579100  1
  Rh  Rh99  1  0.15420900  0.65420900  0.34579100  1
  Rh  Rh100  1  0.34579100  0.65420900  0.15420900  1
  Rh  Rh101  1  0.59579100  0.59579100  0.40420900  1
  Rh  Rh102  1  0.65420900  0.34579100  0.15420900  1
  Rh  Rh103  1  0.84579100  0.34579100  0.34579100  1
