# generated using pymatgen
data_Ce2Al16Pt9
_symmetry_space_group_name_H-M   'P 1'
_cell_length_a   4.19157200
_cell_length_b   11.95873200
_cell_length_c   18.30989000
_cell_angle_alpha   90.00000000
_cell_angle_beta   90.00000000
_cell_angle_gamma   90.00000000
_symmetry_Int_Tables_number   1
_chemical_formula_structural   Ce2Al16Pt9
_chemical_formula_sum   'Ce4 Al32 Pt18'
_cell_volume   917.79946260
_cell_formula_units_Z   2
loop_
 _symmetry_equiv_pos_site_id
 _symmetry_equiv_pos_as_xyz
  1  'x, y, z'
loop_
 _atom_site_type_symbol
 _atom_site_label
 _atom_site_symmetry_multiplicity
 _atom_site_fract_x
 _atom_site_fract_y
 _atom_site_fract_z
 _atom_site_occupancy
  Ce  Ce0  1  0.50000000  0.50000000  0.72794500  1
  Ce  Ce1  1  0.50000000  0.50000000  0.27205500  1
  Ce  Ce2  1  0.00000000  0.00000000  0.22794500  1
  Ce  Ce3  1  0.00000000  0.00000000  0.77205500  1
  Al  Al4  1  0.50000000  0.38208000  0.89241400  1
  Al  Al5  1  0.00000000  0.17133800  0.92013500  1
  Al  Al6  1  0.00000000  0.30816050  0.20338950  1
  Al  Al7  1  0.00000000  0.17133800  0.07986500  1
  Al  Al8  1  0.00000000  0.50000000  0.41333500  1
  Al  Al9  1  0.50000000  0.61792000  0.10758600  1
  Al  Al10  1  0.00000000  0.69183950  0.20338950  1
  Al  Al11  1  0.00000000  0.69183950  0.79661050  1
  Al  Al12  1  0.00000000  0.38554800  0.00000000  1
  Al  Al13  1  0.00000000  0.61445200  0.00000000  1
  Al  Al14  1  0.50000000  0.38208000  0.10758600  1
  Al  Al15  1  0.00000000  0.30816050  0.79661050  1
  Al  Al16  1  0.00000000  0.82866200  0.07986500  1
  Al  Al17  1  0.00000000  0.82866200  0.92013500  1
  Al  Al18  1  0.50000000  0.61792000  0.89241400  1
  Al  Al19  1  0.00000000  0.50000000  0.58666500  1
  Al  Al20  1  0.00000000  0.88208000  0.39241400  1
  Al  Al21  1  0.50000000  0.67133800  0.42013500  1
  Al  Al22  1  0.50000000  0.80816050  0.70338950  1
  Al  Al23  1  0.50000000  0.67133800  0.57986500  1
  Al  Al24  1  0.50000000  0.00000000  0.91333500  1
  Al  Al25  1  0.00000000  0.11792000  0.60758600  1
  Al  Al26  1  0.50000000  0.19183950  0.70338950  1
  Al  Al27  1  0.50000000  0.19183950  0.29661050  1
  Al  Al28  1  0.50000000  0.88554800  0.50000000  1
  Al  Al29  1  0.50000000  0.11445200  0.50000000  1
  Al  Al30  1  0.00000000  0.88208000  0.60758600  1
  Al  Al31  1  0.50000000  0.80816050  0.29661050  1
  Al  Al32  1  0.50000000  0.32866200  0.57986500  1
  Al  Al33  1  0.50000000  0.32866200  0.42013500  1
  Al  Al34  1  0.00000000  0.11792000  0.39241400  1
  Al  Al35  1  0.50000000  0.00000000  0.08666500  1
  Pt  Pt36  1  0.50000000  0.75057100  0.00000000  1
  Pt  Pt37  1  0.50000000  0.18483900  0.83943700  1
  Pt  Pt38  1  0.00000000  0.50000000  0.12520800  1
  Pt  Pt39  1  0.50000000  0.24942900  0.00000000  1
  Pt  Pt40  1  0.00000000  0.50000000  0.87479200  1
  Pt  Pt41  1  0.00000000  0.00000000  0.00000000  1
  Pt  Pt42  1  0.50000000  0.81516100  0.83943700  1
  Pt  Pt43  1  0.50000000  0.18483900  0.16056300  1
  Pt  Pt44  1  0.50000000  0.81516100  0.16056300  1
  Pt  Pt45  1  0.00000000  0.25057100  0.50000000  1
  Pt  Pt46  1  0.00000000  0.68483900  0.33943700  1
  Pt  Pt47  1  0.50000000  0.00000000  0.62520800  1
  Pt  Pt48  1  0.00000000  0.74942900  0.50000000  1
  Pt  Pt49  1  0.50000000  0.00000000  0.37479200  1
  Pt  Pt50  1  0.50000000  0.50000000  0.50000000  1
  Pt  Pt51  1  0.00000000  0.31516100  0.33943700  1
  Pt  Pt52  1  0.00000000  0.68483900  0.66056300  1
  Pt  Pt53  1  0.00000000  0.31516100  0.66056300  1
