# generated using pymatgen
data_Mn2Nb2Zn2O9
_symmetry_space_group_name_H-M   'P 1'
_cell_length_a   5.32332416
_cell_length_b   5.32332416
_cell_length_c   14.58557100
_cell_angle_alpha   90.00000000
_cell_angle_beta   90.00000000
_cell_angle_gamma   120.00000000
_symmetry_Int_Tables_number   1
_chemical_formula_structural   Mn2Nb2Zn2O9
_chemical_formula_sum   'Mn4 Nb4 Zn4 O18'
_cell_volume   357.94796131
_cell_formula_units_Z   2
loop_
 _symmetry_equiv_pos_site_id
 _symmetry_equiv_pos_as_xyz
  1  'x, y, z'
loop_
 _atom_site_type_symbol
 _atom_site_label
 _atom_site_symmetry_multiplicity
 _atom_site_fract_x
 _atom_site_fract_y
 _atom_site_fract_z
 _atom_site_occupancy
  Mn  Mn0  1  0.33333333  0.66666667  0.01757100  1
  Mn  Mn1  1  0.33333333  0.66666667  0.51757100  1
  Mn  Mn2  1  0.66666667  0.33333333  0.98242900  1
  Mn  Mn3  1  0.66666667  0.33333333  0.48242900  1
  Nb  Nb4  1  0.00000000  0.00000000  0.64389400  1
  Nb  Nb5  1  0.00000000  0.00000000  0.14389400  1
  Nb  Nb6  1  0.00000000  0.00000000  0.85610600  1
  Nb  Nb7  1  0.00000000  0.00000000  0.35610600  1
  Zn  Zn8  1  0.66666667  0.33333333  0.71065100  1
  Zn  Zn9  1  0.33333333  0.66666667  0.29719000  1
  Zn  Zn10  1  0.33333333  0.66666667  0.79719000  1
  Zn  Zn11  1  0.66666667  0.33333333  0.21065100  1
  O  O12  1  0.68880733  0.66322567  0.58834100  1
  O  O13  1  0.00000000  0.71351800  0.75000000  1
  O  O14  1  0.66322567  0.97441833  0.41165900  1
  O  O15  1  0.31119267  0.33677433  0.41165900  1
  O  O16  1  0.97441833  0.31119267  0.58834100  1
  O  O17  1  0.71351800  0.71351800  0.25000000  1
  O  O18  1  0.02558167  0.33677433  0.91165900  1
  O  O19  1  0.33677433  0.02558167  0.58834100  1
  O  O20  1  0.33677433  0.31119267  0.08834100  1
  O  O21  1  0.02558167  0.68880733  0.41165900  1
  O  O22  1  0.66322567  0.68880733  0.91165900  1
  O  O23  1  0.68880733  0.02558167  0.08834100  1
  O  O24  1  0.71351800  0.00000000  0.75000000  1
  O  O25  1  0.28648200  0.28648200  0.75000000  1
  O  O26  1  0.28648200  0.00000000  0.25000000  1
  O  O27  1  0.97441833  0.66322567  0.08834100  1
  O  O28  1  0.00000000  0.28648200  0.25000000  1
  O  O29  1  0.31119267  0.97441833  0.91165900  1
