# generated using pymatgen
data_Li2Mo(PO4)2
_symmetry_space_group_name_H-M   'P 1'
_cell_length_a   8.14273600
_cell_length_b   5.50055800
_cell_length_c   6.52412673
_cell_angle_alpha   90.00000000
_cell_angle_beta   91.81433279
_cell_angle_gamma   90.00000000
_symmetry_Int_Tables_number   1
_chemical_formula_structural   Li2Mo(PO4)2
_chemical_formula_sum   'Li4 Mo2 P4 O16'
_cell_volume   292.06647743
_cell_formula_units_Z   2
loop_
 _symmetry_equiv_pos_site_id
 _symmetry_equiv_pos_as_xyz
  1  'x, y, z'
loop_
 _atom_site_type_symbol
 _atom_site_label
 _atom_site_symmetry_multiplicity
 _atom_site_fract_x
 _atom_site_fract_y
 _atom_site_fract_z
 _atom_site_occupancy
  Li  Li0  1  0.17280100  0.00000000  0.71175500  1
  Li  Li1  1  0.50417100  0.00000000  0.48672100  1
  Li  Li2  1  0.67280100  0.50000000  0.71175500  1
  Li  Li3  1  0.00417100  0.50000000  0.48672100  1
  Mo  Mo4  1  0.50352600  0.00000000  0.00559500  1
  Mo  Mo5  1  0.00352600  0.50000000  0.00559500  1
  P  P6  1  0.14869900  0.00000000  0.23927400  1
  P  P7  1  0.84571300  0.00000000  0.76245700  1
  P  P8  1  0.64869900  0.50000000  0.23927400  1
  P  P9  1  0.34571300  0.50000000  0.76245700  1
  O  O10  1  0.25184100  0.00000000  0.43508000  1
  O  O11  1  0.74492400  0.00000000  0.96345700  1
  O  O12  1  0.73672000  0.00000000  0.57491700  1
  O  O13  1  0.53776400  0.26794900  0.22441300  1
  O  O14  1  0.46523500  0.72720900  0.77432600  1
  O  O15  1  0.53776400  0.73205100  0.22441300  1
  O  O16  1  0.46523500  0.27279100  0.77432600  1
  O  O17  1  0.25677200  0.00000000  0.03988600  1
  O  O18  1  0.75184100  0.50000000  0.43508000  1
  O  O19  1  0.24492400  0.50000000  0.96345700  1
  O  O20  1  0.23672000  0.50000000  0.57491700  1
  O  O21  1  0.03776400  0.76794900  0.22441300  1
  O  O22  1  0.96523500  0.22720900  0.77432600  1
  O  O23  1  0.03776400  0.23205100  0.22441300  1
  O  O24  1  0.96523500  0.77279100  0.77432600  1
  O  O25  1  0.75677200  0.50000000  0.03988600  1
