# generated using pymatgen
data_Li2CrP2O7
_symmetry_space_group_name_H-M   'P 1'
_cell_length_a   15.56794000
_cell_length_b   5.04175400
_cell_length_c   8.94289177
_cell_angle_alpha   90.00000000
_cell_angle_beta   115.16368739
_cell_angle_gamma   90.00000000
_symmetry_Int_Tables_number   1
_chemical_formula_structural   Li2CrP2O7
_chemical_formula_sum   'Li8 Cr4 P8 O28'
_cell_volume   635.31010930
_cell_formula_units_Z   4
loop_
 _symmetry_equiv_pos_site_id
 _symmetry_equiv_pos_as_xyz
  1  'x, y, z'
loop_
 _atom_site_type_symbol
 _atom_site_label
 _atom_site_symmetry_multiplicity
 _atom_site_fract_x
 _atom_site_fract_y
 _atom_site_fract_z
 _atom_site_occupancy
  Li  Li0  1  0.30992100  0.85633500  0.44784400  1
  Li  Li1  1  0.19007900  0.64366500  0.55215600  1
  Li  Li2  1  0.19007900  0.35633500  0.05215600  1
  Li  Li3  1  0.30992100  0.14366500  0.94784400  1
  Li  Li4  1  0.80992100  0.35633500  0.44784400  1
  Li  Li5  1  0.69007900  0.14366500  0.55215600  1
  Li  Li6  1  0.69007900  0.85633500  0.05215600  1
  Li  Li7  1  0.80992100  0.64366500  0.94784400  1
  Cr  Cr8  1  0.00000000  0.50000000  0.00000000  1
  Cr  Cr9  1  0.00000000  0.50000000  0.50000000  1
  Cr  Cr10  1  0.50000000  0.00000000  0.00000000  1
  Cr  Cr11  1  0.50000000  0.00000000  0.50000000  1
  P  P12  1  0.39699550  0.36470050  0.68437400  1
  P  P13  1  0.10300450  0.13529950  0.31562600  1
  P  P14  1  0.39699550  0.63529950  0.18437400  1
  P  P15  1  0.10300450  0.86470050  0.81562600  1
  P  P16  1  0.89699550  0.86470050  0.68437400  1
  P  P17  1  0.60300450  0.63529950  0.31562600  1
  P  P18  1  0.89699550  0.13529950  0.18437400  1
  P  P19  1  0.60300450  0.36470050  0.81562600  1
  O  O20  1  0.39809100  0.84510400  0.05969500  1
  O  O21  1  0.17755900  0.07645400  0.88952200  1
  O  O22  1  0.32244100  0.42354600  0.11047800  1
  O  O23  1  0.32244100  0.57645400  0.61047800  1
  O  O24  1  0.00000000  0.98171700  0.25000000  1
  O  O25  1  0.39375500  0.76856500  0.33718800  1
  O  O26  1  0.10190900  0.65489600  0.94030500  1
  O  O27  1  0.39375500  0.23143500  0.83718800  1
  O  O28  1  0.17755900  0.92354600  0.38952200  1
  O  O29  1  0.00000000  0.01828300  0.75000000  1
  O  O30  1  0.10624500  0.26856500  0.16281200  1
  O  O31  1  0.10190900  0.34510400  0.44030500  1
  O  O32  1  0.10624500  0.73143500  0.66281200  1
  O  O33  1  0.39809100  0.15489600  0.55969500  1
  O  O34  1  0.89809100  0.34510400  0.05969500  1
  O  O35  1  0.67755900  0.57645400  0.88952200  1
  O  O36  1  0.82244100  0.92354600  0.11047800  1
  O  O37  1  0.82244100  0.07645400  0.61047800  1
  O  O38  1  0.50000000  0.48171700  0.25000000  1
  O  O39  1  0.89375500  0.26856500  0.33718800  1
  O  O40  1  0.60190900  0.15489600  0.94030500  1
  O  O41  1  0.89375500  0.73143500  0.83718800  1
  O  O42  1  0.67755900  0.42354600  0.38952200  1
  O  O43  1  0.50000000  0.51828300  0.75000000  1
  O  O44  1  0.60624500  0.76856500  0.16281200  1
  O  O45  1  0.60190900  0.84510400  0.44030500  1
  O  O46  1  0.60624500  0.23143500  0.66281200  1
  O  O47  1  0.89809100  0.65489600  0.55969500  1
