# generated using pymatgen
data_Tm3(CuSn)4
_symmetry_space_group_name_H-M   'P 1'
_cell_length_a   15.80454000
_cell_length_b   4.14932600
_cell_length_c   8.42842042
_cell_angle_alpha   90.00000000
_cell_angle_beta   122.09170569
_cell_angle_gamma   90.00000000
_symmetry_Int_Tables_number   1
_chemical_formula_structural   Tm3(CuSn)4
_chemical_formula_sum   'Tm6 Cu8 Sn8'
_cell_volume   468.26420445
_cell_formula_units_Z   2
loop_
 _symmetry_equiv_pos_site_id
 _symmetry_equiv_pos_as_xyz
  1  'x, y, z'
loop_
 _atom_site_type_symbol
 _atom_site_label
 _atom_site_symmetry_multiplicity
 _atom_site_fract_x
 _atom_site_fract_y
 _atom_site_fract_z
 _atom_site_occupancy
  Tm  Tm0  1  0.64630100  0.50000000  0.15143000  1
  Tm  Tm1  1  0.35369900  0.50000000  0.84857000  1
  Tm  Tm2  1  0.00000000  0.50000000  0.50000000  1
  Tm  Tm3  1  0.14630100  0.00000000  0.15143000  1
  Tm  Tm4  1  0.85369900  0.00000000  0.84857000  1
  Tm  Tm5  1  0.50000000  0.00000000  0.50000000  1
  Cu  Cu6  1  0.19089400  0.50000000  0.92742500  1
  Cu  Cu7  1  0.80910600  0.50000000  0.07257500  1
  Cu  Cu8  1  0.18792500  0.50000000  0.45008400  1
  Cu  Cu9  1  0.81207500  0.50000000  0.54991600  1
  Cu  Cu10  1  0.69089400  0.00000000  0.92742500  1
  Cu  Cu11  1  0.30910600  0.00000000  0.07257500  1
  Cu  Cu12  1  0.68792500  0.00000000  0.45008400  1
  Cu  Cu13  1  0.31207500  0.00000000  0.54991600  1
  Sn  Sn14  1  0.82516500  0.00000000  0.32483600  1
  Sn  Sn15  1  0.17483500  0.00000000  0.67516400  1
  Sn  Sn16  1  0.00223700  0.50000000  0.84057400  1
  Sn  Sn17  1  0.99776300  0.50000000  0.15942600  1
  Sn  Sn18  1  0.32516500  0.50000000  0.32483600  1
  Sn  Sn19  1  0.67483500  0.50000000  0.67516400  1
  Sn  Sn20  1  0.50223700  0.00000000  0.84057400  1
  Sn  Sn21  1  0.49776300  0.00000000  0.15942600  1
