# generated using pymatgen
data_Nb3SiNi2
_symmetry_space_group_name_H-M   'P 1'
_cell_length_a   11.21544200
_cell_length_b   11.21544200
_cell_length_c   11.21544200
_cell_angle_alpha   90.00000000
_cell_angle_beta   90.00000000
_cell_angle_gamma   90.00000000
_symmetry_Int_Tables_number   1
_chemical_formula_structural   Nb3SiNi2
_chemical_formula_sum   'Nb48 Si16 Ni32'
_cell_volume   1410.74714922
_cell_formula_units_Z   16
loop_
 _symmetry_equiv_pos_site_id
 _symmetry_equiv_pos_as_xyz
  1  'x, y, z'
loop_
 _atom_site_type_symbol
 _atom_site_label
 _atom_site_symmetry_multiplicity
 _atom_site_fract_x
 _atom_site_fract_y
 _atom_site_fract_z
 _atom_site_occupancy
  Nb  Nb0  1  0.50000000  0.20250700  0.50000000  1
  Nb  Nb1  1  0.04749300  0.25000000  0.25000000  1
  Nb  Nb2  1  0.45250700  0.25000000  0.25000000  1
  Nb  Nb3  1  0.25000000  0.45250700  0.25000000  1
  Nb  Nb4  1  0.25000000  0.25000000  0.04749300  1
  Nb  Nb5  1  0.25000000  0.25000000  0.45250700  1
  Nb  Nb6  1  0.00000000  0.00000000  0.20250700  1
  Nb  Nb7  1  0.70250700  0.00000000  0.50000000  1
  Nb  Nb8  1  0.29749300  0.00000000  0.50000000  1
  Nb  Nb9  1  0.50000000  0.00000000  0.29749300  1
  Nb  Nb10  1  0.25000000  0.04749300  0.25000000  1
  Nb  Nb11  1  0.50000000  0.79749300  0.50000000  1
  Nb  Nb12  1  0.50000000  0.70250700  0.00000000  1
  Nb  Nb13  1  0.04749300  0.75000000  0.75000000  1
  Nb  Nb14  1  0.45250700  0.75000000  0.75000000  1
  Nb  Nb15  1  0.25000000  0.95250700  0.75000000  1
  Nb  Nb16  1  0.25000000  0.75000000  0.54749300  1
  Nb  Nb17  1  0.25000000  0.75000000  0.95250700  1
  Nb  Nb18  1  0.00000000  0.50000000  0.70250700  1
  Nb  Nb19  1  0.70250700  0.50000000  0.00000000  1
  Nb  Nb20  1  0.29749300  0.50000000  0.00000000  1
  Nb  Nb21  1  0.50000000  0.50000000  0.79749300  1
  Nb  Nb22  1  0.25000000  0.54749300  0.75000000  1
  Nb  Nb23  1  0.50000000  0.29749300  0.00000000  1
  Nb  Nb24  1  0.00000000  0.20250700  0.00000000  1
  Nb  Nb25  1  0.54749300  0.25000000  0.75000000  1
  Nb  Nb26  1  0.95250700  0.25000000  0.75000000  1
  Nb  Nb27  1  0.75000000  0.45250700  0.75000000  1
  Nb  Nb28  1  0.75000000  0.25000000  0.54749300  1
  Nb  Nb29  1  0.75000000  0.25000000  0.95250700  1
  Nb  Nb30  1  0.50000000  0.00000000  0.70250700  1
  Nb  Nb31  1  0.20250700  0.00000000  0.00000000  1
  Nb  Nb32  1  0.79749300  0.00000000  0.00000000  1
  Nb  Nb33  1  0.00000000  0.00000000  0.79749300  1
  Nb  Nb34  1  0.75000000  0.04749300  0.75000000  1
  Nb  Nb35  1  0.00000000  0.79749300  0.00000000  1
  Nb  Nb36  1  0.00000000  0.70250700  0.50000000  1
  Nb  Nb37  1  0.54749300  0.75000000  0.25000000  1
  Nb  Nb38  1  0.95250700  0.75000000  0.25000000  1
  Nb  Nb39  1  0.75000000  0.95250700  0.25000000  1
  Nb  Nb40  1  0.75000000  0.75000000  0.04749300  1
  Nb  Nb41  1  0.75000000  0.75000000  0.45250700  1
  Nb  Nb42  1  0.50000000  0.50000000  0.20250700  1
  Nb  Nb43  1  0.20250700  0.50000000  0.50000000  1
  Nb  Nb44  1  0.79749300  0.50000000  0.50000000  1
  Nb  Nb45  1  0.00000000  0.50000000  0.29749300  1
  Nb  Nb46  1  0.75000000  0.54749300  0.25000000  1
  Nb  Nb47  1  0.00000000  0.29749300  0.50000000  1
  Si  Si48  1  0.12500000  0.62500000  0.12500000  1
  Si  Si49  1  0.12500000  0.87500000  0.37500000  1
  Si  Si50  1  0.37500000  0.62500000  0.37500000  1
  Si  Si51  1  0.37500000  0.87500000  0.12500000  1
  Si  Si52  1  0.12500000  0.12500000  0.62500000  1
  Si  Si53  1  0.12500000  0.37500000  0.87500000  1
  Si  Si54  1  0.37500000  0.12500000  0.87500000  1
  Si  Si55  1  0.37500000  0.37500000  0.62500000  1
  Si  Si56  1  0.62500000  0.62500000  0.62500000  1
  Si  Si57  1  0.62500000  0.87500000  0.87500000  1
  Si  Si58  1  0.87500000  0.62500000  0.87500000  1
  Si  Si59  1  0.87500000  0.87500000  0.62500000  1
  Si  Si60  1  0.62500000  0.12500000  0.12500000  1
  Si  Si61  1  0.62500000  0.37500000  0.37500000  1
  Si  Si62  1  0.87500000  0.12500000  0.37500000  1
  Si  Si63  1  0.87500000  0.37500000  0.12500000  1
  Ni  Ni64  1  0.33234000  0.83234000  0.33234000  1
  Ni  Ni65  1  0.41766000  0.08234000  0.08234000  1
  Ni  Ni66  1  0.08234000  0.41766000  0.08234000  1
  Ni  Ni67  1  0.08234000  0.08234000  0.41766000  1
  Ni  Ni68  1  0.16766000  0.83234000  0.16766000  1
  Ni  Ni69  1  0.16766000  0.66766000  0.33234000  1
  Ni  Ni70  1  0.33234000  0.66766000  0.16766000  1
  Ni  Ni71  1  0.41766000  0.41766000  0.41766000  1
  Ni  Ni72  1  0.33234000  0.33234000  0.83234000  1
  Ni  Ni73  1  0.41766000  0.58234000  0.58234000  1
  Ni  Ni74  1  0.08234000  0.91766000  0.58234000  1
  Ni  Ni75  1  0.08234000  0.58234000  0.91766000  1
  Ni  Ni76  1  0.16766000  0.33234000  0.66766000  1
  Ni  Ni77  1  0.16766000  0.16766000  0.83234000  1
  Ni  Ni78  1  0.33234000  0.16766000  0.66766000  1
  Ni  Ni79  1  0.41766000  0.91766000  0.91766000  1
  Ni  Ni80  1  0.83234000  0.83234000  0.83234000  1
  Ni  Ni81  1  0.91766000  0.08234000  0.58234000  1
  Ni  Ni82  1  0.58234000  0.41766000  0.58234000  1
  Ni  Ni83  1  0.58234000  0.08234000  0.91766000  1
  Ni  Ni84  1  0.66766000  0.83234000  0.66766000  1
  Ni  Ni85  1  0.66766000  0.66766000  0.83234000  1
  Ni  Ni86  1  0.83234000  0.66766000  0.66766000  1
  Ni  Ni87  1  0.91766000  0.41766000  0.91766000  1
  Ni  Ni88  1  0.83234000  0.33234000  0.33234000  1
  Ni  Ni89  1  0.91766000  0.58234000  0.08234000  1
  Ni  Ni90  1  0.58234000  0.91766000  0.08234000  1
  Ni  Ni91  1  0.58234000  0.58234000  0.41766000  1
  Ni  Ni92  1  0.66766000  0.33234000  0.16766000  1
  Ni  Ni93  1  0.66766000  0.16766000  0.33234000  1
  Ni  Ni94  1  0.83234000  0.16766000  0.16766000  1
  Ni  Ni95  1  0.91766000  0.91766000  0.41766000  1
