# generated using pymatgen
data_Ce2(WO4)3
_symmetry_space_group_name_H-M   'P 1'
_cell_length_a   7.99074600
_cell_length_b   11.83511400
_cell_length_c   11.74061780
_cell_angle_alpha   90.00000000
_cell_angle_beta   109.77423183
_cell_angle_gamma   90.00000000
_symmetry_Int_Tables_number   1
_chemical_formula_structural   Ce2(WO4)3
_chemical_formula_sum   'Ce8 W12 O48'
_cell_volume   1044.85393768
_cell_formula_units_Z   4
loop_
 _symmetry_equiv_pos_site_id
 _symmetry_equiv_pos_as_xyz
  1  'x, y, z'
loop_
 _atom_site_type_symbol
 _atom_site_label
 _atom_site_symmetry_multiplicity
 _atom_site_fract_x
 _atom_site_fract_y
 _atom_site_fract_z
 _atom_site_occupancy
  Ce  Ce0  1  0.83477450  0.87732550  0.40512700  1
  Ce  Ce1  1  0.16522550  0.87732550  0.09487300  1
  Ce  Ce2  1  0.16522550  0.12267450  0.59487300  1
  Ce  Ce3  1  0.83477450  0.12267450  0.90512700  1
  Ce  Ce4  1  0.33477450  0.37732550  0.40512700  1
  Ce  Ce5  1  0.66522550  0.37732550  0.09487300  1
  Ce  Ce6  1  0.66522550  0.62267450  0.59487300  1
  Ce  Ce7  1  0.33477450  0.62267450  0.90512700  1
  W  W8  1  0.50000000  0.36564200  0.75000000  1
  W  W9  1  0.50000000  0.63435800  0.25000000  1
  W  W10  1  0.64381700  0.89656200  0.04647700  1
  W  W11  1  0.35618300  0.89656200  0.45352300  1
  W  W12  1  0.35618300  0.10343800  0.95352300  1
  W  W13  1  0.64381700  0.10343800  0.54647700  1
  W  W14  1  0.00000000  0.86564200  0.75000000  1
  W  W15  1  0.00000000  0.13435800  0.25000000  1
  W  W16  1  0.14381700  0.39656200  0.04647700  1
  W  W17  1  0.85618300  0.39656200  0.45352300  1
  W  W18  1  0.85618300  0.60343800  0.95352300  1
  W  W19  1  0.14381700  0.60343800  0.54647700  1
  O  O20  1  0.43412300  0.03775200  0.57096400  1
  O  O21  1  0.56587700  0.03775200  0.92903600  1
  O  O22  1  0.56587700  0.96224800  0.42903600  1
  O  O23  1  0.43412300  0.96224800  0.07096400  1
  O  O24  1  0.55455300  0.78572800  0.94036100  1
  O  O25  1  0.44544700  0.78572800  0.55963900  1
  O  O26  1  0.44544700  0.21427200  0.05963900  1
  O  O27  1  0.55455300  0.21427200  0.44036100  1
  O  O28  1  0.71733400  0.17189800  0.69560500  1
  O  O29  1  0.28266600  0.17189800  0.80439500  1
  O  O30  1  0.62790100  0.70982200  0.39060900  1
  O  O31  1  0.37209900  0.70982200  0.10939100  1
  O  O32  1  0.37209900  0.29017800  0.60939100  1
  O  O33  1  0.62790100  0.29017800  0.89060900  1
  O  O34  1  0.83844000  0.04534300  0.28112600  1
  O  O35  1  0.16156000  0.04534300  0.21887400  1
  O  O36  1  0.16156000  0.95465700  0.71887400  1
  O  O37  1  0.83844000  0.95465700  0.78112600  1
  O  O38  1  0.13644550  0.94791050  0.46037000  1
  O  O39  1  0.86355450  0.94791050  0.03963000  1
  O  O40  1  0.86355450  0.05208950  0.53963000  1
  O  O41  1  0.13644550  0.05208950  0.96037000  1
  O  O42  1  0.71733400  0.82810200  0.19560500  1
  O  O43  1  0.28266600  0.82810200  0.30439500  1
  O  O44  1  0.93412300  0.53775200  0.57096400  1
  O  O45  1  0.06587700  0.53775200  0.92903600  1
  O  O46  1  0.06587700  0.46224800  0.42903600  1
  O  O47  1  0.93412300  0.46224800  0.07096400  1
  O  O48  1  0.05455300  0.28572800  0.94036100  1
  O  O49  1  0.94544700  0.28572800  0.55963900  1
  O  O50  1  0.94544700  0.71427200  0.05963900  1
  O  O51  1  0.05455300  0.71427200  0.44036100  1
  O  O52  1  0.21733400  0.67189800  0.69560500  1
  O  O53  1  0.78266600  0.67189800  0.80439500  1
  O  O54  1  0.12790100  0.20982200  0.39060900  1
  O  O55  1  0.87209900  0.20982200  0.10939100  1
  O  O56  1  0.87209900  0.79017800  0.60939100  1
  O  O57  1  0.12790100  0.79017800  0.89060900  1
  O  O58  1  0.33844000  0.54534300  0.28112600  1
  O  O59  1  0.66156000  0.54534300  0.21887400  1
  O  O60  1  0.66156000  0.45465700  0.71887400  1
  O  O61  1  0.33844000  0.45465700  0.78112600  1
  O  O62  1  0.63644550  0.44791050  0.46037000  1
  O  O63  1  0.36355450  0.44791050  0.03963000  1
  O  O64  1  0.36355450  0.55208950  0.53963000  1
  O  O65  1  0.63644550  0.55208950  0.96037000  1
  O  O66  1  0.21733400  0.32810200  0.19560500  1
  O  O67  1  0.78266600  0.32810200  0.30439500  1
