# generated using pymatgen
data_TbRe2SiC
_symmetry_space_group_name_H-M   'P 1'
_cell_length_a   3.95985000
_cell_length_b   10.89674400
_cell_length_c   7.31548200
_cell_angle_alpha   90.00000000
_cell_angle_beta   90.00000000
_cell_angle_gamma   90.00000000
_symmetry_Int_Tables_number   1
_chemical_formula_structural   TbRe2SiC
_chemical_formula_sum   'Tb4 Re8 Si4 C4'
_cell_volume   315.65918374
_cell_formula_units_Z   4
loop_
 _symmetry_equiv_pos_site_id
 _symmetry_equiv_pos_as_xyz
  1  'x, y, z'
loop_
 _atom_site_type_symbol
 _atom_site_label
 _atom_site_symmetry_multiplicity
 _atom_site_fract_x
 _atom_site_fract_y
 _atom_site_fract_z
 _atom_site_occupancy
  Tb  Tb0  1  0.50000000  0.04259100  0.25000000  1
  Tb  Tb1  1  0.00000000  0.45740900  0.75000000  1
  Tb  Tb2  1  0.00000000  0.54259100  0.25000000  1
  Tb  Tb3  1  0.50000000  0.95740900  0.75000000  1
  Re  Re4  1  0.50000000  0.32531200  0.06036100  1
  Re  Re5  1  0.00000000  0.17468800  0.93963900  1
  Re  Re6  1  0.00000000  0.17468800  0.56036100  1
  Re  Re7  1  0.50000000  0.32531200  0.43963900  1
  Re  Re8  1  0.00000000  0.82531200  0.06036100  1
  Re  Re9  1  0.50000000  0.67468800  0.93963900  1
  Re  Re10  1  0.50000000  0.67468800  0.56036100  1
  Re  Re11  1  0.00000000  0.82531200  0.43963900  1
  Si  Si12  1  0.00000000  0.26520000  0.25000000  1
  Si  Si13  1  0.50000000  0.23480000  0.75000000  1
  Si  Si14  1  0.50000000  0.76520000  0.25000000  1
  Si  Si15  1  0.00000000  0.73480000  0.75000000  1
  C  C16  1  0.00000000  0.00000000  0.50000000  1
  C  C17  1  0.00000000  0.00000000  0.00000000  1
  C  C18  1  0.50000000  0.50000000  0.50000000  1
  C  C19  1  0.50000000  0.50000000  0.00000000  1
