# generated using pymatgen
data_KMg2V3(CuO6)2
_symmetry_space_group_name_H-M   'P 1'
_cell_length_a   12.25393400
_cell_length_b   12.74906200
_cell_length_c   7.12368104
_cell_angle_alpha   90.00000000
_cell_angle_beta   112.60012804
_cell_angle_gamma   90.00000000
_symmetry_Int_Tables_number   1
_chemical_formula_structural   KMg2V3(CuO6)2
_chemical_formula_sum   'K4 Mg8 V12 Cu8 O48'
_cell_volume   1027.44464728
_cell_formula_units_Z   4
loop_
 _symmetry_equiv_pos_site_id
 _symmetry_equiv_pos_as_xyz
  1  'x, y, z'
loop_
 _atom_site_type_symbol
 _atom_site_label
 _atom_site_symmetry_multiplicity
 _atom_site_fract_x
 _atom_site_fract_y
 _atom_site_fract_z
 _atom_site_occupancy
  K  K0  1  0.50000000  0.50680100  0.25000000  1
  K  K1  1  0.50000000  0.49319900  0.75000000  1
  K  K2  1  0.00000000  0.00680100  0.25000000  1
  K  K3  1  0.00000000  0.99319900  0.75000000  1
  Mg  Mg4  1  0.21282050  0.16019450  0.62194400  1
  Mg  Mg5  1  0.78717950  0.16019450  0.87805600  1
  Mg  Mg6  1  0.78717950  0.83980550  0.37805600  1
  Mg  Mg7  1  0.21282050  0.83980550  0.12194400  1
  Mg  Mg8  1  0.71282050  0.66019450  0.62194400  1
  Mg  Mg9  1  0.28717950  0.66019450  0.87805600  1
  Mg  Mg10  1  0.28717950  0.33980550  0.37805600  1
  Mg  Mg11  1  0.71282050  0.33980550  0.12194400  1
  V  V12  1  0.76491650  0.87904350  0.88130400  1
  V  V13  1  0.50000000  0.21636500  0.75000000  1
  V  V14  1  0.76491650  0.12095650  0.38130400  1
  V  V15  1  0.23508350  0.12095650  0.11869600  1
  V  V16  1  0.23508350  0.87904350  0.61869600  1
  V  V17  1  0.50000000  0.78363500  0.25000000  1
  V  V18  1  0.26491650  0.37904350  0.88130400  1
  V  V19  1  0.00000000  0.71636500  0.75000000  1
  V  V20  1  0.26491650  0.62095650  0.38130400  1
  V  V21  1  0.73508350  0.62095650  0.11869600  1
  V  V22  1  0.73508350  0.37904350  0.61869600  1
  V  V23  1  0.00000000  0.28363500  0.25000000  1
  Cu  Cu24  1  0.50000000  0.76583400  0.75000000  1
  Cu  Cu25  1  0.50000000  0.23416600  0.25000000  1
  Cu  Cu26  1  0.50000000  0.99318800  0.25000000  1
  Cu  Cu27  1  0.50000000  0.00681200  0.75000000  1
  Cu  Cu28  1  0.00000000  0.26583400  0.75000000  1
  Cu  Cu29  1  0.00000000  0.73416600  0.25000000  1
  Cu  Cu30  1  0.00000000  0.49318800  0.25000000  1
  Cu  Cu31  1  0.00000000  0.50681200  0.75000000  1
  O  O32  1  0.39070000  0.10942100  0.17647900  1
  O  O33  1  0.60930000  0.10942100  0.32352100  1
  O  O34  1  0.60930000  0.89057900  0.82352100  1
  O  O35  1  0.39070000  0.89057900  0.67647900  1
  O  O36  1  0.53863150  0.29251150  0.96665200  1
  O  O37  1  0.46136850  0.29251150  0.53334800  1
  O  O38  1  0.46136850  0.70748850  0.03334800  1
  O  O39  1  0.53863150  0.70748850  0.46665200  1
  O  O40  1  0.21757300  0.81240700  0.81942500  1
  O  O41  1  0.78242700  0.81240700  0.68057500  1
  O  O42  1  0.78242700  0.18759300  0.18057500  1
  O  O43  1  0.21757300  0.18759300  0.31942500  1
  O  O44  1  0.65565050  0.32451550  0.37450300  1
  O  O45  1  0.34434950  0.32451550  0.12549700  1
  O  O46  1  0.34434950  0.67548450  0.62549700  1
  O  O47  1  0.65565050  0.67548450  0.87450300  1
  O  O48  1  0.17960600  0.99769800  0.11099100  1
  O  O49  1  0.82039400  0.99769800  0.38900900  1
  O  O50  1  0.82039400  0.00230200  0.88900900  1
  O  O51  1  0.17960600  0.00230200  0.61099100  1
  O  O52  1  0.39060750  0.11981750  0.73219500  1
  O  O53  1  0.60939250  0.11981750  0.76780500  1
  O  O54  1  0.60939250  0.88018250  0.26780500  1
  O  O55  1  0.39060750  0.88018250  0.23219500  1
  O  O56  1  0.89070000  0.60942100  0.17647900  1
  O  O57  1  0.10930000  0.60942100  0.32352100  1
  O  O58  1  0.10930000  0.39057900  0.82352100  1
  O  O59  1  0.89070000  0.39057900  0.67647900  1
  O  O60  1  0.03863150  0.79251150  0.96665200  1
  O  O61  1  0.96136850  0.79251150  0.53334800  1
  O  O62  1  0.96136850  0.20748850  0.03334800  1
  O  O63  1  0.03863150  0.20748850  0.46665200  1
  O  O64  1  0.71757300  0.31240700  0.81942500  1
  O  O65  1  0.28242700  0.31240700  0.68057500  1
  O  O66  1  0.28242700  0.68759300  0.18057500  1
  O  O67  1  0.71757300  0.68759300  0.31942500  1
  O  O68  1  0.15565050  0.82451550  0.37450300  1
  O  O69  1  0.84434950  0.82451550  0.12549700  1
  O  O70  1  0.84434950  0.17548450  0.62549700  1
  O  O71  1  0.15565050  0.17548450  0.87450300  1
  O  O72  1  0.67960600  0.49769800  0.11099100  1
  O  O73  1  0.32039400  0.49769800  0.38900900  1
  O  O74  1  0.32039400  0.50230200  0.88900900  1
  O  O75  1  0.67960600  0.50230200  0.61099100  1
  O  O76  1  0.89060750  0.61981750  0.73219500  1
  O  O77  1  0.10939250  0.61981750  0.76780500  1
  O  O78  1  0.10939250  0.38018250  0.26780500  1
  O  O79  1  0.89060750  0.38018250  0.23219500  1
