# generated using pymatgen
data_Sr2PrGaCu2O7
_symmetry_space_group_name_H-M   'P 1'
_cell_length_a   5.47978600
_cell_length_b   5.60804000
_cell_length_c   23.32121000
_cell_angle_alpha   90.00000000
_cell_angle_beta   90.00000000
_cell_angle_gamma   90.00000000
_symmetry_Int_Tables_number   1
_chemical_formula_structural   Sr2PrGaCu2O7
_chemical_formula_sum   'Sr8 Pr4 Ga4 Cu8 O28'
_cell_volume   716.68081807
_cell_formula_units_Z   4
loop_
 _symmetry_equiv_pos_site_id
 _symmetry_equiv_pos_as_xyz
  1  'x, y, z'
loop_
 _atom_site_type_symbol
 _atom_site_label
 _atom_site_symmetry_multiplicity
 _atom_site_fract_x
 _atom_site_fract_y
 _atom_site_fract_z
 _atom_site_occupancy
  Sr  Sr0  1  0.00201450  0.51948950  0.65295150  1
  Sr  Sr1  1  0.50201450  0.98051050  0.84704850  1
  Sr  Sr2  1  0.50201450  0.98051050  0.65295150  1
  Sr  Sr3  1  0.00201450  0.51948950  0.84704850  1
  Sr  Sr4  1  0.50201450  0.01948950  0.15295150  1
  Sr  Sr5  1  0.00201450  0.48051050  0.34704850  1
  Sr  Sr6  1  0.00201450  0.48051050  0.15295150  1
  Sr  Sr7  1  0.50201450  0.01948950  0.34704850  1
  Pr  Pr8  1  0.49919000  0.00000000  0.00000000  1
  Pr  Pr9  1  0.99919000  0.50000000  0.00000000  1
  Pr  Pr10  1  0.99919000  0.50000000  0.50000000  1
  Pr  Pr11  1  0.49919000  0.00000000  0.50000000  1
  Ga  Ga12  1  0.53512950  0.42917250  0.75000000  1
  Ga  Ga13  1  0.03512950  0.07082750  0.75000000  1
  Ga  Ga14  1  0.03512950  0.92917250  0.25000000  1
  Ga  Ga15  1  0.53512950  0.57082750  0.25000000  1
  Cu  Cu16  1  0.49854550  0.49854450  0.57614650  1
  Cu  Cu17  1  0.99854550  0.00145550  0.92385350  1
  Cu  Cu18  1  0.99854550  0.00145550  0.57614650  1
  Cu  Cu19  1  0.49854550  0.49854450  0.92385350  1
  Cu  Cu20  1  0.99854550  0.99854450  0.07614650  1
  Cu  Cu21  1  0.49854550  0.50145550  0.42385350  1
  Cu  Cu22  1  0.49854550  0.50145550  0.07614650  1
  Cu  Cu23  1  0.99854550  0.99854450  0.42385350  1
  O  O24  1  0.38310100  0.12123300  0.75000000  1
  O  O25  1  0.88310100  0.37876700  0.75000000  1
  O  O26  1  0.24892700  0.24915300  0.56899100  1
  O  O27  1  0.74892700  0.25084700  0.93100900  1
  O  O28  1  0.74892700  0.25084700  0.56899100  1
  O  O29  1  0.24892700  0.24915300  0.93100900  1
  O  O30  1  0.74939050  0.74859650  0.56586350  1
  O  O31  1  0.24939050  0.75140350  0.93413650  1
  O  O32  1  0.24939050  0.75140350  0.56586350  1
  O  O33  1  0.74939050  0.74859650  0.93413650  1
  O  O34  1  0.96901450  0.95165850  0.67771050  1
  O  O35  1  0.46901450  0.54834150  0.82228950  1
  O  O36  1  0.46901450  0.54834150  0.67771050  1
  O  O37  1  0.96901450  0.95165850  0.82228950  1
  O  O38  1  0.88310100  0.62123300  0.25000000  1
  O  O39  1  0.38310100  0.87876700  0.25000000  1
  O  O40  1  0.74892700  0.74915300  0.06899100  1
  O  O41  1  0.24892700  0.75084700  0.43100900  1
  O  O42  1  0.24892700  0.75084700  0.06899100  1
  O  O43  1  0.74892700  0.74915300  0.43100900  1
  O  O44  1  0.24939050  0.24859650  0.06586350  1
  O  O45  1  0.74939050  0.25140350  0.43413650  1
  O  O46  1  0.74939050  0.25140350  0.06586350  1
  O  O47  1  0.24939050  0.24859650  0.43413650  1
  O  O48  1  0.46901450  0.45165850  0.17771050  1
  O  O49  1  0.96901450  0.04834150  0.32228950  1
  O  O50  1  0.96901450  0.04834150  0.17771050  1
  O  O51  1  0.46901450  0.45165850  0.32228950  1
