# generated using pymatgen
data_Cs4Ni3F10
_symmetry_space_group_name_H-M   'P 1'
_cell_length_a   6.23597600
_cell_length_b   14.62050000
_cell_length_c   13.93145000
_cell_angle_alpha   90.00000000
_cell_angle_beta   90.00000000
_cell_angle_gamma   90.00000000
_symmetry_Int_Tables_number   1
_chemical_formula_structural   Cs4Ni3F10
_chemical_formula_sum   'Cs16 Ni12 F40'
_cell_volume   1270.17330439
_cell_formula_units_Z   4
loop_
 _symmetry_equiv_pos_site_id
 _symmetry_equiv_pos_as_xyz
  1  'x, y, z'
loop_
 _atom_site_type_symbol
 _atom_site_label
 _atom_site_symmetry_multiplicity
 _atom_site_fract_x
 _atom_site_fract_y
 _atom_site_fract_z
 _atom_site_occupancy
  Cs  Cs0  1  0.50000000  0.74613100  0.11290000  1
  Cs  Cs1  1  0.00000000  0.75386900  0.88710000  1
  Cs  Cs2  1  0.50000000  0.75386900  0.61290000  1
  Cs  Cs3  1  0.00000000  0.74613100  0.38710000  1
  Cs  Cs4  1  0.00000000  0.54718400  0.13903100  1
  Cs  Cs5  1  0.50000000  0.95281600  0.86096900  1
  Cs  Cs6  1  0.00000000  0.95281600  0.63903100  1
  Cs  Cs7  1  0.50000000  0.54718400  0.36096900  1
  Cs  Cs8  1  0.00000000  0.24613100  0.11290000  1
  Cs  Cs9  1  0.50000000  0.25386900  0.88710000  1
  Cs  Cs10  1  0.00000000  0.25386900  0.61290000  1
  Cs  Cs11  1  0.50000000  0.24613100  0.38710000  1
  Cs  Cs12  1  0.50000000  0.04718400  0.13903100  1
  Cs  Cs13  1  0.00000000  0.45281600  0.86096900  1
  Cs  Cs14  1  0.50000000  0.45281600  0.63903100  1
  Cs  Cs15  1  0.00000000  0.04718400  0.36096900  1
  Ni  Ni16  1  0.00000000  0.88276900  0.15426500  1
  Ni  Ni17  1  0.50000000  0.61723100  0.84573500  1
  Ni  Ni18  1  0.00000000  0.61723100  0.65426500  1
  Ni  Ni19  1  0.50000000  0.88276900  0.34573500  1
  Ni  Ni20  1  0.50000000  0.50000000  0.00000000  1
  Ni  Ni21  1  0.00000000  0.50000000  0.50000000  1
  Ni  Ni22  1  0.50000000  0.38276900  0.15426500  1
  Ni  Ni23  1  0.00000000  0.11723100  0.84573500  1
  Ni  Ni24  1  0.50000000  0.11723100  0.65426500  1
  Ni  Ni25  1  0.00000000  0.38276900  0.34573500  1
  Ni  Ni26  1  0.00000000  0.00000000  0.00000000  1
  Ni  Ni27  1  0.50000000  0.00000000  0.50000000  1
  F  F28  1  0.71273950  0.59860750  0.96088400  1
  F  F29  1  0.21273950  0.90139250  0.03911600  1
  F  F30  1  0.28726050  0.90139250  0.46088400  1
  F  F31  1  0.78726050  0.59860750  0.53911600  1
  F  F32  1  0.78726050  0.90139250  0.03911600  1
  F  F33  1  0.28726050  0.59860750  0.96088400  1
  F  F34  1  0.21273950  0.59860750  0.53911600  1
  F  F35  1  0.71273950  0.90139250  0.46088400  1
  F  F36  1  0.50000000  0.52670400  0.14349300  1
  F  F37  1  0.00000000  0.97329600  0.85650700  1
  F  F38  1  0.50000000  0.97329600  0.64349300  1
  F  F39  1  0.00000000  0.52670400  0.35650700  1
  F  F40  1  0.00000000  0.74861700  0.15089700  1
  F  F41  1  0.50000000  0.75138300  0.84910300  1
  F  F42  1  0.75000000  0.88873600  0.25000000  1
  F  F43  1  0.25000000  0.61126400  0.75000000  1
  F  F44  1  0.75000000  0.61126400  0.75000000  1
  F  F45  1  0.25000000  0.88873600  0.25000000  1
  F  F46  1  0.50000000  0.74861700  0.34910300  1
  F  F47  1  0.00000000  0.75138300  0.65089700  1
  F  F48  1  0.21273950  0.09860750  0.96088400  1
  F  F49  1  0.71273950  0.40139250  0.03911600  1
  F  F50  1  0.78726050  0.40139250  0.46088400  1
  F  F51  1  0.28726050  0.09860750  0.53911600  1
  F  F52  1  0.28726050  0.40139250  0.03911600  1
  F  F53  1  0.78726050  0.09860750  0.96088400  1
  F  F54  1  0.71273950  0.09860750  0.53911600  1
  F  F55  1  0.21273950  0.40139250  0.46088400  1
  F  F56  1  0.00000000  0.02670400  0.14349300  1
  F  F57  1  0.50000000  0.47329600  0.85650700  1
  F  F58  1  0.00000000  0.47329600  0.64349300  1
  F  F59  1  0.50000000  0.02670400  0.35650700  1
  F  F60  1  0.50000000  0.24861700  0.15089700  1
  F  F61  1  0.00000000  0.25138300  0.84910300  1
  F  F62  1  0.25000000  0.38873600  0.25000000  1
  F  F63  1  0.75000000  0.11126400  0.75000000  1
  F  F64  1  0.25000000  0.11126400  0.75000000  1
  F  F65  1  0.75000000  0.38873600  0.25000000  1
  F  F66  1  0.00000000  0.24861700  0.34910300  1
  F  F67  1  0.50000000  0.25138300  0.65089700  1
