# generated using pymatgen
data_FeSiO3
_symmetry_space_group_name_H-M   'P 1'
_cell_length_a   9.90635015
_cell_length_b   9.26737353
_cell_length_c   5.39201758
_cell_angle_alpha   90.00000000
_cell_angle_beta   109.70911895
_cell_angle_gamma   90.00000000
_symmetry_Int_Tables_number   1
_chemical_formula_structural   FeSiO3
_chemical_formula_sum   'Fe8 Si8 O24'
_cell_volume   466.01900069
_cell_formula_units_Z   8
loop_
 _symmetry_equiv_pos_site_id
 _symmetry_equiv_pos_as_xyz
  1  'x, y, z'
loop_
 _atom_site_type_symbol
 _atom_site_label
 _atom_site_symmetry_multiplicity
 _atom_site_fract_x
 _atom_site_fract_y
 _atom_site_fract_z
 _atom_site_occupancy
  Fe  Fe0  1  0.00000000  0.75447800  0.25000000  1
  Fe  Fe1  1  0.50000000  0.74552200  0.75000000  1
  Fe  Fe2  1  0.50000000  0.90255900  0.25000000  1
  Fe  Fe3  1  0.00000000  0.59744100  0.75000000  1
  Fe  Fe4  1  0.50000000  0.25447800  0.25000000  1
  Fe  Fe5  1  0.00000000  0.24552200  0.75000000  1
  Fe  Fe6  1  0.00000000  0.40255900  0.25000000  1
  Fe  Fe7  1  0.50000000  0.09744100  0.75000000  1
  Si  Si8  1  0.20112850  0.08586450  0.23143100  1
  Si  Si9  1  0.29887150  0.58586450  0.26856900  1
  Si  Si10  1  0.29887150  0.41413550  0.76856900  1
  Si  Si11  1  0.20112850  0.91413550  0.73143100  1
  Si  Si12  1  0.70112850  0.58586450  0.23143100  1
  Si  Si13  1  0.79887150  0.08586450  0.26856900  1
  Si  Si14  1  0.79887150  0.91413550  0.76856900  1
  Si  Si15  1  0.70112850  0.41413550  0.73143100  1
  O  O16  1  0.14623900  0.98135400  0.96545200  1
  O  O17  1  0.35376100  0.48135400  0.53454800  1
  O  O18  1  0.35376100  0.51864600  0.03454800  1
  O  O19  1  0.14623900  0.01864600  0.46545200  1
  O  O20  1  0.62095950  0.73920750  0.13497500  1
  O  O21  1  0.37904050  0.73920750  0.36502500  1
  O  O22  1  0.87904050  0.76079250  0.86502500  1
  O  O23  1  0.12095950  0.76079250  0.63497500  1
  O  O24  1  0.37681650  0.91296950  0.84035900  1
  O  O25  1  0.12318350  0.41296950  0.65964100  1
  O  O26  1  0.12318350  0.58703050  0.15964100  1
  O  O27  1  0.37681650  0.08703050  0.34035900  1
  O  O28  1  0.64623900  0.48135400  0.96545200  1
  O  O29  1  0.85376100  0.98135400  0.53454800  1
  O  O30  1  0.85376100  0.01864600  0.03454800  1
  O  O31  1  0.64623900  0.51864600  0.46545200  1
  O  O32  1  0.12095950  0.23920750  0.13497500  1
  O  O33  1  0.87904050  0.23920750  0.36502500  1
  O  O34  1  0.37904050  0.26079250  0.86502500  1
  O  O35  1  0.62095950  0.26079250  0.63497500  1
  O  O36  1  0.87681650  0.41296950  0.84035900  1
  O  O37  1  0.62318350  0.91296950  0.65964100  1
  O  O38  1  0.62318350  0.08703050  0.15964100  1
  O  O39  1  0.87681650  0.58703050  0.34035900  1
