# generated using pymatgen
data_Sr2MnGaO5
_symmetry_space_group_name_H-M   'P 1'
_cell_length_a   5.44313956
_cell_length_b   5.61414198
_cell_length_c   16.34110843
_cell_angle_alpha   90.00000000
_cell_angle_beta   90.00000000
_cell_angle_gamma   90.00000000
_symmetry_Int_Tables_number   1
_chemical_formula_structural   Sr2MnGaO5
_chemical_formula_sum   'Sr8 Mn4 Ga4 O20'
_cell_volume   499.36071456
_cell_formula_units_Z   4
loop_
 _symmetry_equiv_pos_site_id
 _symmetry_equiv_pos_as_xyz
  1  'x, y, z'
loop_
 _atom_site_type_symbol
 _atom_site_label
 _atom_site_symmetry_multiplicity
 _atom_site_fract_x
 _atom_site_fract_y
 _atom_site_fract_z
 _atom_site_occupancy
  Sr  Sr0  1  0.50129525  0.01604100  0.38727875  1
  Sr  Sr1  1  0.00129525  0.48395900  0.38727875  1
  Sr  Sr2  1  0.00129525  0.48395900  0.11272125  1
  Sr  Sr3  1  0.50129525  0.01604100  0.11272125  1
  Sr  Sr4  1  0.00129525  0.51604100  0.88727875  1
  Sr  Sr5  1  0.50129525  0.98395900  0.88727875  1
  Sr  Sr6  1  0.50129525  0.98395900  0.61272125  1
  Sr  Sr7  1  0.00129525  0.51604100  0.61272125  1
  Mn  Mn8  1  0.50479625  0.50000000  0.50000000  1
  Mn  Mn9  1  0.00479625  0.00000000  0.50000000  1
  Mn  Mn10  1  0.00479625  0.00000000  0.00000000  1
  Mn  Mn11  1  0.50479625  0.50000000  0.00000000  1
  Ga  Ga12  1  0.46696975  0.56813400  0.25000000  1
  Ga  Ga13  1  0.96696975  0.93186600  0.25000000  1
  Ga  Ga14  1  0.96696975  0.06813400  0.75000000  1
  Ga  Ga15  1  0.46696975  0.43186600  0.75000000  1
  O  O16  1  0.12055675  0.62700650  0.25000000  1
  O  O17  1  0.62055675  0.87299350  0.25000000  1
  O  O18  1  0.52605675  0.45030300  0.14571125  1
  O  O19  1  0.02605675  0.04969700  0.35428875  1
  O  O20  1  0.02605675  0.04969700  0.14571125  1
  O  O21  1  0.52605675  0.45030300  0.35428875  1
  O  O22  1  0.25366425  0.74770800  0.49356425  1
  O  O23  1  0.75366425  0.75229200  0.00643575  1
  O  O24  1  0.25366425  0.74770800  0.00643575  1
  O  O25  1  0.75366425  0.75229200  0.49356425  1
  O  O26  1  0.62055675  0.12700650  0.75000000  1
  O  O27  1  0.12055675  0.37299350  0.75000000  1
  O  O28  1  0.02605675  0.95030300  0.64571125  1
  O  O29  1  0.52605675  0.54969700  0.85428875  1
  O  O30  1  0.52605675  0.54969700  0.64571125  1
  O  O31  1  0.02605675  0.95030300  0.85428875  1
  O  O32  1  0.75366425  0.24770800  0.99356425  1
  O  O33  1  0.25366425  0.25229200  0.50643575  1
  O  O34  1  0.75366425  0.24770800  0.50643575  1
  O  O35  1  0.25366425  0.25229200  0.99356425  1
