# generated using pymatgen
data_Cu12As4S13
_symmetry_space_group_name_H-M   'P 1'
_cell_length_a   10.21183000
_cell_length_b   10.21183000
_cell_length_c   10.21183000
_cell_angle_alpha   90.00000000
_cell_angle_beta   90.00000000
_cell_angle_gamma   90.00000000
_symmetry_Int_Tables_number   1
_chemical_formula_structural   Cu12As4S13
_chemical_formula_sum   'Cu24 As8 S26'
_cell_volume   1064.90466369
_cell_formula_units_Z   2
loop_
 _symmetry_equiv_pos_site_id
 _symmetry_equiv_pos_as_xyz
  1  'x, y, z'
loop_
 _atom_site_type_symbol
 _atom_site_label
 _atom_site_symmetry_multiplicity
 _atom_site_fract_x
 _atom_site_fract_y
 _atom_site_fract_z
 _atom_site_occupancy
  Cu  Cu0  1  0.50000000  0.25000000  0.00000000  1
  Cu  Cu1  1  0.25000000  0.00000000  0.50000000  1
  Cu  Cu2  1  0.25000000  0.50000000  0.00000000  1
  Cu  Cu3  1  0.00000000  0.50000000  0.25000000  1
  Cu  Cu4  1  0.50000000  0.00000000  0.25000000  1
  Cu  Cu5  1  0.00000000  0.25000000  0.50000000  1
  Cu  Cu6  1  0.00000000  0.22115300  0.00000000  1
  Cu  Cu7  1  0.77884700  0.00000000  0.00000000  1
  Cu  Cu8  1  0.22115300  0.00000000  0.00000000  1
  Cu  Cu9  1  0.00000000  0.00000000  0.77884700  1
  Cu  Cu10  1  0.00000000  0.00000000  0.22115300  1
  Cu  Cu11  1  0.00000000  0.77884700  0.00000000  1
  Cu  Cu12  1  0.00000000  0.75000000  0.50000000  1
  Cu  Cu13  1  0.75000000  0.50000000  0.00000000  1
  Cu  Cu14  1  0.75000000  0.00000000  0.50000000  1
  Cu  Cu15  1  0.50000000  0.00000000  0.75000000  1
  Cu  Cu16  1  0.00000000  0.50000000  0.75000000  1
  Cu  Cu17  1  0.50000000  0.75000000  0.00000000  1
  Cu  Cu18  1  0.50000000  0.72115300  0.50000000  1
  Cu  Cu19  1  0.27884700  0.50000000  0.50000000  1
  Cu  Cu20  1  0.72115300  0.50000000  0.50000000  1
  Cu  Cu21  1  0.50000000  0.50000000  0.27884700  1
  Cu  Cu22  1  0.50000000  0.50000000  0.72115300  1
  Cu  Cu23  1  0.50000000  0.27884700  0.50000000  1
  As  As24  1  0.26375400  0.26375400  0.73624600  1
  As  As25  1  0.73624600  0.26375400  0.26375400  1
  As  As26  1  0.26375400  0.73624600  0.26375400  1
  As  As27  1  0.23624600  0.23624600  0.23624600  1
  As  As28  1  0.76375400  0.76375400  0.23624600  1
  As  As29  1  0.23624600  0.76375400  0.76375400  1
  As  As30  1  0.76375400  0.23624600  0.76375400  1
  As  As31  1  0.73624600  0.73624600  0.73624600  1
  S  S32  1  0.11960500  0.11960500  0.63961000  1
  S  S33  1  0.88039500  0.11960500  0.36039000  1
  S  S34  1  0.11960500  0.88039500  0.36039000  1
  S  S35  1  0.38039500  0.13961000  0.38039500  1
  S  S36  1  0.88039500  0.36039000  0.11960500  1
  S  S37  1  0.36039000  0.88039500  0.11960500  1
  S  S38  1  0.13961000  0.38039500  0.38039500  1
  S  S39  1  0.63961000  0.11960500  0.11960500  1
  S  S40  1  0.11960500  0.63961000  0.11960500  1
  S  S41  1  0.11960500  0.36039000  0.88039500  1
  S  S42  1  0.36039000  0.11960500  0.88039500  1
  S  S43  1  0.38039500  0.38039500  0.13961000  1
  S  S44  1  0.00000000  0.00000000  0.00000000  1
  S  S45  1  0.61960500  0.61960500  0.13961000  1
  S  S46  1  0.38039500  0.61960500  0.86039000  1
  S  S47  1  0.61960500  0.38039500  0.86039000  1
  S  S48  1  0.88039500  0.63961000  0.88039500  1
  S  S49  1  0.38039500  0.86039000  0.61960500  1
  S  S50  1  0.86039000  0.38039500  0.61960500  1
  S  S51  1  0.63961000  0.88039500  0.88039500  1
  S  S52  1  0.13961000  0.61960500  0.61960500  1
  S  S53  1  0.61960500  0.13961000  0.61960500  1
  S  S54  1  0.61960500  0.86039000  0.38039500  1
  S  S55  1  0.86039000  0.61960500  0.38039500  1
  S  S56  1  0.88039500  0.88039500  0.63961000  1
  S  S57  1  0.50000000  0.50000000  0.50000000  1
