# generated using pymatgen
data_Tl2Mo9S11
_symmetry_space_group_name_H-M   'P 1'
_cell_length_a   9.40823774
_cell_length_b   9.40823774
_cell_length_c   35.60245022
_cell_angle_alpha   90.00000000
_cell_angle_beta   90.00000000
_cell_angle_gamma   120.00000000
_symmetry_Int_Tables_number   1
_chemical_formula_structural   Tl2Mo9S11
_chemical_formula_sum   'Tl12 Mo54 S66'
_cell_volume   2729.14799016
_cell_formula_units_Z   6
loop_
 _symmetry_equiv_pos_site_id
 _symmetry_equiv_pos_as_xyz
  1  'x, y, z'
loop_
 _atom_site_type_symbol
 _atom_site_label
 _atom_site_symmetry_multiplicity
 _atom_site_fract_x
 _atom_site_fract_y
 _atom_site_fract_z
 _atom_site_occupancy
  Tl  Tl0  1  0.00000000  0.00000000  0.33219100  1
  Tl  Tl1  1  0.66666667  0.33333333  0.10345533  1
  Tl  Tl2  1  0.00000000  0.00000000  0.22987800  1
  Tl  Tl3  1  0.66666667  0.33333333  0.00114233  1
  Tl  Tl4  1  0.66666667  0.33333333  0.66552433  1
  Tl  Tl5  1  0.33333333  0.66666667  0.43678867  1
  Tl  Tl6  1  0.66666667  0.33333333  0.56321133  1
  Tl  Tl7  1  0.33333333  0.66666667  0.33447567  1
  Tl  Tl8  1  0.33333333  0.66666667  0.99885767  1
  Tl  Tl9  1  0.00000000  0.00000000  0.77012200  1
  Tl  Tl10  1  0.33333333  0.66666667  0.89654467  1
  Tl  Tl11  1  0.00000000  0.00000000  0.66780900  1
  Mo  Mo12  1  0.34719967  0.84177933  0.19953333  1
  Mo  Mo13  1  0.15676367  0.98479833  0.09574633  1
  Mo  Mo14  1  0.83972033  0.01069067  0.03067267  1
  Mo  Mo15  1  0.65146500  0.16136800  0.23758700  1
  Mo  Mo16  1  0.50844600  0.82791300  0.13380000  1
  Mo  Mo17  1  0.82694633  0.32264267  0.30266067  1
  Mo  Mo18  1  0.17097033  0.16027967  0.03067267  1
  Mo  Mo19  1  0.98930933  0.82902967  0.03067267  1
  Mo  Mo20  1  0.83863200  0.49009700  0.23758700  1
  Mo  Mo21  1  0.49569633  0.17305367  0.30266067  1
  Mo  Mo22  1  0.82803467  0.84323633  0.09574633  1
  Mo  Mo23  1  0.67735733  0.50430367  0.30266067  1
  Mo  Mo24  1  0.15822067  0.50542033  0.19953333  1
  Mo  Mo25  1  0.49457967  0.65280033  0.19953333  1
  Mo  Mo26  1  0.17208700  0.68053300  0.13380000  1
  Mo  Mo27  1  0.50990300  0.34853500  0.23758700  1
  Mo  Mo28  1  0.01520167  0.17196533  0.09574633  1
  Mo  Mo29  1  0.31946700  0.49155400  0.13380000  1
  Mo  Mo30  1  0.01386633  0.17511267  0.53286667  1
  Mo  Mo31  1  0.82343033  0.31813167  0.42907967  1
  Mo  Mo32  1  0.50638700  0.34402400  0.36400600  1
  Mo  Mo33  1  0.31813167  0.49470133  0.57092033  1
  Mo  Mo34  1  0.17511267  0.16124633  0.46713333  1
  Mo  Mo35  1  0.49361300  0.65597600  0.63599400  1
  Mo  Mo36  1  0.83763700  0.49361300  0.36400600  1
  Mo  Mo37  1  0.65597600  0.16236300  0.36400600  1
  Mo  Mo38  1  0.50529867  0.82343033  0.57092033  1
  Mo  Mo39  1  0.16236300  0.50638700  0.63599400  1
  Mo  Mo40  1  0.49470133  0.17656967  0.42907967  1
  Mo  Mo41  1  0.34402400  0.83763700  0.63599400  1
  Mo  Mo42  1  0.82488733  0.83875367  0.53286667  1
  Mo  Mo43  1  0.16124633  0.98613367  0.53286667  1
  Mo  Mo44  1  0.83875367  0.01386633  0.46713333  1
  Mo  Mo45  1  0.17656967  0.68186833  0.57092033  1
  Mo  Mo46  1  0.68186833  0.50529867  0.42907967  1
  Mo  Mo47  1  0.98613367  0.82488733  0.46713333  1
  Mo  Mo48  1  0.68053300  0.50844600  0.86620000  1
  Mo  Mo49  1  0.49009700  0.65146500  0.76241300  1
  Mo  Mo50  1  0.17305367  0.67735733  0.69733933  1
  Mo  Mo51  1  0.98479833  0.82803467  0.90425367  1
  Mo  Mo52  1  0.84177933  0.49457967  0.80046667  1
  Mo  Mo53  1  0.16027967  0.98930933  0.96932733  1
  Mo  Mo54  1  0.50430367  0.82694633  0.69733933  1
  Mo  Mo55  1  0.32264267  0.49569633  0.69733933  1
  Mo  Mo56  1  0.17196533  0.15676367  0.90425367  1
  Mo  Mo57  1  0.82902967  0.83972033  0.96932733  1
  Mo  Mo58  1  0.16136800  0.50990300  0.76241300  1
  Mo  Mo59  1  0.01069067  0.17097033  0.96932733  1
  Mo  Mo60  1  0.49155400  0.17208700  0.86620000  1
  Mo  Mo61  1  0.82791300  0.31946700  0.86620000  1
  Mo  Mo62  1  0.50542033  0.34719967  0.80046667  1
  Mo  Mo63  1  0.84323633  0.01520167  0.90425367  1
  Mo  Mo64  1  0.34853500  0.83863200  0.76241300  1
  Mo  Mo65  1  0.65280033  0.15822067  0.80046667  1
  S  S66  1  0.33333333  0.66666667  0.25102967  1
  S  S67  1  0.31383633  0.28809067  0.08888167  1
  S  S68  1  0.69241233  0.64716967  0.24445167  1
  S  S69  1  0.64781900  0.01933500  0.30109700  1
  S  S70  1  0.64709667  0.95108533  0.19326033  1
  S  S71  1  0.71190933  0.02574567  0.08888167  1
  S  S72  1  0.29515067  0.98115233  0.03223633  1
  S  S73  1  0.33333333  0.66666667  0.08230367  1
  S  S74  1  0.66666667  0.33333333  0.18608733  1
  S  S75  1  0.04891467  0.69601133  0.19326033  1
  S  S76  1  0.97425433  0.68616367  0.08888167  1
  S  S77  1  0.98066500  0.62848400  0.30109700  1
  S  S78  1  0.35283033  0.04524267  0.24445167  1
  S  S79  1  0.00000000  0.00000000  0.14724600  1
  S  S80  1  0.61775200  0.63732200  0.14007300  1
  S  S81  1  0.01957000  0.38224800  0.14007300  1
  S  S82  1  0.30398867  0.35290333  0.19326033  1
  S  S83  1  0.37151600  0.35218100  0.30109700  1
  S  S84  1  0.01884767  0.31399833  0.03223633  1
  S  S85  1  0.68600167  0.70484933  0.03223633  1
  S  S86  1  0.95475733  0.30758767  0.24445167  1
  S  S87  1  0.36267800  0.98043000  0.14007300  1
  S  S88  1  0.00000000  0.00000000  0.58436300  1
  S  S89  1  0.98050300  0.62142400  0.42221500  1
  S  S90  1  0.35907900  0.98050300  0.57778500  1
  S  S91  1  0.31448567  0.35266833  0.63443033  1
  S  S92  1  0.31376333  0.28441867  0.52659367  1
  S  S93  1  0.37857600  0.35907900  0.42221500  1
  S  S94  1  0.96181733  0.31448567  0.36556967  1
  S  S95  1  0.00000000  0.00000000  0.41563700  1
  S  S96  1  0.33333333  0.66666667  0.51942067  1
  S  S97  1  0.71558133  0.02934467  0.52659367  1
  S  S98  1  0.64092100  0.01949700  0.42221500  1
  S  S99  1  0.64733167  0.96181733  0.63443033  1
  S  S100  1  0.01949700  0.37857600  0.57778500  1
  S  S101  1  0.66666667  0.33333333  0.48057933  1
  S  S102  1  0.28441867  0.97065533  0.47340633  1
  S  S103  1  0.68623667  0.71558133  0.47340633  1
  S  S104  1  0.97065533  0.68623667  0.52659367  1
  S  S105  1  0.03818267  0.68551433  0.63443033  1
  S  S106  1  0.68551433  0.64733167  0.36556967  1
  S  S107  1  0.35266833  0.03818267  0.36556967  1
  S  S108  1  0.62142400  0.64092100  0.57778500  1
  S  S109  1  0.02934467  0.31376333  0.47340633  1
  S  S110  1  0.66666667  0.33333333  0.91769633  1
  S  S111  1  0.64716967  0.95475733  0.75554833  1
  S  S112  1  0.02574567  0.31383633  0.91111833  1
  S  S113  1  0.98115233  0.68600167  0.96776367  1
  S  S114  1  0.98043000  0.61775200  0.85992700  1
  S  S115  1  0.04524267  0.69241233  0.75554833  1
  S  S116  1  0.62848400  0.64781900  0.69890300  1
  S  S117  1  0.66666667  0.33333333  0.74897033  1
  S  S118  1  0.00000000  0.00000000  0.85275400  1
  S  S119  1  0.38224800  0.36267800  0.85992700  1
  S  S120  1  0.30758767  0.35283033  0.75554833  1
  S  S121  1  0.31399833  0.29515067  0.96776367  1
  S  S122  1  0.68616367  0.71190933  0.91111833  1
  S  S123  1  0.33333333  0.66666667  0.81391267  1
  S  S124  1  0.95108533  0.30398867  0.80673967  1
  S  S125  1  0.35290333  0.04891467  0.80673967  1
  S  S126  1  0.63732200  0.01957000  0.85992700  1
  S  S127  1  0.70484933  0.01884767  0.96776367  1
  S  S128  1  0.35218100  0.98066500  0.69890300  1
  S  S129  1  0.01933500  0.37151600  0.69890300  1
  S  S130  1  0.28809067  0.97425433  0.91111833  1
  S  S131  1  0.69601133  0.64709667  0.80673967  1
