# generated using pymatgen
data_Cr3CuO8
_symmetry_space_group_name_H-M   'P 1'
_cell_length_a   8.38272000
_cell_length_b   5.56202000
_cell_length_c   6.60719874
_cell_angle_alpha   90.00000000
_cell_angle_beta   94.26636950
_cell_angle_gamma   90.00000000
_symmetry_Int_Tables_number   1
_chemical_formula_structural   Cr3CuO8
_chemical_formula_sum   'Cr6 Cu2 O16'
_cell_volume   307.20604939
_cell_formula_units_Z   2
loop_
 _symmetry_equiv_pos_site_id
 _symmetry_equiv_pos_as_xyz
  1  'x, y, z'
loop_
 _atom_site_type_symbol
 _atom_site_label
 _atom_site_symmetry_multiplicity
 _atom_site_fract_x
 _atom_site_fract_y
 _atom_site_fract_z
 _atom_site_occupancy
  Cr  Cr0  1  0.65323500  0.00000000  0.73183600  1
  Cr  Cr1  1  0.34676500  0.00000000  0.26816400  1
  Cr  Cr2  1  0.00000000  0.00000000  0.50000000  1
  Cr  Cr3  1  0.15323500  0.50000000  0.73183600  1
  Cr  Cr4  1  0.84676500  0.50000000  0.26816400  1
  Cr  Cr5  1  0.50000000  0.50000000  0.50000000  1
  Cu  Cu6  1  0.00000000  0.00000000  0.00000000  1
  Cu  Cu7  1  0.50000000  0.50000000  0.00000000  1
  O  O8  1  0.46274950  0.25465250  0.27501000  1
  O  O9  1  0.77207300  0.00000000  0.94127100  1
  O  O10  1  0.46274950  0.74534750  0.27501000  1
  O  O11  1  0.23278000  0.00000000  0.46315500  1
  O  O12  1  0.53725050  0.25465250  0.72499000  1
  O  O13  1  0.76722000  0.00000000  0.53684500  1
  O  O14  1  0.53725050  0.74534750  0.72499000  1
  O  O15  1  0.22792700  0.00000000  0.05872900  1
  O  O16  1  0.96274950  0.75465250  0.27501000  1
  O  O17  1  0.27207300  0.50000000  0.94127100  1
  O  O18  1  0.96274950  0.24534750  0.27501000  1
  O  O19  1  0.73278000  0.50000000  0.46315500  1
  O  O20  1  0.03725050  0.75465250  0.72499000  1
  O  O21  1  0.26722000  0.50000000  0.53684500  1
  O  O22  1  0.03725050  0.24534750  0.72499000  1
  O  O23  1  0.72792700  0.50000000  0.05872900  1
