# generated using pymatgen
data_Sc8Te3
_symmetry_space_group_name_H-M   'P 1'
_cell_length_a   29.13378600
_cell_length_b   3.85377000
_cell_length_c   22.50475294
_cell_angle_alpha   90.00000000
_cell_angle_beta   122.63573571
_cell_angle_gamma   90.00000000
_symmetry_Int_Tables_number   1
_chemical_formula_structural   Sc8Te3
_chemical_formula_sum   'Sc64 Te24'
_cell_volume   2127.79110200
_cell_formula_units_Z   8
loop_
 _symmetry_equiv_pos_site_id
 _symmetry_equiv_pos_as_xyz
  1  'x, y, z'
loop_
 _atom_site_type_symbol
 _atom_site_label
 _atom_site_symmetry_multiplicity
 _atom_site_fract_x
 _atom_site_fract_y
 _atom_site_fract_z
 _atom_site_occupancy
  Sc  Sc0  1  0.09187500  0.50000000  0.41068900  1
  Sc  Sc1  1  0.90812500  0.50000000  0.58931100  1
  Sc  Sc2  1  0.22329500  0.50000000  0.60230300  1
  Sc  Sc3  1  0.77670500  0.50000000  0.39769700  1
  Sc  Sc4  1  0.19730400  0.50000000  0.75434900  1
  Sc  Sc5  1  0.80269600  0.50000000  0.24565100  1
  Sc  Sc6  1  0.07375900  0.50000000  0.56840000  1
  Sc  Sc7  1  0.92624100  0.50000000  0.43160000  1
  Sc  Sc8  1  0.56223800  0.00000000  0.05330700  1
  Sc  Sc9  1  0.43776200  0.00000000  0.94669300  1
  Sc  Sc10  1  0.99184600  0.00000000  0.08707200  1
  Sc  Sc11  1  0.00815400  0.00000000  0.91292800  1
  Sc  Sc12  1  0.06140400  0.00000000  0.28498200  1
  Sc  Sc13  1  0.93859600  0.00000000  0.71501800  1
  Sc  Sc14  1  0.20131600  0.00000000  0.47027100  1
  Sc  Sc15  1  0.79868400  0.00000000  0.52972900  1
  Sc  Sc16  1  0.28728600  0.00000000  0.86644400  1
  Sc  Sc17  1  0.71271400  0.00000000  0.13355600  1
  Sc  Sc18  1  0.82873800  0.50000000  0.65538300  1
  Sc  Sc19  1  0.17126200  0.50000000  0.34461700  1
  Sc  Sc20  1  0.86600400  0.50000000  0.06248300  1
  Sc  Sc21  1  0.13399600  0.50000000  0.93751700  1
  Sc  Sc22  1  0.03829700  0.50000000  0.71391300  1
  Sc  Sc23  1  0.96170300  0.50000000  0.28608700  1
  Sc  Sc24  1  0.16744500  0.00000000  0.84778100  1
  Sc  Sc25  1  0.83255500  0.00000000  0.15221900  1
  Sc  Sc26  1  0.34921700  0.50000000  0.80969100  1
  Sc  Sc27  1  0.65078300  0.50000000  0.19030900  1
  Sc  Sc28  1  0.26079500  0.50000000  0.95760600  1
  Sc  Sc29  1  0.73920500  0.50000000  0.04239400  1
  Sc  Sc30  1  0.01180600  0.00000000  0.43251300  1
  Sc  Sc31  1  0.98819400  0.00000000  0.56748700  1
  Sc  Sc32  1  0.59187500  0.00000000  0.41068900  1
  Sc  Sc33  1  0.40812500  0.00000000  0.58931100  1
  Sc  Sc34  1  0.72329500  0.00000000  0.60230300  1
  Sc  Sc35  1  0.27670500  0.00000000  0.39769700  1
  Sc  Sc36  1  0.69730400  0.00000000  0.75434900  1
  Sc  Sc37  1  0.30269600  0.00000000  0.24565100  1
  Sc  Sc38  1  0.57375900  0.00000000  0.56840000  1
  Sc  Sc39  1  0.42624100  0.00000000  0.43160000  1
  Sc  Sc40  1  0.06223800  0.50000000  0.05330700  1
  Sc  Sc41  1  0.93776200  0.50000000  0.94669300  1
  Sc  Sc42  1  0.49184600  0.50000000  0.08707200  1
  Sc  Sc43  1  0.50815400  0.50000000  0.91292800  1
  Sc  Sc44  1  0.56140400  0.50000000  0.28498200  1
  Sc  Sc45  1  0.43859600  0.50000000  0.71501800  1
  Sc  Sc46  1  0.70131600  0.50000000  0.47027100  1
  Sc  Sc47  1  0.29868400  0.50000000  0.52972900  1
  Sc  Sc48  1  0.78728600  0.50000000  0.86644400  1
  Sc  Sc49  1  0.21271400  0.50000000  0.13355600  1
  Sc  Sc50  1  0.32873800  0.00000000  0.65538300  1
  Sc  Sc51  1  0.67126200  0.00000000  0.34461700  1
  Sc  Sc52  1  0.36600400  0.00000000  0.06248300  1
  Sc  Sc53  1  0.63399600  0.00000000  0.93751700  1
  Sc  Sc54  1  0.53829700  0.00000000  0.71391300  1
  Sc  Sc55  1  0.46170300  0.00000000  0.28608700  1
  Sc  Sc56  1  0.66744500  0.50000000  0.84778100  1
  Sc  Sc57  1  0.33255500  0.50000000  0.15221900  1
  Sc  Sc58  1  0.84921700  0.00000000  0.80969100  1
  Sc  Sc59  1  0.15078300  0.00000000  0.19030900  1
  Sc  Sc60  1  0.76079500  0.00000000  0.95760600  1
  Sc  Sc61  1  0.23920500  0.00000000  0.04239400  1
  Sc  Sc62  1  0.51180600  0.50000000  0.43251300  1
  Sc  Sc63  1  0.48819400  0.50000000  0.56748700  1
  Te  Te64  1  0.25937100  0.00000000  0.72041900  1
  Te  Te65  1  0.74062900  0.00000000  0.27958100  1
  Te  Te66  1  0.10457500  0.00000000  0.68615100  1
  Te  Te67  1  0.89542500  0.00000000  0.31384900  1
  Te  Te68  1  0.94373400  0.00000000  0.17340600  1
  Te  Te69  1  0.05626600  0.00000000  0.82659400  1
  Te  Te70  1  0.07419300  0.50000000  0.19272800  1
  Te  Te71  1  0.92580700  0.50000000  0.80727200  1
  Te  Te72  1  0.63027200  0.50000000  0.03803800  1
  Te  Te73  1  0.36972800  0.50000000  0.96196200  1
  Te  Te74  1  0.13124300  0.00000000  0.53074400  1
  Te  Te75  1  0.86875700  0.00000000  0.46925600  1
  Te  Te76  1  0.75937100  0.50000000  0.72041900  1
  Te  Te77  1  0.24062900  0.50000000  0.27958100  1
  Te  Te78  1  0.60457500  0.50000000  0.68615100  1
  Te  Te79  1  0.39542500  0.50000000  0.31384900  1
  Te  Te80  1  0.44373400  0.50000000  0.17340600  1
  Te  Te81  1  0.55626600  0.50000000  0.82659400  1
  Te  Te82  1  0.57419300  0.00000000  0.19272800  1
  Te  Te83  1  0.42580700  0.00000000  0.80727200  1
  Te  Te84  1  0.13027200  0.00000000  0.03803800  1
  Te  Te85  1  0.86972800  0.00000000  0.96196200  1
  Te  Te86  1  0.63124300  0.50000000  0.53074400  1
  Te  Te87  1  0.36875700  0.50000000  0.46925600  1
