# generated using pymatgen
data_La4B4Br5
_symmetry_space_group_name_H-M   'P 1'
_cell_length_a   18.44925000
_cell_length_b   4.32460400
_cell_length_c   19.64520548
_cell_angle_alpha   90.00000000
_cell_angle_beta   116.38625859
_cell_angle_gamma   90.00000000
_symmetry_Int_Tables_number   1
_chemical_formula_structural   La4B4Br5
_chemical_formula_sum   'La16 B16 Br20'
_cell_volume   1404.11151984
_cell_formula_units_Z   4
loop_
 _symmetry_equiv_pos_site_id
 _symmetry_equiv_pos_as_xyz
  1  'x, y, z'
loop_
 _atom_site_type_symbol
 _atom_site_label
 _atom_site_symmetry_multiplicity
 _atom_site_fract_x
 _atom_site_fract_y
 _atom_site_fract_z
 _atom_site_occupancy
  La  La0  1  0.60957400  0.00000000  0.27291400  1
  La  La1  1  0.39042600  0.00000000  0.72708600  1
  La  La2  1  0.49436500  0.50000000  0.37134400  1
  La  La3  1  0.50563500  0.50000000  0.62865600  1
  La  La4  1  0.31467300  0.00000000  0.19834100  1
  La  La5  1  0.68532700  0.00000000  0.80165900  1
  La  La6  1  0.43056900  0.50000000  0.09000900  1
  La  La7  1  0.56943100  0.50000000  0.90999100  1
  La  La8  1  0.10957400  0.50000000  0.27291400  1
  La  La9  1  0.89042600  0.50000000  0.72708600  1
  La  La10  1  0.99436500  0.00000000  0.37134400  1
  La  La11  1  0.00563500  0.00000000  0.62865600  1
  La  La12  1  0.81467300  0.50000000  0.19834100  1
  La  La13  1  0.18532700  0.50000000  0.80165900  1
  La  La14  1  0.93056900  0.00000000  0.09000900  1
  La  La15  1  0.06943100  0.00000000  0.90999100  1
  B  B16  1  0.46066300  0.31491600  0.23031800  1
  B  B17  1  0.53933700  0.31491600  0.76968200  1
  B  B18  1  0.53933700  0.68508400  0.76968200  1
  B  B19  1  0.46066300  0.68508400  0.23031800  1
  B  B20  1  0.44861000  0.00000000  0.17671600  1
  B  B21  1  0.55139000  0.00000000  0.82328400  1
  B  B22  1  0.47266200  0.00000000  0.28454700  1
  B  B23  1  0.52733800  0.00000000  0.71545300  1
  B  B24  1  0.96066300  0.81491600  0.23031800  1
  B  B25  1  0.03933700  0.81491600  0.76968200  1
  B  B26  1  0.03933700  0.18508400  0.76968200  1
  B  B27  1  0.96066300  0.18508400  0.23031800  1
  B  B28  1  0.94861000  0.50000000  0.17671600  1
  B  B29  1  0.05139000  0.50000000  0.82328400  1
  B  B30  1  0.97266200  0.50000000  0.28454700  1
  B  B31  1  0.02733800  0.50000000  0.71545300  1
  Br  Br32  1  0.67251000  0.50000000  0.39936100  1
  Br  Br33  1  0.32749000  0.50000000  0.60063900  1
  Br  Br34  1  0.12571300  0.00000000  0.16866900  1
  Br  Br35  1  0.87428700  0.00000000  0.83133100  1
  Br  Br36  1  0.24342400  0.50000000  0.07301100  1
  Br  Br37  1  0.75657600  0.50000000  0.92698900  1
  Br  Br38  1  0.30623100  0.50000000  0.31118000  1
  Br  Br39  1  0.69376900  0.50000000  0.68882000  1
  Br  Br40  1  0.50000000  0.00000000  0.50000000  1
  Br  Br41  1  0.00000000  0.50000000  0.00000000  1
  Br  Br42  1  0.17251000  0.00000000  0.39936100  1
  Br  Br43  1  0.82749000  0.00000000  0.60063900  1
  Br  Br44  1  0.62571300  0.50000000  0.16866900  1
  Br  Br45  1  0.37428700  0.50000000  0.83133100  1
  Br  Br46  1  0.74342400  0.00000000  0.07301100  1
  Br  Br47  1  0.25657600  0.00000000  0.92698900  1
  Br  Br48  1  0.80623100  0.00000000  0.31118000  1
  Br  Br49  1  0.19376900  0.00000000  0.68882000  1
  Br  Br50  1  0.00000000  0.50000000  0.50000000  1
  Br  Br51  1  0.50000000  0.00000000  0.00000000  1
