# generated using pymatgen
data_Mn2O2F9
_symmetry_space_group_name_H-M   'P 1'
_cell_length_a   17.73122200
_cell_length_b   8.73109000
_cell_length_c   9.31976569
_cell_angle_alpha   90.00000000
_cell_angle_beta   100.25399748
_cell_angle_gamma   90.00000000
_symmetry_Int_Tables_number   1
_chemical_formula_structural   Mn2O2F9
_chemical_formula_sum   'Mn16 O16 F72'
_cell_volume   1419.77559217
_cell_formula_units_Z   8
loop_
 _symmetry_equiv_pos_site_id
 _symmetry_equiv_pos_as_xyz
  1  'x, y, z'
loop_
 _atom_site_type_symbol
 _atom_site_label
 _atom_site_symmetry_multiplicity
 _atom_site_fract_x
 _atom_site_fract_y
 _atom_site_fract_z
 _atom_site_occupancy
  Mn  Mn0  1  0.92346550  0.24581150  0.94355100  1
  Mn  Mn1  1  0.87585700  0.86539300  0.06164800  1
  Mn  Mn2  1  0.62414300  0.36539300  0.43835200  1
  Mn  Mn3  1  0.62414300  0.63460700  0.93835200  1
  Mn  Mn4  1  0.87585700  0.13460700  0.56164800  1
  Mn  Mn5  1  0.92346550  0.75418850  0.44355100  1
  Mn  Mn6  1  0.57653450  0.25418850  0.05644900  1
  Mn  Mn7  1  0.57653450  0.74581150  0.55644900  1
  Mn  Mn8  1  0.42346550  0.74581150  0.94355100  1
  Mn  Mn9  1  0.37585700  0.36539300  0.06164800  1
  Mn  Mn10  1  0.12414300  0.86539300  0.43835200  1
  Mn  Mn11  1  0.12414300  0.13460700  0.93835200  1
  Mn  Mn12  1  0.37585700  0.63460700  0.56164800  1
  Mn  Mn13  1  0.42346550  0.25418850  0.44355100  1
  Mn  Mn14  1  0.07653450  0.75418850  0.05644900  1
  Mn  Mn15  1  0.07653450  0.24581150  0.55644900  1
  O  O16  1  0.81113700  0.45683900  0.28279800  1
  O  O17  1  0.68886300  0.95683900  0.21720200  1
  O  O18  1  0.68886300  0.04316100  0.71720200  1
  O  O19  1  0.81113700  0.54316100  0.78279800  1
  O  O20  1  0.80941650  0.37766450  0.18092000  1
  O  O21  1  0.69058350  0.87766450  0.31908000  1
  O  O22  1  0.69058350  0.12233550  0.81908000  1
  O  O23  1  0.80941650  0.62233550  0.68092000  1
  O  O24  1  0.31113700  0.95683900  0.28279800  1
  O  O25  1  0.18886300  0.45683900  0.21720200  1
  O  O26  1  0.18886300  0.54316100  0.71720200  1
  O  O27  1  0.31113700  0.04316100  0.78279800  1
  O  O28  1  0.30941650  0.87766450  0.18092000  1
  O  O29  1  0.19058350  0.37766450  0.31908000  1
  O  O30  1  0.19058350  0.62233550  0.81908000  1
  O  O31  1  0.30941650  0.12233550  0.68092000  1
  F  F32  1  0.67834100  0.25849800  0.08950700  1
  F  F33  1  0.83260400  0.68691000  0.08362100  1
  F  F34  1  0.66739600  0.18691000  0.41637900  1
  F  F35  1  0.66739600  0.81309000  0.91637900  1
  F  F36  1  0.83260400  0.31309000  0.58362100  1
  F  F37  1  0.92591650  0.57460950  0.34886100  1
  F  F38  1  0.57408350  0.07460950  0.15113900  1
  F  F39  1  0.57408350  0.92539050  0.65113900  1
  F  F40  1  0.96608200  0.24467200  0.52226300  1
  F  F41  1  0.53391800  0.74467200  0.97773700  1
  F  F42  1  0.53391800  0.25532800  0.47773700  1
  F  F43  1  0.96608200  0.75532800  0.02226300  1
  F  F44  1  0.92503300  0.13328400  0.76806200  1
  F  F45  1  0.57496700  0.63328400  0.73193800  1
  F  F46  1  0.57496700  0.36671600  0.23193800  1
  F  F47  1  0.92503300  0.86671600  0.26806200  1
  F  F48  1  0.82165900  0.24150200  0.91049300  1
  F  F49  1  0.67834100  0.74150200  0.58950700  1
  F  F50  1  0.92591650  0.42539050  0.84886100  1
  F  F51  1  0.82165900  0.75849800  0.41049300  1
  F  F52  1  0.79745750  0.02459550  0.60364500  1
  F  F53  1  0.70254250  0.52459550  0.89635500  1
  F  F54  1  0.92609750  0.65680850  0.61526000  1
  F  F55  1  0.79745750  0.97540450  0.10364500  1
  F  F56  1  0.84070550  0.12792950  0.37216700  1
  F  F57  1  0.65929450  0.62792950  0.12783300  1
  F  F58  1  0.65929450  0.37207050  0.62783300  1
  F  F59  1  0.84070550  0.87207050  0.87216700  1
  F  F60  1  0.93220000  0.05517600  0.04825600  1
  F  F61  1  0.56780000  0.55517600  0.45174400  1
  F  F62  1  0.56780000  0.44482400  0.95174400  1
  F  F63  1  0.93220000  0.94482400  0.54825600  1
  F  F64  1  0.92609750  0.34319150  0.11526000  1
  F  F65  1  0.57390250  0.84319150  0.38474000  1
  F  F66  1  0.57390250  0.15680850  0.88474000  1
  F  F67  1  0.70254250  0.47540450  0.39635500  1
  F  F68  1  0.17834100  0.75849800  0.08950700  1
  F  F69  1  0.33260400  0.18691000  0.08362100  1
  F  F70  1  0.16739600  0.68691000  0.41637900  1
  F  F71  1  0.16739600  0.31309000  0.91637900  1
  F  F72  1  0.33260400  0.81309000  0.58362100  1
  F  F73  1  0.42591650  0.07460950  0.34886100  1
  F  F74  1  0.07408350  0.57460950  0.15113900  1
  F  F75  1  0.07408350  0.42539050  0.65113900  1
  F  F76  1  0.46608200  0.74467200  0.52226300  1
  F  F77  1  0.03391800  0.24467200  0.97773700  1
  F  F78  1  0.03391800  0.75532800  0.47773700  1
  F  F79  1  0.46608200  0.25532800  0.02226300  1
  F  F80  1  0.42503300  0.63328400  0.76806200  1
  F  F81  1  0.07496700  0.13328400  0.73193800  1
  F  F82  1  0.07496700  0.86671600  0.23193800  1
  F  F83  1  0.42503300  0.36671600  0.26806200  1
  F  F84  1  0.32165900  0.74150200  0.91049300  1
  F  F85  1  0.17834100  0.24150200  0.58950700  1
  F  F86  1  0.42591650  0.92539050  0.84886100  1
  F  F87  1  0.32165900  0.25849800  0.41049300  1
  F  F88  1  0.29745750  0.52459550  0.60364500  1
  F  F89  1  0.20254250  0.02459550  0.89635500  1
  F  F90  1  0.42609750  0.15680850  0.61526000  1
  F  F91  1  0.29745750  0.47540450  0.10364500  1
  F  F92  1  0.34070550  0.62792950  0.37216700  1
  F  F93  1  0.15929450  0.12792950  0.12783300  1
  F  F94  1  0.15929450  0.87207050  0.62783300  1
  F  F95  1  0.34070550  0.37207050  0.87216700  1
  F  F96  1  0.43220000  0.55517600  0.04825600  1
  F  F97  1  0.06780000  0.05517600  0.45174400  1
  F  F98  1  0.06780000  0.94482400  0.95174400  1
  F  F99  1  0.43220000  0.44482400  0.54825600  1
  F  F100  1  0.42609750  0.84319150  0.11526000  1
  F  F101  1  0.07390250  0.34319150  0.38474000  1
  F  F102  1  0.07390250  0.65680850  0.88474000  1
  F  F103  1  0.20254250  0.97540450  0.39635500  1
