# generated using pymatgen
data_Fe2PO4F
_symmetry_space_group_name_H-M   'P 1'
_cell_length_a   13.17783400
_cell_length_b   6.60436200
_cell_length_c   9.98176777
_cell_angle_alpha   90.00000000
_cell_angle_beta   118.21172432
_cell_angle_gamma   90.00000000
_symmetry_Int_Tables_number   1
_chemical_formula_structural   Fe2PO4F
_chemical_formula_sum   'Fe16 P8 O32 F8'
_cell_volume   765.52640007
_cell_formula_units_Z   8
loop_
 _symmetry_equiv_pos_site_id
 _symmetry_equiv_pos_as_xyz
  1  'x, y, z'
loop_
 _atom_site_type_symbol
 _atom_site_label
 _atom_site_symmetry_multiplicity
 _atom_site_fract_x
 _atom_site_fract_y
 _atom_site_fract_z
 _atom_site_occupancy
  Fe  Fe0  1  0.84198250  0.89699950  0.64149300  1
  Fe  Fe1  1  0.84198250  0.10300050  0.14149300  1
  Fe  Fe2  1  0.15801750  0.10300050  0.35850700  1
  Fe  Fe3  1  0.15801750  0.89699950  0.85850700  1
  Fe  Fe4  1  0.56086050  0.77834850  0.00657200  1
  Fe  Fe5  1  0.93913950  0.27834850  0.49342800  1
  Fe  Fe6  1  0.43913950  0.22165150  0.99342800  1
  Fe  Fe7  1  0.06086050  0.72165150  0.50657200  1
  Fe  Fe8  1  0.34198250  0.39699950  0.64149300  1
  Fe  Fe9  1  0.34198250  0.60300050  0.14149300  1
  Fe  Fe10  1  0.65801750  0.60300050  0.35850700  1
  Fe  Fe11  1  0.65801750  0.39699950  0.85850700  1
  Fe  Fe12  1  0.06086050  0.27834850  0.00657200  1
  Fe  Fe13  1  0.43913950  0.77834850  0.49342800  1
  Fe  Fe14  1  0.93913950  0.72165150  0.99342800  1
  Fe  Fe15  1  0.56086050  0.22165150  0.50657200  1
  P  P16  1  0.67317800  0.09260100  0.30628400  1
  P  P17  1  0.82682200  0.59260100  0.19371600  1
  P  P18  1  0.32682200  0.90739900  0.69371600  1
  P  P19  1  0.17317800  0.40739900  0.80628400  1
  P  P20  1  0.17317800  0.59260100  0.30628400  1
  P  P21  1  0.32682200  0.09260100  0.19371600  1
  P  P22  1  0.82682200  0.40739900  0.69371600  1
  P  P23  1  0.67317800  0.90739900  0.80628400  1
  O  O24  1  0.28684550  0.35695750  0.80216900  1
  O  O25  1  0.71315450  0.64304250  0.19783100  1
  O  O26  1  0.21315450  0.85695750  0.69783100  1
  O  O27  1  0.78684550  0.14304250  0.30216900  1
  O  O28  1  0.13252400  0.77933600  0.36397300  1
  O  O29  1  0.86747600  0.77933600  0.13602700  1
  O  O30  1  0.86747600  0.22066400  0.63602700  1
  O  O31  1  0.13252400  0.22066400  0.86397300  1
  O  O32  1  0.57847150  0.03684250  0.14417900  1
  O  O33  1  0.19363300  0.41578600  0.41890900  1
  O  O34  1  0.42152850  0.96315750  0.85582100  1
  O  O35  1  0.07847150  0.46315750  0.64417900  1
  O  O36  1  0.19363300  0.58421400  0.91890900  1
  O  O37  1  0.80636700  0.58421400  0.58109100  1
  O  O38  1  0.80636700  0.41578600  0.08109100  1
  O  O39  1  0.92152850  0.53684250  0.35582100  1
  O  O40  1  0.78684550  0.85695750  0.80216900  1
  O  O41  1  0.21315450  0.14304250  0.19783100  1
  O  O42  1  0.71315450  0.35695750  0.69783100  1
  O  O43  1  0.28684550  0.64304250  0.30216900  1
  O  O44  1  0.63252400  0.27933600  0.36397300  1
  O  O45  1  0.36747600  0.27933600  0.13602700  1
  O  O46  1  0.36747600  0.72066400  0.63602700  1
  O  O47  1  0.63252400  0.72066400  0.86397300  1
  O  O48  1  0.07847150  0.53684250  0.14417900  1
  O  O49  1  0.69363300  0.91578600  0.41890900  1
  O  O50  1  0.92152850  0.46315750  0.85582100  1
  O  O51  1  0.57847150  0.96315750  0.64417900  1
  O  O52  1  0.69363300  0.08421400  0.91890900  1
  O  O53  1  0.30636700  0.08421400  0.58109100  1
  O  O54  1  0.30636700  0.91578600  0.08109100  1
  O  O55  1  0.42152850  0.03684250  0.35582100  1
  F  F56  1  0.98269050  0.89066550  0.60550500  1
  F  F57  1  0.01730950  0.89066550  0.89449500  1
  F  F58  1  0.01730950  0.10933450  0.39449500  1
  F  F59  1  0.98269050  0.10933450  0.10550500  1
  F  F60  1  0.48269050  0.39066550  0.60550500  1
  F  F61  1  0.51730950  0.39066550  0.89449500  1
  F  F62  1  0.51730950  0.60933450  0.39449500  1
  F  F63  1  0.48269050  0.60933450  0.10550500  1
