# generated using pymatgen
data_Lu(BRu)4
_symmetry_space_group_name_H-M   'P 1'
_cell_length_a   7.45673400
_cell_length_b   7.45673400
_cell_length_c   15.01433600
_cell_angle_alpha   90.00000000
_cell_angle_beta   90.00000000
_cell_angle_gamma   90.00000000
_symmetry_Int_Tables_number   1
_chemical_formula_structural   Lu(BRu)4
_chemical_formula_sum   'Lu8 B32 Ru32'
_cell_volume   834.84035212
_cell_formula_units_Z   8
loop_
 _symmetry_equiv_pos_site_id
 _symmetry_equiv_pos_as_xyz
  1  'x, y, z'
loop_
 _atom_site_type_symbol
 _atom_site_label
 _atom_site_symmetry_multiplicity
 _atom_site_fract_x
 _atom_site_fract_y
 _atom_site_fract_z
 _atom_site_occupancy
  Lu  Lu0  1  0.50000000  0.00000000  0.00000000  1
  Lu  Lu1  1  0.00000000  0.50000000  0.00000000  1
  Lu  Lu2  1  0.00000000  0.00000000  0.25000000  1
  Lu  Lu3  1  0.50000000  0.50000000  0.25000000  1
  Lu  Lu4  1  0.00000000  0.50000000  0.50000000  1
  Lu  Lu5  1  0.50000000  0.00000000  0.50000000  1
  Lu  Lu6  1  0.50000000  0.50000000  0.75000000  1
  Lu  Lu7  1  0.00000000  0.00000000  0.75000000  1
  B  B8  1  0.36230150  0.16952350  0.33114050  1
  B  B9  1  0.83047650  0.13769850  0.08114050  1
  B  B10  1  0.33047650  0.86230150  0.16885950  1
  B  B11  1  0.66952350  0.63769850  0.08114050  1
  B  B12  1  0.16952350  0.86230150  0.08114050  1
  B  B13  1  0.86230150  0.33047650  0.33114050  1
  B  B14  1  0.63769850  0.66952350  0.41885950  1
  B  B15  1  0.13769850  0.83047650  0.41885950  1
  B  B16  1  0.66952350  0.13769850  0.16885950  1
  B  B17  1  0.83047650  0.63769850  0.16885950  1
  B  B18  1  0.36230150  0.33047650  0.41885950  1
  B  B19  1  0.33047650  0.36230150  0.08114050  1
  B  B20  1  0.16952350  0.36230150  0.16885950  1
  B  B21  1  0.63769850  0.83047650  0.33114050  1
  B  B22  1  0.13769850  0.66952350  0.33114050  1
  B  B23  1  0.86230150  0.16952350  0.41885950  1
  B  B24  1  0.86230150  0.66952350  0.83114050  1
  B  B25  1  0.33047650  0.63769850  0.58114050  1
  B  B26  1  0.83047650  0.36230150  0.66885950  1
  B  B27  1  0.16952350  0.13769850  0.58114050  1
  B  B28  1  0.66952350  0.36230150  0.58114050  1
  B  B29  1  0.36230150  0.83047650  0.83114050  1
  B  B30  1  0.13769850  0.16952350  0.91885950  1
  B  B31  1  0.63769850  0.33047650  0.91885950  1
  B  B32  1  0.16952350  0.63769850  0.66885950  1
  B  B33  1  0.33047650  0.13769850  0.66885950  1
  B  B34  1  0.86230150  0.83047650  0.91885950  1
  B  B35  1  0.83047650  0.86230150  0.58114050  1
  B  B36  1  0.66952350  0.86230150  0.66885950  1
  B  B37  1  0.13769850  0.33047650  0.83114050  1
  B  B38  1  0.63769850  0.16952350  0.83114050  1
  B  B39  1  0.36230150  0.66952350  0.91885950  1
  Ru  Ru40  1  0.61472150  0.84951750  0.18802650  1
  Ru  Ru41  1  0.84951750  0.88527850  0.43802650  1
  Ru  Ru42  1  0.88527850  0.34951750  0.18802650  1
  Ru  Ru43  1  0.11472150  0.15048250  0.06197350  1
  Ru  Ru44  1  0.84951750  0.61472150  0.31197350  1
  Ru  Ru45  1  0.38527850  0.15048250  0.18802650  1
  Ru  Ru46  1  0.15048250  0.38527850  0.31197350  1
  Ru  Ru47  1  0.65048250  0.38527850  0.43802650  1
  Ru  Ru48  1  0.38527850  0.65048250  0.06197350  1
  Ru  Ru49  1  0.15048250  0.11472150  0.43802650  1
  Ru  Ru50  1  0.11472150  0.65048250  0.18802650  1
  Ru  Ru51  1  0.88527850  0.84951750  0.06197350  1
  Ru  Ru52  1  0.34951750  0.88527850  0.31197350  1
  Ru  Ru53  1  0.34951750  0.61472150  0.43802650  1
  Ru  Ru54  1  0.61472150  0.34951750  0.06197350  1
  Ru  Ru55  1  0.65048250  0.11472150  0.31197350  1
  Ru  Ru56  1  0.11472150  0.34951750  0.68802650  1
  Ru  Ru57  1  0.34951750  0.38527850  0.93802650  1
  Ru  Ru58  1  0.38527850  0.84951750  0.68802650  1
  Ru  Ru59  1  0.61472150  0.65048250  0.56197350  1
  Ru  Ru60  1  0.34951750  0.11472150  0.81197350  1
  Ru  Ru61  1  0.88527850  0.65048250  0.68802650  1
  Ru  Ru62  1  0.65048250  0.88527850  0.81197350  1
  Ru  Ru63  1  0.15048250  0.88527850  0.93802650  1
  Ru  Ru64  1  0.88527850  0.15048250  0.56197350  1
  Ru  Ru65  1  0.65048250  0.61472150  0.93802650  1
  Ru  Ru66  1  0.61472150  0.15048250  0.68802650  1
  Ru  Ru67  1  0.38527850  0.34951750  0.56197350  1
  Ru  Ru68  1  0.84951750  0.38527850  0.81197350  1
  Ru  Ru69  1  0.84951750  0.11472150  0.93802650  1
  Ru  Ru70  1  0.11472150  0.84951750  0.56197350  1
  Ru  Ru71  1  0.15048250  0.61472150  0.81197350  1
