# generated using pymatgen
data_Cu3NiH6(ClO3)2
_symmetry_space_group_name_H-M   'P 1'
_cell_length_a   6.98346972
_cell_length_b   6.98346972
_cell_length_c   13.69203101
_cell_angle_alpha   90.00000000
_cell_angle_beta   90.00000000
_cell_angle_gamma   120.00000000
_symmetry_Int_Tables_number   1
_chemical_formula_structural   Cu3NiH6(ClO3)2
_chemical_formula_sum   'Cu9 Ni3 H18 Cl6 O18'
_cell_volume   578.28378518
_cell_formula_units_Z   3
loop_
 _symmetry_equiv_pos_site_id
 _symmetry_equiv_pos_as_xyz
  1  'x, y, z'
loop_
 _atom_site_type_symbol
 _atom_site_label
 _atom_site_symmetry_multiplicity
 _atom_site_fract_x
 _atom_site_fract_y
 _atom_site_fract_z
 _atom_site_occupancy
  Cu  Cu0  1  0.50000000  0.00000000  0.00000000  1
  Cu  Cu1  1  0.83333333  0.16666667  0.66666667  1
  Cu  Cu2  1  0.33333333  0.16666667  0.66666667  1
  Cu  Cu3  1  0.16666667  0.33333333  0.33333333  1
  Cu  Cu4  1  0.50000000  0.50000000  1.00000000  1
  Cu  Cu5  1  0.00000000  0.50000000  1.00000000  1
  Cu  Cu6  1  0.83333333  0.66666667  0.66666667  1
  Cu  Cu7  1  0.16666667  0.83333333  0.33333333  1
  Cu  Cu8  1  0.66666667  0.83333333  0.33333333  1
  Ni  Ni9  1  0.66666667  0.33333333  0.83333333  1
  Ni  Ni10  1  0.33333333  0.66666667  0.16666667  1
  Ni  Ni11  1  1.00000000  1.00000000  0.50000000  1
  H  H12  1  0.26714533  0.13357267  0.90975967  1
  H  H13  1  0.86642733  0.73285467  0.90975967  1
  H  H14  1  0.46690600  0.93381200  0.75690700  1
  H  H15  1  0.06618800  0.53309400  0.75690700  1
  H  H16  1  0.86642733  0.13357267  0.90975967  1
  H  H17  1  0.46690600  0.53309400  0.75690700  1
  H  H18  1  0.93381200  0.46690600  0.24309300  1
  H  H19  1  0.53309400  0.06618800  0.24309300  1
  H  H20  1  0.13357267  0.26714533  0.09024033  1
  H  H21  1  0.73285467  0.86642733  0.09024033  1
  H  H22  1  0.53309400  0.46690600  0.24309300  1
  H  H23  1  0.13357267  0.86642733  0.09024033  1
  H  H24  1  0.60047867  0.80023933  0.57642633  1
  H  H25  1  0.19976067  0.39952133  0.57642633  1
  H  H26  1  0.80023933  0.60047867  0.42357367  1
  H  H27  1  0.39952133  0.19976067  0.42357367  1
  H  H28  1  0.19976067  0.80023933  0.57642633  1
  H  H29  1  0.80023933  0.19976067  0.42357367  1
  Cl  Cl30  1  0.66666667  0.33333333  0.15292883  1
  Cl  Cl31  1  0.66666667  0.33333333  0.51373783  1
  Cl  Cl32  1  0.33333333  0.66666667  0.48626217  1
  Cl  Cl33  1  0.33333333  0.66666667  0.84707117  1
  Cl  Cl34  1  0.00000000  0.00000000  0.81959550  1
  Cl  Cl35  1  0.00000000  0.00000000  0.18040450  1
  O  O36  1  0.54212042  0.08424083  0.72612983  1
  O  O37  1  0.54212042  0.45787958  0.72612983  1
  O  O38  1  0.41757417  0.20878708  0.94053683  1
  O  O39  1  0.79121292  0.20878708  0.94053683  1
  O  O40  1  0.79121292  0.58242583  0.94053683  1
  O  O41  1  0.91575917  0.45787958  0.72612983  1
  O  O42  1  0.20878708  0.41757417  0.05946317  1
  O  O43  1  0.20878708  0.79121292  0.05946317  1
  O  O44  1  0.08424083  0.54212042  0.27387017  1
  O  O45  1  0.45787958  0.54212042  0.27387017  1
  O  O46  1  0.45787958  0.91575917  0.27387017  1
  O  O47  1  0.58242583  0.79121292  0.05946317  1
  O  O48  1  0.87545375  0.75090750  0.39279650  1
  O  O49  1  0.87545375  0.12454625  0.39279650  1
  O  O50  1  0.75090750  0.87545375  0.60720350  1
  O  O51  1  0.12454625  0.87545375  0.60720350  1
  O  O52  1  0.12454625  0.24909250  0.60720350  1
  O  O53  1  0.24909250  0.12454625  0.39279650  1
