# generated using pymatgen
data_Ba4Os6ClO18
_symmetry_space_group_name_H-M   'P 1'
_cell_length_a   9.48765000
_cell_length_b   9.48765000
_cell_length_c   9.48765000
_cell_angle_alpha   90.00000000
_cell_angle_beta   90.00000000
_cell_angle_gamma   90.00000000
_symmetry_Int_Tables_number   1
_chemical_formula_structural   Ba4Os6ClO18
_chemical_formula_sum   'Ba8 Os12 Cl2 O36'
_cell_volume   854.03558251
_cell_formula_units_Z   2
loop_
 _symmetry_equiv_pos_site_id
 _symmetry_equiv_pos_as_xyz
  1  'x, y, z'
loop_
 _atom_site_type_symbol
 _atom_site_label
 _atom_site_symmetry_multiplicity
 _atom_site_fract_x
 _atom_site_fract_y
 _atom_site_fract_z
 _atom_site_occupancy
  Ba  Ba0  1  0.18486450  0.81513550  0.18486450  1
  Ba  Ba1  1  0.18486450  0.18486450  0.81513550  1
  Ba  Ba2  1  0.31513550  0.31513550  0.31513550  1
  Ba  Ba3  1  0.81513550  0.18486450  0.18486450  1
  Ba  Ba4  1  0.68486450  0.31513550  0.68486450  1
  Ba  Ba5  1  0.68486450  0.68486450  0.31513550  1
  Ba  Ba6  1  0.81513550  0.81513550  0.81513550  1
  Ba  Ba7  1  0.31513550  0.68486450  0.68486450  1
  Os  Os8  1  0.36520500  0.50000000  0.00000000  1
  Os  Os9  1  0.13479500  0.00000000  0.50000000  1
  Os  Os10  1  0.50000000  0.00000000  0.36520500  1
  Os  Os11  1  0.00000000  0.50000000  0.13479500  1
  Os  Os12  1  0.00000000  0.36520500  0.50000000  1
  Os  Os13  1  0.50000000  0.13479500  0.00000000  1
  Os  Os14  1  0.86520500  0.00000000  0.50000000  1
  Os  Os15  1  0.63479500  0.50000000  0.00000000  1
  Os  Os16  1  0.00000000  0.50000000  0.86520500  1
  Os  Os17  1  0.50000000  0.00000000  0.63479500  1
  Os  Os18  1  0.50000000  0.86520500  0.00000000  1
  Os  Os19  1  0.00000000  0.63479500  0.50000000  1
  Cl  Cl20  1  0.00000000  0.00000000  0.00000000  1
  Cl  Cl21  1  0.50000000  0.50000000  0.50000000  1
  O  O22  1  0.85957600  0.20926200  0.48849300  1
  O  O23  1  0.20926200  0.51150700  0.14042400  1
  O  O24  1  0.64042400  0.29073800  0.98849300  1
  O  O25  1  0.01150700  0.35957600  0.29073800  1
  O  O26  1  0.51150700  0.14042400  0.20926200  1
  O  O27  1  0.98849300  0.64042400  0.29073800  1
  O  O28  1  0.48849300  0.85957600  0.20926200  1
  O  O29  1  0.66100700  0.00000000  0.00000000  1
  O  O30  1  0.00000000  0.00000000  0.66100700  1
  O  O31  1  0.14042400  0.20926200  0.51150700  1
  O  O32  1  0.20926200  0.48849300  0.85957600  1
  O  O33  1  0.00000000  0.66100700  0.00000000  1
  O  O34  1  0.33899300  0.00000000  0.00000000  1
  O  O35  1  0.29073800  0.98849300  0.64042400  1
  O  O36  1  0.29073800  0.01150700  0.35957600  1
  O  O37  1  0.35957600  0.29073800  0.01150700  1
  O  O38  1  0.00000000  0.33899300  0.00000000  1
  O  O39  1  0.00000000  0.00000000  0.33899300  1
  O  O40  1  0.35957600  0.70926200  0.98849300  1
  O  O41  1  0.70926200  0.01150700  0.64042400  1
  O  O42  1  0.14042400  0.79073800  0.48849300  1
  O  O43  1  0.51150700  0.85957600  0.79073800  1
  O  O44  1  0.01150700  0.64042400  0.70926200  1
  O  O45  1  0.48849300  0.14042400  0.79073800  1
  O  O46  1  0.98849300  0.35957600  0.70926200  1
  O  O47  1  0.16100700  0.50000000  0.50000000  1
  O  O48  1  0.50000000  0.50000000  0.16100700  1
  O  O49  1  0.64042400  0.70926200  0.01150700  1
  O  O50  1  0.70926200  0.98849300  0.35957600  1
  O  O51  1  0.50000000  0.16100700  0.50000000  1
  O  O52  1  0.83899300  0.50000000  0.50000000  1
  O  O53  1  0.79073800  0.48849300  0.14042400  1
  O  O54  1  0.79073800  0.51150700  0.85957600  1
  O  O55  1  0.85957600  0.79073800  0.51150700  1
  O  O56  1  0.50000000  0.83899300  0.50000000  1
  O  O57  1  0.50000000  0.50000000  0.83899300  1
