# generated using pymatgen
data_PrCo3
_symmetry_space_group_name_H-M   'P 1'
_cell_length_a   5.09518741
_cell_length_b   5.09518741
_cell_length_c   25.08872274
_cell_angle_alpha   90.00000000
_cell_angle_beta   90.00000000
_cell_angle_gamma   120.00000000
_symmetry_Int_Tables_number   1
_chemical_formula_structural   PrCo3
_chemical_formula_sum   'Pr9 Co27'
_cell_volume   564.06546242
_cell_formula_units_Z   9
loop_
 _symmetry_equiv_pos_site_id
 _symmetry_equiv_pos_as_xyz
  1  'x, y, z'
loop_
 _atom_site_type_symbol
 _atom_site_label
 _atom_site_symmetry_multiplicity
 _atom_site_fract_x
 _atom_site_fract_y
 _atom_site_fract_z
 _atom_site_occupancy
  Pr  Pr0  1  0.00000000  0.00000000  0.86035700  1
  Pr  Pr1  1  0.33333333  0.66666667  0.80630967  1
  Pr  Pr2  1  0.00000000  0.00000000  0.00000000  1
  Pr  Pr3  1  0.66666667  0.33333333  0.19369033  1
  Pr  Pr4  1  0.00000000  0.00000000  0.13964300  1
  Pr  Pr5  1  0.66666667  0.33333333  0.33333333  1
  Pr  Pr6  1  0.33333333  0.66666667  0.52702367  1
  Pr  Pr7  1  0.66666667  0.33333333  0.47297633  1
  Pr  Pr8  1  0.33333333  0.66666667  0.66666667  1
  Co  Co9  1  0.99697933  0.49848967  0.92092967  1
  Co  Co10  1  0.66666667  0.33333333  0.66709133  1
  Co  Co11  1  0.83182300  0.66364600  0.74573700  1
  Co  Co12  1  0.50151033  0.00302067  0.92092967  1
  Co  Co13  1  0.66666667  0.33333333  0.99957533  1
  Co  Co14  1  0.50151033  0.49848967  0.92092967  1
  Co  Co15  1  0.83182300  0.16817700  0.74573700  1
  Co  Co16  1  0.66666667  0.33333333  0.83333333  1
  Co  Co17  1  0.33635400  0.16817700  0.74573700  1
  Co  Co18  1  0.66364600  0.83182300  0.25426300  1
  Co  Co19  1  0.33333333  0.66666667  0.00042467  1
  Co  Co20  1  0.49848967  0.99697933  0.07907033  1
  Co  Co21  1  0.16817700  0.33635400  0.25426300  1
  Co  Co22  1  0.33333333  0.66666667  0.33290867  1
  Co  Co23  1  0.16817700  0.83182300  0.25426300  1
  Co  Co24  1  0.49848967  0.50151033  0.07907033  1
  Co  Co25  1  0.33333333  0.66666667  0.16666667  1
  Co  Co26  1  0.00302067  0.50151033  0.07907033  1
  Co  Co27  1  0.33031267  0.16515633  0.58759633  1
  Co  Co28  1  0.00000000  0.00000000  0.33375800  1
  Co  Co29  1  0.16515633  0.33031267  0.41240367  1
  Co  Co30  1  0.83484367  0.66968733  0.58759633  1
  Co  Co31  1  0.00000000  0.00000000  0.66624200  1
  Co  Co32  1  0.83484367  0.16515633  0.58759633  1
  Co  Co33  1  0.16515633  0.83484367  0.41240367  1
  Co  Co34  1  1.00000000  1.00000000  0.50000000  1
  Co  Co35  1  0.66968733  0.83484367  0.41240367  1
