# generated using pymatgen
data_Sr2CuOsO6
_symmetry_space_group_name_H-M   'P 1'
_cell_length_a   5.43594082
_cell_length_b   5.43594082
_cell_length_c   8.65282130
_cell_angle_alpha   90.00000000
_cell_angle_beta   90.00000000
_cell_angle_gamma   90.00000000
_symmetry_Int_Tables_number   1
_chemical_formula_structural   Sr2CuOsO6
_chemical_formula_sum   'Sr4 Cu2 Os2 O12'
_cell_volume   255.68613265
_cell_formula_units_Z   2
loop_
 _symmetry_equiv_pos_site_id
 _symmetry_equiv_pos_as_xyz
  1  'x, y, z'
loop_
 _atom_site_type_symbol
 _atom_site_label
 _atom_site_symmetry_multiplicity
 _atom_site_fract_x
 _atom_site_fract_y
 _atom_site_fract_z
 _atom_site_occupancy
  Sr  Sr0  1  0.50000000  0.00000000  0.25000000  1
  Sr  Sr1  1  0.00000000  0.50000000  0.25000000  1
  Sr  Sr2  1  0.00000000  0.50000000  0.75000000  1
  Sr  Sr3  1  0.50000000  0.00000000  0.75000000  1
  Cu  Cu4  1  0.50000000  0.50000000  0.50000000  1
  Cu  Cu5  1  0.00000000  0.00000000  0.00000000  1
  Os  Os6  1  0.50000000  0.50000000  0.00000000  1
  Os  Os7  1  0.00000000  0.00000000  0.50000000  1
  O  O8  1  0.00000000  0.00000000  0.27367550  1
  O  O9  1  0.18775800  0.69989300  0.50000000  1
  O  O10  1  0.50000000  0.50000000  0.22632450  1
  O  O11  1  0.31224200  0.80010700  0.00000000  1
  O  O12  1  0.69989300  0.81224200  0.50000000  1
  O  O13  1  0.80010700  0.68775800  0.00000000  1
  O  O14  1  0.50000000  0.50000000  0.77367550  1
  O  O15  1  0.68775800  0.19989300  0.00000000  1
  O  O16  1  0.00000000  0.00000000  0.72632450  1
  O  O17  1  0.81224200  0.30010700  0.50000000  1
  O  O18  1  0.19989300  0.31224200  0.00000000  1
  O  O19  1  0.30010700  0.18775800  0.50000000  1
