# generated using pymatgen
data_Li3Ni3(PO4)4
_symmetry_space_group_name_H-M   'P 1'
_cell_length_a   18.62162600
_cell_length_b   6.46351200
_cell_length_c   10.37816041
_cell_angle_alpha   90.00000000
_cell_angle_beta   91.00403150
_cell_angle_gamma   90.00000000
_symmetry_Int_Tables_number   1
_chemical_formula_structural   Li3Ni3(PO4)4
_chemical_formula_sum   'Li12 Ni12 P16 O64'
_cell_volume   1248.93505062
_cell_formula_units_Z   4
loop_
 _symmetry_equiv_pos_site_id
 _symmetry_equiv_pos_as_xyz
  1  'x, y, z'
loop_
 _atom_site_type_symbol
 _atom_site_label
 _atom_site_symmetry_multiplicity
 _atom_site_fract_x
 _atom_site_fract_y
 _atom_site_fract_z
 _atom_site_occupancy
  Li  Li0  1  0.92025900  0.15593800  0.53907500  1
  Li  Li1  1  0.00000000  0.56439700  0.75000000  1
  Li  Li2  1  0.92025900  0.84406200  0.03907500  1
  Li  Li3  1  0.00000000  0.43560300  0.25000000  1
  Li  Li4  1  0.57974100  0.34406200  0.46092500  1
  Li  Li5  1  0.57974100  0.65593800  0.96092500  1
  Li  Li6  1  0.42025900  0.65593800  0.53907500  1
  Li  Li7  1  0.50000000  0.06439700  0.75000000  1
  Li  Li8  1  0.42025900  0.34406200  0.03907500  1
  Li  Li9  1  0.50000000  0.93560300  0.25000000  1
  Li  Li10  1  0.07974100  0.84406200  0.46092500  1
  Li  Li11  1  0.07974100  0.15593800  0.96092500  1
  Ni  Ni12  1  0.65650400  0.97953100  0.75171300  1
  Ni  Ni13  1  0.84349600  0.47953100  0.74828700  1
  Ni  Ni14  1  0.65650400  0.02046900  0.25171300  1
  Ni  Ni15  1  0.84349600  0.52046900  0.24828700  1
  Ni  Ni16  1  0.75000000  0.75000000  0.50000000  1
  Ni  Ni17  1  0.75000000  0.25000000  0.00000000  1
  Ni  Ni18  1  0.15650400  0.47953100  0.75171300  1
  Ni  Ni19  1  0.34349600  0.97953100  0.74828700  1
  Ni  Ni20  1  0.15650400  0.52046900  0.25171300  1
  Ni  Ni21  1  0.34349600  0.02046900  0.24828700  1
  Ni  Ni22  1  0.25000000  0.25000000  0.50000000  1
  Ni  Ni23  1  0.25000000  0.75000000  0.00000000  1
  P  P24  1  0.69774750  0.51846250  0.24660100  1
  P  P25  1  0.57992800  0.83338000  0.49403300  1
  P  P26  1  0.69774750  0.48153750  0.74660100  1
  P  P27  1  0.57992800  0.16662000  0.99403300  1
  P  P28  1  0.92007200  0.66662000  0.50596700  1
  P  P29  1  0.80225250  0.01846250  0.25339900  1
  P  P30  1  0.80225250  0.98153750  0.75339900  1
  P  P31  1  0.92007200  0.33338000  0.00596700  1
  P  P32  1  0.19774750  0.01846250  0.24660100  1
  P  P33  1  0.07992800  0.33338000  0.49403300  1
  P  P34  1  0.19774750  0.98153750  0.74660100  1
  P  P35  1  0.07992800  0.66662000  0.99403300  1
  P  P36  1  0.42007200  0.16662000  0.50596700  1
  P  P37  1  0.30225250  0.51846250  0.25339900  1
  P  P38  1  0.30225250  0.48153750  0.75339900  1
  P  P39  1  0.42007200  0.83338000  0.00596700  1
  O  O40  1  0.58558850  0.99314150  0.88892800  1
  O  O41  1  0.64499350  0.68480050  0.49289600  1
  O  O42  1  0.74519750  0.02583050  0.86255100  1
  O  O43  1  0.91441150  0.49314150  0.61107200  1
  O  O44  1  0.75790800  0.55409300  0.35657200  1
  O  O45  1  0.84779300  0.79383000  0.78979800  1
  O  O46  1  0.98697400  0.20381800  0.03885000  1
  O  O47  1  0.92522600  0.44394900  0.87332900  1
  O  O48  1  0.74519750  0.97416950  0.36255100  1
  O  O49  1  0.84977050  0.83788250  0.21400000  1
  O  O50  1  0.65220700  0.70617000  0.21020200  1
  O  O51  1  0.74209200  0.94590700  0.64342800  1
  O  O52  1  0.75480250  0.47416950  0.13744900  1
  O  O53  1  0.57477400  0.05605100  0.12667100  1
  O  O54  1  0.51302600  0.29618200  0.96115000  1
  O  O55  1  0.74209200  0.05409300  0.14342800  1
  O  O56  1  0.85500650  0.81519950  0.50710400  1
  O  O57  1  0.51302600  0.70381800  0.46115000  1
  O  O58  1  0.57477400  0.94394900  0.62667100  1
  O  O59  1  0.58558850  0.00685850  0.38892800  1
  O  O60  1  0.98697400  0.79618200  0.53885000  1
  O  O61  1  0.92522600  0.55605100  0.37332900  1
  O  O62  1  0.65220700  0.29383000  0.71020200  1
  O  O63  1  0.75790800  0.44590700  0.85657200  1
  O  O64  1  0.65022950  0.66211750  0.78600000  1
  O  O65  1  0.85500650  0.18480050  0.00710400  1
  O  O66  1  0.75480250  0.52583050  0.63744900  1
  O  O67  1  0.64499350  0.31519950  0.99289600  1
  O  O68  1  0.84779300  0.20617000  0.28979800  1
  O  O69  1  0.84977050  0.16211750  0.71400000  1
  O  O70  1  0.65022950  0.33788250  0.28600000  1
  O  O71  1  0.91441150  0.50685850  0.11107200  1
  O  O72  1  0.08558850  0.49314150  0.88892800  1
  O  O73  1  0.14499350  0.18480050  0.49289600  1
  O  O74  1  0.24519750  0.52583050  0.86255100  1
  O  O75  1  0.41441150  0.99314150  0.61107200  1
  O  O76  1  0.25790800  0.05409300  0.35657200  1
  O  O77  1  0.34779300  0.29383000  0.78979800  1
  O  O78  1  0.48697400  0.70381800  0.03885000  1
  O  O79  1  0.42522600  0.94394900  0.87332900  1
  O  O80  1  0.24519750  0.47416950  0.36255100  1
  O  O81  1  0.34977050  0.33788250  0.21400000  1
  O  O82  1  0.15220700  0.20617000  0.21020200  1
  O  O83  1  0.24209200  0.44590700  0.64342800  1
  O  O84  1  0.25480250  0.97416950  0.13744900  1
  O  O85  1  0.07477400  0.55605100  0.12667100  1
  O  O86  1  0.01302600  0.79618200  0.96115000  1
  O  O87  1  0.24209200  0.55409300  0.14342800  1
  O  O88  1  0.35500650  0.31519950  0.50710400  1
  O  O89  1  0.01302600  0.20381800  0.46115000  1
  O  O90  1  0.07477400  0.44394900  0.62667100  1
  O  O91  1  0.08558850  0.50685850  0.38892800  1
  O  O92  1  0.48697400  0.29618200  0.53885000  1
  O  O93  1  0.42522600  0.05605100  0.37332900  1
  O  O94  1  0.15220700  0.79383000  0.71020200  1
  O  O95  1  0.25790800  0.94590700  0.85657200  1
  O  O96  1  0.15022950  0.16211750  0.78600000  1
  O  O97  1  0.35500650  0.68480050  0.00710400  1
  O  O98  1  0.25480250  0.02583050  0.63744900  1
  O  O99  1  0.14499350  0.81519950  0.99289600  1
  O  O100  1  0.34779300  0.70617000  0.28979800  1
  O  O101  1  0.34977050  0.66211750  0.71400000  1
  O  O102  1  0.15022950  0.83788250  0.28600000  1
  O  O103  1  0.41441150  0.00685850  0.11107200  1
