# generated using pymatgen
data_YbPS4
_symmetry_space_group_name_H-M   'P 1'
_cell_length_a   11.19898400
_cell_length_b   11.19898400
_cell_length_c   18.26481000
_cell_angle_alpha   90.00000000
_cell_angle_beta   90.00000000
_cell_angle_gamma   90.00000000
_symmetry_Int_Tables_number   1
_chemical_formula_structural   YbPS4
_chemical_formula_sum   'Yb16 P16 S64'
_cell_volume   2290.72210740
_cell_formula_units_Z   16
loop_
 _symmetry_equiv_pos_site_id
 _symmetry_equiv_pos_as_xyz
  1  'x, y, z'
loop_
 _atom_site_type_symbol
 _atom_site_label
 _atom_site_symmetry_multiplicity
 _atom_site_fract_x
 _atom_site_fract_y
 _atom_site_fract_z
 _atom_site_occupancy
  Yb  Yb0  1  0.50000000  0.00000000  0.00000000  1
  Yb  Yb1  1  0.00000000  0.00000000  0.25000000  1
  Yb  Yb2  1  0.00000000  0.50000000  0.00000000  1
  Yb  Yb3  1  0.00000000  0.00000000  0.00000000  1
  Yb  Yb4  1  0.50000000  0.50000000  0.00000000  1
  Yb  Yb5  1  0.50000000  0.00000000  0.25000000  1
  Yb  Yb6  1  0.50000000  0.50000000  0.25000000  1
  Yb  Yb7  1  0.00000000  0.50000000  0.25000000  1
  Yb  Yb8  1  0.00000000  0.50000000  0.50000000  1
  Yb  Yb9  1  0.50000000  0.50000000  0.75000000  1
  Yb  Yb10  1  0.50000000  0.00000000  0.50000000  1
  Yb  Yb11  1  0.50000000  0.50000000  0.50000000  1
  Yb  Yb12  1  0.00000000  0.00000000  0.50000000  1
  Yb  Yb13  1  0.00000000  0.50000000  0.75000000  1
  Yb  Yb14  1  0.00000000  0.00000000  0.75000000  1
  Yb  Yb15  1  0.50000000  0.00000000  0.75000000  1
  P  P16  1  0.54943000  0.25000000  0.37500000  1
  P  P17  1  0.75000000  0.45057000  0.12500000  1
  P  P18  1  0.75000000  0.95057000  0.12500000  1
  P  P19  1  0.25000000  0.54943000  0.12500000  1
  P  P20  1  0.95057000  0.75000000  0.37500000  1
  P  P21  1  0.25000000  0.04943000  0.12500000  1
  P  P22  1  0.45057000  0.75000000  0.37500000  1
  P  P23  1  0.04943000  0.25000000  0.37500000  1
  P  P24  1  0.04943000  0.75000000  0.87500000  1
  P  P25  1  0.25000000  0.95057000  0.62500000  1
  P  P26  1  0.25000000  0.45057000  0.62500000  1
  P  P27  1  0.75000000  0.04943000  0.62500000  1
  P  P28  1  0.45057000  0.25000000  0.87500000  1
  P  P29  1  0.75000000  0.54943000  0.62500000  1
  P  P30  1  0.95057000  0.25000000  0.87500000  1
  P  P31  1  0.54943000  0.75000000  0.87500000  1
  S  S32  1  0.55930000  0.75401500  0.28487100  1
  S  S33  1  0.09545800  0.14546000  0.12966900  1
  S  S34  1  0.94070000  0.25401500  0.28487100  1
  S  S35  1  0.94070000  0.24598500  0.46512900  1
  S  S36  1  0.90454200  0.35454000  0.12033100  1
  S  S37  1  0.40454200  0.14546000  0.12033100  1
  S  S38  1  0.75401500  0.55930000  0.21512900  1
  S  S39  1  0.24598500  0.44070000  0.21512900  1
  S  S40  1  0.35454000  0.59545800  0.37033100  1
  S  S41  1  0.44070000  0.24598500  0.28487100  1
  S  S42  1  0.74598500  0.55930000  0.03487100  1
  S  S43  1  0.25401500  0.44070000  0.03487100  1
  S  S44  1  0.05930000  0.75401500  0.46512900  1
  S  S45  1  0.35454000  0.90454200  0.37966900  1
  S  S46  1  0.09545800  0.64546000  0.12033100  1
  S  S47  1  0.59545800  0.85454000  0.12033100  1
  S  S48  1  0.64546000  0.09545800  0.37966900  1
  S  S49  1  0.55930000  0.74598500  0.46512900  1
  S  S50  1  0.64546000  0.40454200  0.37033100  1
  S  S51  1  0.05930000  0.74598500  0.28487100  1
  S  S52  1  0.90454200  0.85454000  0.12966900  1
  S  S53  1  0.14546000  0.09545800  0.37033100  1
  S  S54  1  0.85454000  0.59545800  0.37966900  1
  S  S55  1  0.74598500  0.05930000  0.21512900  1
  S  S56  1  0.25401500  0.94070000  0.21512900  1
  S  S57  1  0.44070000  0.25401500  0.46512900  1
  S  S58  1  0.59545800  0.35454000  0.12966900  1
  S  S59  1  0.24598500  0.94070000  0.03487100  1
  S  S60  1  0.75401500  0.05930000  0.03487100  1
  S  S61  1  0.40454200  0.64546000  0.12966900  1
  S  S62  1  0.14546000  0.40454200  0.37966900  1
  S  S63  1  0.85454000  0.90454200  0.37033100  1
  S  S64  1  0.05930000  0.25401500  0.78487100  1
  S  S65  1  0.59545800  0.64546000  0.62966900  1
  S  S66  1  0.44070000  0.75401500  0.78487100  1
  S  S67  1  0.44070000  0.74598500  0.96512900  1
  S  S68  1  0.40454200  0.85454000  0.62033100  1
  S  S69  1  0.90454200  0.64546000  0.62033100  1
  S  S70  1  0.25401500  0.05930000  0.71512900  1
  S  S71  1  0.74598500  0.94070000  0.71512900  1
  S  S72  1  0.85454000  0.09545800  0.87033100  1
  S  S73  1  0.94070000  0.74598500  0.78487100  1
  S  S74  1  0.24598500  0.05930000  0.53487100  1
  S  S75  1  0.75401500  0.94070000  0.53487100  1
  S  S76  1  0.55930000  0.25401500  0.96512900  1
  S  S77  1  0.85454000  0.40454200  0.87966900  1
  S  S78  1  0.59545800  0.14546000  0.62033100  1
  S  S79  1  0.09545800  0.35454000  0.62033100  1
  S  S80  1  0.14546000  0.59545800  0.87966900  1
  S  S81  1  0.05930000  0.24598500  0.96512900  1
  S  S82  1  0.14546000  0.90454200  0.87033100  1
  S  S83  1  0.55930000  0.24598500  0.78487100  1
  S  S84  1  0.40454200  0.35454000  0.62966900  1
  S  S85  1  0.64546000  0.59545800  0.87033100  1
  S  S86  1  0.35454000  0.09545800  0.87966900  1
  S  S87  1  0.24598500  0.55930000  0.71512900  1
  S  S88  1  0.75401500  0.44070000  0.71512900  1
  S  S89  1  0.94070000  0.75401500  0.96512900  1
  S  S90  1  0.09545800  0.85454000  0.62966900  1
  S  S91  1  0.74598500  0.44070000  0.53487100  1
  S  S92  1  0.25401500  0.55930000  0.53487100  1
  S  S93  1  0.90454200  0.14546000  0.62966900  1
  S  S94  1  0.64546000  0.90454200  0.87966900  1
  S  S95  1  0.35454000  0.40454200  0.87033100  1
