# generated using pymatgen
data_Eu2SO6
_symmetry_space_group_name_H-M   'P 1'
_cell_length_a   13.85869000
_cell_length_b   4.26466600
_cell_length_c   8.29102756
_cell_angle_alpha   90.00000000
_cell_angle_beta   107.75004132
_cell_angle_gamma   90.00000000
_symmetry_Int_Tables_number   1
_chemical_formula_structural   Eu2SO6
_chemical_formula_sum   'Eu8 S4 O24'
_cell_volume   466.69476995
_cell_formula_units_Z   4
loop_
 _symmetry_equiv_pos_site_id
 _symmetry_equiv_pos_as_xyz
  1  'x, y, z'
loop_
 _atom_site_type_symbol
 _atom_site_label
 _atom_site_symmetry_multiplicity
 _atom_site_fract_x
 _atom_site_fract_y
 _atom_site_fract_z
 _atom_site_occupancy
  Eu  Eu0  1  0.33135700  0.99189700  0.91627200  1
  Eu  Eu1  1  0.16864300  0.49189700  0.58372800  1
  Eu  Eu2  1  0.16864300  0.50810300  0.08372800  1
  Eu  Eu3  1  0.33135700  0.00810300  0.41627200  1
  Eu  Eu4  1  0.83135700  0.49189700  0.91627200  1
  Eu  Eu5  1  0.66864300  0.99189700  0.58372800  1
  Eu  Eu6  1  0.66864300  0.00810300  0.08372800  1
  Eu  Eu7  1  0.83135700  0.50810300  0.41627200  1
  S  S8  1  0.00000000  0.05529600  0.75000000  1
  S  S9  1  0.00000000  0.94470400  0.25000000  1
  S  S10  1  0.50000000  0.55529600  0.75000000  1
  S  S11  1  0.50000000  0.44470400  0.25000000  1
  O  O12  1  0.25471100  0.48241400  0.87729500  1
  O  O13  1  0.24528900  0.98241400  0.62270500  1
  O  O14  1  0.24528900  0.01758600  0.12270500  1
  O  O15  1  0.25471100  0.51758600  0.37729500  1
  O  O16  1  0.00057500  0.26162300  0.89634300  1
  O  O17  1  0.49942500  0.76162300  0.60365700  1
  O  O18  1  0.49942500  0.23837700  0.10365700  1
  O  O19  1  0.00057500  0.73837700  0.39634300  1
  O  O20  1  0.40702900  0.35995600  0.70362500  1
  O  O21  1  0.09297100  0.85995600  0.79637500  1
  O  O22  1  0.09297100  0.14004400  0.29637500  1
  O  O23  1  0.40702900  0.64004400  0.20362500  1
  O  O24  1  0.75471100  0.98241400  0.87729500  1
  O  O25  1  0.74528900  0.48241400  0.62270500  1
  O  O26  1  0.74528900  0.51758600  0.12270500  1
  O  O27  1  0.75471100  0.01758600  0.37729500  1
  O  O28  1  0.50057500  0.76162300  0.89634300  1
  O  O29  1  0.99942500  0.26162300  0.60365700  1
  O  O30  1  0.99942500  0.73837700  0.10365700  1
  O  O31  1  0.50057500  0.23837700  0.39634300  1
  O  O32  1  0.90702900  0.85995600  0.70362500  1
  O  O33  1  0.59297100  0.35995600  0.79637500  1
  O  O34  1  0.59297100  0.64004400  0.29637500  1
  O  O35  1  0.90702900  0.14004400  0.20362500  1
