# generated using pymatgen
data_CsTi3Si2P6O25
_symmetry_space_group_name_H-M   'P 1'
_cell_length_a   8.36275501
_cell_length_b   8.36275501
_cell_length_c   17.52852100
_cell_angle_alpha   90.00000000
_cell_angle_beta   90.00000000
_cell_angle_gamma   120.00000000
_symmetry_Int_Tables_number   1
_chemical_formula_structural   CsTi3Si2P6O25
_chemical_formula_sum   'Cs2 Ti6 Si4 P12 O50'
_cell_volume   1061.63359561
_cell_formula_units_Z   2
loop_
 _symmetry_equiv_pos_site_id
 _symmetry_equiv_pos_as_xyz
  1  'x, y, z'
loop_
 _atom_site_type_symbol
 _atom_site_label
 _atom_site_symmetry_multiplicity
 _atom_site_fract_x
 _atom_site_fract_y
 _atom_site_fract_z
 _atom_site_occupancy
  Cs  Cs0  1  0.33333333  0.66666667  0.25000000  1
  Cs  Cs1  1  0.66666667  0.33333333  0.75000000  1
  Ti  Ti2  1  0.33333333  0.66666667  0.02232400  1
  Ti  Ti3  1  0.33333333  0.66666667  0.47767600  1
  Ti  Ti4  1  0.66666667  0.33333333  0.97767600  1
  Ti  Ti5  1  0.66666667  0.33333333  0.52232400  1
  Ti  Ti6  1  0.66666667  0.33333333  0.25000000  1
  Ti  Ti7  1  0.33333333  0.66666667  0.75000000  1
  Si  Si8  1  0.00000000  0.00000000  0.09133400  1
  Si  Si9  1  0.00000000  0.00000000  0.40866600  1
  Si  Si10  1  0.00000000  0.00000000  0.90866600  1
  Si  Si11  1  0.00000000  0.00000000  0.59133400  1
  P  P12  1  0.38406633  0.33223767  0.10915200  1
  P  P13  1  0.66776233  0.05182867  0.10915200  1
  P  P14  1  0.94817133  0.61593367  0.10915200  1
  P  P15  1  0.66776233  0.61593367  0.39084800  1
  P  P16  1  0.94817133  0.33223767  0.39084800  1
  P  P17  1  0.38406633  0.05182867  0.39084800  1
  P  P18  1  0.61593367  0.66776233  0.89084800  1
  P  P19  1  0.33223767  0.94817133  0.89084800  1
  P  P20  1  0.05182867  0.38406633  0.89084800  1
  P  P21  1  0.33223767  0.38406633  0.60915200  1
  P  P22  1  0.05182867  0.66776233  0.60915200  1
  P  P23  1  0.61593367  0.94817133  0.60915200  1
  O  O24  1  0.11797533  0.59977967  0.08955700  1
  O  O25  1  0.40022033  0.51819567  0.08955700  1
  O  O26  1  0.48180433  0.88202467  0.08955700  1
  O  O27  1  0.40022033  0.88202467  0.41044300  1
  O  O28  1  0.48180433  0.59977967  0.41044300  1
  O  O29  1  0.11797533  0.51819567  0.41044300  1
  O  O30  1  0.88202467  0.40022033  0.91044300  1
  O  O31  1  0.59977967  0.48180433  0.91044300  1
  O  O32  1  0.51819567  0.11797533  0.91044300  1
  O  O33  1  0.59977967  0.11797533  0.58955700  1
  O  O34  1  0.51819567  0.40022033  0.58955700  1
  O  O35  1  0.88202467  0.48180433  0.58955700  1
  O  O36  1  0.80765033  0.25340467  0.45607300  1
  O  O37  1  0.74659533  0.55424567  0.45607300  1
  O  O38  1  0.44575433  0.19234967  0.45607300  1
  O  O39  1  0.74659533  0.19234967  0.04392700  1
  O  O40  1  0.44575433  0.25340467  0.04392700  1
  O  O41  1  0.80765033  0.55424567  0.04392700  1
  O  O42  1  0.19234967  0.74659533  0.54392700  1
  O  O43  1  0.25340467  0.44575433  0.54392700  1
  O  O44  1  0.55424567  0.80765033  0.54392700  1
  O  O45  1  0.25340467  0.80765033  0.95607300  1
  O  O46  1  0.55424567  0.74659533  0.95607300  1
  O  O47  1  0.19234967  0.44575433  0.95607300  1
  O  O48  1  0.47883633  0.34578367  0.18526100  1
  O  O49  1  0.65421633  0.13305267  0.18526100  1
  O  O50  1  0.86694733  0.52116367  0.18526100  1
  O  O51  1  0.65421633  0.52116367  0.31473900  1
  O  O52  1  0.86694733  0.34578367  0.31473900  1
  O  O53  1  0.47883633  0.13305267  0.31473900  1
  O  O54  1  0.52116367  0.65421633  0.81473900  1
  O  O55  1  0.34578367  0.86694733  0.81473900  1
  O  O56  1  0.13305267  0.47883633  0.81473900  1
  O  O57  1  0.34578367  0.47883633  0.68526100  1
  O  O58  1  0.13305267  0.65421633  0.68526100  1
  O  O59  1  0.52116367  0.86694733  0.68526100  1
  O  O60  1  0.00000000  0.00000000  0.00000000  1
  O  O61  1  0.00000000  0.00000000  0.50000000  1
  O  O62  1  0.02219433  0.82997167  0.12472000  1
  O  O63  1  0.17002833  0.19222267  0.12472000  1
  O  O64  1  0.80777733  0.97780567  0.12472000  1
  O  O65  1  0.17002833  0.97780567  0.37528000  1
  O  O66  1  0.80777733  0.82997167  0.37528000  1
  O  O67  1  0.02219433  0.19222267  0.37528000  1
  O  O68  1  0.97780567  0.17002833  0.87528000  1
  O  O69  1  0.82997167  0.80777733  0.87528000  1
  O  O70  1  0.19222267  0.02219433  0.87528000  1
  O  O71  1  0.82997167  0.02219433  0.62472000  1
  O  O72  1  0.19222267  0.17002833  0.62472000  1
  O  O73  1  0.97780567  0.80777733  0.62472000  1
