# generated using pymatgen
data_Ba2Cd3Bi4
_symmetry_space_group_name_H-M   'P 1'
_cell_length_a   7.11212200
_cell_length_b   17.76971400
_cell_length_c   9.43250200
_cell_angle_alpha   90.00000000
_cell_angle_beta   90.00000000
_cell_angle_gamma   90.00000000
_symmetry_Int_Tables_number   1
_chemical_formula_structural   Ba2Cd3Bi4
_chemical_formula_sum   'Ba8 Cd12 Bi16'
_cell_volume   1192.08312932
_cell_formula_units_Z   4
loop_
 _symmetry_equiv_pos_site_id
 _symmetry_equiv_pos_as_xyz
  1  'x, y, z'
loop_
 _atom_site_type_symbol
 _atom_site_label
 _atom_site_symmetry_multiplicity
 _atom_site_fract_x
 _atom_site_fract_y
 _atom_site_fract_z
 _atom_site_occupancy
  Ba  Ba0  1  0.50000000  0.61639700  0.57748200  1
  Ba  Ba1  1  0.00000000  0.61639700  0.92251800  1
  Ba  Ba2  1  0.50000000  0.88360300  0.07748200  1
  Ba  Ba3  1  0.00000000  0.88360300  0.42251800  1
  Ba  Ba4  1  0.00000000  0.11639700  0.57748200  1
  Ba  Ba5  1  0.50000000  0.11639700  0.92251800  1
  Ba  Ba6  1  0.00000000  0.38360300  0.07748200  1
  Ba  Ba7  1  0.50000000  0.38360300  0.42251800  1
  Cd  Cd8  1  0.25000000  0.77840300  0.75000000  1
  Cd  Cd9  1  0.25000000  0.72159700  0.25000000  1
  Cd  Cd10  1  0.75000000  0.72159700  0.25000000  1
  Cd  Cd11  1  0.75000000  0.77840300  0.75000000  1
  Cd  Cd12  1  0.50000000  0.00000000  0.50000000  1
  Cd  Cd13  1  0.00000000  0.00000000  0.00000000  1
  Cd  Cd14  1  0.75000000  0.27840300  0.75000000  1
  Cd  Cd15  1  0.75000000  0.22159700  0.25000000  1
  Cd  Cd16  1  0.25000000  0.22159700  0.25000000  1
  Cd  Cd17  1  0.25000000  0.27840300  0.75000000  1
  Cd  Cd18  1  0.00000000  0.50000000  0.50000000  1
  Cd  Cd19  1  0.50000000  0.50000000  0.00000000  1
  Bi  Bi20  1  0.50000000  0.68532000  0.94872200  1
  Bi  Bi21  1  0.50000000  0.81468000  0.44872200  1
  Bi  Bi22  1  0.00000000  0.81468000  0.05127800  1
  Bi  Bi23  1  0.25000000  0.55258000  0.25000000  1
  Bi  Bi24  1  0.75000000  0.94742000  0.75000000  1
  Bi  Bi25  1  0.75000000  0.55258000  0.25000000  1
  Bi  Bi26  1  0.25000000  0.94742000  0.75000000  1
  Bi  Bi27  1  0.00000000  0.68532000  0.55127800  1
  Bi  Bi28  1  0.00000000  0.18532000  0.94872200  1
  Bi  Bi29  1  0.00000000  0.31468000  0.44872200  1
  Bi  Bi30  1  0.50000000  0.31468000  0.05127800  1
  Bi  Bi31  1  0.75000000  0.05258000  0.25000000  1
  Bi  Bi32  1  0.25000000  0.44742000  0.75000000  1
  Bi  Bi33  1  0.25000000  0.05258000  0.25000000  1
  Bi  Bi34  1  0.75000000  0.44742000  0.75000000  1
  Bi  Bi35  1  0.50000000  0.18532000  0.55127800  1
