# generated using pymatgen
data_Fe(PO3)4
_symmetry_space_group_name_H-M   'P 1'
_cell_length_a   8.22758200
_cell_length_b   11.53131000
_cell_length_c   9.51413908
_cell_angle_alpha   90.00000000
_cell_angle_beta   92.65815242
_cell_angle_gamma   90.00000000
_symmetry_Int_Tables_number   1
_chemical_formula_structural   Fe(PO3)4
_chemical_formula_sum   'Fe4 P16 O48'
_cell_volume   901.68078809
_cell_formula_units_Z   4
loop_
 _symmetry_equiv_pos_site_id
 _symmetry_equiv_pos_as_xyz
  1  'x, y, z'
loop_
 _atom_site_type_symbol
 _atom_site_label
 _atom_site_symmetry_multiplicity
 _atom_site_fract_x
 _atom_site_fract_y
 _atom_site_fract_z
 _atom_site_occupancy
  Fe  Fe0  1  0.50000000  0.10450800  0.25000000  1
  Fe  Fe1  1  0.50000000  0.89549200  0.75000000  1
  Fe  Fe2  1  0.00000000  0.60450800  0.25000000  1
  Fe  Fe3  1  0.00000000  0.39549200  0.75000000  1
  P  P4  1  0.25762250  0.96196450  0.47150800  1
  P  P5  1  0.25762250  0.03803550  0.97150800  1
  P  P6  1  0.45276950  0.32422150  0.46639600  1
  P  P7  1  0.45276950  0.67577850  0.96639600  1
  P  P8  1  0.74237750  0.03803550  0.52849200  1
  P  P9  1  0.54723050  0.32422150  0.03360400  1
  P  P10  1  0.74237750  0.96196450  0.02849200  1
  P  P11  1  0.54723050  0.67577850  0.53360400  1
  P  P12  1  0.75762250  0.46196450  0.47150800  1
  P  P13  1  0.75762250  0.53803550  0.97150800  1
  P  P14  1  0.95276950  0.82422150  0.46639600  1
  P  P15  1  0.95276950  0.17577850  0.96639600  1
  P  P16  1  0.24237750  0.53803550  0.52849200  1
  P  P17  1  0.04723050  0.82422150  0.03360400  1
  P  P18  1  0.24237750  0.46196450  0.02849200  1
  P  P19  1  0.04723050  0.17577850  0.53360400  1
  O  O20  1  0.36883000  0.01112100  0.85549900  1
  O  O21  1  0.39535300  0.76295700  0.85636700  1
  O  O22  1  0.81328250  0.08096450  0.96915100  1
  O  O23  1  0.59999200  0.39843500  0.40224600  1
  O  O24  1  0.39535300  0.23704300  0.35636700  1
  O  O25  1  0.67714800  0.89426000  0.90306500  1
  O  O26  1  0.32285200  0.89426000  0.59693500  1
  O  O27  1  0.40000800  0.39843500  0.09775400  1
  O  O28  1  0.60464700  0.23704300  0.14363300  1
  O  O29  1  0.50264300  0.72712700  0.39170700  1
  O  O30  1  0.67714800  0.10574000  0.40306500  1
  O  O31  1  0.81328250  0.91903550  0.46915100  1
  O  O32  1  0.63117000  0.98887900  0.14450100  1
  O  O33  1  0.63117000  0.01112100  0.64450100  1
  O  O34  1  0.50264300  0.27287300  0.89170700  1
  O  O35  1  0.59999200  0.60156500  0.90224600  1
  O  O36  1  0.18671750  0.91903550  0.03084900  1
  O  O37  1  0.40000800  0.60156500  0.59775400  1
  O  O38  1  0.49735700  0.27287300  0.60829300  1
  O  O39  1  0.60464700  0.76295700  0.64363300  1
  O  O40  1  0.18671750  0.08096450  0.53084900  1
  O  O41  1  0.49735700  0.72712700  0.10829300  1
  O  O42  1  0.36883000  0.98887900  0.35549900  1
  O  O43  1  0.32285200  0.10574000  0.09693500  1
  O  O44  1  0.86883000  0.51112100  0.85549900  1
  O  O45  1  0.89535300  0.26295700  0.85636700  1
  O  O46  1  0.31328250  0.58096450  0.96915100  1
  O  O47  1  0.09999200  0.89843500  0.40224600  1
  O  O48  1  0.89535300  0.73704300  0.35636700  1
  O  O49  1  0.17714800  0.39426000  0.90306500  1
  O  O50  1  0.82285200  0.39426000  0.59693500  1
  O  O51  1  0.90000800  0.89843500  0.09775400  1
  O  O52  1  0.10464700  0.73704300  0.14363300  1
  O  O53  1  0.00264300  0.22712700  0.39170700  1
  O  O54  1  0.17714800  0.60574000  0.40306500  1
  O  O55  1  0.31328250  0.41903550  0.46915100  1
  O  O56  1  0.13117000  0.48887900  0.14450100  1
  O  O57  1  0.13117000  0.51112100  0.64450100  1
  O  O58  1  0.00264300  0.77287300  0.89170700  1
  O  O59  1  0.09999200  0.10156500  0.90224600  1
  O  O60  1  0.68671750  0.41903550  0.03084900  1
  O  O61  1  0.90000800  0.10156500  0.59775400  1
  O  O62  1  0.99735700  0.77287300  0.60829300  1
  O  O63  1  0.10464700  0.26295700  0.64363300  1
  O  O64  1  0.68671750  0.58096450  0.53084900  1
  O  O65  1  0.99735700  0.22712700  0.10829300  1
  O  O66  1  0.86883000  0.48887900  0.35549900  1
  O  O67  1  0.82285200  0.60574000  0.09693500  1
