# generated using pymatgen
data_Ni2PdSe2
_symmetry_space_group_name_H-M   'P 1'
_cell_length_a   10.59817000
_cell_length_b   10.59817000
_cell_length_c   5.64996200
_cell_angle_alpha   90.00000000
_cell_angle_beta   90.00000000
_cell_angle_gamma   90.00000000
_symmetry_Int_Tables_number   1
_chemical_formula_structural   Ni2PdSe2
_chemical_formula_sum   'Ni16 Pd8 Se16'
_cell_volume   634.61055332
_cell_formula_units_Z   8
loop_
 _symmetry_equiv_pos_site_id
 _symmetry_equiv_pos_as_xyz
  1  'x, y, z'
loop_
 _atom_site_type_symbol
 _atom_site_label
 _atom_site_symmetry_multiplicity
 _atom_site_fract_x
 _atom_site_fract_y
 _atom_site_fract_z
 _atom_site_occupancy
  Ni  Ni0  1  0.65428300  0.84571700  0.25000000  1
  Ni  Ni1  1  0.34571700  0.84571700  0.25000000  1
  Ni  Ni2  1  0.65428300  0.15428300  0.75000000  1
  Ni  Ni3  1  0.34571700  0.15428300  0.75000000  1
  Ni  Ni4  1  0.34571700  0.84571700  0.75000000  1
  Ni  Ni5  1  0.65428300  0.15428300  0.25000000  1
  Ni  Ni6  1  0.34571700  0.15428300  0.25000000  1
  Ni  Ni7  1  0.65428300  0.84571700  0.75000000  1
  Ni  Ni8  1  0.15428300  0.34571700  0.75000000  1
  Ni  Ni9  1  0.84571700  0.34571700  0.75000000  1
  Ni  Ni10  1  0.15428300  0.65428300  0.25000000  1
  Ni  Ni11  1  0.84571700  0.65428300  0.25000000  1
  Ni  Ni12  1  0.84571700  0.34571700  0.25000000  1
  Ni  Ni13  1  0.15428300  0.65428300  0.75000000  1
  Ni  Ni14  1  0.84571700  0.65428300  0.75000000  1
  Ni  Ni15  1  0.15428300  0.34571700  0.25000000  1
  Pd  Pd16  1  0.00000000  0.00000000  0.50000000  1
  Pd  Pd17  1  0.00000000  0.00000000  0.00000000  1
  Pd  Pd18  1  0.50000000  0.00000000  0.00000000  1
  Pd  Pd19  1  0.50000000  0.00000000  0.50000000  1
  Pd  Pd20  1  0.50000000  0.50000000  0.00000000  1
  Pd  Pd21  1  0.50000000  0.50000000  0.50000000  1
  Pd  Pd22  1  0.00000000  0.50000000  0.50000000  1
  Pd  Pd23  1  0.00000000  0.50000000  0.00000000  1
  Se  Se24  1  0.50000000  0.25500000  0.00000000  1
  Se  Se25  1  0.50000000  0.74500000  0.00000000  1
  Se  Se26  1  0.66889500  0.33110500  0.50000000  1
  Se  Se27  1  0.83110500  0.16889500  0.00000000  1
  Se  Se28  1  0.24500000  0.00000000  0.50000000  1
  Se  Se29  1  0.83110500  0.83110500  0.00000000  1
  Se  Se30  1  0.66889500  0.66889500  0.50000000  1
  Se  Se31  1  0.75500000  0.00000000  0.50000000  1
  Se  Se32  1  0.00000000  0.75500000  0.50000000  1
  Se  Se33  1  0.00000000  0.24500000  0.50000000  1
  Se  Se34  1  0.16889500  0.83110500  0.00000000  1
  Se  Se35  1  0.33110500  0.66889500  0.50000000  1
  Se  Se36  1  0.74500000  0.50000000  0.00000000  1
  Se  Se37  1  0.33110500  0.33110500  0.50000000  1
  Se  Se38  1  0.16889500  0.16889500  0.00000000  1
  Se  Se39  1  0.25500000  0.50000000  0.00000000  1
