# generated using pymatgen
data_NaMn3F10
_symmetry_space_group_name_H-M   'P 1'
_cell_length_a   7.48413600
_cell_length_b   13.41706000
_cell_length_c   15.96251200
_cell_angle_alpha   90.00000000
_cell_angle_beta   90.00000000
_cell_angle_gamma   90.00000000
_symmetry_Int_Tables_number   1
_chemical_formula_structural   NaMn3F10
_chemical_formula_sum   'Na8 Mn24 F80'
_cell_volume   1602.87726683
_cell_formula_units_Z   8
loop_
 _symmetry_equiv_pos_site_id
 _symmetry_equiv_pos_as_xyz
  1  'x, y, z'
loop_
 _atom_site_type_symbol
 _atom_site_label
 _atom_site_symmetry_multiplicity
 _atom_site_fract_x
 _atom_site_fract_y
 _atom_site_fract_z
 _atom_site_occupancy
  Na  Na0  1  0.51388300  0.00000000  0.50000000  1
  Na  Na1  1  0.76388300  0.25000000  0.75000000  1
  Na  Na2  1  0.01388300  0.00000000  0.00000000  1
  Na  Na3  1  0.26388300  0.25000000  0.25000000  1
  Na  Na4  1  0.01388300  0.50000000  0.50000000  1
  Na  Na5  1  0.26388300  0.75000000  0.75000000  1
  Na  Na6  1  0.51388300  0.50000000  0.00000000  1
  Na  Na7  1  0.76388300  0.75000000  0.25000000  1
  Mn  Mn8  1  0.99461500  0.00000000  0.50000000  1
  Mn  Mn9  1  0.24461500  0.25000000  0.75000000  1
  Mn  Mn10  1  0.99179500  0.00029500  0.74973400  1
  Mn  Mn11  1  0.99179500  0.49970500  0.75026600  1
  Mn  Mn12  1  0.24179500  0.24970500  0.99973400  1
  Mn  Mn13  1  0.24179500  0.25029500  0.50026600  1
  Mn  Mn14  1  0.49461500  0.00000000  0.00000000  1
  Mn  Mn15  1  0.74461500  0.25000000  0.25000000  1
  Mn  Mn16  1  0.49179500  0.00029500  0.24973400  1
  Mn  Mn17  1  0.49179500  0.49970500  0.25026600  1
  Mn  Mn18  1  0.74179500  0.24970500  0.49973400  1
  Mn  Mn19  1  0.74179500  0.25029500  0.00026600  1
  Mn  Mn20  1  0.49461500  0.50000000  0.50000000  1
  Mn  Mn21  1  0.74461500  0.75000000  0.75000000  1
  Mn  Mn22  1  0.49179500  0.50029500  0.74973400  1
  Mn  Mn23  1  0.49179500  0.99970500  0.75026600  1
  Mn  Mn24  1  0.74179500  0.74970500  0.99973400  1
  Mn  Mn25  1  0.74179500  0.75029500  0.50026600  1
  Mn  Mn26  1  0.99461500  0.50000000  0.00000000  1
  Mn  Mn27  1  0.24461500  0.75000000  0.25000000  1
  Mn  Mn28  1  0.99179500  0.50029500  0.24973400  1
  Mn  Mn29  1  0.99179500  0.99970500  0.25026600  1
  Mn  Mn30  1  0.24179500  0.74970500  0.49973400  1
  Mn  Mn31  1  0.24179500  0.75029500  0.00026600  1
  F  F32  1  0.98440550  0.00325650  0.86348100  1
  F  F33  1  0.98440550  0.49674350  0.63651900  1
  F  F34  1  0.73440550  0.24674350  0.61348100  1
  F  F35  1  0.73440550  0.25325650  0.88651900  1
  F  F36  1  0.99162250  0.20365450  0.99608800  1
  F  F37  1  0.99162250  0.29634550  0.50391200  1
  F  F38  1  0.74162250  0.04634550  0.74608800  1
  F  F39  1  0.74162250  0.45365450  0.75391200  1
  F  F40  1  0.05932600  0.34713750  0.75167750  1
  F  F41  1  0.05932600  0.15286250  0.74832250  1
  F  F42  1  0.30932600  0.40286250  0.50167750  1
  F  F43  1  0.30932600  0.09713750  0.99832250  1
  F  F44  1  0.49752750  0.00008300  0.86698250  1
  F  F45  1  0.49752750  0.49991700  0.63301750  1
  F  F46  1  0.24752750  0.24991700  0.61698250  1
  F  F47  1  0.24752750  0.25008300  0.88301750  1
  F  F48  1  0.42467350  0.34884000  0.74904050  1
  F  F49  1  0.42467350  0.15116000  0.75095950  1
  F  F50  1  0.17467350  0.40116000  0.99904050  1
  F  F51  1  0.17467350  0.09884000  0.50095950  1
  F  F52  1  0.48440550  0.00325650  0.36348100  1
  F  F53  1  0.48440550  0.49674350  0.13651900  1
  F  F54  1  0.23440550  0.24674350  0.11348100  1
  F  F55  1  0.23440550  0.25325650  0.38651900  1
  F  F56  1  0.49162250  0.20365450  0.49608800  1
  F  F57  1  0.49162250  0.29634550  0.00391200  1
  F  F58  1  0.24162250  0.04634550  0.24608800  1
  F  F59  1  0.24162250  0.45365450  0.25391200  1
  F  F60  1  0.55932600  0.34713750  0.25167750  1
  F  F61  1  0.55932600  0.15286250  0.24832250  1
  F  F62  1  0.80932600  0.40286250  0.00167750  1
  F  F63  1  0.80932600  0.09713750  0.49832250  1
  F  F64  1  0.99752750  0.00008300  0.36698250  1
  F  F65  1  0.99752750  0.49991700  0.13301750  1
  F  F66  1  0.74752750  0.24991700  0.11698250  1
  F  F67  1  0.74752750  0.25008300  0.38301750  1
  F  F68  1  0.92467350  0.34884000  0.24904050  1
  F  F69  1  0.92467350  0.15116000  0.25095950  1
  F  F70  1  0.67467350  0.40116000  0.49904050  1
  F  F71  1  0.67467350  0.09884000  0.00095950  1
  F  F72  1  0.48440550  0.50325650  0.86348100  1
  F  F73  1  0.48440550  0.99674350  0.63651900  1
  F  F74  1  0.23440550  0.74674350  0.61348100  1
  F  F75  1  0.23440550  0.75325650  0.88651900  1
  F  F76  1  0.49162250  0.70365450  0.99608800  1
  F  F77  1  0.49162250  0.79634550  0.50391200  1
  F  F78  1  0.24162250  0.54634550  0.74608800  1
  F  F79  1  0.24162250  0.95365450  0.75391200  1
  F  F80  1  0.55932600  0.84713750  0.75167750  1
  F  F81  1  0.55932600  0.65286250  0.74832250  1
  F  F82  1  0.80932600  0.90286250  0.50167750  1
  F  F83  1  0.80932600  0.59713750  0.99832250  1
  F  F84  1  0.99752750  0.50008300  0.86698250  1
  F  F85  1  0.99752750  0.99991700  0.63301750  1
  F  F86  1  0.74752750  0.74991700  0.61698250  1
  F  F87  1  0.74752750  0.75008300  0.88301750  1
  F  F88  1  0.92467350  0.84884000  0.74904050  1
  F  F89  1  0.92467350  0.65116000  0.75095950  1
  F  F90  1  0.67467350  0.90116000  0.99904050  1
  F  F91  1  0.67467350  0.59884000  0.50095950  1
  F  F92  1  0.98440550  0.50325650  0.36348100  1
  F  F93  1  0.98440550  0.99674350  0.13651900  1
  F  F94  1  0.73440550  0.74674350  0.11348100  1
  F  F95  1  0.73440550  0.75325650  0.38651900  1
  F  F96  1  0.99162250  0.70365450  0.49608800  1
  F  F97  1  0.99162250  0.79634550  0.00391200  1
  F  F98  1  0.74162250  0.54634550  0.24608800  1
  F  F99  1  0.74162250  0.95365450  0.25391200  1
  F  F100  1  0.05932600  0.84713750  0.25167750  1
  F  F101  1  0.05932600  0.65286250  0.24832250  1
  F  F102  1  0.30932600  0.90286250  0.00167750  1
  F  F103  1  0.30932600  0.59713750  0.49832250  1
  F  F104  1  0.49752750  0.50008300  0.36698250  1
  F  F105  1  0.49752750  0.99991700  0.13301750  1
  F  F106  1  0.24752750  0.74991700  0.11698250  1
  F  F107  1  0.24752750  0.75008300  0.38301750  1
  F  F108  1  0.42467350  0.84884000  0.24904050  1
  F  F109  1  0.42467350  0.65116000  0.25095950  1
  F  F110  1  0.17467350  0.90116000  0.49904050  1
  F  F111  1  0.17467350  0.59884000  0.00095950  1
