# generated using pymatgen
data_MnP2O7
_symmetry_space_group_name_H-M   'P 1'
_cell_length_a   9.46048200
_cell_length_b   8.03195000
_cell_length_c   13.15520930
_cell_angle_alpha   90.00000000
_cell_angle_beta   109.94611676
_cell_angle_gamma   90.00000000
_symmetry_Int_Tables_number   1
_chemical_formula_structural   MnP2O7
_chemical_formula_sum   'Mn8 P16 O56'
_cell_volume   939.65034304
_cell_formula_units_Z   8
loop_
 _symmetry_equiv_pos_site_id
 _symmetry_equiv_pos_as_xyz
  1  'x, y, z'
loop_
 _atom_site_type_symbol
 _atom_site_label
 _atom_site_symmetry_multiplicity
 _atom_site_fract_x
 _atom_site_fract_y
 _atom_site_fract_z
 _atom_site_occupancy
  Mn  Mn0  1  0.64431050  0.76567950  0.14278800  1
  Mn  Mn1  1  0.14431050  0.73432050  0.64278800  1
  Mn  Mn2  1  0.35568950  0.76567950  0.35721200  1
  Mn  Mn3  1  0.85568950  0.73432050  0.85721200  1
  Mn  Mn4  1  0.14431050  0.26567950  0.14278800  1
  Mn  Mn5  1  0.64431050  0.23432050  0.64278800  1
  Mn  Mn6  1  0.85568950  0.26567950  0.35721200  1
  Mn  Mn7  1  0.35568950  0.23432050  0.85721200  1
  P  P8  1  0.37393700  0.03999400  0.06995500  1
  P  P9  1  0.62606300  0.03999400  0.43004500  1
  P  P10  1  0.83356400  0.91614000  0.63629100  1
  P  P11  1  0.66643600  0.41614000  0.86370900  1
  P  P12  1  0.83356400  0.08386000  0.13629100  1
  P  P13  1  0.66643600  0.58386000  0.36370900  1
  P  P14  1  0.87393700  0.46000600  0.56995500  1
  P  P15  1  0.12606300  0.46000600  0.93004500  1
  P  P16  1  0.87393700  0.53999400  0.06995500  1
  P  P17  1  0.12606300  0.53999400  0.43004500  1
  P  P18  1  0.33356400  0.41614000  0.63629100  1
  P  P19  1  0.16643600  0.91614000  0.86370900  1
  P  P20  1  0.33356400  0.58386000  0.13629100  1
  P  P21  1  0.16643600  0.08386000  0.36370900  1
  P  P22  1  0.37393700  0.96000600  0.56995500  1
  P  P23  1  0.62606300  0.96000600  0.93004500  1
  O  O24  1  0.27263000  0.08194600  0.13542500  1
  O  O25  1  0.48312250  0.95561550  0.35468100  1
  O  O26  1  0.70024850  0.72593750  0.29776000  1
  O  O27  1  0.01505450  0.89756850  0.88148700  1
  O  O28  1  0.70608050  0.90081950  0.51860800  1
  O  O29  1  0.51687750  0.95561550  0.14531900  1
  O  O30  1  0.98494550  0.89756850  0.61851300  1
  O  O31  1  0.09482300  0.69336500  0.49007600  1
  O  O32  1  0.20024850  0.77406250  0.79776000  1
  O  O33  1  0.40517700  0.19336500  0.00992400  1
  O  O34  1  0.81935600  0.09330700  0.67634100  1
  O  O35  1  0.79391950  0.40081950  0.98139200  1
  O  O36  1  0.72737000  0.08194600  0.36457500  1
  O  O37  1  0.81935600  0.90669300  0.17634100  1
  O  O38  1  0.68064400  0.59330700  0.82365900  1
  O  O39  1  0.77263000  0.41805400  0.63542500  1
  O  O40  1  0.70608050  0.09918050  0.01860800  1
  O  O41  1  0.68064400  0.40669300  0.32365900  1
  O  O42  1  0.09482300  0.30663500  0.99007600  1
  O  O43  1  0.29975150  0.72593750  0.20224000  1
  O  O44  1  0.40517700  0.80663500  0.50992400  1
  O  O45  1  0.51505450  0.60243150  0.38148700  1
  O  O46  1  0.98312250  0.54438450  0.85468100  1
  O  O47  1  0.79391950  0.59918050  0.48139200  1
  O  O48  1  0.48494550  0.60243150  0.11851300  1
  O  O49  1  0.79975150  0.77406250  0.70224000  1
  O  O50  1  0.01687750  0.54438450  0.64531900  1
  O  O51  1  0.22737000  0.41805400  0.86457500  1
  O  O52  1  0.77263000  0.58194600  0.13542500  1
  O  O53  1  0.98312250  0.45561550  0.35468100  1
  O  O54  1  0.20024850  0.22593750  0.29776000  1
  O  O55  1  0.51505450  0.39756850  0.88148700  1
  O  O56  1  0.20608050  0.40081950  0.51860800  1
  O  O57  1  0.01687750  0.45561550  0.14531900  1
  O  O58  1  0.48494550  0.39756850  0.61851300  1
  O  O59  1  0.59482300  0.19336500  0.49007600  1
  O  O60  1  0.70024850  0.27406250  0.79776000  1
  O  O61  1  0.90517700  0.69336500  0.00992400  1
  O  O62  1  0.31935600  0.59330700  0.67634100  1
  O  O63  1  0.29391950  0.90081950  0.98139200  1
  O  O64  1  0.22737000  0.58194600  0.36457500  1
  O  O65  1  0.31935600  0.40669300  0.17634100  1
  O  O66  1  0.18064400  0.09330700  0.82365900  1
  O  O67  1  0.27263000  0.91805400  0.63542500  1
  O  O68  1  0.20608050  0.59918050  0.01860800  1
  O  O69  1  0.18064400  0.90669300  0.32365900  1
  O  O70  1  0.59482300  0.80663500  0.99007600  1
  O  O71  1  0.79975150  0.22593750  0.20224000  1
  O  O72  1  0.90517700  0.30663500  0.50992400  1
  O  O73  1  0.01505450  0.10243150  0.38148700  1
  O  O74  1  0.48312250  0.04438450  0.85468100  1
  O  O75  1  0.29391950  0.09918050  0.48139200  1
  O  O76  1  0.98494550  0.10243150  0.11851300  1
  O  O77  1  0.29975150  0.27406250  0.70224000  1
  O  O78  1  0.51687750  0.04438450  0.64531900  1
  O  O79  1  0.72737000  0.91805400  0.86457500  1
