# generated using pymatgen
data_KMnH2OF4
_symmetry_space_group_name_H-M   'P 1'
_cell_length_a   13.84742200
_cell_length_b   6.36524400
_cell_length_c   10.72694516
_cell_angle_alpha   90.00000000
_cell_angle_beta   103.87742445
_cell_angle_gamma   90.00000000
_symmetry_Int_Tables_number   1
_chemical_formula_structural   KMnH2OF4
_chemical_formula_sum   'K8 Mn8 H16 O8 F32'
_cell_volume   917.89870983
_cell_formula_units_Z   8
loop_
 _symmetry_equiv_pos_site_id
 _symmetry_equiv_pos_as_xyz
  1  'x, y, z'
loop_
 _atom_site_type_symbol
 _atom_site_label
 _atom_site_symmetry_multiplicity
 _atom_site_fract_x
 _atom_site_fract_y
 _atom_site_fract_z
 _atom_site_occupancy
  K  K0  1  0.92103900  0.73984100  0.55616800  1
  K  K1  1  0.57896100  0.23984100  0.94383200  1
  K  K2  1  0.57896100  0.76015900  0.44383200  1
  K  K3  1  0.92103900  0.26015900  0.05616800  1
  K  K4  1  0.42103900  0.23984100  0.55616800  1
  K  K5  1  0.07896100  0.73984100  0.94383200  1
  K  K6  1  0.07896100  0.26015900  0.44383200  1
  K  K7  1  0.42103900  0.76015900  0.05616800  1
  Mn  Mn8  1  0.75000000  0.25000000  0.50000000  1
  Mn  Mn9  1  0.75000000  0.75000000  0.00000000  1
  Mn  Mn10  1  0.00000000  0.24319500  0.75000000  1
  Mn  Mn11  1  0.00000000  0.75680500  0.25000000  1
  Mn  Mn12  1  0.25000000  0.75000000  0.50000000  1
  Mn  Mn13  1  0.25000000  0.25000000  0.00000000  1
  Mn  Mn14  1  0.50000000  0.74319500  0.75000000  1
  Mn  Mn15  1  0.50000000  0.25680500  0.25000000  1
  H  H16  1  0.67933550  0.41280450  0.69508600  1
  H  H17  1  0.82066450  0.91280450  0.80491400  1
  H  H18  1  0.82066450  0.08719550  0.30491400  1
  H  H19  1  0.67933550  0.58719550  0.19508600  1
  H  H20  1  0.79675900  0.39596200  0.74446200  1
  H  H21  1  0.70324100  0.89596200  0.75553800  1
  H  H22  1  0.70324100  0.10403800  0.25553800  1
  H  H23  1  0.79675900  0.60403800  0.24446200  1
  H  H24  1  0.17933550  0.91280450  0.69508600  1
  H  H25  1  0.32066450  0.41280450  0.80491400  1
  H  H26  1  0.32066450  0.58719550  0.30491400  1
  H  H27  1  0.17933550  0.08719550  0.19508600  1
  H  H28  1  0.29675900  0.89596200  0.74446200  1
  H  H29  1  0.20324100  0.39596200  0.75553800  1
  H  H30  1  0.20324100  0.60403800  0.25553800  1
  H  H31  1  0.29675900  0.10403800  0.24446200  1
  O  O32  1  0.73758500  0.32484300  0.69131000  1
  O  O33  1  0.76241500  0.82484300  0.80869000  1
  O  O34  1  0.76241500  0.17515700  0.30869000  1
  O  O35  1  0.73758500  0.67515700  0.19131000  1
  O  O36  1  0.23758500  0.82484300  0.69131000  1
  O  O37  1  0.26241500  0.32484300  0.80869000  1
  O  O38  1  0.26241500  0.67515700  0.30869000  1
  O  O39  1  0.23758500  0.17515700  0.19131000  1
  F  F40  1  0.89960400  0.25469000  0.56230100  1
  F  F41  1  0.60039600  0.75469000  0.93769900  1
  F  F42  1  0.60039600  0.24531000  0.43769900  1
  F  F43  1  0.89960400  0.74531000  0.06230100  1
  F  F44  1  0.75074550  0.96720250  0.53771300  1
  F  F45  1  0.74925450  0.46720250  0.96228700  1
  F  F46  1  0.74925450  0.53279750  0.46228700  1
  F  F47  1  0.75074550  0.03279750  0.03771300  1
  F  F48  1  0.93105100  0.02940200  0.81643400  1
  F  F49  1  0.56894900  0.52940200  0.68356600  1
  F  F50  1  0.56894900  0.47059800  0.18356600  1
  F  F51  1  0.93105100  0.97059800  0.31643400  1
  F  F52  1  0.92550450  0.45421750  0.80862500  1
  F  F53  1  0.57449550  0.95421750  0.69137500  1
  F  F54  1  0.57449550  0.04578250  0.19137500  1
  F  F55  1  0.92550450  0.54578250  0.30862500  1
  F  F56  1  0.39960400  0.75469000  0.56230100  1
  F  F57  1  0.10039600  0.25469000  0.93769900  1
  F  F58  1  0.10039600  0.74531000  0.43769900  1
  F  F59  1  0.39960400  0.24531000  0.06230100  1
  F  F60  1  0.25074550  0.46720250  0.53771300  1
  F  F61  1  0.24925450  0.96720250  0.96228700  1
  F  F62  1  0.24925450  0.03279750  0.46228700  1
  F  F63  1  0.25074550  0.53279750  0.03771300  1
  F  F64  1  0.43105100  0.52940200  0.81643400  1
  F  F65  1  0.06894900  0.02940200  0.68356600  1
  F  F66  1  0.06894900  0.97059800  0.18356600  1
  F  F67  1  0.43105100  0.47059800  0.31643400  1
  F  F68  1  0.42550450  0.95421750  0.80862500  1
  F  F69  1  0.07449550  0.45421750  0.69137500  1
  F  F70  1  0.07449550  0.54578250  0.19137500  1
  F  F71  1  0.42550450  0.04578250  0.30862500  1
