# generated using pymatgen
data_LaSbMo2O9
_symmetry_space_group_name_H-M   'P 1'
_cell_length_a   13.36934000
_cell_length_b   14.89773200
_cell_length_c   11.14819788
_cell_angle_alpha   90.00000000
_cell_angle_beta   123.28934416
_cell_angle_gamma   90.00000000
_symmetry_Int_Tables_number   1
_chemical_formula_structural   LaSbMo2O9
_chemical_formula_sum   'La8 Sb8 Mo16 O72'
_cell_volume   1856.06863233
_cell_formula_units_Z   8
loop_
 _symmetry_equiv_pos_site_id
 _symmetry_equiv_pos_as_xyz
  1  'x, y, z'
loop_
 _atom_site_type_symbol
 _atom_site_label
 _atom_site_symmetry_multiplicity
 _atom_site_fract_x
 _atom_site_fract_y
 _atom_site_fract_z
 _atom_site_occupancy
  La  La0  1  0.50000000  0.62367000  0.25000000  1
  La  La1  1  0.50000000  0.37633000  0.75000000  1
  La  La2  1  0.50000000  0.82334000  0.75000000  1
  La  La3  1  0.50000000  0.17666000  0.25000000  1
  La  La4  1  0.00000000  0.12367000  0.25000000  1
  La  La5  1  0.00000000  0.87633000  0.75000000  1
  La  La6  1  0.00000000  0.32334000  0.75000000  1
  La  La7  1  0.00000000  0.67666000  0.25000000  1
  Sb  Sb8  1  0.36640250  0.01079050  0.46147000  1
  Sb  Sb9  1  0.63359750  0.98920950  0.53853000  1
  Sb  Sb10  1  0.63359750  0.01079050  0.03853000  1
  Sb  Sb11  1  0.36640250  0.98920950  0.96147000  1
  Sb  Sb12  1  0.86640250  0.51079050  0.46147000  1
  Sb  Sb13  1  0.13359750  0.48920950  0.53853000  1
  Sb  Sb14  1  0.13359750  0.51079050  0.03853000  1
  Sb  Sb15  1  0.86640250  0.48920950  0.96147000  1
  Mo  Mo16  1  0.75080050  0.18603850  0.80393800  1
  Mo  Mo17  1  0.15467050  0.89526950  0.52680400  1
  Mo  Mo18  1  0.84532950  0.89526950  0.97319600  1
  Mo  Mo19  1  0.24919950  0.81396150  0.19606200  1
  Mo  Mo20  1  0.15467050  0.10473050  0.02680400  1
  Mo  Mo21  1  0.24919950  0.18603850  0.69606200  1
  Mo  Mo22  1  0.84532950  0.10473050  0.47319600  1
  Mo  Mo23  1  0.75080050  0.81396150  0.30393800  1
  Mo  Mo24  1  0.25080050  0.68603850  0.80393800  1
  Mo  Mo25  1  0.65467050  0.39526950  0.52680400  1
  Mo  Mo26  1  0.34532950  0.39526950  0.97319600  1
  Mo  Mo27  1  0.74919950  0.31396150  0.19606200  1
  Mo  Mo28  1  0.65467050  0.60473050  0.02680400  1
  Mo  Mo29  1  0.74919950  0.68603850  0.69606200  1
  Mo  Mo30  1  0.34532950  0.60473050  0.47319600  1
  Mo  Mo31  1  0.25080050  0.31396150  0.30393800  1
  O  O32  1  0.68993300  0.90738600  0.92591600  1
  O  O33  1  0.41250600  0.70914900  0.55939300  1
  O  O34  1  0.70327400  0.91924900  0.19747000  1
  O  O35  1  0.37774400  0.76120500  0.22071100  1
  O  O36  1  0.31006700  0.09261400  0.07408400  1
  O  O37  1  0.92084450  0.98278050  0.09844800  1
  O  O38  1  0.31006700  0.90738600  0.57408400  1
  O  O39  1  0.37774400  0.23879500  0.72071100  1
  O  O40  1  0.68993300  0.09261400  0.42591600  1
  O  O41  1  0.58749400  0.29085100  0.44060700  1
  O  O42  1  0.62225600  0.23879500  0.77928900  1
  O  O43  1  0.51740800  0.05793800  0.09688300  1
  O  O44  1  0.14135550  0.91226250  0.67713000  1
  O  O45  1  0.64830700  0.34087400  0.01208900  1
  O  O46  1  0.29672600  0.91924900  0.30253000  1
  O  O47  1  0.35169300  0.65912600  0.98791100  1
  O  O48  1  0.48259200  0.94206200  0.90311700  1
  O  O49  1  0.67760700  0.76187300  0.74966700  1
  O  O50  1  0.67760700  0.23812700  0.24966700  1
  O  O51  1  0.29672600  0.08075100  0.80253000  1
  O  O52  1  0.07915550  0.01721950  0.90155200  1
  O  O53  1  0.35169300  0.34087400  0.48791100  1
  O  O54  1  0.41250600  0.29085100  0.05939300  1
  O  O55  1  0.85864450  0.08773750  0.32287000  1
  O  O56  1  0.32239300  0.76187300  0.75033300  1
  O  O57  1  0.70327400  0.08075100  0.69747000  1
  O  O58  1  0.62225600  0.76120500  0.27928900  1
  O  O59  1  0.92084450  0.01721950  0.59844800  1
  O  O60  1  0.85864450  0.91226250  0.82287000  1
  O  O61  1  0.48259200  0.05793800  0.40311700  1
  O  O62  1  0.51740800  0.94206200  0.59688300  1
  O  O63  1  0.32239300  0.23812700  0.25033300  1
  O  O64  1  0.07915550  0.98278050  0.40155200  1
  O  O65  1  0.14135550  0.08773750  0.17713000  1
  O  O66  1  0.64830700  0.65912600  0.51208900  1
  O  O67  1  0.58749400  0.70914900  0.94060700  1
  O  O68  1  0.18993300  0.40738600  0.92591600  1
  O  O69  1  0.91250600  0.20914900  0.55939300  1
  O  O70  1  0.20327400  0.41924900  0.19747000  1
  O  O71  1  0.87774400  0.26120500  0.22071100  1
  O  O72  1  0.81006700  0.59261400  0.07408400  1
  O  O73  1  0.42084450  0.48278050  0.09844800  1
  O  O74  1  0.81006700  0.40738600  0.57408400  1
  O  O75  1  0.87774400  0.73879500  0.72071100  1
  O  O76  1  0.18993300  0.59261400  0.42591600  1
  O  O77  1  0.08749400  0.79085100  0.44060700  1
  O  O78  1  0.12225600  0.73879500  0.77928900  1
  O  O79  1  0.01740800  0.55793800  0.09688300  1
  O  O80  1  0.64135550  0.41226250  0.67713000  1
  O  O81  1  0.14830700  0.84087400  0.01208900  1
  O  O82  1  0.79672600  0.41924900  0.30253000  1
  O  O83  1  0.85169300  0.15912600  0.98791100  1
  O  O84  1  0.98259200  0.44206200  0.90311700  1
  O  O85  1  0.17760700  0.26187300  0.74966700  1
  O  O86  1  0.17760700  0.73812700  0.24966700  1
  O  O87  1  0.79672600  0.58075100  0.80253000  1
  O  O88  1  0.57915550  0.51721950  0.90155200  1
  O  O89  1  0.85169300  0.84087400  0.48791100  1
  O  O90  1  0.91250600  0.79085100  0.05939300  1
  O  O91  1  0.35864450  0.58773750  0.32287000  1
  O  O92  1  0.82239300  0.26187300  0.75033300  1
  O  O93  1  0.20327400  0.58075100  0.69747000  1
  O  O94  1  0.12225600  0.26120500  0.27928900  1
  O  O95  1  0.42084450  0.51721950  0.59844800  1
  O  O96  1  0.35864450  0.41226250  0.82287000  1
  O  O97  1  0.98259200  0.55793800  0.40311700  1
  O  O98  1  0.01740800  0.44206200  0.59688300  1
  O  O99  1  0.82239300  0.73812700  0.25033300  1
  O  O100  1  0.57915550  0.48278050  0.40155200  1
  O  O101  1  0.64135550  0.58773750  0.17713000  1
  O  O102  1  0.14830700  0.15912600  0.51208900  1
  O  O103  1  0.08749400  0.20914900  0.94060700  1
