# generated using pymatgen
data_V9O17
_symmetry_space_group_name_H-M   'P 1'
_cell_length_a   5.56470467
_cell_length_b   7.11667897
_cell_length_c   14.73043698
_cell_angle_alpha   96.29100793
_cell_angle_beta   90.45317811
_cell_angle_gamma   108.23705285
_symmetry_Int_Tables_number   1
_chemical_formula_structural   V9O17
_chemical_formula_sum   'V18 O34'
_cell_volume   550.16883633
_cell_formula_units_Z   2
loop_
 _symmetry_equiv_pos_site_id
 _symmetry_equiv_pos_as_xyz
  1  'x, y, z'
loop_
 _atom_site_type_symbol
 _atom_site_label
 _atom_site_symmetry_multiplicity
 _atom_site_fract_x
 _atom_site_fract_y
 _atom_site_fract_z
 _atom_site_occupancy
  V  V0  1  0.67457900  0.91059900  0.27054300  1
  V  V1  1  0.32542100  0.08940100  0.72945700  1
  V  V2  1  0.25660000  0.10988800  0.15713700  1
  V  V3  1  0.74340000  0.89011200  0.84286300  1
  V  V4  1  0.65798500  0.41111800  0.27402200  1
  V  V5  1  0.34201500  0.58888200  0.72597800  1
  V  V6  1  0.08389600  0.20134000  0.38198500  1
  V  V7  1  0.91610400  0.79866000  0.61801500  1
  V  V8  1  0.75037700  0.38684400  0.83790400  1
  V  V9  1  0.24962300  0.61315600  0.16209600  1
  V  V10  1  0.19033300  0.68610600  0.95533200  1
  V  V11  1  0.80966700  0.31389400  0.04466800  1
  V  V12  1  0.07082000  0.69864900  0.38972400  1
  V  V13  1  0.92918000  0.30135100  0.61027600  1
  V  V14  1  0.19270800  0.18977000  0.95834300  1
  V  V15  1  0.80729200  0.81023000  0.04165700  1
  V  V16  1  0.50000000  0.00000000  0.50000000  1
  V  V17  1  0.50000000  0.50000000  0.50000000  1
  O  O18  1  0.84805500  0.18422400  0.90383800  1
  O  O19  1  0.15194500  0.81577600  0.09616200  1
  O  O20  1  0.02627600  0.06123900  0.24996700  1
  O  O21  1  0.97372400  0.93876100  0.75003300  1
  O  O22  1  0.79787400  0.02134300  0.58064700  1
  O  O23  1  0.20212600  0.97865700  0.41935300  1
  O  O24  1  0.79060800  0.52582600  0.97589600  1
  O  O25  1  0.20939200  0.47417400  0.02410400  1
  O  O26  1  0.29493200  0.97269100  0.60813100  1
  O  O27  1  0.70506800  0.02730900  0.39186900  1
  O  O28  1  0.44996500  0.36966800  0.37187600  1
  O  O29  1  0.55003500  0.63033200  0.62812400  1
  O  O30  1  0.20816600  0.30251500  0.69293100  1
  O  O31  1  0.79183400  0.69748500  0.30706900  1
  O  O32  1  0.37018200  0.39462900  0.19328300  1
  O  O33  1  0.62981800  0.60537100  0.80671700  1
  O  O34  1  0.85327200  0.66730400  0.49104800  1
  O  O35  1  0.14672800  0.33269600  0.50895200  1
  O  O36  1  0.53899300  0.81987500  0.95228600  1
  O  O37  1  0.46100700  0.18012500  0.04771400  1
  O  O38  1  0.96506700  0.11799300  0.06962600  1
  O  O39  1  0.03493300  0.88200700  0.93037400  1
  O  O40  1  0.55114000  0.12255100  0.22801400  1
  O  O41  1  0.44886000  0.87744900  0.77198600  1
  O  O42  1  0.60739900  0.77184500  0.14652200  1
  O  O43  1  0.39260100  0.22815500  0.85347800  1
  O  O44  1  0.96921100  0.42472300  0.34713200  1
  O  O45  1  0.03078900  0.57527700  0.65286800  1
  O  O46  1  0.62396400  0.29098500  0.53349300  1
  O  O47  1  0.37603600  0.70901500  0.46650700  1
  O  O48  1  0.69815400  0.26003500  0.72450400  1
  O  O49  1  0.30184600  0.73996500  0.27549600  1
  O  O50  1  0.88563900  0.45244300  0.16241700  1
  O  O51  1  0.11436100  0.54755700  0.83758300  1
