# generated using pymatgen
data_MnH10S2(NO2)4
_symmetry_space_group_name_H-M   'P 1'
_cell_length_a   5.49335207
_cell_length_b   5.92759392
_cell_length_c   7.52812978
_cell_angle_alpha   91.87603566
_cell_angle_beta   104.42736584
_cell_angle_gamma   99.15807133
_symmetry_Int_Tables_number   1
_chemical_formula_structural   MnH10S2(NO2)4
_chemical_formula_sum   'Mn1 H10 S2 N4 O8'
_cell_volume   233.70425927
_cell_formula_units_Z   1
loop_
 _symmetry_equiv_pos_site_id
 _symmetry_equiv_pos_as_xyz
  1  'x, y, z'
loop_
 _atom_site_type_symbol
 _atom_site_label
 _atom_site_symmetry_multiplicity
 _atom_site_fract_x
 _atom_site_fract_y
 _atom_site_fract_z
 _atom_site_occupancy
  Mn  Mn0  1  0.00000000  0.00000000  0.00000000  1
  H  H1  1  0.77276500  0.45036750  0.81367400  1
  H  H2  1  0.22723500  0.54963250  0.18632600  1
  H  H3  1  0.56517125  0.21191800  0.70741900  1
  H  H4  1  0.43482875  0.78808200  0.29258100  1
  H  H5  1  0.90361650  0.70062450  0.27718300  1
  H  H6  1  0.09638350  0.29937550  0.72281700  1
  H  H7  1  0.88431725  0.07677350  0.61917400  1
  H  H8  1  0.11568275  0.92322650  0.38082600  1
  H  H9  1  0.71013425  0.39732850  0.58003400  1
  H  H10  1  0.28986575  0.60267150  0.41996600  1
  S  S11  1  0.36385400  0.75594400  0.77611900  1
  S  S12  1  0.63614600  0.24405600  0.22388100  1
  N  N13  1  0.06431000  0.81097575  0.26530350  1
  N  N14  1  0.93569000  0.18902425  0.73469650  1
  N  N15  1  0.26660875  0.67545775  0.29231850  1
  N  N16  1  0.73339125  0.32454225  0.70768150  1
  O  O17  1  0.82547200  0.26623175  0.10938850  1
  O  O18  1  0.17452800  0.73376825  0.89061150  1
  O  O19  1  0.37261900  0.22818450  0.10252300  1
  O  O20  1  0.62738100  0.77181550  0.89747700  1
  O  O21  1  0.65865325  0.03867300  0.33208400  1
  O  O22  1  0.34134675  0.96132700  0.66791600  1
  O  O23  1  0.69443950  0.45493000  0.35242800  1
  O  O24  1  0.30556050  0.54507000  0.64757200  1
