# generated using pymatgen
data_Ca3Cu2(BrO2)2
_symmetry_space_group_name_H-M   'P 1'
_cell_length_a   3.87950800
_cell_length_b   3.87950800
_cell_length_c   23.91801400
_cell_angle_alpha   90.00000000
_cell_angle_beta   90.00000000
_cell_angle_gamma   90.00000000
_symmetry_Int_Tables_number   1
_chemical_formula_structural   Ca3Cu2(BrO2)2
_chemical_formula_sum   'Ca6 Cu4 Br4 O8'
_cell_volume   359.98003869
_cell_formula_units_Z   2
loop_
 _symmetry_equiv_pos_site_id
 _symmetry_equiv_pos_as_xyz
  1  'x, y, z'
loop_
 _atom_site_type_symbol
 _atom_site_label
 _atom_site_symmetry_multiplicity
 _atom_site_fract_x
 _atom_site_fract_y
 _atom_site_fract_z
 _atom_site_occupancy
  Ca  Ca0  1  0.50000000  0.50000000  0.36742600  1
  Ca  Ca1  1  0.00000000  0.00000000  0.13257400  1
  Ca  Ca2  1  0.00000000  0.00000000  0.00000000  1
  Ca  Ca3  1  0.00000000  0.00000000  0.86742600  1
  Ca  Ca4  1  0.50000000  0.50000000  0.63257400  1
  Ca  Ca5  1  0.50000000  0.50000000  0.50000000  1
  Cu  Cu6  1  0.50000000  0.50000000  0.06576300  1
  Cu  Cu7  1  0.00000000  0.00000000  0.43423700  1
  Cu  Cu8  1  0.00000000  0.00000000  0.56576300  1
  Cu  Cu9  1  0.50000000  0.50000000  0.93423700  1
  Br  Br10  1  0.50000000  0.50000000  0.19211900  1
  Br  Br11  1  0.00000000  0.00000000  0.30788100  1
  Br  Br12  1  0.00000000  0.00000000  0.69211900  1
  Br  Br13  1  0.50000000  0.50000000  0.80788100  1
  O  O14  1  0.00000000  0.50000000  0.06784400  1
  O  O15  1  0.50000000  0.00000000  0.43215600  1
  O  O16  1  0.50000000  0.00000000  0.06784400  1
  O  O17  1  0.00000000  0.50000000  0.43215600  1
  O  O18  1  0.50000000  0.00000000  0.56784400  1
  O  O19  1  0.00000000  0.50000000  0.93215600  1
  O  O20  1  0.00000000  0.50000000  0.56784400  1
  O  O21  1  0.50000000  0.00000000  0.93215600  1
