# generated using pymatgen
data_Ti4As3
_symmetry_space_group_name_H-M   'P 1'
_cell_length_a   7.69170000
_cell_length_b   7.69170000
_cell_length_c   7.69170000
_cell_angle_alpha   90.00000000
_cell_angle_beta   90.00000000
_cell_angle_gamma   90.00000000
_symmetry_Int_Tables_number   1
_chemical_formula_structural   Ti4As3
_chemical_formula_sum   'Ti16 As12'
_cell_volume   455.05826979
_cell_formula_units_Z   4
loop_
 _symmetry_equiv_pos_site_id
 _symmetry_equiv_pos_as_xyz
  1  'x, y, z'
loop_
 _atom_site_type_symbol
 _atom_site_label
 _atom_site_symmetry_multiplicity
 _atom_site_fract_x
 _atom_site_fract_y
 _atom_site_fract_z
 _atom_site_occupancy
  Ti  Ti0  1  0.32431600  0.17568400  0.82431600  1
  Ti  Ti1  1  0.17568400  0.17568400  0.17568400  1
  Ti  Ti2  1  0.92568400  0.07431600  0.57431600  1
  Ti  Ti3  1  0.82431600  0.32431600  0.17568400  1
  Ti  Ti4  1  0.42568400  0.42568400  0.42568400  1
  Ti  Ti5  1  0.07431600  0.57431600  0.92568400  1
  Ti  Ti6  1  0.57431600  0.92568400  0.07431600  1
  Ti  Ti7  1  0.17568400  0.82431600  0.32431600  1
  Ti  Ti8  1  0.82431600  0.67568400  0.32431600  1
  Ti  Ti9  1  0.67568400  0.67568400  0.67568400  1
  Ti  Ti10  1  0.42568400  0.57431600  0.07431600  1
  Ti  Ti11  1  0.32431600  0.82431600  0.67568400  1
  Ti  Ti12  1  0.92568400  0.92568400  0.92568400  1
  Ti  Ti13  1  0.57431600  0.07431600  0.42568400  1
  Ti  Ti14  1  0.07431600  0.42568400  0.57431600  1
  Ti  Ti15  1  0.67568400  0.32431600  0.82431600  1
  As  As16  1  0.75000000  0.37500000  0.50000000  1
  As  As17  1  0.50000000  0.25000000  0.12500000  1
  As  As18  1  0.50000000  0.75000000  0.37500000  1
  As  As19  1  0.25000000  0.12500000  0.50000000  1
  As  As20  1  0.37500000  0.50000000  0.75000000  1
  As  As21  1  0.12500000  0.50000000  0.25000000  1
  As  As22  1  0.25000000  0.87500000  0.00000000  1
  As  As23  1  0.00000000  0.75000000  0.62500000  1
  As  As24  1  0.00000000  0.25000000  0.87500000  1
  As  As25  1  0.75000000  0.62500000  0.00000000  1
  As  As26  1  0.87500000  0.00000000  0.25000000  1
  As  As27  1  0.62500000  0.00000000  0.75000000  1
