# generated using pymatgen
data_KHgC2
_symmetry_space_group_name_H-M   'P 1'
_cell_length_a   5.14896000
_cell_length_b   8.98732200
_cell_length_c   36.34501400
_cell_angle_alpha   90.00000000
_cell_angle_beta   90.00000000
_cell_angle_gamma   90.00000000
_symmetry_Int_Tables_number   1
_chemical_formula_structural   KHgC2
_chemical_formula_sum   'K16 Hg16 C32'
_cell_volume   1681.87866103
_cell_formula_units_Z   16
loop_
 _symmetry_equiv_pos_site_id
 _symmetry_equiv_pos_as_xyz
  1  'x, y, z'
loop_
 _atom_site_type_symbol
 _atom_site_label
 _atom_site_symmetry_multiplicity
 _atom_site_fract_x
 _atom_site_fract_y
 _atom_site_fract_z
 _atom_site_occupancy
  K  K0  1  0.50000000  0.00000000  0.93581600  1
  K  K1  1  0.75000000  0.75000000  0.81418400  1
  K  K2  1  0.75000000  0.75000000  0.68581600  1
  K  K3  1  0.00000000  0.00000000  0.56418400  1
  K  K4  1  0.50000000  0.50000000  0.43581600  1
  K  K5  1  0.75000000  0.25000000  0.31418400  1
  K  K6  1  0.75000000  0.25000000  0.18581600  1
  K  K7  1  0.00000000  0.50000000  0.06418400  1
  K  K8  1  0.00000000  0.00000000  0.43581600  1
  K  K9  1  0.25000000  0.75000000  0.31418400  1
  K  K10  1  0.25000000  0.75000000  0.18581600  1
  K  K11  1  0.50000000  0.00000000  0.06418400  1
  K  K12  1  0.00000000  0.50000000  0.93581600  1
  K  K13  1  0.25000000  0.25000000  0.81418400  1
  K  K14  1  0.25000000  0.25000000  0.68581600  1
  K  K15  1  0.50000000  0.50000000  0.56418400  1
  Hg  Hg16  1  0.00000000  0.83523500  0.00000000  1
  Hg  Hg17  1  0.25000000  0.58523500  0.75000000  1
  Hg  Hg18  1  0.25000000  0.91476500  0.75000000  1
  Hg  Hg19  1  0.50000000  0.66476500  0.00000000  1
  Hg  Hg20  1  0.00000000  0.33523500  0.50000000  1
  Hg  Hg21  1  0.25000000  0.08523500  0.25000000  1
  Hg  Hg22  1  0.25000000  0.41476500  0.25000000  1
  Hg  Hg23  1  0.50000000  0.16476500  0.50000000  1
  Hg  Hg24  1  0.50000000  0.83523500  0.50000000  1
  Hg  Hg25  1  0.75000000  0.58523500  0.25000000  1
  Hg  Hg26  1  0.75000000  0.91476500  0.25000000  1
  Hg  Hg27  1  0.00000000  0.66476500  0.50000000  1
  Hg  Hg28  1  0.50000000  0.33523500  0.00000000  1
  Hg  Hg29  1  0.75000000  0.08523500  0.75000000  1
  Hg  Hg30  1  0.75000000  0.41476500  0.75000000  1
  Hg  Hg31  1  0.00000000  0.16476500  0.00000000  1
  C  C32  1  0.31220300  0.68750250  0.87502550  1
  C  C33  1  0.43779700  0.93750250  0.62502550  1
  C  C34  1  0.43779700  0.56249750  0.87497450  1
  C  C35  1  0.06220300  0.93750250  0.87497450  1
  C  C36  1  0.18779700  0.81249750  0.87502550  1
  C  C37  1  0.18779700  0.68750250  0.62497450  1
  C  C38  1  0.06220300  0.56249750  0.62502550  1
  C  C39  1  0.31220300  0.81249750  0.62497450  1
  C  C40  1  0.31220300  0.18750250  0.37502550  1
  C  C41  1  0.43779700  0.43750250  0.12502550  1
  C  C42  1  0.43779700  0.06249750  0.37497450  1
  C  C43  1  0.06220300  0.43750250  0.37497450  1
  C  C44  1  0.18779700  0.31249750  0.37502550  1
  C  C45  1  0.18779700  0.18750250  0.12497450  1
  C  C46  1  0.06220300  0.06249750  0.12502550  1
  C  C47  1  0.31220300  0.31249750  0.12497450  1
  C  C48  1  0.81220300  0.68750250  0.37502550  1
  C  C49  1  0.93779700  0.93750250  0.12502550  1
  C  C50  1  0.93779700  0.56249750  0.37497450  1
  C  C51  1  0.56220300  0.93750250  0.37497450  1
  C  C52  1  0.68779700  0.81249750  0.37502550  1
  C  C53  1  0.68779700  0.68750250  0.12497450  1
  C  C54  1  0.56220300  0.56249750  0.12502550  1
  C  C55  1  0.81220300  0.81249750  0.12497450  1
  C  C56  1  0.81220300  0.18750250  0.87502550  1
  C  C57  1  0.93779700  0.43750250  0.62502550  1
  C  C58  1  0.93779700  0.06249750  0.87497450  1
  C  C59  1  0.56220300  0.43750250  0.87497450  1
  C  C60  1  0.68779700  0.31249750  0.87502550  1
  C  C61  1  0.68779700  0.18750250  0.62497450  1
  C  C62  1  0.56220300  0.06249750  0.62502550  1
  C  C63  1  0.81220300  0.31249750  0.62497450  1
