# generated using pymatgen
data_LuNiGe
_symmetry_space_group_name_H-M   'P 1'
_cell_length_a   4.12402200
_cell_length_b   21.98729200
_cell_length_c   9.16136800
_cell_angle_alpha   90.00000000
_cell_angle_beta   90.00000000
_cell_angle_gamma   90.00000000
_symmetry_Int_Tables_number   1
_chemical_formula_structural   LuNiGe
_chemical_formula_sum   'Lu16 Ni16 Ge16'
_cell_volume   830.71690038
_cell_formula_units_Z   16
loop_
 _symmetry_equiv_pos_site_id
 _symmetry_equiv_pos_as_xyz
  1  'x, y, z'
loop_
 _atom_site_type_symbol
 _atom_site_label
 _atom_site_symmetry_multiplicity
 _atom_site_fract_x
 _atom_site_fract_y
 _atom_site_fract_z
 _atom_site_occupancy
  Lu  Lu0  1  0.00000000  0.88496200  0.25000000  1
  Lu  Lu1  1  0.50000000  0.91667100  0.55960900  1
  Lu  Lu2  1  0.50000000  0.77418900  0.75000000  1
  Lu  Lu3  1  0.00000000  0.58332900  0.44039100  1
  Lu  Lu4  1  0.00000000  0.58332900  0.05960900  1
  Lu  Lu5  1  0.00000000  0.72581100  0.25000000  1
  Lu  Lu6  1  0.50000000  0.61503800  0.75000000  1
  Lu  Lu7  1  0.50000000  0.91667100  0.94039100  1
  Lu  Lu8  1  0.50000000  0.38496200  0.25000000  1
  Lu  Lu9  1  0.00000000  0.41667100  0.55960900  1
  Lu  Lu10  1  0.00000000  0.27418900  0.75000000  1
  Lu  Lu11  1  0.50000000  0.08332900  0.44039100  1
  Lu  Lu12  1  0.50000000  0.08332900  0.05960900  1
  Lu  Lu13  1  0.50000000  0.22581100  0.25000000  1
  Lu  Lu14  1  0.00000000  0.11503800  0.75000000  1
  Lu  Lu15  1  0.00000000  0.41667100  0.94039100  1
  Ni  Ni16  1  0.00000000  0.97194800  0.75000000  1
  Ni  Ni17  1  0.50000000  0.69072600  0.48266200  1
  Ni  Ni18  1  0.00000000  0.80927400  0.98266200  1
  Ni  Ni19  1  0.50000000  0.52805200  0.25000000  1
  Ni  Ni20  1  0.50000000  0.69072600  0.01733800  1
  Ni  Ni21  1  0.00000000  0.80927400  0.51733800  1
  Ni  Ni22  1  0.00000000  0.00000000  0.50000000  1
  Ni  Ni23  1  0.00000000  0.00000000  0.00000000  1
  Ni  Ni24  1  0.50000000  0.47194800  0.75000000  1
  Ni  Ni25  1  0.00000000  0.19072600  0.48266200  1
  Ni  Ni26  1  0.50000000  0.30927400  0.98266200  1
  Ni  Ni27  1  0.00000000  0.02805200  0.25000000  1
  Ni  Ni28  1  0.00000000  0.19072600  0.01733800  1
  Ni  Ni29  1  0.50000000  0.30927400  0.51733800  1
  Ni  Ni30  1  0.50000000  0.50000000  0.50000000  1
  Ni  Ni31  1  0.50000000  0.50000000  0.00000000  1
  Ge  Ge32  1  0.00000000  0.52536200  0.75000000  1
  Ge  Ge33  1  0.50000000  0.63637100  0.25000000  1
  Ge  Ge34  1  0.50000000  0.80038800  0.39715800  1
  Ge  Ge35  1  0.00000000  0.86362900  0.75000000  1
  Ge  Ge36  1  0.00000000  0.69961200  0.89715800  1
  Ge  Ge37  1  0.00000000  0.69961200  0.60284200  1
  Ge  Ge38  1  0.50000000  0.80038800  0.10284200  1
  Ge  Ge39  1  0.50000000  0.97463800  0.25000000  1
  Ge  Ge40  1  0.50000000  0.02536200  0.75000000  1
  Ge  Ge41  1  0.00000000  0.13637100  0.25000000  1
  Ge  Ge42  1  0.00000000  0.30038800  0.39715800  1
  Ge  Ge43  1  0.50000000  0.36362900  0.75000000  1
  Ge  Ge44  1  0.50000000  0.19961200  0.89715800  1
  Ge  Ge45  1  0.50000000  0.19961200  0.60284200  1
  Ge  Ge46  1  0.00000000  0.30038800  0.10284200  1
  Ge  Ge47  1  0.00000000  0.47463800  0.25000000  1
