# generated using pymatgen
data_Li2FeP2O7
_symmetry_space_group_name_H-M   'P 1'
_cell_length_a   8.08012625
_cell_length_b   12.84024520
_cell_length_c   5.58297975
_cell_angle_alpha   90.00000000
_cell_angle_beta   90.56861322
_cell_angle_gamma   90.00000000
_symmetry_Int_Tables_number   1
_chemical_formula_structural   Li2FeP2O7
_chemical_formula_sum   'Li8 Fe4 P8 O28'
_cell_volume   579.21010460
_cell_formula_units_Z   4
loop_
 _symmetry_equiv_pos_site_id
 _symmetry_equiv_pos_as_xyz
  1  'x, y, z'
loop_
 _atom_site_type_symbol
 _atom_site_label
 _atom_site_symmetry_multiplicity
 _atom_site_fract_x
 _atom_site_fract_y
 _atom_site_fract_z
 _atom_site_occupancy
  Li  Li0  1  0.50000000  0.21526325  0.50000000  1
  Li  Li1  1  0.50000000  0.78473675  0.50000000  1
  Li  Li2  1  0.50000000  0.78562550  0.00000000  1
  Li  Li3  1  0.50000000  0.21437450  0.00000000  1
  Li  Li4  1  0.00000000  0.71526325  0.50000000  1
  Li  Li5  1  0.00000000  0.28473675  0.50000000  1
  Li  Li6  1  0.00000000  0.28562550  0.00000000  1
  Li  Li7  1  0.00000000  0.71437450  0.00000000  1
  Fe  Fe8  1  0.30605225  0.00000000  0.25796500  1
  Fe  Fe9  1  0.69394775  0.00000000  0.74203500  1
  Fe  Fe10  1  0.80605225  0.50000000  0.25796500  1
  Fe  Fe11  1  0.19394775  0.50000000  0.74203500  1
  P  P12  1  0.79742825  0.88863625  0.24456800  1
  P  P13  1  0.20257175  0.11136375  0.75543200  1
  P  P14  1  0.20257175  0.88863625  0.75543200  1
  P  P15  1  0.79742825  0.11136375  0.24456800  1
  P  P16  1  0.29742825  0.38863625  0.24456800  1
  P  P17  1  0.70257175  0.61136375  0.75543200  1
  P  P18  1  0.70257175  0.38863625  0.75543200  1
  P  P19  1  0.29742825  0.61136375  0.24456800  1
  O  O20  1  0.10391950  0.00000000  0.75204300  1
  O  O21  1  0.89608050  0.00000000  0.24795700  1
  O  O22  1  0.57098900  0.30570500  0.75144300  1
  O  O23  1  0.57098900  0.69429500  0.75144300  1
  O  O24  1  0.42901100  0.30570500  0.24855700  1
  O  O25  1  0.42901100  0.69429500  0.24855700  1
  O  O26  1  0.31028925  0.11104475  0.98636000  1
  O  O27  1  0.68971075  0.88895525  0.01364000  1
  O  O28  1  0.68971075  0.11104475  0.01364000  1
  O  O29  1  0.31028925  0.88895525  0.98636000  1
  O  O30  1  0.68652250  0.88888950  0.46953500  1
  O  O31  1  0.68652250  0.11111050  0.46953500  1
  O  O32  1  0.31347750  0.11111050  0.53046500  1
  O  O33  1  0.31347750  0.88888950  0.53046500  1
  O  O34  1  0.60391950  0.50000000  0.75204300  1
  O  O35  1  0.39608050  0.50000000  0.24795700  1
  O  O36  1  0.07098900  0.80570500  0.75144300  1
  O  O37  1  0.07098900  0.19429500  0.75144300  1
  O  O38  1  0.92901100  0.80570500  0.24855700  1
  O  O39  1  0.92901100  0.19429500  0.24855700  1
  O  O40  1  0.81028925  0.61104475  0.98636000  1
  O  O41  1  0.18971075  0.38895525  0.01364000  1
  O  O42  1  0.18971075  0.61104475  0.01364000  1
  O  O43  1  0.81028925  0.38895525  0.98636000  1
  O  O44  1  0.18652250  0.38888950  0.46953500  1
  O  O45  1  0.18652250  0.61111050  0.46953500  1
  O  O46  1  0.81347750  0.61111050  0.53046500  1
  O  O47  1  0.81347750  0.38888950  0.53046500  1
