# generated using pymatgen
data_Er3(P3Pd10)2
_symmetry_space_group_name_H-M   'P 1'
_cell_length_a   12.26827600
_cell_length_b   12.26827600
_cell_length_c   12.26827600
_cell_angle_alpha   90.00000000
_cell_angle_beta   90.00000000
_cell_angle_gamma   90.00000000
_symmetry_Int_Tables_number   1
_chemical_formula_structural   Er3(P3Pd10)2
_chemical_formula_sum   'Er12 P24 Pd80'
_cell_volume   1846.50553280
_cell_formula_units_Z   4
loop_
 _symmetry_equiv_pos_site_id
 _symmetry_equiv_pos_as_xyz
  1  'x, y, z'
loop_
 _atom_site_type_symbol
 _atom_site_label
 _atom_site_symmetry_multiplicity
 _atom_site_fract_x
 _atom_site_fract_y
 _atom_site_fract_z
 _atom_site_occupancy
  Er  Er0  1  0.00000000  0.00000000  0.00000000  1
  Er  Er1  1  0.25000000  0.25000000  0.75000000  1
  Er  Er2  1  0.25000000  0.75000000  0.75000000  1
  Er  Er3  1  0.00000000  0.50000000  0.50000000  1
  Er  Er4  1  0.25000000  0.75000000  0.25000000  1
  Er  Er5  1  0.25000000  0.25000000  0.25000000  1
  Er  Er6  1  0.50000000  0.00000000  0.50000000  1
  Er  Er7  1  0.75000000  0.25000000  0.25000000  1
  Er  Er8  1  0.75000000  0.75000000  0.25000000  1
  Er  Er9  1  0.50000000  0.50000000  0.00000000  1
  Er  Er10  1  0.75000000  0.75000000  0.75000000  1
  Er  Er11  1  0.75000000  0.25000000  0.75000000  1
  P  P12  1  0.26329000  0.00000000  0.00000000  1
  P  P13  1  0.00000000  0.00000000  0.73671000  1
  P  P14  1  0.50000000  0.23671000  0.00000000  1
  P  P15  1  0.50000000  0.76329000  0.00000000  1
  P  P16  1  0.73671000  0.00000000  0.00000000  1
  P  P17  1  0.50000000  0.00000000  0.76329000  1
  P  P18  1  0.26329000  0.50000000  0.50000000  1
  P  P19  1  0.00000000  0.50000000  0.23671000  1
  P  P20  1  0.50000000  0.73671000  0.50000000  1
  P  P21  1  0.50000000  0.26329000  0.50000000  1
  P  P22  1  0.73671000  0.50000000  0.50000000  1
  P  P23  1  0.50000000  0.50000000  0.26329000  1
  P  P24  1  0.76329000  0.00000000  0.50000000  1
  P  P25  1  0.50000000  0.00000000  0.23671000  1
  P  P26  1  0.00000000  0.23671000  0.50000000  1
  P  P27  1  0.00000000  0.76329000  0.50000000  1
  P  P28  1  0.23671000  0.00000000  0.50000000  1
  P  P29  1  0.00000000  0.00000000  0.26329000  1
  P  P30  1  0.76329000  0.50000000  0.00000000  1
  P  P31  1  0.50000000  0.50000000  0.73671000  1
  P  P32  1  0.00000000  0.73671000  0.00000000  1
  P  P33  1  0.00000000  0.26329000  0.00000000  1
  P  P34  1  0.23671000  0.50000000  0.00000000  1
  P  P35  1  0.00000000  0.50000000  0.76329000  1
  Pd  Pd36  1  0.00000000  0.67258250  0.67258250  1
  Pd  Pd37  1  0.00000000  0.17258250  0.82741750  1
  Pd  Pd38  1  0.32741750  0.00000000  0.67258250  1
  Pd  Pd39  1  0.82741750  0.00000000  0.82741750  1
  Pd  Pd40  1  0.17258250  0.82741750  0.00000000  1
  Pd  Pd41  1  0.88412667  0.88412667  0.61587333  1
  Pd  Pd42  1  0.11587333  0.88412667  0.61587333  1
  Pd  Pd43  1  0.61587333  0.88412667  0.88412667  1
  Pd  Pd44  1  0.17258250  0.00000000  0.82741750  1
  Pd  Pd45  1  0.00000000  0.32741750  0.67258250  1
  Pd  Pd46  1  0.00000000  0.82741750  0.82741750  1
  Pd  Pd47  1  0.17258250  0.17258250  0.00000000  1
  Pd  Pd48  1  0.38412667  0.11587333  0.88412667  1
  Pd  Pd49  1  0.32741750  0.67258250  0.00000000  1
  Pd  Pd50  1  0.38412667  0.88412667  0.88412667  1
  Pd  Pd51  1  0.11587333  0.11587333  0.61587333  1
  Pd  Pd52  1  0.61587333  0.11587333  0.88412667  1
  Pd  Pd53  1  0.32741750  0.32741750  0.00000000  1
  Pd  Pd54  1  0.88412667  0.11587333  0.61587333  1
  Pd  Pd55  1  0.67258250  0.00000000  0.67258250  1
  Pd  Pd56  1  0.00000000  0.17258250  0.17258250  1
  Pd  Pd57  1  0.00000000  0.67258250  0.32741750  1
  Pd  Pd58  1  0.32741750  0.50000000  0.17258250  1
  Pd  Pd59  1  0.82741750  0.50000000  0.32741750  1
  Pd  Pd60  1  0.17258250  0.32741750  0.50000000  1
  Pd  Pd61  1  0.88412667  0.38412667  0.11587333  1
  Pd  Pd62  1  0.11587333  0.38412667  0.11587333  1
  Pd  Pd63  1  0.61587333  0.38412667  0.38412667  1
  Pd  Pd64  1  0.17258250  0.50000000  0.32741750  1
  Pd  Pd65  1  0.00000000  0.82741750  0.17258250  1
  Pd  Pd66  1  0.00000000  0.32741750  0.32741750  1
  Pd  Pd67  1  0.17258250  0.67258250  0.50000000  1
  Pd  Pd68  1  0.38412667  0.61587333  0.38412667  1
  Pd  Pd69  1  0.32741750  0.17258250  0.50000000  1
  Pd  Pd70  1  0.38412667  0.38412667  0.38412667  1
  Pd  Pd71  1  0.11587333  0.61587333  0.11587333  1
  Pd  Pd72  1  0.61587333  0.61587333  0.38412667  1
  Pd  Pd73  1  0.32741750  0.82741750  0.50000000  1
  Pd  Pd74  1  0.88412667  0.61587333  0.11587333  1
  Pd  Pd75  1  0.67258250  0.50000000  0.17258250  1
  Pd  Pd76  1  0.50000000  0.67258250  0.17258250  1
  Pd  Pd77  1  0.50000000  0.17258250  0.32741750  1
  Pd  Pd78  1  0.82741750  0.00000000  0.17258250  1
  Pd  Pd79  1  0.32741750  0.00000000  0.32741750  1
  Pd  Pd80  1  0.67258250  0.82741750  0.50000000  1
  Pd  Pd81  1  0.38412667  0.88412667  0.11587333  1
  Pd  Pd82  1  0.61587333  0.88412667  0.11587333  1
  Pd  Pd83  1  0.11587333  0.88412667  0.38412667  1
  Pd  Pd84  1  0.67258250  0.00000000  0.32741750  1
  Pd  Pd85  1  0.50000000  0.32741750  0.17258250  1
  Pd  Pd86  1  0.50000000  0.82741750  0.32741750  1
  Pd  Pd87  1  0.67258250  0.17258250  0.50000000  1
  Pd  Pd88  1  0.88412667  0.11587333  0.38412667  1
  Pd  Pd89  1  0.82741750  0.67258250  0.50000000  1
  Pd  Pd90  1  0.88412667  0.88412667  0.38412667  1
  Pd  Pd91  1  0.61587333  0.11587333  0.11587333  1
  Pd  Pd92  1  0.11587333  0.11587333  0.38412667  1
  Pd  Pd93  1  0.82741750  0.32741750  0.50000000  1
  Pd  Pd94  1  0.38412667  0.11587333  0.11587333  1
  Pd  Pd95  1  0.17258250  0.00000000  0.17258250  1
  Pd  Pd96  1  0.50000000  0.17258250  0.67258250  1
  Pd  Pd97  1  0.50000000  0.67258250  0.82741750  1
  Pd  Pd98  1  0.82741750  0.50000000  0.67258250  1
  Pd  Pd99  1  0.32741750  0.50000000  0.82741750  1
  Pd  Pd100  1  0.67258250  0.32741750  0.00000000  1
  Pd  Pd101  1  0.38412667  0.38412667  0.61587333  1
  Pd  Pd102  1  0.61587333  0.38412667  0.61587333  1
  Pd  Pd103  1  0.11587333  0.38412667  0.88412667  1
  Pd  Pd104  1  0.67258250  0.50000000  0.82741750  1
  Pd  Pd105  1  0.50000000  0.82741750  0.67258250  1
  Pd  Pd106  1  0.50000000  0.32741750  0.82741750  1
  Pd  Pd107  1  0.67258250  0.67258250  0.00000000  1
  Pd  Pd108  1  0.88412667  0.61587333  0.88412667  1
  Pd  Pd109  1  0.82741750  0.17258250  0.00000000  1
  Pd  Pd110  1  0.88412667  0.38412667  0.88412667  1
  Pd  Pd111  1  0.61587333  0.61587333  0.61587333  1
  Pd  Pd112  1  0.11587333  0.61587333  0.88412667  1
  Pd  Pd113  1  0.82741750  0.82741750  0.00000000  1
  Pd  Pd114  1  0.38412667  0.61587333  0.61587333  1
  Pd  Pd115  1  0.17258250  0.50000000  0.67258250  1
