# generated using pymatgen
data_Cs2Mn3Te4
_symmetry_space_group_name_H-M   'P 1'
_cell_length_a   6.66509000
_cell_length_b   13.09671200
_cell_length_c   15.59992800
_cell_angle_alpha   90.00000000
_cell_angle_beta   90.00000000
_cell_angle_gamma   90.00000000
_symmetry_Int_Tables_number   1
_chemical_formula_structural   Cs2Mn3Te4
_chemical_formula_sum   'Cs8 Mn12 Te16'
_cell_volume   1361.72963634
_cell_formula_units_Z   4
loop_
 _symmetry_equiv_pos_site_id
 _symmetry_equiv_pos_as_xyz
  1  'x, y, z'
loop_
 _atom_site_type_symbol
 _atom_site_label
 _atom_site_symmetry_multiplicity
 _atom_site_fract_x
 _atom_site_fract_y
 _atom_site_fract_z
 _atom_site_occupancy
  Cs  Cs0  1  0.23586600  0.12318300  0.00000000  1
  Cs  Cs1  1  0.73586600  0.37681700  0.00000000  1
  Cs  Cs2  1  0.26413400  0.62318300  0.00000000  1
  Cs  Cs3  1  0.76413400  0.87681700  0.00000000  1
  Cs  Cs4  1  0.73586600  0.62318300  0.50000000  1
  Cs  Cs5  1  0.23586600  0.87681700  0.50000000  1
  Cs  Cs6  1  0.76413400  0.12318300  0.50000000  1
  Cs  Cs7  1  0.26413400  0.37681700  0.50000000  1
  Mn  Mn8  1  0.50000000  0.26367300  0.25000000  1
  Mn  Mn9  1  0.50000000  0.73632700  0.25000000  1
  Mn  Mn10  1  0.50000000  0.73632700  0.75000000  1
  Mn  Mn11  1  0.00000000  0.50000000  0.25000000  1
  Mn  Mn12  1  0.00000000  0.50000000  0.75000000  1
  Mn  Mn13  1  0.50000000  0.26367300  0.75000000  1
  Mn  Mn14  1  0.00000000  0.76367300  0.75000000  1
  Mn  Mn15  1  0.00000000  0.23632700  0.75000000  1
  Mn  Mn16  1  0.00000000  0.23632700  0.25000000  1
  Mn  Mn17  1  0.50000000  0.00000000  0.75000000  1
  Mn  Mn18  1  0.50000000  0.00000000  0.25000000  1
  Mn  Mn19  1  0.00000000  0.76367300  0.25000000  1
  Te  Te20  1  0.22833250  0.36933650  0.85035850  1
  Te  Te21  1  0.22833250  0.63066350  0.64964150  1
  Te  Te22  1  0.77166750  0.36933650  0.64964150  1
  Te  Te23  1  0.77166750  0.63066350  0.85035850  1
  Te  Te24  1  0.77166750  0.63066350  0.14964150  1
  Te  Te25  1  0.77166750  0.36933650  0.35035850  1
  Te  Te26  1  0.22833250  0.63066350  0.35035850  1
  Te  Te27  1  0.22833250  0.36933650  0.14964150  1
  Te  Te28  1  0.72833250  0.86933650  0.35035850  1
  Te  Te29  1  0.72833250  0.13066350  0.14964150  1
  Te  Te30  1  0.27166750  0.86933650  0.14964150  1
  Te  Te31  1  0.27166750  0.13066350  0.35035850  1
  Te  Te32  1  0.27166750  0.13066350  0.64964150  1
  Te  Te33  1  0.27166750  0.86933650  0.85035850  1
  Te  Te34  1  0.72833250  0.13066350  0.85035850  1
  Te  Te35  1  0.72833250  0.86933650  0.64964150  1
