# generated using pymatgen
data_La2CoO4
_symmetry_space_group_name_H-M   'P 1'
_cell_length_a   5.48754788
_cell_length_b   12.54695534
_cell_length_c   5.74836900
_cell_angle_alpha   90.00000000
_cell_angle_beta   90.00000000
_cell_angle_gamma   90.00000000
_symmetry_Int_Tables_number   1
_chemical_formula_structural   La2CoO4
_chemical_formula_sum   'La8 Co4 O16'
_cell_volume   395.78680683
_cell_formula_units_Z   4
loop_
 _symmetry_equiv_pos_site_id
 _symmetry_equiv_pos_as_xyz
  1  'x, y, z'
loop_
 _atom_site_type_symbol
 _atom_site_label
 _atom_site_symmetry_multiplicity
 _atom_site_fract_x
 _atom_site_fract_y
 _atom_site_fract_z
 _atom_site_occupancy
  La  La0  1  0.00000000  0.86195150  0.48202250  1
  La  La1  1  0.50000000  0.63804850  0.51797750  1
  La  La2  1  0.00000000  0.63804850  0.98202250  1
  La  La3  1  0.50000000  0.86195150  0.01797750  1
  La  La4  1  0.50000000  0.36195150  0.48202250  1
  La  La5  1  0.00000000  0.13804850  0.51797750  1
  La  La6  1  0.50000000  0.13804850  0.98202250  1
  La  La7  1  0.00000000  0.36195150  0.01797750  1
  Co  Co8  1  0.50000000  0.00000000  0.50000000  1
  Co  Co9  1  0.00000000  0.00000000  0.00000000  1
  Co  Co10  1  0.00000000  0.50000000  0.50000000  1
  Co  Co11  1  0.50000000  0.50000000  0.00000000  1
  O  O12  1  0.00000000  0.68205050  0.57348300  1
  O  O13  1  0.50000000  0.81794950  0.42651700  1
  O  O14  1  0.00000000  0.81794950  0.07348300  1
  O  O15  1  0.50000000  0.68205050  0.92651700  1
  O  O16  1  0.25000000  0.51945400  0.25000000  1
  O  O17  1  0.75000000  0.98054600  0.75000000  1
  O  O18  1  0.75000000  0.51945400  0.25000000  1
  O  O19  1  0.25000000  0.98054600  0.75000000  1
  O  O20  1  0.50000000  0.18205050  0.57348300  1
  O  O21  1  0.00000000  0.31794950  0.42651700  1
  O  O22  1  0.50000000  0.31794950  0.07348300  1
  O  O23  1  0.00000000  0.18205050  0.92651700  1
  O  O24  1  0.75000000  0.01945400  0.25000000  1
  O  O25  1  0.25000000  0.48054600  0.75000000  1
  O  O26  1  0.25000000  0.01945400  0.25000000  1
  O  O27  1  0.75000000  0.48054600  0.75000000  1
