# generated using pymatgen
data_Li2Mn2NiO6
_symmetry_space_group_name_H-M   'P 1'
_cell_length_a   5.05360104
_cell_length_b   8.76860400
_cell_length_c   10.26233508
_cell_angle_alpha   90.00000000
_cell_angle_beta   90.00000000
_cell_angle_gamma   90.00000000
_symmetry_Int_Tables_number   1
_chemical_formula_structural   Li2Mn2NiO6
_chemical_formula_sum   'Li8 Mn8 Ni4 O24'
_cell_volume   454.75512444
_cell_formula_units_Z   4
loop_
 _symmetry_equiv_pos_site_id
 _symmetry_equiv_pos_as_xyz
  1  'x, y, z'
loop_
 _atom_site_type_symbol
 _atom_site_label
 _atom_site_symmetry_multiplicity
 _atom_site_fract_x
 _atom_site_fract_y
 _atom_site_fract_z
 _atom_site_occupancy
  Li  Li0  1  0.08010850  0.25000000  0.25000000  1
  Li  Li1  1  0.41989150  0.25000000  0.75000000  1
  Li  Li2  1  0.91989150  0.25000000  0.75000000  1
  Li  Li3  1  0.58010850  0.25000000  0.25000000  1
  Li  Li4  1  0.58010850  0.75000000  0.25000000  1
  Li  Li5  1  0.91989150  0.75000000  0.75000000  1
  Li  Li6  1  0.41989150  0.75000000  0.75000000  1
  Li  Li7  1  0.08010850  0.75000000  0.25000000  1
  Mn  Mn8  1  0.00000000  0.16312350  0.50000000  1
  Mn  Mn9  1  0.50000000  0.33687650  0.50000000  1
  Mn  Mn10  1  0.50000000  0.16312350  0.00000000  1
  Mn  Mn11  1  0.00000000  0.33687650  0.00000000  1
  Mn  Mn12  1  0.50000000  0.66312350  0.50000000  1
  Mn  Mn13  1  0.00000000  0.83687650  0.50000000  1
  Mn  Mn14  1  0.00000000  0.66312350  0.00000000  1
  Mn  Mn15  1  0.50000000  0.83687650  0.00000000  1
  Ni  Ni16  1  0.50000000  0.00000000  0.50000000  1
  Ni  Ni17  1  0.50000000  0.50000000  0.00000000  1
  Ni  Ni18  1  0.00000000  0.50000000  0.50000000  1
  Ni  Ni19  1  0.00000000  0.00000000  0.00000000  1
  O  O20  1  0.85079900  0.00000000  0.40112000  1
  O  O21  1  0.35079900  0.00000000  0.09888000  1
  O  O22  1  0.64920100  0.50000000  0.59888000  1
  O  O23  1  0.14920100  0.50000000  0.90112000  1
  O  O24  1  0.67731100  0.18081300  0.60471900  1
  O  O25  1  0.32268900  0.18081300  0.39528100  1
  O  O26  1  0.67731100  0.31918700  0.89528100  1
  O  O27  1  0.82268900  0.18081300  0.10471900  1
  O  O28  1  0.17731100  0.18081300  0.89528100  1
  O  O29  1  0.32268900  0.31918700  0.10471900  1
  O  O30  1  0.82268900  0.31918700  0.39528100  1
  O  O31  1  0.17731100  0.31918700  0.60471900  1
  O  O32  1  0.35079900  0.50000000  0.40112000  1
  O  O33  1  0.85079900  0.50000000  0.09888000  1
  O  O34  1  0.14920100  0.00000000  0.59888000  1
  O  O35  1  0.64920100  0.00000000  0.90112000  1
  O  O36  1  0.17731100  0.68081300  0.60471900  1
  O  O37  1  0.82268900  0.68081300  0.39528100  1
  O  O38  1  0.17731100  0.81918700  0.89528100  1
  O  O39  1  0.32268900  0.68081300  0.10471900  1
  O  O40  1  0.67731100  0.68081300  0.89528100  1
  O  O41  1  0.82268900  0.81918700  0.10471900  1
  O  O42  1  0.32268900  0.81918700  0.39528100  1
  O  O43  1  0.67731100  0.81918700  0.60471900  1
