# generated using pymatgen
data_Sr9TmV7O28
_symmetry_space_group_name_H-M   'P 1'
_cell_length_a   11.37102547
_cell_length_b   11.37102547
_cell_length_c   40.17959115
_cell_angle_alpha   90.00000000
_cell_angle_beta   90.00000000
_cell_angle_gamma   120.00000000
_symmetry_Int_Tables_number   1
_chemical_formula_structural   Sr9TmV7O28
_chemical_formula_sum   'Sr54 Tm6 V42 O168'
_cell_volume   4499.20114436
_cell_formula_units_Z   6
loop_
 _symmetry_equiv_pos_site_id
 _symmetry_equiv_pos_as_xyz
  1  'x, y, z'
loop_
 _atom_site_type_symbol
 _atom_site_label
 _atom_site_symmetry_multiplicity
 _atom_site_fract_x
 _atom_site_fract_y
 _atom_site_fract_z
 _atom_site_occupancy
  Sr  Sr0  1  0.61252867  0.81145233  0.23400133  1
  Sr  Sr1  1  0.53844700  0.06065900  0.00812300  1
  Sr  Sr2  1  0.04576900  0.50896600  0.10110500  1
  Sr  Sr3  1  0.93934100  0.47778800  0.00812300  1
  Sr  Sr4  1  0.27267433  0.12821967  0.17478967  1
  Sr  Sr5  1  0.87178033  0.14445467  0.17478967  1
  Sr  Sr6  1  0.19892367  0.38747133  0.23400133  1
  Sr  Sr7  1  0.49103400  0.53680300  0.10110500  1
  Sr  Sr8  1  0.18854767  0.80107633  0.23400133  1
  Sr  Sr9  1  0.85521433  0.72080467  0.06733467  1
  Sr  Sr10  1  0.37910233  0.20346967  0.26777167  1
  Sr  Sr11  1  0.46319700  0.95423100  0.10110500  1
  Sr  Sr12  1  0.86559033  0.14478567  0.06733467  1
  Sr  Sr13  1  0.27919533  0.13440967  0.06733467  1
  Sr  Sr14  1  0.52221200  0.46155300  0.00812300  1
  Sr  Sr15  1  0.79653033  0.17563267  0.26777167  1
  Sr  Sr16  1  0.85554533  0.72732567  0.17478967  1
  Sr  Sr17  1  0.82436733  0.62089767  0.26777167  1
  Sr  Sr18  1  0.27919533  0.14478567  0.56733467  1
  Sr  Sr19  1  0.20511367  0.39399233  0.34145633  1
  Sr  Sr20  1  0.71243567  0.84229933  0.43443833  1
  Sr  Sr21  1  0.60600767  0.81112133  0.34145633  1
  Sr  Sr22  1  0.93934100  0.46155300  0.50812300  1
  Sr  Sr23  1  0.53844700  0.47778800  0.50812300  1
  Sr  Sr24  1  0.86559033  0.72080467  0.56733467  1
  Sr  Sr25  1  0.15770067  0.87013633  0.43443833  1
  Sr  Sr26  1  0.85521433  0.13440967  0.56733467  1
  Sr  Sr27  1  0.52188100  0.05413800  0.40066800  1
  Sr  Sr28  1  0.04576900  0.53680300  0.60110500  1
  Sr  Sr29  1  0.12986367  0.28756433  0.43443833  1
  Sr  Sr30  1  0.53225700  0.47811900  0.40066800  1
  Sr  Sr31  1  0.94586200  0.46774300  0.40066800  1
  Sr  Sr32  1  0.18887867  0.79488633  0.34145633  1
  Sr  Sr33  1  0.46319700  0.50896600  0.60110500  1
  Sr  Sr34  1  0.52221200  0.06065900  0.50812300  1
  Sr  Sr35  1  0.49103400  0.95423100  0.60110500  1
  Sr  Sr36  1  0.94586200  0.47811900  0.90066800  1
  Sr  Sr37  1  0.87178033  0.72732567  0.67478967  1
  Sr  Sr38  1  0.37910233  0.17563267  0.76777167  1
  Sr  Sr39  1  0.27267433  0.14445467  0.67478967  1
  Sr  Sr40  1  0.60600767  0.79488633  0.84145633  1
  Sr  Sr41  1  0.20511367  0.81112133  0.84145633  1
  Sr  Sr42  1  0.53225700  0.05413800  0.90066800  1
  Sr  Sr43  1  0.82436733  0.20346967  0.76777167  1
  Sr  Sr44  1  0.52188100  0.46774300  0.90066800  1
  Sr  Sr45  1  0.18854767  0.38747133  0.73400133  1
  Sr  Sr46  1  0.71243567  0.87013633  0.93443833  1
  Sr  Sr47  1  0.79653033  0.62089767  0.76777167  1
  Sr  Sr48  1  0.19892367  0.81145233  0.73400133  1
  Sr  Sr49  1  0.61252867  0.80107633  0.73400133  1
  Sr  Sr50  1  0.85554533  0.12821967  0.67478967  1
  Sr  Sr51  1  0.12986367  0.84229933  0.93443833  1
  Sr  Sr52  1  0.18887867  0.39399233  0.84145633  1
  Sr  Sr53  1  0.15770067  0.28756433  0.93443833  1
  Tm  Tm54  1  0.33333333  0.66666667  0.16673667  1
  Tm  Tm55  1  0.00000000  0.00000000  0.00007000  1
  Tm  Tm56  1  0.00000000  0.00000000  0.50007000  1
  Tm  Tm57  1  0.66666667  0.33333333  0.33340333  1
  Tm  Tm58  1  0.66666667  0.33333333  0.83340333  1
  Tm  Tm59  1  0.33333333  0.66666667  0.66673667  1
  V  V60  1  0.64809433  0.83982867  0.03149767  1
  V  V61  1  0.17656667  0.32184933  0.13485333  1
  V  V62  1  0.16017133  0.80826567  0.03149767  1
  V  V63  1  0.00000000  0.00000000  0.22951800  1
  V  V64  1  0.98142767  0.47493233  0.19816433  1
  V  V65  1  0.49350467  0.01857233  0.19816433  1
  V  V66  1  0.52506767  0.50649533  0.19816433  1
  V  V67  1  0.66666667  0.33333333  0.06285133  1
  V  V68  1  0.14528267  0.82343333  0.13485333  1
  V  V69  1  0.01148400  0.49010000  0.30152000  1
  V  V70  1  0.50990000  0.52138400  0.30152000  1
  V  V71  1  0.67815067  0.85471733  0.13485333  1
  V  V72  1  0.19173433  0.35190567  0.03149767  1
  V  V73  1  0.47861600  0.98851600  0.30152000  1
  V  V74  1  0.31476100  0.17316200  0.36483100  1
  V  V75  1  0.84323333  0.65518267  0.46818667  1
  V  V76  1  0.82683800  0.14159900  0.36483100  1
  V  V77  1  0.66666667  0.33333333  0.56285133  1
  V  V78  1  0.64809433  0.80826567  0.53149767  1
  V  V79  1  0.16017133  0.35190567  0.53149767  1
  V  V80  1  0.19173433  0.83982867  0.53149767  1
  V  V81  1  0.33333333  0.66666667  0.39618467  1
  V  V82  1  0.81194933  0.15676667  0.46818667  1
  V  V83  1  0.67815067  0.82343333  0.63485333  1
  V  V84  1  0.17656667  0.85471733  0.63485333  1
  V  V85  1  0.34481733  0.18805067  0.46818667  1
  V  V86  1  0.85840100  0.68523900  0.36483100  1
  V  V87  1  0.14528267  0.32184933  0.63485333  1
  V  V88  1  0.98142767  0.50649533  0.69816433  1
  V  V89  1  0.50990000  0.98851600  0.80152000  1
  V  V90  1  0.49350467  0.47493233  0.69816433  1
  V  V91  1  0.33333333  0.66666667  0.89618467  1
  V  V92  1  0.31476100  0.14159900  0.86483100  1
  V  V93  1  0.82683800  0.68523900  0.86483100  1
  V  V94  1  0.85840100  0.17316200  0.86483100  1
  V  V95  1  0.00000000  0.00000000  0.72951800  1
  V  V96  1  0.47861600  0.49010000  0.80152000  1
  V  V97  1  0.34481733  0.15676667  0.96818667  1
  V  V98  1  0.84323333  0.18805067  0.96818667  1
  V  V99  1  0.01148400  0.52138400  0.80152000  1
  V  V100  1  0.52506767  0.01857233  0.69816433  1
  V  V101  1  0.81194933  0.65518267  0.96818667  1
  O  O102  1  0.82184900  0.34816600  0.07454800  1
  O  O103  1  0.81800200  0.09150500  0.32445600  1
  O  O104  1  0.08414100  0.91278700  0.03572000  1
  O  O105  1  0.05223800  0.66136000  0.05408200  1
  O  O106  1  0.71649567  0.86353133  0.17658233  1
  O  O107  1  0.28349467  0.26372333  0.12134233  1
  O  O108  1  0.41747433  0.83802067  0.20238667  1
  O  O109  1  0.33864000  0.39087800  0.05408200  1
  O  O110  1  0.06961000  0.38317200  0.28800900  1
  O  O111  1  0.57356667  0.16636333  0.29548333  1
  O  O112  1  0.66666667  0.33333333  0.01961633  1
  O  O113  1  0.13646867  0.85296433  0.17658233  1
  O  O114  1  0.08295100  0.64637300  0.28209100  1
  O  O115  1  0.83363667  0.40720333  0.29548333  1
  O  O116  1  0.73627667  0.01977133  0.12134233  1
  O  O117  1  0.94016967  0.42483833  0.15778933  1
  O  O118  1  0.32541067  0.90456533  0.04605433  1
  O  O119  1  0.57915467  0.67458933  0.04605433  1
  O  O120  1  0.98022867  0.71650533  0.12134233  1
  O  O121  1  0.52631700  0.17815100  0.07454800  1
  O  O122  1  0.38316233  0.18629767  0.00991567  1
  O  O123  1  0.65874400  0.08751200  0.21272100  1
  O  O124  1  0.91248800  0.57123200  0.21272100  1
  O  O125  1  0.14703567  0.28350433  0.17658233  1
  O  O126  1  0.15518233  0.14034967  0.24121467  1
  O  O127  1  0.67197333  0.61442867  0.22074867  1
  O  O128  1  0.98516733  0.84481767  0.24121467  1
  O  O129  1  0.56342200  0.91704900  0.28209100  1
  O  O130  1  0.09543467  0.42084533  0.04605433  1
  O  O131  1  0.80313533  0.61683767  0.00991567  1
  O  O132  1  0.42054633  0.58252567  0.20238667  1
  O  O133  1  0.81370233  0.19686467  0.00991567  1
  O  O134  1  0.82864600  0.91585900  0.03572000  1
  O  O135  1  0.57516167  0.51533133  0.15778933  1
  O  O136  1  0.00000000  0.00000000  0.18628300  1
  O  O137  1  0.85965033  0.01483267  0.24121467  1
  O  O138  1  0.94245533  0.32802667  0.22074867  1
  O  O139  1  0.02029367  0.25038233  0.11542433  1
  O  O140  1  0.48466867  0.05983033  0.15778933  1
  O  O141  1  0.42876800  0.34125600  0.21272100  1
  O  O142  1  0.50030333  0.75976667  0.12881667  1
  O  O143  1  0.08721300  0.17135400  0.03572000  1
  O  O144  1  0.25946333  0.49969667  0.12881667  1
  O  O145  1  0.90849500  0.72649700  0.32445600  1
  O  O146  1  0.27350300  0.18199800  0.32445600  1
  O  O147  1  0.23008867  0.97970633  0.11542433  1
  O  O148  1  0.16197933  0.57945367  0.20238667  1
  O  O149  1  0.24023333  0.74053667  0.12881667  1
  O  O150  1  0.60912200  0.94776200  0.05408200  1
  O  O151  1  0.59279667  0.42643333  0.29548333  1
  O  O152  1  0.61682800  0.68643800  0.28800900  1
  O  O153  1  0.35362700  0.43657800  0.28209100  1
  O  O154  1  0.31356200  0.93039000  0.28800900  1
  O  O155  1  0.65183400  0.47368300  0.07454800  1
  O  O156  1  0.38557133  0.05754467  0.22074867  1
  O  O157  1  0.74961767  0.76991133  0.11542433  1
  O  O158  1  0.48851567  0.68149933  0.40788133  1
  O  O159  1  0.48466867  0.42483833  0.65778933  1
  O  O160  1  0.75080767  0.24612033  0.36905333  1
  O  O161  1  0.71890467  0.99469333  0.38741533  1
  O  O162  1  0.38316233  0.19686467  0.50991567  1
  O  O163  1  0.95016133  0.59705667  0.45467567  1
  O  O164  1  0.08414100  0.17135400  0.53572000  1
  O  O165  1  0.00530667  0.72421133  0.38741533  1
  O  O166  1  0.73627667  0.71650533  0.62134233  1
  O  O167  1  0.24023333  0.49969667  0.62881667  1
  O  O168  1  0.33333333  0.66666667  0.35294967  1
  O  O169  1  0.80313533  0.18629767  0.50991567  1
  O  O170  1  0.74961767  0.97970633  0.61542433  1
  O  O171  1  0.50030333  0.74053667  0.62881667  1
  O  O172  1  0.40294333  0.35310467  0.45467567  1
  O  O173  1  0.60683633  0.75817167  0.49112267  1
  O  O174  1  0.99207733  0.23789867  0.37938767  1
  O  O175  1  0.24582133  0.00792267  0.37938767  1
  O  O176  1  0.64689533  0.04983867  0.45467567  1
  O  O177  1  0.19298367  0.51148433  0.40788133  1
  O  O178  1  0.04982900  0.51963100  0.34324900  1
  O  O179  1  0.32541067  0.42084533  0.54605433  1
  O  O180  1  0.57915467  0.90456533  0.54605433  1
  O  O181  1  0.81370233  0.61683767  0.50991567  1
  O  O182  1  0.82184900  0.47368300  0.57454800  1
  O  O183  1  0.33864000  0.94776200  0.55408200  1
  O  O184  1  0.65183400  0.17815100  0.57454800  1
  O  O185  1  0.23008867  0.25038233  0.61542433  1
  O  O186  1  0.76210133  0.75417867  0.37938767  1
  O  O187  1  0.46980200  0.95017100  0.34324900  1
  O  O188  1  0.08721300  0.91585900  0.53572000  1
  O  O189  1  0.48036900  0.53019800  0.34324900  1
  O  O190  1  0.49531267  0.24919233  0.36905333  1
  O  O191  1  0.24182833  0.84866467  0.49112267  1
  O  O192  1  0.66666667  0.33333333  0.51961633  1
  O  O193  1  0.52631700  0.34816600  0.57454800  1
  O  O194  1  0.60912200  0.66136000  0.55408200  1
  O  O195  1  0.68696033  0.58371567  0.44875767  1
  O  O196  1  0.15133533  0.39316367  0.49112267  1
  O  O197  1  0.09543467  0.67458933  0.54605433  1
  O  O198  1  0.16697000  0.09310000  0.46215000  1
  O  O199  1  0.75387967  0.50468733  0.36905333  1
  O  O200  1  0.92613000  0.83303000  0.46215000  1
  O  O201  1  0.57516167  0.05983033  0.65778933  1
  O  O202  1  0.94016967  0.51533133  0.65778933  1
  O  O203  1  0.89675533  0.31303967  0.44875767  1
  O  O204  1  0.82864600  0.91278700  0.53572000  1
  O  O205  1  0.90690000  0.07387000  0.46215000  1
  O  O206  1  0.27578867  0.28109533  0.38741533  1
  O  O207  1  0.25946333  0.75976667  0.62881667  1
  O  O208  1  0.28349467  0.01977133  0.62134233  1
  O  O209  1  0.02029367  0.76991133  0.61542433  1
  O  O210  1  0.98022867  0.26372333  0.62134233  1
  O  O211  1  0.31850067  0.80701633  0.40788133  1
  O  O212  1  0.05223800  0.39087800  0.55408200  1
  O  O213  1  0.41628433  0.10324467  0.44875767  1
  O  O214  1  0.15518233  0.01483267  0.74121467  1
  O  O215  1  0.15133533  0.75817167  0.99112267  1
  O  O216  1  0.41747433  0.57945367  0.70238667  1
  O  O217  1  0.38557133  0.32802667  0.72074867  1
  O  O218  1  0.04982900  0.53019800  0.84324900  1
  O  O219  1  0.61682800  0.93039000  0.78800900  1
  O  O220  1  0.75080767  0.50468733  0.86905333  1
  O  O221  1  0.67197333  0.05754467  0.72074867  1
  O  O222  1  0.40294333  0.04983867  0.95467567  1
  O  O223  1  0.90690000  0.83303000  0.96215000  1
  O  O224  1  0.00000000  0.00000000  0.68628300  1
  O  O225  1  0.46980200  0.51963100  0.84324900  1
  O  O226  1  0.41628433  0.31303967  0.94875767  1
  O  O227  1  0.16697000  0.07387000  0.96215000  1
  O  O228  1  0.06961000  0.68643800  0.78800900  1
  O  O229  1  0.27350300  0.09150500  0.82445600  1
  O  O230  1  0.65874400  0.57123200  0.71272100  1
  O  O231  1  0.91248800  0.34125600  0.71272100  1
  O  O232  1  0.31356200  0.38317200  0.78800900  1
  O  O233  1  0.85965033  0.84481767  0.74121467  1
  O  O234  1  0.71649567  0.85296433  0.67658233  1
  O  O235  1  0.99207733  0.75417867  0.87938767  1
  O  O236  1  0.24582133  0.23789867  0.87938767  1
  O  O237  1  0.48036900  0.95017100  0.84324900  1
  O  O238  1  0.48851567  0.80701633  0.90788133  1
  O  O239  1  0.00530667  0.28109533  0.88741533  1
  O  O240  1  0.31850067  0.51148433  0.90788133  1
  O  O241  1  0.89675533  0.58371567  0.94875767  1
  O  O242  1  0.42876800  0.08751200  0.71272100  1
  O  O243  1  0.13646867  0.28350433  0.67658233  1
  O  O244  1  0.75387967  0.24919233  0.86905333  1
  O  O245  1  0.14703567  0.86353133  0.67658233  1
  O  O246  1  0.16197933  0.58252567  0.70238667  1
  O  O247  1  0.90849500  0.18199800  0.82445600  1
  O  O248  1  0.33333333  0.66666667  0.85294967  1
  O  O249  1  0.19298367  0.68149933  0.90788133  1
  O  O250  1  0.27578867  0.99469333  0.88741533  1
  O  O251  1  0.35362700  0.91704900  0.78209100  1
  O  O252  1  0.81800200  0.72649700  0.82445600  1
  O  O253  1  0.76210133  0.00792267  0.87938767  1
  O  O254  1  0.83363667  0.42643333  0.79548333  1
  O  O255  1  0.42054633  0.83802067  0.70238667  1
  O  O256  1  0.59279667  0.16636333  0.79548333  1
  O  O257  1  0.24182833  0.39316367  0.99112267  1
  O  O258  1  0.60683633  0.84866467  0.99112267  1
  O  O259  1  0.56342200  0.64637300  0.78209100  1
  O  O260  1  0.49531267  0.24612033  0.86905333  1
  O  O261  1  0.57356667  0.40720333  0.79548333  1
  O  O262  1  0.94245533  0.61442867  0.72074867  1
  O  O263  1  0.92613000  0.09310000  0.96215000  1
  O  O264  1  0.95016133  0.35310467  0.95467567  1
  O  O265  1  0.68696033  0.10324467  0.94875767  1
  O  O266  1  0.64689533  0.59705667  0.95467567  1
  O  O267  1  0.98516733  0.14034967  0.74121467  1
  O  O268  1  0.71890467  0.72421133  0.88741533  1
  O  O269  1  0.08295100  0.43657800  0.78209100  1
