# generated using pymatgen
data_Na2MnO2
_symmetry_space_group_name_H-M   'P 1'
_cell_length_a   12.67291232
_cell_length_b   12.21917507
_cell_length_c   6.18702231
_cell_angle_alpha   90.00000000
_cell_angle_beta   118.15841489
_cell_angle_gamma   90.00000000
_symmetry_Int_Tables_number   1
_chemical_formula_structural   Na2MnO2
_chemical_formula_sum   'Na24 Mn12 O24'
_cell_volume   844.68413474
_cell_formula_units_Z   12
loop_
 _symmetry_equiv_pos_site_id
 _symmetry_equiv_pos_as_xyz
  1  'x, y, z'
loop_
 _atom_site_type_symbol
 _atom_site_label
 _atom_site_symmetry_multiplicity
 _atom_site_fract_x
 _atom_site_fract_y
 _atom_site_fract_z
 _atom_site_occupancy
  Na  Na0  1  0.00000000  0.06046150  0.75000000  1
  Na  Na1  1  0.00000000  0.93953850  0.25000000  1
  Na  Na2  1  0.00000000  0.19572700  0.25000000  1
  Na  Na3  1  0.00000000  0.80427300  0.75000000  1
  Na  Na4  1  0.79985500  0.79719500  0.23800700  1
  Na  Na5  1  0.20014500  0.79719500  0.26199300  1
  Na  Na6  1  0.20014500  0.20280500  0.76199300  1
  Na  Na7  1  0.79985500  0.20280500  0.73800700  1
  Na  Na8  1  0.10301100  0.57140300  0.72915100  1
  Na  Na9  1  0.89698900  0.42859700  0.27084900  1
  Na  Na10  1  0.10301100  0.42859700  0.22915100  1
  Na  Na11  1  0.89698900  0.57140300  0.77084900  1
  Na  Na12  1  0.50000000  0.56046150  0.75000000  1
  Na  Na13  1  0.50000000  0.43953850  0.25000000  1
  Na  Na14  1  0.50000000  0.69572700  0.25000000  1
  Na  Na15  1  0.50000000  0.30427300  0.75000000  1
  Na  Na16  1  0.29985500  0.29719500  0.23800700  1
  Na  Na17  1  0.70014500  0.29719500  0.26199300  1
  Na  Na18  1  0.70014500  0.70280500  0.76199300  1
  Na  Na19  1  0.29985500  0.70280500  0.73800700  1
  Na  Na20  1  0.60301100  0.07140300  0.72915100  1
  Na  Na21  1  0.39698900  0.92859700  0.27084900  1
  Na  Na22  1  0.60301100  0.92859700  0.22915100  1
  Na  Na23  1  0.39698900  0.07140300  0.77084900  1
  Mn  Mn24  1  0.00000000  0.31580500  0.75000000  1
  Mn  Mn25  1  0.28809150  0.42021550  0.75659000  1
  Mn  Mn26  1  0.71190850  0.42021550  0.74341000  1
  Mn  Mn27  1  0.00000000  0.68419500  0.25000000  1
  Mn  Mn28  1  0.71190850  0.57978450  0.24341000  1
  Mn  Mn29  1  0.28809150  0.57978450  0.25659000  1
  Mn  Mn30  1  0.50000000  0.81580500  0.75000000  1
  Mn  Mn31  1  0.78809150  0.92021550  0.75659000  1
  Mn  Mn32  1  0.21190850  0.92021550  0.74341000  1
  Mn  Mn33  1  0.50000000  0.18419500  0.25000000  1
  Mn  Mn34  1  0.21190850  0.07978450  0.24341000  1
  Mn  Mn35  1  0.78809150  0.07978450  0.25659000  1
  O  O36  1  0.88553250  0.78652050  0.96650700  1
  O  O37  1  0.11446750  0.78652050  0.53349300  1
  O  O38  1  0.11446750  0.21347950  0.03349300  1
  O  O39  1  0.88553250  0.21347950  0.46650700  1
  O  O40  1  0.66395850  0.44342150  0.01716200  1
  O  O41  1  0.33604150  0.44342150  0.48283800  1
  O  O42  1  0.66395850  0.55657850  0.51716200  1
  O  O43  1  0.33604150  0.55657850  0.98283800  1
  O  O44  1  0.10144750  0.61403650  0.09895900  1
  O  O45  1  0.89855250  0.61403650  0.40104100  1
  O  O46  1  0.10144750  0.38596350  0.59895900  1
  O  O47  1  0.89855250  0.38596350  0.90104100  1
  O  O48  1  0.38553250  0.28652050  0.96650700  1
  O  O49  1  0.61446750  0.28652050  0.53349300  1
  O  O50  1  0.61446750  0.71347950  0.03349300  1
  O  O51  1  0.38553250  0.71347950  0.46650700  1
  O  O52  1  0.16395850  0.94342150  0.01716200  1
  O  O53  1  0.83604150  0.94342150  0.48283800  1
  O  O54  1  0.16395850  0.05657850  0.51716200  1
  O  O55  1  0.83604150  0.05657850  0.98283800  1
  O  O56  1  0.60144750  0.11403650  0.09895900  1
  O  O57  1  0.39855250  0.11403650  0.40104100  1
  O  O58  1  0.60144750  0.88596350  0.59895900  1
  O  O59  1  0.39855250  0.88596350  0.90104100  1
