# generated using pymatgen
data_Ba11Bi10
_symmetry_space_group_name_H-M   'P 1'
_cell_length_a   13.47771000
_cell_length_b   13.47771000
_cell_length_c   19.79030800
_cell_angle_alpha   90.00000000
_cell_angle_beta   90.00000000
_cell_angle_gamma   90.00000000
_symmetry_Int_Tables_number   1
_chemical_formula_structural   Ba11Bi10
_chemical_formula_sum   'Ba44 Bi40'
_cell_volume   3594.88306463
_cell_formula_units_Z   4
loop_
 _symmetry_equiv_pos_site_id
 _symmetry_equiv_pos_as_xyz
  1  'x, y, z'
loop_
 _atom_site_type_symbol
 _atom_site_label
 _atom_site_symmetry_multiplicity
 _atom_site_fract_x
 _atom_site_fract_y
 _atom_site_fract_z
 _atom_site_occupancy
  Ba  Ba0  1  0.25021000  0.00000000  0.19127300  1
  Ba  Ba1  1  0.00000000  0.25021000  0.19127300  1
  Ba  Ba2  1  0.00000000  0.74979000  0.19127300  1
  Ba  Ba3  1  0.75021000  0.50000000  0.30872700  1
  Ba  Ba4  1  0.24979000  0.50000000  0.30872700  1
  Ba  Ba5  1  0.50000000  0.75021000  0.30872700  1
  Ba  Ba6  1  0.50000000  0.24979000  0.30872700  1
  Ba  Ba7  1  0.74979000  0.00000000  0.19127300  1
  Ba  Ba8  1  0.00000000  0.00000000  0.34621600  1
  Ba  Ba9  1  0.50000000  0.50000000  0.15378400  1
  Ba  Ba10  1  0.50000000  0.16783500  0.10443900  1
  Ba  Ba11  1  0.83216500  0.50000000  0.10443900  1
  Ba  Ba12  1  0.16783500  0.50000000  0.10443900  1
  Ba  Ba13  1  0.00000000  0.33216500  0.39556100  1
  Ba  Ba14  1  0.00000000  0.66783500  0.39556100  1
  Ba  Ba15  1  0.66783500  0.00000000  0.39556100  1
  Ba  Ba16  1  0.33216500  0.00000000  0.39556100  1
  Ba  Ba17  1  0.50000000  0.83216500  0.10443900  1
  Ba  Ba18  1  0.66791250  0.66791250  0.50000000  1
  Ba  Ba19  1  0.83208750  0.16791250  0.00000000  1
  Ba  Ba20  1  0.16791250  0.83208750  0.00000000  1
  Ba  Ba21  1  0.83208750  0.83208750  0.00000000  1
  Ba  Ba22  1  0.75021000  0.50000000  0.69127300  1
  Ba  Ba23  1  0.50000000  0.75021000  0.69127300  1
  Ba  Ba24  1  0.50000000  0.24979000  0.69127300  1
  Ba  Ba25  1  0.25021000  0.00000000  0.80872700  1
  Ba  Ba26  1  0.74979000  0.00000000  0.80872700  1
  Ba  Ba27  1  0.00000000  0.25021000  0.80872700  1
  Ba  Ba28  1  0.00000000  0.74979000  0.80872700  1
  Ba  Ba29  1  0.24979000  0.50000000  0.69127300  1
  Ba  Ba30  1  0.50000000  0.50000000  0.84621600  1
  Ba  Ba31  1  0.00000000  0.00000000  0.65378400  1
  Ba  Ba32  1  0.00000000  0.66783500  0.60443900  1
  Ba  Ba33  1  0.33216500  0.00000000  0.60443900  1
  Ba  Ba34  1  0.66783500  0.00000000  0.60443900  1
  Ba  Ba35  1  0.50000000  0.83216500  0.89556100  1
  Ba  Ba36  1  0.50000000  0.16783500  0.89556100  1
  Ba  Ba37  1  0.16783500  0.50000000  0.89556100  1
  Ba  Ba38  1  0.83216500  0.50000000  0.89556100  1
  Ba  Ba39  1  0.00000000  0.33216500  0.60443900  1
  Ba  Ba40  1  0.16791250  0.16791250  0.00000000  1
  Ba  Ba41  1  0.33208750  0.66791250  0.50000000  1
  Ba  Ba42  1  0.66791250  0.33208750  0.50000000  1
  Ba  Ba43  1  0.33208750  0.33208750  0.50000000  1
  Bi  Bi44  1  0.50000000  0.00000000  0.25000000  1
  Bi  Bi45  1  0.00000000  0.50000000  0.25000000  1
  Bi  Bi46  1  0.00000000  0.00000000  0.11890700  1
  Bi  Bi47  1  0.50000000  0.50000000  0.38109300  1
  Bi  Bi48  1  0.21043050  0.21043050  0.32102950  1
  Bi  Bi49  1  0.78956950  0.21043050  0.32102950  1
  Bi  Bi50  1  0.21043050  0.78956950  0.32102950  1
  Bi  Bi51  1  0.71043050  0.28956950  0.17897050  1
  Bi  Bi52  1  0.28956950  0.71043050  0.17897050  1
  Bi  Bi53  1  0.71043050  0.71043050  0.17897050  1
  Bi  Bi54  1  0.28956950  0.28956950  0.17897050  1
  Bi  Bi55  1  0.78956950  0.78956950  0.32102950  1
  Bi  Bi56  1  0.35727200  0.00000000  0.00000000  1
  Bi  Bi57  1  0.00000000  0.35727200  0.00000000  1
  Bi  Bi58  1  0.00000000  0.64272800  0.00000000  1
  Bi  Bi59  1  0.64272800  0.00000000  0.00000000  1
  Bi  Bi60  1  0.62010250  0.62010250  0.00000000  1
  Bi  Bi61  1  0.37989750  0.62010250  0.00000000  1
  Bi  Bi62  1  0.62010250  0.37989750  0.00000000  1
  Bi  Bi63  1  0.87989750  0.87989750  0.50000000  1
  Bi  Bi64  1  0.00000000  0.50000000  0.75000000  1
  Bi  Bi65  1  0.50000000  0.00000000  0.75000000  1
  Bi  Bi66  1  0.50000000  0.50000000  0.61890700  1
  Bi  Bi67  1  0.00000000  0.00000000  0.88109300  1
  Bi  Bi68  1  0.71043050  0.71043050  0.82102950  1
  Bi  Bi69  1  0.28956950  0.71043050  0.82102950  1
  Bi  Bi70  1  0.71043050  0.28956950  0.82102950  1
  Bi  Bi71  1  0.21043050  0.78956950  0.67897050  1
  Bi  Bi72  1  0.78956950  0.21043050  0.67897050  1
  Bi  Bi73  1  0.21043050  0.21043050  0.67897050  1
  Bi  Bi74  1  0.78956950  0.78956950  0.67897050  1
  Bi  Bi75  1  0.28956950  0.28956950  0.82102950  1
  Bi  Bi76  1  0.85727200  0.50000000  0.50000000  1
  Bi  Bi77  1  0.50000000  0.85727200  0.50000000  1
  Bi  Bi78  1  0.50000000  0.14272800  0.50000000  1
  Bi  Bi79  1  0.14272800  0.50000000  0.50000000  1
  Bi  Bi80  1  0.12010250  0.12010250  0.50000000  1
  Bi  Bi81  1  0.87989750  0.12010250  0.50000000  1
  Bi  Bi82  1  0.12010250  0.87989750  0.50000000  1
  Bi  Bi83  1  0.37989750  0.37989750  0.00000000  1
