# generated using pymatgen
data_ZnFe2(SeO3)4
_symmetry_space_group_name_H-M   'P 1'
_cell_length_a   8.19255000
_cell_length_b   8.18854000
_cell_length_c   8.33685524
_cell_angle_alpha   90.00000000
_cell_angle_beta   92.24032008
_cell_angle_gamma   90.00000000
_symmetry_Int_Tables_number   1
_chemical_formula_structural   ZnFe2(SeO3)4
_chemical_formula_sum   'Zn2 Fe4 Se8 O24'
_cell_volume   558.85064680
_cell_formula_units_Z   2
loop_
 _symmetry_equiv_pos_site_id
 _symmetry_equiv_pos_as_xyz
  1  'x, y, z'
loop_
 _atom_site_type_symbol
 _atom_site_label
 _atom_site_symmetry_multiplicity
 _atom_site_fract_x
 _atom_site_fract_y
 _atom_site_fract_z
 _atom_site_occupancy
  Zn  Zn0  1  0.65550300  0.60154100  0.16313900  1
  Zn  Zn1  1  0.15550300  0.39845900  0.16313900  1
  Fe  Fe2  1  0.24957800  0.76060800  0.00021700  1
  Fe  Fe3  1  0.75610600  0.73992200  0.50852500  1
  Fe  Fe4  1  0.74957800  0.23939200  0.00021700  1
  Fe  Fe5  1  0.25610600  0.26007800  0.50852500  1
  Se  Se6  1  0.45023200  0.09548600  0.19122500  1
  Se  Se7  1  0.95023200  0.90451400  0.19122500  1
  Se  Se8  1  0.54930400  0.57193000  0.82063400  1
  Se  Se9  1  0.83289100  0.32451900  0.41456200  1
  Se  Se10  1  0.58076000  0.05704500  0.68005900  1
  Se  Se11  1  0.04930400  0.42807000  0.82063400  1
  Se  Se12  1  0.33289100  0.67548100  0.41456200  1
  Se  Se13  1  0.08076000  0.94295500  0.68005900  1
  O  O14  1  0.30165900  0.96338400  0.11949500  1
  O  O15  1  0.99060800  0.30972600  0.98772700  1
  O  O16  1  0.74301900  0.16179200  0.77604800  1
  O  O17  1  0.54040500  0.66651200  0.36686900  1
  O  O18  1  0.82316800  0.75173400  0.26900400  1
  O  O19  1  0.50898600  0.19253400  0.01975600  1
  O  O20  1  0.48739000  0.21887900  0.57863900  1
  O  O21  1  0.24168800  0.62653700  0.22627200  1
  O  O22  1  0.65155200  0.71925300  0.72154400  1
  O  O23  1  0.04040500  0.33348800  0.36686900  1
  O  O24  1  0.68432600  0.97255900  0.52106400  1
  O  O25  1  0.70627600  0.48241600  0.93847600  1
  O  O26  1  0.24301900  0.83820800  0.77604800  1
  O  O27  1  0.30584900  0.50297800  0.52264600  1
  O  O28  1  0.15155200  0.28074700  0.72154400  1
  O  O29  1  0.32316800  0.24826600  0.26900400  1
  O  O30  1  0.74168800  0.37346300  0.22627200  1
  O  O31  1  0.80165900  0.03661600  0.11949500  1
  O  O32  1  0.18432600  0.02744100  0.52106400  1
  O  O33  1  0.20627600  0.51758400  0.93847600  1
  O  O34  1  0.49060800  0.69027400  0.98772700  1
  O  O35  1  0.98739000  0.78112100  0.57863900  1
  O  O36  1  0.80584900  0.49702200  0.52264600  1
  O  O37  1  0.00898600  0.80746600  0.01975600  1
