# generated using pymatgen
data_Sr3NiRhO6
_symmetry_space_group_name_H-M   'P 1'
_cell_length_a   9.68716080
_cell_length_b   9.68716080
_cell_length_c   11.19637605
_cell_angle_alpha   90.00000000
_cell_angle_beta   90.00000000
_cell_angle_gamma   120.00000000
_symmetry_Int_Tables_number   1
_chemical_formula_structural   Sr3NiRhO6
_chemical_formula_sum   'Sr18 Ni6 Rh6 O36'
_cell_volume   909.91563156
_cell_formula_units_Z   6
loop_
 _symmetry_equiv_pos_site_id
 _symmetry_equiv_pos_as_xyz
  1  'x, y, z'
loop_
 _atom_site_type_symbol
 _atom_site_label
 _atom_site_symmetry_multiplicity
 _atom_site_fract_x
 _atom_site_fract_y
 _atom_site_fract_z
 _atom_site_occupancy
  Sr  Sr0  1  0.03178017  0.33333333  0.08333333  1
  Sr  Sr1  1  0.66666667  0.69844683  0.08333333  1
  Sr  Sr2  1  0.30155317  0.96821983  0.08333333  1
  Sr  Sr3  1  0.96821983  0.66666667  0.91666667  1
  Sr  Sr4  1  0.33333333  0.30155317  0.91666667  1
  Sr  Sr5  1  0.69844683  0.03178017  0.91666667  1
  Sr  Sr6  1  0.69844683  0.66666667  0.41666667  1
  Sr  Sr7  1  0.33333333  0.03178017  0.41666667  1
  Sr  Sr8  1  0.96821983  0.30155317  0.41666667  1
  Sr  Sr9  1  0.63488650  0.00000000  0.25000000  1
  Sr  Sr10  1  0.00000000  0.63488650  0.25000000  1
  Sr  Sr11  1  0.36511350  0.36511350  0.25000000  1
  Sr  Sr12  1  0.36511350  0.00000000  0.75000000  1
  Sr  Sr13  1  0.00000000  0.36511350  0.75000000  1
  Sr  Sr14  1  0.63488650  0.63488650  0.75000000  1
  Sr  Sr15  1  0.30155317  0.33333333  0.58333333  1
  Sr  Sr16  1  0.66666667  0.96821983  0.58333333  1
  Sr  Sr17  1  0.03178017  0.69844683  0.58333333  1
  Ni  Ni18  1  0.00000000  0.00000000  0.75000000  1
  Ni  Ni19  1  0.00000000  0.00000000  0.25000000  1
  Ni  Ni20  1  0.66666667  0.33333333  0.08333333  1
  Ni  Ni21  1  0.66666667  0.33333333  0.58333333  1
  Ni  Ni22  1  0.33333333  0.66666667  0.41666667  1
  Ni  Ni23  1  0.33333333  0.66666667  0.91666667  1
  Rh  Rh24  1  0.00000000  0.00000000  0.50000000  1
  Rh  Rh25  1  0.00000000  0.00000000  0.00000000  1
  Rh  Rh26  1  0.66666667  0.33333333  0.83333333  1
  Rh  Rh27  1  0.66666667  0.33333333  0.33333333  1
  Rh  Rh28  1  0.33333333  0.66666667  0.16666667  1
  Rh  Rh29  1  0.33333333  0.66666667  0.66666667  1
  O  O30  1  0.84101067  0.35790833  0.94734833  1
  O  O31  1  0.64209167  0.48310233  0.94734833  1
  O  O32  1  0.51689767  0.15898933  0.94734833  1
  O  O33  1  0.14976900  0.97542500  0.88598500  1
  O  O34  1  0.02457500  0.17434400  0.88598500  1
  O  O35  1  0.82565600  0.85023100  0.88598500  1
  O  O36  1  0.15898933  0.64209167  0.05265167  1
  O  O37  1  0.35790833  0.51689767  0.05265167  1
  O  O38  1  0.48310233  0.84101067  0.05265167  1
  O  O39  1  0.85023100  0.02457500  0.11401500  1
  O  O40  1  0.97542500  0.82565600  0.11401500  1
  O  O41  1  0.17434400  0.14976900  0.11401500  1
  O  O42  1  0.50767733  0.69124167  0.28068167  1
  O  O43  1  0.30875833  0.81643567  0.28068167  1
  O  O44  1  0.18356433  0.49232267  0.28068167  1
  O  O45  1  0.81643567  0.30875833  0.21931833  1
  O  O46  1  0.69124167  0.50767733  0.21931833  1
  O  O47  1  0.49232267  0.18356433  0.21931833  1
  O  O48  1  0.82565600  0.97542500  0.38598500  1
  O  O49  1  0.02457500  0.85023100  0.38598500  1
  O  O50  1  0.14976900  0.17434400  0.38598500  1
  O  O51  1  0.51689767  0.35790833  0.44734833  1
  O  O52  1  0.64209167  0.15898933  0.44734833  1
  O  O53  1  0.84101067  0.48310233  0.44734833  1
  O  O54  1  0.17434400  0.02457500  0.61401500  1
  O  O55  1  0.97542500  0.14976900  0.61401500  1
  O  O56  1  0.85023100  0.82565600  0.61401500  1
  O  O57  1  0.48310233  0.64209167  0.55265167  1
  O  O58  1  0.35790833  0.84101067  0.55265167  1
  O  O59  1  0.15898933  0.51689767  0.55265167  1
  O  O60  1  0.49232267  0.30875833  0.71931833  1
  O  O61  1  0.69124167  0.18356433  0.71931833  1
  O  O62  1  0.81643567  0.50767733  0.71931833  1
  O  O63  1  0.18356433  0.69124167  0.78068167  1
  O  O64  1  0.30875833  0.49232267  0.78068167  1
  O  O65  1  0.50767733  0.81643567  0.78068167  1
