# generated using pymatgen
data_KVH6SO9
_symmetry_space_group_name_H-M   'P 1'
_cell_length_a   6.28131200
_cell_length_b   9.95093400
_cell_length_c   6.62436895
_cell_angle_alpha   90.00000000
_cell_angle_beta   107.11460068
_cell_angle_gamma   90.00000000
_symmetry_Int_Tables_number   1
_chemical_formula_structural   KVH6SO9
_chemical_formula_sum   'K2 V2 H12 S2 O18'
_cell_volume   395.72046841
_cell_formula_units_Z   2
loop_
 _symmetry_equiv_pos_site_id
 _symmetry_equiv_pos_as_xyz
  1  'x, y, z'
loop_
 _atom_site_type_symbol
 _atom_site_label
 _atom_site_symmetry_multiplicity
 _atom_site_fract_x
 _atom_site_fract_y
 _atom_site_fract_z
 _atom_site_occupancy
  K  K0  1  0.69999000  0.84684900  0.18715500  1
  K  K1  1  0.30001000  0.34684900  0.81284500  1
  V  V2  1  0.38851600  0.99758900  0.62250500  1
  V  V3  1  0.61148400  0.49758900  0.37749500  1
  H  H4  1  0.23745600  0.78398200  0.30676200  1
  H  H5  1  0.80029600  0.41753600  0.82032700  1
  H  H6  1  0.53624600  0.73374900  0.66286900  1
  H  H7  1  0.46375400  0.23374900  0.33713100  1
  H  H8  1  0.96955900  0.64396300  0.68681500  1
  H  H9  1  0.03044100  0.14396300  0.31318500  1
  H  H10  1  0.11278400  0.64794500  0.92279500  1
  H  H11  1  0.76254400  0.28398200  0.69323800  1
  H  H12  1  0.68587400  0.23351500  0.25836700  1
  H  H13  1  0.19970400  0.91753600  0.17967300  1
  H  H14  1  0.31412600  0.73351500  0.74163300  1
  H  H15  1  0.88721600  0.14794500  0.07720500  1
  S  S16  1  0.92479400  0.99748100  0.73665600  1
  S  S17  1  0.07520600  0.49748100  0.26334400  1
  O  O18  1  0.96930500  0.91873000  0.93096200  1
  O  O19  1  0.07198500  0.95029000  0.60551700  1
  O  O20  1  0.92801500  0.45029000  0.39448300  1
  O  O21  1  0.46335200  0.05906300  0.86371100  1
  O  O22  1  0.30626000  0.46683000  0.40979500  1
  O  O23  1  0.05077700  0.64311700  0.22231900  1
  O  O24  1  0.03069500  0.41873000  0.06903800  1
  O  O25  1  0.44412500  0.79030900  0.72966800  1
  O  O26  1  0.30021200  0.87516900  0.30722000  1
  O  O27  1  0.53664800  0.55906300  0.13628900  1
  O  O28  1  0.69374000  0.96683000  0.59020500  1
  O  O29  1  0.94922300  0.14311700  0.77768100  1
  O  O30  1  0.87554300  0.13511800  0.22015400  1
  O  O31  1  0.32264100  0.13426800  0.46516000  1
  O  O32  1  0.12445700  0.63511800  0.77984600  1
  O  O33  1  0.55587500  0.29030900  0.27033200  1
  O  O34  1  0.69978800  0.37516900  0.69278000  1
  O  O35  1  0.67735900  0.63426800  0.53484000  1
