# generated using pymatgen
data_VPO5
_symmetry_space_group_name_H-M   'P 1'
_cell_length_a   13.79279200
_cell_length_b   5.18614000
_cell_length_c   10.30869291
_cell_angle_alpha   90.00000000
_cell_angle_beta   114.20488299
_cell_angle_gamma   90.00000000
_symmetry_Int_Tables_number   1
_chemical_formula_structural   VPO5
_chemical_formula_sum   'V8 P8 O40'
_cell_volume   672.56679728
_cell_formula_units_Z   8
loop_
 _symmetry_equiv_pos_site_id
 _symmetry_equiv_pos_as_xyz
  1  'x, y, z'
loop_
 _atom_site_type_symbol
 _atom_site_label
 _atom_site_symmetry_multiplicity
 _atom_site_fract_x
 _atom_site_fract_y
 _atom_site_fract_z
 _atom_site_occupancy
  V  V0  1  0.00000000  0.03315800  0.25000000  1
  V  V1  1  0.75000000  0.25000000  0.00000000  1
  V  V2  1  0.25000000  0.25000000  0.50000000  1
  V  V3  1  0.00000000  0.96684200  0.75000000  1
  V  V4  1  0.50000000  0.53315800  0.25000000  1
  V  V5  1  0.25000000  0.75000000  0.00000000  1
  V  V6  1  0.75000000  0.75000000  0.50000000  1
  V  V7  1  0.50000000  0.46684200  0.75000000  1
  P  P8  1  0.12474000  0.47634500  0.69277200  1
  P  P9  1  0.87526000  0.52365500  0.30722800  1
  P  P10  1  0.37526000  0.97634500  0.80722800  1
  P  P11  1  0.62474000  0.02365500  0.19277200  1
  P  P12  1  0.62474000  0.97634500  0.69277200  1
  P  P13  1  0.37526000  0.02365500  0.30722800  1
  P  P14  1  0.87526000  0.47634500  0.80722800  1
  P  P15  1  0.12474000  0.52365500  0.19277200  1
  O  O16  1  0.05848200  0.22781100  0.67593600  1
  O  O17  1  0.95052250  0.29039750  0.34636400  1
  O  O18  1  0.12684700  0.92787300  0.90309500  1
  O  O19  1  0.31976050  0.96088950  0.90885400  1
  O  O20  1  0.79048000  0.49511500  0.15166000  1
  O  O21  1  0.29048000  0.00488500  0.65166000  1
  O  O22  1  0.81976050  0.53911050  0.40885400  1
  O  O23  1  0.12684700  0.07212700  0.40309500  1
  O  O24  1  0.04947750  0.70960250  0.65363600  1
  O  O25  1  0.94151800  0.22781100  0.82406400  1
  O  O26  1  0.94151800  0.77218900  0.32406400  1
  O  O27  1  0.04947750  0.29039750  0.15363600  1
  O  O28  1  0.87315300  0.92787300  0.59690500  1
  O  O29  1  0.18023950  0.46088950  0.59114600  1
  O  O30  1  0.05848200  0.77218900  0.17593600  1
  O  O31  1  0.20952000  0.50488500  0.84834000  1
  O  O32  1  0.68023950  0.03911050  0.09114600  1
  O  O33  1  0.87315300  0.07212700  0.09690500  1
  O  O34  1  0.95052250  0.70960250  0.84636400  1
  O  O35  1  0.70952000  0.99511500  0.34834000  1
  O  O36  1  0.55848200  0.72781100  0.67593600  1
  O  O37  1  0.45052250  0.79039750  0.34636400  1
  O  O38  1  0.62684700  0.42787300  0.90309500  1
  O  O39  1  0.81976050  0.46088950  0.90885400  1
  O  O40  1  0.29048000  0.99511500  0.15166000  1
  O  O41  1  0.79048000  0.50488500  0.65166000  1
  O  O42  1  0.31976050  0.03911050  0.40885400  1
  O  O43  1  0.62684700  0.57212700  0.40309500  1
  O  O44  1  0.54947750  0.20960250  0.65363600  1
  O  O45  1  0.44151800  0.72781100  0.82406400  1
  O  O46  1  0.44151800  0.27218900  0.32406400  1
  O  O47  1  0.54947750  0.79039750  0.15363600  1
  O  O48  1  0.37315300  0.42787300  0.59690500  1
  O  O49  1  0.68023950  0.96088950  0.59114600  1
  O  O50  1  0.55848200  0.27218900  0.17593600  1
  O  O51  1  0.70952000  0.00488500  0.84834000  1
  O  O52  1  0.18023950  0.53911050  0.09114600  1
  O  O53  1  0.37315300  0.57212700  0.09690500  1
  O  O54  1  0.45052250  0.20960250  0.84636400  1
  O  O55  1  0.20952000  0.49511500  0.34834000  1
