# generated using pymatgen
data_Co2As2O7
_symmetry_space_group_name_H-M   'P 1'
_cell_length_a   6.59565924
_cell_length_b   8.68256208
_cell_length_c   4.85796830
_cell_angle_alpha   90.00000000
_cell_angle_beta   102.16999942
_cell_angle_gamma   90.00000000
_symmetry_Int_Tables_number   1
_chemical_formula_structural   Co2As2O7
_chemical_formula_sum   'Co4 As4 O14'
_cell_volume   271.95013869
_cell_formula_units_Z   2
loop_
 _symmetry_equiv_pos_site_id
 _symmetry_equiv_pos_as_xyz
  1  'x, y, z'
loop_
 _atom_site_type_symbol
 _atom_site_label
 _atom_site_symmetry_multiplicity
 _atom_site_fract_x
 _atom_site_fract_y
 _atom_site_fract_z
 _atom_site_occupancy
  Co  Co0  1  0.00000000  0.68952150  0.50000000  1
  Co  Co1  1  0.00000000  0.31047850  0.50000000  1
  Co  Co2  1  0.50000000  0.18952150  0.50000000  1
  Co  Co3  1  0.50000000  0.81047850  0.50000000  1
  As  As4  1  0.74149875  0.50000000  0.90101100  1
  As  As5  1  0.25850125  0.50000000  0.09898900  1
  As  As6  1  0.24149875  0.00000000  0.90101100  1
  As  As7  1  0.75850125  0.00000000  0.09898900  1
  O  O8  1  0.00000000  0.00000000  0.00000000  1
  O  O9  1  0.90487200  0.50000000  0.22893300  1
  O  O10  1  0.09512800  0.50000000  0.77106700  1
  O  O11  1  0.73835000  0.66261850  0.70710100  1
  O  O12  1  0.73835000  0.33738150  0.70710100  1
  O  O13  1  0.26165000  0.66261850  0.29289900  1
  O  O14  1  0.26165000  0.33738150  0.29289900  1
  O  O15  1  0.50000000  0.50000000  0.00000000  1
  O  O16  1  0.40487200  0.00000000  0.22893300  1
  O  O17  1  0.59512800  0.00000000  0.77106700  1
  O  O18  1  0.23835000  0.16261850  0.70710100  1
  O  O19  1  0.23835000  0.83738150  0.70710100  1
  O  O20  1  0.76165000  0.16261850  0.29289900  1
  O  O21  1  0.76165000  0.83738150  0.29289900  1
