# generated using pymatgen
data_K2NaFeO3
_symmetry_space_group_name_H-M   'P 1'
_cell_length_a   6.34674000
_cell_length_b   11.12755400
_cell_length_c   6.74663650
_cell_angle_alpha   90.00000000
_cell_angle_beta   90.00000000
_cell_angle_gamma   90.00000000
_symmetry_Int_Tables_number   1
_chemical_formula_structural   K2NaFeO3
_chemical_formula_sum   'K8 Na4 Fe4 O12'
_cell_volume   476.47237877
_cell_formula_units_Z   4
loop_
 _symmetry_equiv_pos_site_id
 _symmetry_equiv_pos_as_xyz
  1  'x, y, z'
loop_
 _atom_site_type_symbol
 _atom_site_label
 _atom_site_symmetry_multiplicity
 _atom_site_fract_x
 _atom_site_fract_y
 _atom_site_fract_z
 _atom_site_occupancy
  K  K0  1  0.00000000  0.25000000  0.65791000  1
  K  K1  1  0.50000000  0.25000000  0.34209000  1
  K  K2  1  0.75000000  0.00000000  0.00000000  1
  K  K3  1  0.25000000  0.00000000  0.00000000  1
  K  K4  1  0.50000000  0.75000000  0.65791000  1
  K  K5  1  0.00000000  0.75000000  0.34209000  1
  K  K6  1  0.25000000  0.50000000  0.00000000  1
  K  K7  1  0.75000000  0.50000000  0.00000000  1
  Na  Na8  1  0.25000000  0.00000000  0.50000000  1
  Na  Na9  1  0.75000000  0.00000000  0.50000000  1
  Na  Na10  1  0.75000000  0.50000000  0.50000000  1
  Na  Na11  1  0.25000000  0.50000000  0.50000000  1
  Fe  Fe12  1  0.00000000  0.25000000  0.16580700  1
  Fe  Fe13  1  0.00000000  0.75000000  0.83419300  1
  Fe  Fe14  1  0.50000000  0.75000000  0.16580700  1
  Fe  Fe15  1  0.50000000  0.25000000  0.83419300  1
  O  O16  1  0.25000000  0.25000000  0.00000000  1
  O  O17  1  0.75000000  0.25000000  0.00000000  1
  O  O18  1  0.00000000  0.89316350  0.68569100  1
  O  O19  1  0.50000000  0.10683650  0.68569100  1
  O  O20  1  0.00000000  0.10683650  0.31430900  1
  O  O21  1  0.50000000  0.89316350  0.31430900  1
  O  O22  1  0.75000000  0.75000000  0.00000000  1
  O  O23  1  0.25000000  0.75000000  0.00000000  1
  O  O24  1  0.50000000  0.39316350  0.68569100  1
  O  O25  1  0.00000000  0.60683650  0.68569100  1
  O  O26  1  0.50000000  0.60683650  0.31430900  1
  O  O27  1  0.00000000  0.39316350  0.31430900  1
