# generated using pymatgen
data_SrLi3MnN3
_symmetry_space_group_name_H-M   'P 1'
_cell_length_a   5.86920394
_cell_length_b   5.86920394
_cell_length_c   19.15421735
_cell_angle_alpha   90.00000000
_cell_angle_beta   90.00000000
_cell_angle_gamma   120.00000000
_symmetry_Int_Tables_number   1
_chemical_formula_structural   SrLi3MnN3
_chemical_formula_sum   'Sr6 Li18 Mn6 N18'
_cell_volume   571.41737732
_cell_formula_units_Z   6
loop_
 _symmetry_equiv_pos_site_id
 _symmetry_equiv_pos_as_xyz
  1  'x, y, z'
loop_
 _atom_site_type_symbol
 _atom_site_label
 _atom_site_symmetry_multiplicity
 _atom_site_fract_x
 _atom_site_fract_y
 _atom_site_fract_z
 _atom_site_occupancy
  Sr  Sr0  1  0.33333333  0.66666667  0.00423067  1
  Sr  Sr1  1  0.33333333  0.66666667  0.32910267  1
  Sr  Sr2  1  0.00000000  0.00000000  0.33756400  1
  Sr  Sr3  1  0.00000000  0.00000000  0.66243600  1
  Sr  Sr4  1  0.66666667  0.33333333  0.67089733  1
  Sr  Sr5  1  0.66666667  0.33333333  0.99576933  1
  Li  Li6  1  0.27398767  0.30734333  0.20268133  1
  Li  Li7  1  0.69265667  0.96664433  0.20268133  1
  Li  Li8  1  0.63331100  0.60732100  0.13065200  1
  Li  Li9  1  0.03335567  0.72601233  0.20268133  1
  Li  Li10  1  0.97401000  0.36668900  0.13065200  1
  Li  Li11  1  0.39267900  0.02599000  0.13065200  1
  Li  Li12  1  0.94065433  0.64067667  0.53601467  1
  Li  Li13  1  0.35932333  0.29997767  0.53601467  1
  Li  Li14  1  0.29997767  0.94065433  0.46398533  1
  Li  Li15  1  0.70002233  0.05934567  0.53601467  1
  Li  Li16  1  0.64067667  0.70002233  0.46398533  1
  Li  Li17  1  0.05934567  0.35932333  0.46398533  1
  Li  Li18  1  0.60732100  0.97401000  0.86934800  1
  Li  Li19  1  0.02599000  0.63331100  0.86934800  1
  Li  Li20  1  0.96664433  0.27398767  0.79731867  1
  Li  Li21  1  0.36668900  0.39267900  0.86934800  1
  Li  Li22  1  0.30734333  0.03335567  0.79731867  1
  Li  Li23  1  0.72601233  0.69265667  0.79731867  1
  Mn  Mn24  1  0.00000000  0.00000000  0.06698300  1
  Mn  Mn25  1  0.66666667  0.33333333  0.26635033  1
  Mn  Mn26  1  0.66666667  0.33333333  0.40031633  1
  Mn  Mn27  1  0.33333333  0.66666667  0.59968367  1
  Mn  Mn28  1  0.33333333  0.66666667  0.73364967  1
  Mn  Mn29  1  0.00000000  0.00000000  0.93301700  1
  N  N30  1  0.37657333  0.03813667  0.24352267  1
  N  N31  1  0.70480333  0.99489667  0.08981067  1
  N  N32  1  0.29009333  0.29519667  0.08981067  1
  N  N33  1  0.00510333  0.70990667  0.08981067  1
  N  N34  1  0.96186333  0.33843667  0.24352267  1
  N  N35  1  0.66156333  0.62342667  0.24352267  1
  N  N36  1  0.04324000  0.37147000  0.57685600  1
  N  N37  1  0.37147000  0.32823000  0.42314400  1
  N  N38  1  0.95676000  0.62853000  0.42314400  1
  N  N39  1  0.67177000  0.04324000  0.42314400  1
  N  N40  1  0.62853000  0.67177000  0.57685600  1
  N  N41  1  0.32823000  0.95676000  0.57685600  1
  N  N42  1  0.70990667  0.70480333  0.91018933  1
  N  N43  1  0.03813667  0.66156333  0.75647733  1
  N  N44  1  0.62342667  0.96186333  0.75647733  1
  N  N45  1  0.33843667  0.37657333  0.75647733  1
  N  N46  1  0.29519667  0.00510333  0.91018933  1
  N  N47  1  0.99489667  0.29009333  0.91018933  1
