# generated using pymatgen
data_MnSeO4
_symmetry_space_group_name_H-M   'P 1'
_cell_length_a   5.62867775
_cell_length_b   8.52509233
_cell_length_c   6.95602700
_cell_angle_alpha   90.00000000
_cell_angle_beta   90.00000000
_cell_angle_gamma   90.00000000
_symmetry_Int_Tables_number   1
_chemical_formula_structural   MnSeO4
_chemical_formula_sum   'Mn4 Se4 O16'
_cell_volume   333.78493824
_cell_formula_units_Z   4
loop_
 _symmetry_equiv_pos_site_id
 _symmetry_equiv_pos_as_xyz
  1  'x, y, z'
loop_
 _atom_site_type_symbol
 _atom_site_label
 _atom_site_symmetry_multiplicity
 _atom_site_fract_x
 _atom_site_fract_y
 _atom_site_fract_z
 _atom_site_occupancy
  Mn  Mn0  1  0.00000000  0.00000000  0.50000000  1
  Mn  Mn1  1  0.00000000  0.00000000  0.00000000  1
  Mn  Mn2  1  0.50000000  0.50000000  0.50000000  1
  Mn  Mn3  1  0.50000000  0.50000000  0.00000000  1
  Se  Se4  1  0.50000000  0.85150600  0.25000000  1
  Se  Se5  1  0.50000000  0.14849400  0.75000000  1
  Se  Se6  1  0.00000000  0.35150600  0.25000000  1
  Se  Se7  1  0.00000000  0.64849400  0.75000000  1
  O  O8  1  0.50000000  0.74701100  0.45076500  1
  O  O9  1  0.50000000  0.25298900  0.54923500  1
  O  O10  1  0.50000000  0.74701100  0.04923500  1
  O  O11  1  0.50000000  0.25298900  0.95076500  1
  O  O12  1  0.25539150  0.03114250  0.75000000  1
  O  O13  1  0.74460850  0.96885750  0.25000000  1
  O  O14  1  0.74460850  0.03114250  0.75000000  1
  O  O15  1  0.25539150  0.96885750  0.25000000  1
  O  O16  1  0.00000000  0.24701100  0.45076500  1
  O  O17  1  0.00000000  0.75298900  0.54923500  1
  O  O18  1  0.00000000  0.24701100  0.04923500  1
  O  O19  1  0.00000000  0.75298900  0.95076500  1
  O  O20  1  0.75539150  0.53114250  0.75000000  1
  O  O21  1  0.24460850  0.46885750  0.25000000  1
  O  O22  1  0.24460850  0.53114250  0.75000000  1
  O  O23  1  0.75539150  0.46885750  0.25000000  1
