# generated using pymatgen
data_V3O5
_symmetry_space_group_name_H-M   'P 1'
_cell_length_a   10.18031400
_cell_length_b   5.20215800
_cell_length_c   7.08837846
_cell_angle_alpha   90.00000000
_cell_angle_beta   112.45640165
_cell_angle_gamma   90.00000000
_symmetry_Int_Tables_number   1
_chemical_formula_structural   V3O5
_chemical_formula_sum   'V12 O20'
_cell_volume   346.93146741
_cell_formula_units_Z   4
loop_
 _symmetry_equiv_pos_site_id
 _symmetry_equiv_pos_as_xyz
  1  'x, y, z'
loop_
 _atom_site_type_symbol
 _atom_site_label
 _atom_site_symmetry_multiplicity
 _atom_site_fract_x
 _atom_site_fract_y
 _atom_site_fract_z
 _atom_site_occupancy
  V  V0  1  0.36988900  0.00194700  0.77834700  1
  V  V1  1  0.36988900  0.99805300  0.27834700  1
  V  V2  1  0.13011100  0.49805300  0.22165300  1
  V  V3  1  0.13011100  0.50194700  0.72165300  1
  V  V4  1  0.00000000  0.00000000  0.00000000  1
  V  V5  1  0.00000000  0.00000000  0.50000000  1
  V  V6  1  0.86988900  0.50194700  0.77834700  1
  V  V7  1  0.86988900  0.49805300  0.27834700  1
  V  V8  1  0.63011100  0.99805300  0.22165300  1
  V  V9  1  0.63011100  0.00194700  0.72165300  1
  V  V10  1  0.50000000  0.50000000  0.00000000  1
  V  V11  1  0.50000000  0.50000000  0.50000000  1
  O  O12  1  0.30604900  0.65680700  0.33627200  1
  O  O13  1  0.30604900  0.34319300  0.83627200  1
  O  O14  1  0.19395100  0.84319300  0.66372800  1
  O  O15  1  0.19395100  0.15680700  0.16372800  1
  O  O16  1  0.42082900  0.84845300  0.05725400  1
  O  O17  1  0.42082900  0.15154700  0.55725400  1
  O  O18  1  0.07917100  0.65154700  0.94274600  1
  O  O19  1  0.07917100  0.34845300  0.44274600  1
  O  O20  1  0.00000000  0.80624300  0.25000000  1
  O  O21  1  0.00000000  0.19375700  0.75000000  1
  O  O22  1  0.80604900  0.15680700  0.33627200  1
  O  O23  1  0.80604900  0.84319300  0.83627200  1
  O  O24  1  0.69395100  0.34319300  0.66372800  1
  O  O25  1  0.69395100  0.65680700  0.16372800  1
  O  O26  1  0.92082900  0.34845300  0.05725400  1
  O  O27  1  0.92082900  0.65154700  0.55725400  1
  O  O28  1  0.57917100  0.15154700  0.94274600  1
  O  O29  1  0.57917100  0.84845300  0.44274600  1
  O  O30  1  0.50000000  0.30624300  0.25000000  1
  O  O31  1  0.50000000  0.69375700  0.75000000  1
