# generated using pymatgen
data_KGd(WO4)2
_symmetry_space_group_name_H-M   'P 1'
_cell_length_a   10.99233400
_cell_length_b   10.72418200
_cell_length_c   7.49447784
_cell_angle_alpha   90.00000000
_cell_angle_beta   130.38981886
_cell_angle_gamma   90.00000000
_symmetry_Int_Tables_number   1
_chemical_formula_structural   KGd(WO4)2
_chemical_formula_sum   'K4 Gd4 W8 O32'
_cell_volume   672.90366306
_cell_formula_units_Z   4
loop_
 _symmetry_equiv_pos_site_id
 _symmetry_equiv_pos_as_xyz
  1  'x, y, z'
loop_
 _atom_site_type_symbol
 _atom_site_label
 _atom_site_symmetry_multiplicity
 _atom_site_fract_x
 _atom_site_fract_y
 _atom_site_fract_z
 _atom_site_occupancy
  K  K0  1  0.00000000  0.70792600  0.25000000  1
  K  K1  1  0.00000000  0.29207400  0.75000000  1
  K  K2  1  0.50000000  0.20792600  0.25000000  1
  K  K3  1  0.50000000  0.79207400  0.75000000  1
  Gd  Gd4  1  0.00000000  0.72471000  0.75000000  1
  Gd  Gd5  1  0.00000000  0.27529000  0.25000000  1
  Gd  Gd6  1  0.50000000  0.22471000  0.75000000  1
  Gd  Gd7  1  0.50000000  0.77529000  0.25000000  1
  W  W8  1  0.30435250  0.50453050  0.28149100  1
  W  W9  1  0.69564750  0.50453050  0.21850900  1
  W  W10  1  0.69564750  0.49546950  0.71850900  1
  W  W11  1  0.30435250  0.49546950  0.78149100  1
  W  W12  1  0.80435250  0.00453050  0.28149100  1
  W  W13  1  0.19564750  0.00453050  0.21850900  1
  W  W14  1  0.19564750  0.99546950  0.71850900  1
  W  W15  1  0.80435250  0.99546950  0.78149100  1
  O  O16  1  0.13187250  0.41114850  0.18622400  1
  O  O17  1  0.86812750  0.41114850  0.31377600  1
  O  O18  1  0.86812750  0.58885150  0.81377600  1
  O  O19  1  0.13187250  0.58885150  0.68622400  1
  O  O20  1  0.98106250  0.89041050  0.53062700  1
  O  O21  1  0.01893750  0.89041050  0.96937300  1
  O  O22  1  0.01893750  0.10958950  0.46937300  1
  O  O23  1  0.98106250  0.10958950  0.03062700  1
  O  O24  1  0.21623650  0.65527450  0.12695400  1
  O  O25  1  0.78376350  0.65527450  0.37304600  1
  O  O26  1  0.78376350  0.34472550  0.87304600  1
  O  O27  1  0.21623650  0.34472550  0.62695400  1
  O  O28  1  0.31148050  0.43541250  0.05609200  1
  O  O29  1  0.68851950  0.43541250  0.44390800  1
  O  O30  1  0.68851950  0.56458750  0.94390800  1
  O  O31  1  0.31148050  0.56458750  0.55609200  1
  O  O32  1  0.63187250  0.91114850  0.18622400  1
  O  O33  1  0.36812750  0.91114850  0.31377600  1
  O  O34  1  0.36812750  0.08885150  0.81377600  1
  O  O35  1  0.63187250  0.08885150  0.68622400  1
  O  O36  1  0.48106250  0.39041050  0.53062700  1
  O  O37  1  0.51893750  0.39041050  0.96937300  1
  O  O38  1  0.51893750  0.60958950  0.46937300  1
  O  O39  1  0.48106250  0.60958950  0.03062700  1
  O  O40  1  0.71623650  0.15527450  0.12695400  1
  O  O41  1  0.28376350  0.15527450  0.37304600  1
  O  O42  1  0.28376350  0.84472550  0.87304600  1
  O  O43  1  0.71623650  0.84472550  0.62695400  1
  O  O44  1  0.81148050  0.93541250  0.05609200  1
  O  O45  1  0.18851950  0.93541250  0.44390800  1
  O  O46  1  0.18851950  0.06458750  0.94390800  1
  O  O47  1  0.81148050  0.06458750  0.55609200  1
