# generated using pymatgen
data_Ni5Se4(BrO6)2
_symmetry_space_group_name_H-M   'P 1'
_cell_length_a   6.51642710
_cell_length_b   7.73961152
_cell_length_c   7.82346507
_cell_angle_alpha   67.93279122
_cell_angle_beta   73.96204618
_cell_angle_gamma   81.57873087
_symmetry_Int_Tables_number   1
_chemical_formula_structural   Ni5Se4(BrO6)2
_chemical_formula_sum   'Ni5 Se4 Br2 O12'
_cell_volume   351.03301172
_cell_formula_units_Z   1
loop_
 _symmetry_equiv_pos_site_id
 _symmetry_equiv_pos_as_xyz
  1  'x, y, z'
loop_
 _atom_site_type_symbol
 _atom_site_label
 _atom_site_symmetry_multiplicity
 _atom_site_fract_x
 _atom_site_fract_y
 _atom_site_fract_z
 _atom_site_occupancy
  Ni  Ni0  1  0.50000000  0.00000000  0.00000000  1
  Ni  Ni1  1  0.37023450  0.30905550  0.57777200  1
  Ni  Ni2  1  0.62976550  0.69094450  0.42222800  1
  Ni  Ni3  1  0.82338700  0.87484200  0.64928100  1
  Ni  Ni4  1  0.17661300  0.12515800  0.35071900  1
  Se  Se5  1  0.84149850  0.30640150  0.68889050  1
  Se  Se6  1  0.15850150  0.69359850  0.31110950  1
  Se  Se7  1  0.29378450  0.83765950  0.76993750  1
  Se  Se8  1  0.70621550  0.16234050  0.23006250  1
  Br  Br9  1  0.70336100  0.66558700  0.01689150  1
  Br  Br10  1  0.29663900  0.33441300  0.98310850  1
  O  O11  1  0.07836450  0.30086950  0.52005800  1
  O  O12  1  0.92163550  0.69913050  0.47994200  1
  O  O13  1  0.85882500  0.09342800  0.39421150  1
  O  O14  1  0.14117500  0.90657200  0.60578850  1
  O  O15  1  0.34087950  0.04472450  0.78928600  1
  O  O16  1  0.65912050  0.95527550  0.21071400  1
  O  O17  1  0.45753950  0.20070650  0.36817100  1
  O  O18  1  0.54246050  0.79929350  0.63182900  1
  O  O19  1  0.65963450  0.40559950  0.54774400  1
  O  O20  1  0.34036550  0.59440050  0.45225600  1
  O  O21  1  0.76809850  0.07676750  0.78572500  1
  O  O22  1  0.23190150  0.92323250  0.21427500  1
