# generated using pymatgen
data_HoSi2Ni
_symmetry_space_group_name_H-M   'P 1'
_cell_length_a   3.96014800
_cell_length_b   16.44807200
_cell_length_c   3.94246200
_cell_angle_alpha   90.00000000
_cell_angle_beta   90.00000000
_cell_angle_gamma   90.00000000
_symmetry_Int_Tables_number   1
_chemical_formula_structural   HoSi2Ni
_chemical_formula_sum   'Ho4 Si8 Ni4'
_cell_volume   256.79935657
_cell_formula_units_Z   4
loop_
 _symmetry_equiv_pos_site_id
 _symmetry_equiv_pos_as_xyz
  1  'x, y, z'
loop_
 _atom_site_type_symbol
 _atom_site_label
 _atom_site_symmetry_multiplicity
 _atom_site_fract_x
 _atom_site_fract_y
 _atom_site_fract_z
 _atom_site_occupancy
  Ho  Ho0  1  0.50000000  0.39433600  0.75000000  1
  Ho  Ho1  1  0.00000000  0.10566400  0.25000000  1
  Ho  Ho2  1  0.00000000  0.89433600  0.75000000  1
  Ho  Ho3  1  0.50000000  0.60566400  0.25000000  1
  Si  Si4  1  0.00000000  0.25068100  0.75000000  1
  Si  Si5  1  0.50000000  0.24931900  0.25000000  1
  Si  Si6  1  0.00000000  0.46014500  0.25000000  1
  Si  Si7  1  0.50000000  0.03985500  0.75000000  1
  Si  Si8  1  0.50000000  0.75068100  0.75000000  1
  Si  Si9  1  0.00000000  0.74931900  0.25000000  1
  Si  Si10  1  0.50000000  0.96014500  0.25000000  1
  Si  Si11  1  0.00000000  0.53985500  0.75000000  1
  Ni  Ni12  1  0.00000000  0.32326400  0.25000000  1
  Ni  Ni13  1  0.50000000  0.17673600  0.75000000  1
  Ni  Ni14  1  0.50000000  0.82326400  0.25000000  1
  Ni  Ni15  1  0.00000000  0.67673600  0.75000000  1
