# generated using pymatgen
data_MnAsO4
_symmetry_space_group_name_H-M   'P 1'
_cell_length_a   5.07503600
_cell_length_b   6.14778800
_cell_length_c   10.28209400
_cell_angle_alpha   90.00000000
_cell_angle_beta   90.00000000
_cell_angle_gamma   90.00000000
_symmetry_Int_Tables_number   1
_chemical_formula_structural   MnAsO4
_chemical_formula_sum   'Mn4 As4 O16'
_cell_volume   320.80385624
_cell_formula_units_Z   4
loop_
 _symmetry_equiv_pos_site_id
 _symmetry_equiv_pos_as_xyz
  1  'x, y, z'
loop_
 _atom_site_type_symbol
 _atom_site_label
 _atom_site_symmetry_multiplicity
 _atom_site_fract_x
 _atom_site_fract_y
 _atom_site_fract_z
 _atom_site_occupancy
  Mn  Mn0  1  0.56156550  0.25000000  0.71893750  1
  Mn  Mn1  1  0.06156550  0.75000000  0.78106250  1
  Mn  Mn2  1  0.93843450  0.25000000  0.21893750  1
  Mn  Mn3  1  0.43843450  0.75000000  0.28106250  1
  As  As4  1  0.42592850  0.25000000  0.40142950  1
  As  As5  1  0.07407150  0.25000000  0.90142950  1
  As  As6  1  0.92592850  0.75000000  0.09857050  1
  As  As7  1  0.57407150  0.75000000  0.59857050  1
  O  O8  1  0.14677150  0.25000000  0.06420550  1
  O  O9  1  0.35322850  0.25000000  0.56420550  1
  O  O10  1  0.85322850  0.75000000  0.93579450  1
  O  O11  1  0.64677150  0.75000000  0.43579450  1
  O  O12  1  0.76199850  0.25000000  0.38319050  1
  O  O13  1  0.73800150  0.25000000  0.88319050  1
  O  O14  1  0.26199850  0.75000000  0.11680950  1
  O  O15  1  0.23800150  0.75000000  0.61680950  1
  O  O16  1  0.26543150  0.03827750  0.32299250  1
  O  O17  1  0.23456850  0.03827750  0.82299250  1
  O  O18  1  0.26543150  0.46172250  0.32299250  1
  O  O19  1  0.23456850  0.46172250  0.82299250  1
  O  O20  1  0.73456850  0.53827750  0.67700750  1
  O  O21  1  0.76543150  0.53827750  0.17700750  1
  O  O22  1  0.76543150  0.96172250  0.17700750  1
  O  O23  1  0.73456850  0.96172250  0.67700750  1
