# generated using pymatgen
data_V(PO3)4
_symmetry_space_group_name_H-M   'P 1'
_cell_length_a   16.90102200
_cell_length_b   12.53855200
_cell_length_c   5.24330674
_cell_angle_alpha   90.00000000
_cell_angle_beta   100.93633116
_cell_angle_gamma   90.00000000
_symmetry_Int_Tables_number   1
_chemical_formula_structural   V(PO3)4
_chemical_formula_sum   'V4 P16 O48'
_cell_volume   1090.95220386
_cell_formula_units_Z   4
loop_
 _symmetry_equiv_pos_site_id
 _symmetry_equiv_pos_as_xyz
  1  'x, y, z'
loop_
 _atom_site_type_symbol
 _atom_site_label
 _atom_site_symmetry_multiplicity
 _atom_site_fract_x
 _atom_site_fract_y
 _atom_site_fract_z
 _atom_site_occupancy
  V  V0  1  0.25000000  0.25000000  0.50000000  1
  V  V1  1  0.25000000  0.75000000  0.50000000  1
  V  V2  1  0.75000000  0.75000000  0.50000000  1
  V  V3  1  0.75000000  0.25000000  0.50000000  1
  P  P4  1  0.57758300  0.21745900  0.67742600  1
  P  P5  1  0.57758300  0.78254100  0.67742600  1
  P  P6  1  0.81342450  0.12028450  0.03657800  1
  P  P7  1  0.81342450  0.87971550  0.03657800  1
  P  P8  1  0.18657550  0.12028450  0.96342200  1
  P  P9  1  0.42241700  0.78254100  0.32257400  1
  P  P10  1  0.42241700  0.21745900  0.32257400  1
  P  P11  1  0.18657550  0.87971550  0.96342200  1
  P  P12  1  0.07758300  0.71745900  0.67742600  1
  P  P13  1  0.07758300  0.28254100  0.67742600  1
  P  P14  1  0.31342450  0.62028450  0.03657800  1
  P  P15  1  0.31342450  0.37971550  0.03657800  1
  P  P16  1  0.68657550  0.62028450  0.96342200  1
  P  P17  1  0.92241700  0.28254100  0.32257400  1
  P  P18  1  0.92241700  0.71745900  0.32257400  1
  P  P19  1  0.68657550  0.37971550  0.96342200  1
  O  O20  1  0.64269200  0.21688400  0.50251400  1
  O  O21  1  0.64269200  0.78311600  0.50251400  1
  O  O22  1  0.50000000  0.27322300  0.50000000  1
  O  O23  1  0.50000000  0.72677700  0.50000000  1
  O  O24  1  0.78674750  0.12850650  0.74593200  1
  O  O25  1  0.78674750  0.87149350  0.74593200  1
  O  O26  1  0.56329800  0.12044400  0.81428600  1
  O  O27  1  0.56329800  0.87955600  0.81428600  1
  O  O28  1  0.60325250  0.32030750  0.87101400  1
  O  O29  1  0.60325250  0.67969250  0.87101400  1
  O  O30  1  0.84087200  0.00000000  0.10526200  1
  O  O31  1  0.24725200  0.84564600  0.80112000  1
  O  O32  1  0.24725200  0.15435400  0.80112000  1
  O  O33  1  0.75274800  0.84564600  0.19888000  1
  O  O34  1  0.75274800  0.15435400  0.19888000  1
  O  O35  1  0.15912800  0.00000000  0.89473800  1
  O  O36  1  0.39674750  0.32030750  0.12898600  1
  O  O37  1  0.35730800  0.78311600  0.49748600  1
  O  O38  1  0.43670200  0.12044400  0.18571400  1
  O  O39  1  0.43670200  0.87955600  0.18571400  1
  O  O40  1  0.21325250  0.12850650  0.25406800  1
  O  O41  1  0.21325250  0.87149350  0.25406800  1
  O  O42  1  0.35730800  0.21688400  0.49748600  1
  O  O43  1  0.39674750  0.67969250  0.12898600  1
  O  O44  1  0.14269200  0.71688400  0.50251400  1
  O  O45  1  0.14269200  0.28311600  0.50251400  1
  O  O46  1  0.00000000  0.77322300  0.50000000  1
  O  O47  1  0.00000000  0.22677700  0.50000000  1
  O  O48  1  0.28674750  0.62850650  0.74593200  1
  O  O49  1  0.28674750  0.37149350  0.74593200  1
  O  O50  1  0.06329800  0.62044400  0.81428600  1
  O  O51  1  0.06329800  0.37955600  0.81428600  1
  O  O52  1  0.10325250  0.82030750  0.87101400  1
  O  O53  1  0.10325250  0.17969250  0.87101400  1
  O  O54  1  0.34087200  0.50000000  0.10526200  1
  O  O55  1  0.74725200  0.34564600  0.80112000  1
  O  O56  1  0.74725200  0.65435400  0.80112000  1
  O  O57  1  0.25274800  0.34564600  0.19888000  1
  O  O58  1  0.25274800  0.65435400  0.19888000  1
  O  O59  1  0.65912800  0.50000000  0.89473800  1
  O  O60  1  0.89674750  0.82030750  0.12898600  1
  O  O61  1  0.85730800  0.28311600  0.49748600  1
  O  O62  1  0.93670200  0.62044400  0.18571400  1
  O  O63  1  0.93670200  0.37955600  0.18571400  1
  O  O64  1  0.71325250  0.62850650  0.25406800  1
  O  O65  1  0.71325250  0.37149350  0.25406800  1
  O  O66  1  0.85730800  0.71688400  0.49748600  1
  O  O67  1  0.89674750  0.17969250  0.12898600  1
