# generated using pymatgen
data_Li2Nd2Si3
_symmetry_space_group_name_H-M   'P 1'
_cell_length_a   4.40642000
_cell_length_b   18.51231600
_cell_length_c   6.82810300
_cell_angle_alpha   90.00000000
_cell_angle_beta   90.00000000
_cell_angle_gamma   90.00000000
_symmetry_Int_Tables_number   1
_chemical_formula_structural   Li2Nd2Si3
_chemical_formula_sum   'Li8 Nd8 Si12'
_cell_volume   556.98911552
_cell_formula_units_Z   4
loop_
 _symmetry_equiv_pos_site_id
 _symmetry_equiv_pos_as_xyz
  1  'x, y, z'
loop_
 _atom_site_type_symbol
 _atom_site_label
 _atom_site_symmetry_multiplicity
 _atom_site_fract_x
 _atom_site_fract_y
 _atom_site_fract_z
 _atom_site_occupancy
  Li  Li0  1  0.00000000  0.81154700  0.06067900  1
  Li  Li1  1  0.00000000  0.81154700  0.43932100  1
  Li  Li2  1  0.50000000  0.68845300  0.93932100  1
  Li  Li3  1  0.50000000  0.68845300  0.56067900  1
  Li  Li4  1  0.50000000  0.31154700  0.06067900  1
  Li  Li5  1  0.50000000  0.31154700  0.43932100  1
  Li  Li6  1  0.00000000  0.18845300  0.93932100  1
  Li  Li7  1  0.00000000  0.18845300  0.56067900  1
  Nd  Nd8  1  0.00000000  0.65800300  0.25000000  1
  Nd  Nd9  1  0.50000000  0.84199700  0.75000000  1
  Nd  Nd10  1  0.50000000  0.94745200  0.25000000  1
  Nd  Nd11  1  0.00000000  0.55254800  0.75000000  1
  Nd  Nd12  1  0.50000000  0.15800300  0.25000000  1
  Nd  Nd13  1  0.00000000  0.34199700  0.75000000  1
  Nd  Nd14  1  0.00000000  0.44745200  0.25000000  1
  Nd  Nd15  1  0.50000000  0.05254800  0.75000000  1
  Si  Si16  1  0.50000000  0.78032400  0.25000000  1
  Si  Si17  1  0.00000000  0.71967600  0.75000000  1
  Si  Si18  1  0.00000000  0.94190500  0.92542100  1
  Si  Si19  1  0.50000000  0.55809500  0.07457900  1
  Si  Si20  1  0.50000000  0.55809500  0.42542100  1
  Si  Si21  1  0.00000000  0.94190500  0.57457900  1
  Si  Si22  1  0.00000000  0.28032400  0.25000000  1
  Si  Si23  1  0.50000000  0.21967600  0.75000000  1
  Si  Si24  1  0.50000000  0.44190500  0.92542100  1
  Si  Si25  1  0.00000000  0.05809500  0.07457900  1
  Si  Si26  1  0.00000000  0.05809500  0.42542100  1
  Si  Si27  1  0.50000000  0.44190500  0.57457900  1
