# generated using pymatgen
data_Sr11(MgSi5)2
_symmetry_space_group_name_H-M   'P 1'
_cell_length_a   19.73815000
_cell_length_b   4.76113200
_cell_length_c   14.90264833
_cell_angle_alpha   90.00000000
_cell_angle_beta   112.19476642
_cell_angle_gamma   90.00000000
_symmetry_Int_Tables_number   1
_chemical_formula_structural   Sr11(MgSi5)2
_chemical_formula_sum   'Sr22 Mg4 Si20'
_cell_volume   1296.72114827
_cell_formula_units_Z   2
loop_
 _symmetry_equiv_pos_site_id
 _symmetry_equiv_pos_as_xyz
  1  'x, y, z'
loop_
 _atom_site_type_symbol
 _atom_site_label
 _atom_site_symmetry_multiplicity
 _atom_site_fract_x
 _atom_site_fract_y
 _atom_site_fract_z
 _atom_site_occupancy
  Sr  Sr0  1  0.29364700  0.50000000  0.62177500  1
  Sr  Sr1  1  0.01712500  0.00000000  0.80382300  1
  Sr  Sr2  1  0.14382900  0.50000000  0.71733400  1
  Sr  Sr3  1  0.07136000  0.50000000  0.44146300  1
  Sr  Sr4  1  0.34258400  0.50000000  0.89568400  1
  Sr  Sr5  1  0.70635300  0.50000000  0.37822500  1
  Sr  Sr6  1  0.00000000  0.50000000  0.00000000  1
  Sr  Sr7  1  0.98287500  0.00000000  0.19617700  1
  Sr  Sr8  1  0.65741600  0.50000000  0.10431600  1
  Sr  Sr9  1  0.92864000  0.50000000  0.55853700  1
  Sr  Sr10  1  0.85617100  0.50000000  0.28266600  1
  Sr  Sr11  1  0.79364700  0.00000000  0.62177500  1
  Sr  Sr12  1  0.51712500  0.50000000  0.80382300  1
  Sr  Sr13  1  0.64382900  0.00000000  0.71733400  1
  Sr  Sr14  1  0.57136000  0.00000000  0.44146300  1
  Sr  Sr15  1  0.84258400  0.00000000  0.89568400  1
  Sr  Sr16  1  0.20635300  0.00000000  0.37822500  1
  Sr  Sr17  1  0.50000000  0.00000000  0.00000000  1
  Sr  Sr18  1  0.48287500  0.50000000  0.19617700  1
  Sr  Sr19  1  0.15741600  0.00000000  0.10431600  1
  Sr  Sr20  1  0.42864000  0.00000000  0.55853700  1
  Sr  Sr21  1  0.35617100  0.00000000  0.28266600  1
  Mg  Mg22  1  0.78045200  0.00000000  0.08273600  1
  Mg  Mg23  1  0.21954800  0.00000000  0.91726400  1
  Mg  Mg24  1  0.28045200  0.50000000  0.08273600  1
  Mg  Mg25  1  0.71954800  0.50000000  0.91726400  1
  Si  Si26  1  0.16911400  0.00000000  0.57927600  1
  Si  Si27  1  0.11137800  0.50000000  0.23646200  1
  Si  Si28  1  0.74010800  0.00000000  0.25325500  1
  Si  Si29  1  0.95444700  0.00000000  0.41603600  1
  Si  Si30  1  0.88862200  0.50000000  0.76353800  1
  Si  Si31  1  0.85741100  0.50000000  0.06978100  1
  Si  Si32  1  0.83088600  0.00000000  0.42072400  1
  Si  Si33  1  0.14258900  0.50000000  0.93021900  1
  Si  Si34  1  0.25989200  0.00000000  0.74674500  1
  Si  Si35  1  0.04555300  0.00000000  0.58396400  1
  Si  Si36  1  0.66911400  0.50000000  0.57927600  1
  Si  Si37  1  0.61137800  0.00000000  0.23646200  1
  Si  Si38  1  0.24010800  0.50000000  0.25325500  1
  Si  Si39  1  0.45444700  0.50000000  0.41603600  1
  Si  Si40  1  0.38862200  0.00000000  0.76353800  1
  Si  Si41  1  0.35741100  0.00000000  0.06978100  1
  Si  Si42  1  0.33088600  0.50000000  0.42072400  1
  Si  Si43  1  0.64258900  0.00000000  0.93021900  1
  Si  Si44  1  0.75989200  0.50000000  0.74674500  1
  Si  Si45  1  0.54555300  0.50000000  0.58396400  1
