# generated using pymatgen
data_CrP2O7
_symmetry_space_group_name_H-M   'P 1'
_cell_length_a   6.84570616
_cell_length_b   8.07370500
_cell_length_c   9.35024948
_cell_angle_alpha   90.00000000
_cell_angle_beta   108.37152075
_cell_angle_gamma   90.00000000
_symmetry_Int_Tables_number   1
_chemical_formula_structural   CrP2O7
_chemical_formula_sum   'Cr4 P8 O28'
_cell_volume   490.45091290
_cell_formula_units_Z   4
loop_
 _symmetry_equiv_pos_site_id
 _symmetry_equiv_pos_as_xyz
  1  'x, y, z'
loop_
 _atom_site_type_symbol
 _atom_site_label
 _atom_site_symmetry_multiplicity
 _atom_site_fract_x
 _atom_site_fract_y
 _atom_site_fract_z
 _atom_site_occupancy
  Cr  Cr0  1  0.72033650  0.77179000  0.50464050  1
  Cr  Cr1  1  0.72033650  0.72821000  0.00464050  1
  Cr  Cr2  1  0.27966350  0.27179000  0.99535950  1
  Cr  Cr3  1  0.27966350  0.22821000  0.49535950  1
  P  P4  1  0.93169250  0.53089000  0.79333650  1
  P  P5  1  0.93169250  0.96911000  0.29333650  1
  P  P6  1  0.06830750  0.03089000  0.70666350  1
  P  P7  1  0.06830750  0.46911000  0.20666350  1
  P  P8  1  0.53251750  0.41271600  0.79479550  1
  P  P9  1  0.46748250  0.91271600  0.70520450  1
  P  P10  1  0.53251750  0.08728400  0.29479550  1
  P  P11  1  0.46748250  0.58728400  0.20520450  1
  O  O12  1  0.88776050  0.60168000  0.63584850  1
  O  O13  1  0.88776050  0.89832000  0.13584850  1
  O  O14  1  0.11223950  0.10168000  0.86415150  1
  O  O15  1  0.11223950  0.39832000  0.36415150  1
  O  O16  1  0.86053250  0.94510600  0.65598150  1
  O  O17  1  0.86053250  0.55489400  0.15598150  1
  O  O18  1  0.13946750  0.44510600  0.84401850  1
  O  O19  1  0.13946750  0.05489400  0.34401850  1
  O  O20  1  0.91428250  0.66637300  0.90682450  1
  O  O21  1  0.91428250  0.83362700  0.40682450  1
  O  O22  1  0.08571750  0.16637300  0.59317550  1
  O  O23  1  0.08571750  0.33362700  0.09317550  1
  O  O24  1  0.76495850  0.38647300  0.79254150  1
  O  O25  1  0.76495850  0.11352700  0.29254150  1
  O  O26  1  0.23504150  0.88647300  0.70745850  1
  O  O27  1  0.23504150  0.61352700  0.20745850  1
  O  O28  1  0.51721650  0.77336100  0.60998650  1
  O  O29  1  0.48278350  0.27336100  0.89001350  1
  O  O30  1  0.51721650  0.72663900  0.10998650  1
  O  O31  1  0.48278350  0.22663900  0.39001350  1
  O  O32  1  0.60554250  0.90543000  0.87160550  1
  O  O33  1  0.39445750  0.40543000  0.62839450  1
  O  O34  1  0.60554250  0.59457000  0.37160550  1
  O  O35  1  0.39445750  0.09457000  0.12839450  1
  O  O36  1  0.47556850  0.08284300  0.63840350  1
  O  O37  1  0.52443150  0.58284300  0.86159650  1
  O  O38  1  0.47556850  0.41715700  0.13840350  1
  O  O39  1  0.52443150  0.91715700  0.36159650  1
