# generated using pymatgen
data_FeTe6O13
_symmetry_space_group_name_H-M   'P 1'
_cell_length_a   10.38058827
_cell_length_b   10.38058827
_cell_length_c   19.41331680
_cell_angle_alpha   90.00000000
_cell_angle_beta   90.00000000
_cell_angle_gamma   120.00000000
_symmetry_Int_Tables_number   1
_chemical_formula_structural   FeTe6O13
_chemical_formula_sum   'Fe6 Te36 O78'
_cell_volume   1811.65002800
_cell_formula_units_Z   6
loop_
 _symmetry_equiv_pos_site_id
 _symmetry_equiv_pos_as_xyz
  1  'x, y, z'
loop_
 _atom_site_type_symbol
 _atom_site_label
 _atom_site_symmetry_multiplicity
 _atom_site_fract_x
 _atom_site_fract_y
 _atom_site_fract_z
 _atom_site_occupancy
  Fe  Fe0  1  0.33333333  0.66666667  0.41041667  1
  Fe  Fe1  1  0.33333333  0.66666667  0.92291667  1
  Fe  Fe2  1  0.00000000  0.00000000  0.74375000  1
  Fe  Fe3  1  0.00000000  0.00000000  0.25625000  1
  Fe  Fe4  1  0.66666667  0.33333333  0.07708333  1
  Fe  Fe5  1  0.66666667  0.33333333  0.58958333  1
  Te  Te6  1  0.42891833  0.24851567  0.23766867  1
  Te  Te7  1  0.39439633  0.49665967  0.07426967  1
  Te  Te8  1  0.10226333  0.60560367  0.07426967  1
  Te  Te9  1  0.84706933  0.76225167  0.09566467  1
  Te  Te10  1  0.16332633  0.43559667  0.25906367  1
  Te  Te11  1  0.27227033  0.83667367  0.25906367  1
  Te  Te12  1  0.56440333  0.72772967  0.25906367  1
  Te  Te13  1  0.81959733  0.57108167  0.23766867  1
  Te  Te14  1  0.23774833  0.08481767  0.09566467  1
  Te  Te15  1  0.91518233  0.15293067  0.09566467  1
  Te  Te16  1  0.75148433  0.18040267  0.23766867  1
  Te  Te17  1  0.50334033  0.89773667  0.07426967  1
  Te  Te18  1  0.09558500  0.58184900  0.57100200  1
  Te  Te19  1  0.06106300  0.82999300  0.40760300  1
  Te  Te20  1  0.76893000  0.93893700  0.40760300  1
  Te  Te21  1  0.51373600  0.09558500  0.42899800  1
  Te  Te22  1  0.82999300  0.76893000  0.59239700  1
  Te  Te23  1  0.93893700  0.17000700  0.59239700  1
  Te  Te24  1  0.23107000  0.06106300  0.59239700  1
  Te  Te25  1  0.48626400  0.90441500  0.57100200  1
  Te  Te26  1  0.90441500  0.41815100  0.42899800  1
  Te  Te27  1  0.58184900  0.48626400  0.42899800  1
  Te  Te28  1  0.41815100  0.51373600  0.57100200  1
  Te  Te29  1  0.17000700  0.23107000  0.40760300  1
  Te  Te30  1  0.76225167  0.91518233  0.90433533  1
  Te  Te31  1  0.72772967  0.16332633  0.74093633  1
  Te  Te32  1  0.43559667  0.27227033  0.74093633  1
  Te  Te33  1  0.18040267  0.42891833  0.76233133  1
  Te  Te34  1  0.49665967  0.10226333  0.92573033  1
  Te  Te35  1  0.60560367  0.50334033  0.92573033  1
  Te  Te36  1  0.89773667  0.39439633  0.92573033  1
  Te  Te37  1  0.15293067  0.23774833  0.90433533  1
  Te  Te38  1  0.57108167  0.75148433  0.76233133  1
  Te  Te39  1  0.24851567  0.81959733  0.76233133  1
  Te  Te40  1  0.08481767  0.84706933  0.90433533  1
  Te  Te41  1  0.83667367  0.56440333  0.74093633  1
  O  O42  1  0.14941200  0.61265100  0.23791100  1
  O  O43  1  0.33333333  0.66666667  0.57831567  1
  O  O44  1  0.42592167  0.87249633  0.47329633  1
  O  O45  1  0.27931767  0.79657233  0.09542233  1
  O  O46  1  0.28110733  0.81147267  0.35505667  1
  O  O47  1  0.91993033  0.33672967  0.28061967  1
  O  O48  1  0.53916300  0.77990800  0.86003700  1
  O  O49  1  0.33333333  0.66666667  0.75501767  1
  O  O50  1  0.24986733  0.25326367  0.05271367  1
  O  O51  1  0.47813933  0.86369867  0.97827667  1
  O  O52  1  0.51725467  0.72068233  0.09542233  1
  O  O53  1  0.38555933  0.52186067  0.97827667  1
  O  O54  1  0.53036533  0.71889267  0.35505667  1
  O  O55  1  0.66327033  0.58320067  0.28061967  1
  O  O56  1  0.12750367  0.55342533  0.47329633  1
  O  O57  1  0.44657467  0.57407833  0.47329633  1
  O  O58  1  0.24074500  0.46083700  0.86003700  1
  O  O59  1  0.41679933  0.08006967  0.28061967  1
  O  O60  1  0.46323900  0.85058800  0.23791100  1
  O  O61  1  0.00339633  0.75013267  0.05271367  1
  O  O62  1  0.22009200  0.75925500  0.86003700  1
  O  O63  1  0.18852733  0.46963467  0.35505667  1
  O  O64  1  0.38734900  0.53676100  0.23791100  1
  O  O65  1  0.20342767  0.48274533  0.09542233  1
  O  O66  1  0.74673633  0.99660367  0.05271367  1
  O  O67  1  0.13630133  0.61444067  0.97827667  1
  O  O68  1  0.81607867  0.94598433  0.57124433  1
  O  O69  1  0.00000000  0.00000000  0.91164900  1
  O  O70  1  0.09258833  0.20582967  0.80662967  1
  O  O71  1  0.94598433  0.12990567  0.42875567  1
  O  O72  1  0.94777400  0.14480600  0.68839000  1
  O  O73  1  0.58659700  0.67006300  0.61395300  1
  O  O74  1  0.20582967  0.11324133  0.19337033  1
  O  O75  1  0.00000000  0.00000000  0.08835100  1
  O  O76  1  0.91653400  0.58659700  0.38604700  1
  O  O77  1  0.14480600  0.19703200  0.31161000  1
  O  O78  1  0.18392133  0.05401567  0.42875567  1
  O  O79  1  0.05222600  0.85519400  0.31161000  1
  O  O80  1  0.19703200  0.05222600  0.68839000  1
  O  O81  1  0.32993700  0.91653400  0.61395300  1
  O  O82  1  0.79417033  0.88675867  0.80662967  1
  O  O83  1  0.11324133  0.90741167  0.80662967  1
  O  O84  1  0.90741167  0.79417033  0.19337033  1
  O  O85  1  0.08346600  0.41340300  0.61395300  1
  O  O86  1  0.12990567  0.18392133  0.57124433  1
  O  O87  1  0.67006300  0.08346600  0.38604700  1
  O  O88  1  0.88675867  0.09258833  0.19337033  1
  O  O89  1  0.85519400  0.80296800  0.68839000  1
  O  O90  1  0.05401567  0.87009433  0.57124433  1
  O  O91  1  0.87009433  0.81607867  0.42875567  1
  O  O92  1  0.41340300  0.32993700  0.38604700  1
  O  O93  1  0.80296800  0.94777400  0.31161000  1
  O  O94  1  0.48274533  0.27931767  0.90457767  1
  O  O95  1  0.66666667  0.33333333  0.24498233  1
  O  O96  1  0.75925500  0.53916300  0.13996300  1
  O  O97  1  0.61265100  0.46323900  0.76208900  1
  O  O98  1  0.61444067  0.47813933  0.02172333  1
  O  O99  1  0.25326367  0.00339633  0.94728633  1
  O  O100  1  0.87249633  0.44657467  0.52670367  1
  O  O101  1  0.66666667  0.33333333  0.42168433  1
  O  O102  1  0.58320067  0.91993033  0.71938033  1
  O  O103  1  0.81147267  0.53036533  0.64494333  1
  O  O104  1  0.85058800  0.38734900  0.76208900  1
  O  O105  1  0.71889267  0.18852733  0.64494333  1
  O  O106  1  0.86369867  0.38555933  0.02172333  1
  O  O107  1  0.99660367  0.24986733  0.94728633  1
  O  O108  1  0.46083700  0.22009200  0.13996300  1
  O  O109  1  0.77990800  0.24074500  0.13996300  1
  O  O110  1  0.57407833  0.12750367  0.52670367  1
  O  O111  1  0.75013267  0.74673633  0.94728633  1
  O  O112  1  0.79657233  0.51725467  0.90457767  1
  O  O113  1  0.33672967  0.41679933  0.71938033  1
  O  O114  1  0.55342533  0.42592167  0.52670367  1
  O  O115  1  0.52186067  0.13630133  0.02172333  1
  O  O116  1  0.72068233  0.20342767  0.90457767  1
  O  O117  1  0.53676100  0.14941200  0.76208900  1
  O  O118  1  0.08006967  0.66327033  0.71938033  1
  O  O119  1  0.46963467  0.28110733  0.64494333  1
