# generated using pymatgen
data_Sr11(OsO6)4
_symmetry_space_group_name_H-M   'P 1'
_cell_length_a   11.79807600
_cell_length_b   11.79807600
_cell_length_c   16.31279000
_cell_angle_alpha   90.00000000
_cell_angle_beta   90.00000000
_cell_angle_gamma   90.00000000
_symmetry_Int_Tables_number   1
_chemical_formula_structural   Sr11(OsO6)4
_chemical_formula_sum   'Sr44 Os16 O96'
_cell_volume   2270.65223492
_cell_formula_units_Z   4
loop_
 _symmetry_equiv_pos_site_id
 _symmetry_equiv_pos_as_xyz
  1  'x, y, z'
loop_
 _atom_site_type_symbol
 _atom_site_label
 _atom_site_symmetry_multiplicity
 _atom_site_fract_x
 _atom_site_fract_y
 _atom_site_fract_z
 _atom_site_occupancy
  Sr  Sr0  1  0.52331600  0.71150600  0.40881300  1
  Sr  Sr1  1  0.73678900  0.79526100  0.23784300  1
  Sr  Sr2  1  0.50000000  0.00000000  0.48729000  1
  Sr  Sr3  1  0.00000000  0.00000000  0.73729000  1
  Sr  Sr4  1  0.78849400  0.02331600  0.09118700  1
  Sr  Sr5  1  0.26321100  0.70473900  0.01215700  1
  Sr  Sr6  1  0.50000000  0.00000000  0.01271000  1
  Sr  Sr7  1  0.21150600  0.47668400  0.15881300  1
  Sr  Sr8  1  0.21150600  0.97668400  0.09118700  1
  Sr  Sr9  1  0.47668400  0.28849400  0.40881300  1
  Sr  Sr10  1  0.28849400  0.02331600  0.65881300  1
  Sr  Sr11  1  0.00000000  0.00000000  0.50000000  1
  Sr  Sr12  1  0.52331600  0.21150600  0.84118700  1
  Sr  Sr13  1  0.50000000  0.00000000  0.25000000  1
  Sr  Sr14  1  0.29526100  0.76321100  0.26215700  1
  Sr  Sr15  1  0.97668400  0.28849400  0.34118700  1
  Sr  Sr16  1  0.23678900  0.79526100  0.51215700  1
  Sr  Sr17  1  0.70473900  0.23678900  0.26215700  1
  Sr  Sr18  1  0.20473900  0.23678900  0.48784300  1
  Sr  Sr19  1  0.26321100  0.20473900  0.23784300  1
  Sr  Sr20  1  0.00000000  0.00000000  0.26271000  1
  Sr  Sr21  1  0.29526100  0.26321100  0.98784300  1
  Sr  Sr22  1  0.02331600  0.21150600  0.90881300  1
  Sr  Sr23  1  0.23678900  0.29526100  0.73784300  1
  Sr  Sr24  1  0.00000000  0.50000000  0.98729000  1
  Sr  Sr25  1  0.50000000  0.50000000  0.23729000  1
  Sr  Sr26  1  0.28849400  0.52331600  0.59118700  1
  Sr  Sr27  1  0.76321100  0.20473900  0.51215700  1
  Sr  Sr28  1  0.00000000  0.50000000  0.51271000  1
  Sr  Sr29  1  0.71150600  0.97668400  0.65881300  1
  Sr  Sr30  1  0.71150600  0.47668400  0.59118700  1
  Sr  Sr31  1  0.97668400  0.78849400  0.90881300  1
  Sr  Sr32  1  0.78849400  0.52331600  0.15881300  1
  Sr  Sr33  1  0.50000000  0.50000000  0.00000000  1
  Sr  Sr34  1  0.02331600  0.71150600  0.34118700  1
  Sr  Sr35  1  0.00000000  0.50000000  0.75000000  1
  Sr  Sr36  1  0.79526100  0.26321100  0.76215700  1
  Sr  Sr37  1  0.47668400  0.78849400  0.84118700  1
  Sr  Sr38  1  0.73678900  0.29526100  0.01215700  1
  Sr  Sr39  1  0.20473900  0.73678900  0.76215700  1
  Sr  Sr40  1  0.70473900  0.73678900  0.98784300  1
  Sr  Sr41  1  0.76321100  0.70473900  0.73784300  1
  Sr  Sr42  1  0.50000000  0.50000000  0.76271000  1
  Sr  Sr43  1  0.79526100  0.76321100  0.48784300  1
  Os  Os44  1  0.00000000  0.75000000  0.12500000  1
  Os  Os45  1  0.25000000  0.00000000  0.37500000  1
  Os  Os46  1  0.25000000  0.50000000  0.87500000  1
  Os  Os47  1  0.75000000  0.50000000  0.37500000  1
  Os  Os48  1  0.50000000  0.25000000  0.12500000  1
  Os  Os49  1  0.00000000  0.25000000  0.12500000  1
  Os  Os50  1  0.25000000  0.50000000  0.37500000  1
  Os  Os51  1  0.00000000  0.25000000  0.62500000  1
  Os  Os52  1  0.50000000  0.25000000  0.62500000  1
  Os  Os53  1  0.75000000  0.50000000  0.87500000  1
  Os  Os54  1  0.75000000  0.00000000  0.37500000  1
  Os  Os55  1  0.25000000  0.00000000  0.87500000  1
  Os  Os56  1  0.00000000  0.75000000  0.62500000  1
  Os  Os57  1  0.50000000  0.75000000  0.62500000  1
  Os  Os58  1  0.75000000  0.00000000  0.87500000  1
  Os  Os59  1  0.50000000  0.75000000  0.12500000  1
  O  O60  1  0.82778250  0.42096250  0.29004450  1
  O  O61  1  0.10546950  0.31158950  0.04724450  1
  O  O62  1  0.37939350  0.13344050  0.10540050  1
  O  O63  1  0.92096250  0.67221750  0.20995550  1
  O  O64  1  0.27701250  0.48807750  0.99196850  1
  O  O65  1  0.07903750  0.32778250  0.20995550  1
  O  O66  1  0.18841050  0.10546950  0.79724450  1
  O  O67  1  0.39453050  0.18841050  0.54724450  1
  O  O68  1  0.36655950  0.87939350  0.39459950  1
  O  O69  1  0.81158950  0.39453050  0.45275550  1
  O  O70  1  0.13768550  0.38344550  0.87959950  1
  O  O71  1  0.36231450  0.11655450  0.37959950  1
  O  O72  1  0.98807750  0.22298750  0.50803150  1
  O  O73  1  0.37777900  0.59525000  0.35092200  1
  O  O74  1  0.88344550  0.36231450  0.62040050  1
  O  O75  1  0.89453050  0.18841050  0.20275550  1
  O  O76  1  0.60546950  0.31158950  0.70275550  1
  O  O77  1  0.22298750  0.01192250  0.49196850  1
  O  O78  1  0.12222100  0.90475000  0.85092200  1
  O  O79  1  0.13344050  0.62060650  0.89459950  1
  O  O80  1  0.12222100  0.40475000  0.39907800  1
  O  O81  1  0.13768550  0.88344550  0.37040050  1
  O  O82  1  0.32778250  0.42096250  0.45995550  1
  O  O83  1  0.36231450  0.61655450  0.87040050  1
  O  O84  1  0.09525000  0.12222100  0.14907800  1
  O  O85  1  0.87939350  0.13344050  0.64459950  1
  O  O86  1  0.38344550  0.36231450  0.12959950  1
  O  O87  1  0.07903750  0.82778250  0.04004450  1
  O  O88  1  0.68841050  0.10546950  0.95275550  1
  O  O89  1  0.17221750  0.57903750  0.29004450  1
  O  O90  1  0.09525000  0.62222100  0.10092200  1
  O  O91  1  0.40475000  0.37777900  0.64907800  1
  O  O92  1  0.27701250  0.98807750  0.25803150  1
  O  O93  1  0.13344050  0.12060650  0.35540050  1
  O  O94  1  0.87777900  0.59525000  0.39907800  1
  O  O95  1  0.72298750  0.01192250  0.25803150  1
  O  O96  1  0.48807750  0.22298750  0.24196850  1
  O  O97  1  0.62060650  0.36655950  0.14459950  1
  O  O98  1  0.51192250  0.77701250  0.24196850  1
  O  O99  1  0.42096250  0.67221750  0.54004450  1
  O  O100  1  0.12060650  0.36655950  0.60540050  1
  O  O101  1  0.11655450  0.13768550  0.62959950  1
  O  O102  1  0.17221750  0.07903750  0.95995550  1
  O  O103  1  0.61655450  0.13768550  0.12040050  1
  O  O104  1  0.31158950  0.39453050  0.29724450  1
  O  O105  1  0.90475000  0.37777900  0.10092200  1
  O  O106  1  0.51192250  0.27701250  0.00803150  1
  O  O107  1  0.36655950  0.37939350  0.85540050  1
  O  O108  1  0.32778250  0.92096250  0.79004450  1
  O  O109  1  0.60546950  0.81158950  0.54724450  1
  O  O110  1  0.87939350  0.63344050  0.60540050  1
  O  O111  1  0.42096250  0.17221750  0.70995550  1
  O  O112  1  0.77701250  0.98807750  0.49196850  1
  O  O113  1  0.57903750  0.82778250  0.70995550  1
  O  O114  1  0.68841050  0.60546950  0.29724450  1
  O  O115  1  0.89453050  0.68841050  0.04724450  1
  O  O116  1  0.86655950  0.37939350  0.89459950  1
  O  O117  1  0.31158950  0.89453050  0.95275550  1
  O  O118  1  0.63768550  0.88344550  0.37959950  1
  O  O119  1  0.86231450  0.61655450  0.87959950  1
  O  O120  1  0.48807750  0.72298750  0.00803150  1
  O  O121  1  0.87777900  0.09525000  0.85092200  1
  O  O122  1  0.38344550  0.86231450  0.12040050  1
  O  O123  1  0.39453050  0.68841050  0.70275550  1
  O  O124  1  0.10546950  0.81158950  0.20275550  1
  O  O125  1  0.72298750  0.51192250  0.99196850  1
  O  O126  1  0.62222100  0.40475000  0.35092200  1
  O  O127  1  0.63344050  0.12060650  0.39459950  1
  O  O128  1  0.62222100  0.90475000  0.89907800  1
  O  O129  1  0.63768550  0.38344550  0.87040050  1
  O  O130  1  0.82778250  0.92096250  0.95995550  1
  O  O131  1  0.86231450  0.11655450  0.37040050  1
  O  O132  1  0.59525000  0.62222100  0.64907800  1
  O  O133  1  0.37939350  0.63344050  0.14459950  1
  O  O134  1  0.88344550  0.86231450  0.62959950  1
  O  O135  1  0.57903750  0.32778250  0.54004450  1
  O  O136  1  0.18841050  0.60546950  0.45275550  1
  O  O137  1  0.67221750  0.07903750  0.79004450  1
  O  O138  1  0.59525000  0.12222100  0.60092200  1
  O  O139  1  0.90475000  0.87777900  0.14907800  1
  O  O140  1  0.77701250  0.48807750  0.75803150  1
  O  O141  1  0.63344050  0.62060650  0.85540050  1
  O  O142  1  0.37777900  0.09525000  0.89907800  1
  O  O143  1  0.22298750  0.51192250  0.75803150  1
  O  O144  1  0.98807750  0.72298750  0.74196850  1
  O  O145  1  0.12060650  0.86655950  0.64459950  1
  O  O146  1  0.01192250  0.27701250  0.74196850  1
  O  O147  1  0.92096250  0.17221750  0.04004450  1
  O  O148  1  0.62060650  0.86655950  0.10540050  1
  O  O149  1  0.61655450  0.63768550  0.12959950  1
  O  O150  1  0.67221750  0.57903750  0.45995550  1
  O  O151  1  0.11655450  0.63768550  0.62040050  1
  O  O152  1  0.81158950  0.89453050  0.79724450  1
  O  O153  1  0.40475000  0.87777900  0.60092200  1
  O  O154  1  0.01192250  0.77701250  0.50803150  1
  O  O155  1  0.86655950  0.87939350  0.35540050  1
