# generated using pymatgen
data_Na3Fe2(PO4)3
_symmetry_space_group_name_H-M   'P 1'
_cell_length_a   15.31177400
_cell_length_b   8.86712400
_cell_length_c   8.90897937
_cell_angle_alpha   90.00000000
_cell_angle_beta   125.59350232
_cell_angle_gamma   90.00000000
_symmetry_Int_Tables_number   1
_chemical_formula_structural   Na3Fe2(PO4)3
_chemical_formula_sum   'Na12 Fe8 P12 O48'
_cell_volume   983.59399721
_cell_formula_units_Z   4
loop_
 _symmetry_equiv_pos_site_id
 _symmetry_equiv_pos_as_xyz
  1  'x, y, z'
loop_
 _atom_site_type_symbol
 _atom_site_label
 _atom_site_symmetry_multiplicity
 _atom_site_fract_x
 _atom_site_fract_y
 _atom_site_fract_z
 _atom_site_occupancy
  Na  Na0  1  0.67871100  0.43030900  0.61601300  1
  Na  Na1  1  0.82128900  0.06969100  0.38398700  1
  Na  Na2  1  0.17871100  0.06969100  0.11601300  1
  Na  Na3  1  0.32128900  0.43030900  0.88398700  1
  Na  Na4  1  0.25000000  0.25000000  0.50000000  1
  Na  Na5  1  0.75000000  0.25000000  0.00000000  1
  Na  Na6  1  0.17871100  0.93030900  0.61601300  1
  Na  Na7  1  0.32128900  0.56969100  0.38398700  1
  Na  Na8  1  0.67871100  0.56969100  0.11601300  1
  Na  Na9  1  0.82128900  0.93030900  0.88398700  1
  Na  Na10  1  0.75000000  0.75000000  0.50000000  1
  Na  Na11  1  0.25000000  0.75000000  0.00000000  1
  Fe  Fe12  1  0.89778100  0.25557400  0.85353300  1
  Fe  Fe13  1  0.10221900  0.25557400  0.64646700  1
  Fe  Fe14  1  0.60221900  0.24442600  0.14646700  1
  Fe  Fe15  1  0.39778100  0.24442600  0.35353300  1
  Fe  Fe16  1  0.39778100  0.75557400  0.85353300  1
  Fe  Fe17  1  0.60221900  0.75557400  0.64646700  1
  Fe  Fe18  1  0.10221900  0.74442600  0.14646700  1
  Fe  Fe19  1  0.89778100  0.74442600  0.35353300  1
  P  P20  1  0.85137850  0.59878350  0.96339900  1
  P  P21  1  0.14862150  0.59878350  0.53660100  1
  P  P22  1  0.50000000  0.45585800  0.75000000  1
  P  P23  1  0.64862150  0.90121650  0.03660100  1
  P  P24  1  0.35137850  0.90121650  0.46339900  1
  P  P25  1  0.00000000  0.04414200  0.25000000  1
  P  P26  1  0.35137850  0.09878350  0.96339900  1
  P  P27  1  0.64862150  0.09878350  0.53660100  1
  P  P28  1  0.00000000  0.95585800  0.75000000  1
  P  P29  1  0.14862150  0.40121650  0.03660100  1
  P  P30  1  0.85137850  0.40121650  0.46339900  1
  P  P31  1  0.50000000  0.54414200  0.25000000  1
  O  O32  1  0.73874450  0.17436250  0.72379800  1
  O  O33  1  0.54236450  0.16745350  0.48592200  1
  O  O34  1  0.84243550  0.42595450  0.93272500  1
  O  O35  1  0.76125550  0.67436250  0.77620200  1
  O  O36  1  0.42053650  0.35880750  0.57808500  1
  O  O37  1  0.07946350  0.14119250  0.42191500  1
  O  O38  1  0.83475250  0.63310350  0.11525600  1
  O  O39  1  0.95763550  0.33254650  0.51407800  1
  O  O40  1  0.15756450  0.42595450  0.56727500  1
  O  O41  1  0.57109750  0.44424050  0.21758100  1
  O  O42  1  0.76125550  0.32563750  0.27620200  1
  O  O43  1  0.92053650  0.14119250  0.07808500  1
  O  O44  1  0.95763550  0.66745350  0.01407800  1
  O  O45  1  0.33475250  0.86689650  0.61525600  1
  O  O46  1  0.65756450  0.07404550  0.06727500  1
  O  O47  1  0.92890250  0.94424050  0.28241900  1
  O  O48  1  0.92890250  0.05575950  0.78241900  1
  O  O49  1  0.66524750  0.86689650  0.88474400  1
  O  O50  1  0.73874450  0.82563750  0.22379800  1
  O  O51  1  0.57946350  0.35880750  0.92191500  1
  O  O52  1  0.34243550  0.07404550  0.43272500  1
  O  O53  1  0.54236450  0.83254650  0.98592200  1
  O  O54  1  0.16524750  0.63310350  0.38474400  1
  O  O55  1  0.57109750  0.55575950  0.71758100  1
  O  O56  1  0.23874450  0.67436250  0.72379800  1
  O  O57  1  0.04236450  0.66745350  0.48592200  1
  O  O58  1  0.34243550  0.92595450  0.93272500  1
  O  O59  1  0.26125550  0.17436250  0.77620200  1
  O  O60  1  0.92053650  0.85880750  0.57808500  1
  O  O61  1  0.57946350  0.64119250  0.42191500  1
  O  O62  1  0.33475250  0.13310350  0.11525600  1
  O  O63  1  0.45763550  0.83254650  0.51407800  1
  O  O64  1  0.65756450  0.92595450  0.56727500  1
  O  O65  1  0.07109750  0.94424050  0.21758100  1
  O  O66  1  0.26125550  0.82563750  0.27620200  1
  O  O67  1  0.42053650  0.64119250  0.07808500  1
  O  O68  1  0.45763550  0.16745350  0.01407800  1
  O  O69  1  0.83475250  0.36689650  0.61525600  1
  O  O70  1  0.15756450  0.57404550  0.06727500  1
  O  O71  1  0.42890250  0.44424050  0.28241900  1
  O  O72  1  0.42890250  0.55575950  0.78241900  1
  O  O73  1  0.16524750  0.36689650  0.88474400  1
  O  O74  1  0.23874450  0.32563750  0.22379800  1
  O  O75  1  0.07946350  0.85880750  0.92191500  1
  O  O76  1  0.84243550  0.57404550  0.43272500  1
  O  O77  1  0.04236450  0.33254650  0.98592200  1
  O  O78  1  0.66524750  0.13310350  0.38474400  1
  O  O79  1  0.07109750  0.05575950  0.71758100  1
