# generated using pymatgen
data_Er4InIr
_symmetry_space_group_name_H-M   'P 1'
_cell_length_a   13.55755200
_cell_length_b   13.55755200
_cell_length_c   13.55755200
_cell_angle_alpha   90.00000000
_cell_angle_beta   90.00000000
_cell_angle_gamma   90.00000000
_symmetry_Int_Tables_number   1
_chemical_formula_structural   Er4InIr
_chemical_formula_sum   'Er64 In16 Ir16'
_cell_volume   2491.97589205
_cell_formula_units_Z   16
loop_
 _symmetry_equiv_pos_site_id
 _symmetry_equiv_pos_as_xyz
  1  'x, y, z'
loop_
 _atom_site_type_symbol
 _atom_site_label
 _atom_site_symmetry_multiplicity
 _atom_site_fract_x
 _atom_site_fract_y
 _atom_site_fract_z
 _atom_site_occupancy
  Er  Er0  1  0.25000000  0.43956800  0.75000000  1
  Er  Er1  1  0.34933033  0.15066967  0.15066967  1
  Er  Er2  1  0.50000000  0.00000000  0.69117000  1
  Er  Er3  1  0.25000000  0.25000000  0.93956800  1
  Er  Er4  1  0.50000000  0.30883000  0.00000000  1
  Er  Er5  1  0.15066967  0.34933033  0.15066967  1
  Er  Er6  1  0.65066967  0.15066967  0.84933033  1
  Er  Er7  1  0.06043200  0.25000000  0.75000000  1
  Er  Er8  1  0.84933033  0.34933033  0.84933033  1
  Er  Er9  1  0.80883000  0.00000000  0.00000000  1
  Er  Er10  1  0.50000000  0.00000000  0.30883000  1
  Er  Er11  1  0.19117000  0.00000000  0.00000000  1
  Er  Er12  1  0.00000000  0.19117000  0.00000000  1
  Er  Er13  1  0.43956800  0.25000000  0.75000000  1
  Er  Er14  1  0.25000000  0.06043200  0.75000000  1
  Er  Er15  1  0.25000000  0.25000000  0.56043200  1
  Er  Er16  1  0.25000000  0.93956800  0.25000000  1
  Er  Er17  1  0.34933033  0.65066967  0.65066967  1
  Er  Er18  1  0.50000000  0.50000000  0.19117000  1
  Er  Er19  1  0.25000000  0.75000000  0.43956800  1
  Er  Er20  1  0.50000000  0.80883000  0.50000000  1
  Er  Er21  1  0.15066967  0.84933033  0.65066967  1
  Er  Er22  1  0.65066967  0.65066967  0.34933033  1
  Er  Er23  1  0.06043200  0.75000000  0.25000000  1
  Er  Er24  1  0.84933033  0.84933033  0.34933033  1
  Er  Er25  1  0.80883000  0.50000000  0.50000000  1
  Er  Er26  1  0.50000000  0.50000000  0.80883000  1
  Er  Er27  1  0.19117000  0.50000000  0.50000000  1
  Er  Er28  1  0.00000000  0.69117000  0.50000000  1
  Er  Er29  1  0.43956800  0.75000000  0.25000000  1
  Er  Er30  1  0.25000000  0.56043200  0.25000000  1
  Er  Er31  1  0.25000000  0.75000000  0.06043200  1
  Er  Er32  1  0.75000000  0.43956800  0.25000000  1
  Er  Er33  1  0.84933033  0.15066967  0.65066967  1
  Er  Er34  1  0.00000000  0.00000000  0.19117000  1
  Er  Er35  1  0.75000000  0.25000000  0.43956800  1
  Er  Er36  1  0.00000000  0.30883000  0.50000000  1
  Er  Er37  1  0.65066967  0.34933033  0.65066967  1
  Er  Er38  1  0.15066967  0.15066967  0.34933033  1
  Er  Er39  1  0.56043200  0.25000000  0.25000000  1
  Er  Er40  1  0.34933033  0.34933033  0.34933033  1
  Er  Er41  1  0.30883000  0.00000000  0.50000000  1
  Er  Er42  1  0.00000000  0.00000000  0.80883000  1
  Er  Er43  1  0.69117000  0.00000000  0.50000000  1
  Er  Er44  1  0.50000000  0.19117000  0.50000000  1
  Er  Er45  1  0.93956800  0.25000000  0.25000000  1
  Er  Er46  1  0.75000000  0.06043200  0.25000000  1
  Er  Er47  1  0.75000000  0.25000000  0.06043200  1
  Er  Er48  1  0.75000000  0.93956800  0.75000000  1
  Er  Er49  1  0.84933033  0.65066967  0.15066967  1
  Er  Er50  1  0.00000000  0.50000000  0.69117000  1
  Er  Er51  1  0.75000000  0.75000000  0.93956800  1
  Er  Er52  1  0.00000000  0.80883000  0.00000000  1
  Er  Er53  1  0.65066967  0.84933033  0.15066967  1
  Er  Er54  1  0.15066967  0.65066967  0.84933033  1
  Er  Er55  1  0.56043200  0.75000000  0.75000000  1
  Er  Er56  1  0.34933033  0.84933033  0.84933033  1
  Er  Er57  1  0.30883000  0.50000000  0.00000000  1
  Er  Er58  1  0.00000000  0.50000000  0.30883000  1
  Er  Er59  1  0.69117000  0.50000000  0.00000000  1
  Er  Er60  1  0.50000000  0.69117000  0.00000000  1
  Er  Er61  1  0.93956800  0.75000000  0.75000000  1
  Er  Er62  1  0.75000000  0.56043200  0.75000000  1
  Er  Er63  1  0.75000000  0.75000000  0.56043200  1
  In  In64  1  0.91692600  0.41692600  0.08307400  1
  In  In65  1  0.58307400  0.08307400  0.08307400  1
  In  In66  1  0.08307400  0.41692600  0.91692600  1
  In  In67  1  0.41692600  0.08307400  0.91692600  1
  In  In68  1  0.91692600  0.91692600  0.58307400  1
  In  In69  1  0.58307400  0.58307400  0.58307400  1
  In  In70  1  0.08307400  0.91692600  0.41692600  1
  In  In71  1  0.41692600  0.58307400  0.41692600  1
  In  In72  1  0.41692600  0.41692600  0.58307400  1
  In  In73  1  0.08307400  0.08307400  0.58307400  1
  In  In74  1  0.58307400  0.41692600  0.41692600  1
  In  In75  1  0.91692600  0.08307400  0.41692600  1
  In  In76  1  0.41692600  0.91692600  0.08307400  1
  In  In77  1  0.08307400  0.58307400  0.08307400  1
  In  In78  1  0.58307400  0.91692600  0.91692600  1
  In  In79  1  0.91692600  0.58307400  0.91692600  1
  Ir  Ir80  1  0.35861900  0.14138100  0.35861900  1
  Ir  Ir81  1  0.35861900  0.35861900  0.14138100  1
  Ir  Ir82  1  0.14138100  0.14138100  0.14138100  1
  Ir  Ir83  1  0.14138100  0.35861900  0.35861900  1
  Ir  Ir84  1  0.35861900  0.64138100  0.85861900  1
  Ir  Ir85  1  0.35861900  0.85861900  0.64138100  1
  Ir  Ir86  1  0.14138100  0.64138100  0.64138100  1
  Ir  Ir87  1  0.14138100  0.85861900  0.85861900  1
  Ir  Ir88  1  0.85861900  0.14138100  0.85861900  1
  Ir  Ir89  1  0.85861900  0.35861900  0.64138100  1
  Ir  Ir90  1  0.64138100  0.14138100  0.64138100  1
  Ir  Ir91  1  0.64138100  0.35861900  0.85861900  1
  Ir  Ir92  1  0.85861900  0.64138100  0.35861900  1
  Ir  Ir93  1  0.85861900  0.85861900  0.14138100  1
  Ir  Ir94  1  0.64138100  0.64138100  0.14138100  1
  Ir  Ir95  1  0.64138100  0.85861900  0.35861900  1
