# generated using pymatgen
data_Nd4Sb3
_symmetry_space_group_name_H-M   'P 1'
_cell_length_a   9.52060000
_cell_length_b   9.52060000
_cell_length_c   9.52060000
_cell_angle_alpha   90.00000000
_cell_angle_beta   90.00000000
_cell_angle_gamma   90.00000000
_symmetry_Int_Tables_number   1
_chemical_formula_structural   Nd4Sb3
_chemical_formula_sum   'Nd16 Sb12'
_cell_volume   862.96455300
_cell_formula_units_Z   4
loop_
 _symmetry_equiv_pos_site_id
 _symmetry_equiv_pos_as_xyz
  1  'x, y, z'
loop_
 _atom_site_type_symbol
 _atom_site_label
 _atom_site_symmetry_multiplicity
 _atom_site_fract_x
 _atom_site_fract_y
 _atom_site_fract_z
 _atom_site_occupancy
  Nd  Nd0  1  0.17943450  0.82056550  0.32056550  1
  Nd  Nd1  1  0.07056550  0.57056550  0.92943450  1
  Nd  Nd2  1  0.17943450  0.17943450  0.17943450  1
  Nd  Nd3  1  0.32056550  0.17943450  0.82056550  1
  Nd  Nd4  1  0.42943450  0.42943450  0.42943450  1
  Nd  Nd5  1  0.57056550  0.92943450  0.07056550  1
  Nd  Nd6  1  0.92943450  0.07056550  0.57056550  1
  Nd  Nd7  1  0.82056550  0.32056550  0.17943450  1
  Nd  Nd8  1  0.67943450  0.32056550  0.82056550  1
  Nd  Nd9  1  0.57056550  0.07056550  0.42943450  1
  Nd  Nd10  1  0.67943450  0.67943450  0.67943450  1
  Nd  Nd11  1  0.82056550  0.67943450  0.32056550  1
  Nd  Nd12  1  0.92943450  0.92943450  0.92943450  1
  Nd  Nd13  1  0.07056550  0.42943450  0.57056550  1
  Nd  Nd14  1  0.42943450  0.57056550  0.07056550  1
  Nd  Nd15  1  0.32056550  0.82056550  0.67943450  1
  Sb  Sb16  1  0.75000000  0.37500000  0.50000000  1
  Sb  Sb17  1  0.50000000  0.75000000  0.37500000  1
  Sb  Sb18  1  0.50000000  0.25000000  0.12500000  1
  Sb  Sb19  1  0.37500000  0.50000000  0.75000000  1
  Sb  Sb20  1  0.12500000  0.50000000  0.25000000  1
  Sb  Sb21  1  0.25000000  0.12500000  0.50000000  1
  Sb  Sb22  1  0.25000000  0.87500000  0.00000000  1
  Sb  Sb23  1  0.00000000  0.25000000  0.87500000  1
  Sb  Sb24  1  0.00000000  0.75000000  0.62500000  1
  Sb  Sb25  1  0.87500000  0.00000000  0.25000000  1
  Sb  Sb26  1  0.62500000  0.00000000  0.75000000  1
  Sb  Sb27  1  0.75000000  0.62500000  0.00000000  1
