# generated using pymatgen
data_MnO2
_symmetry_space_group_name_H-M   'P 1'
_cell_length_a   2.90415800
_cell_length_b   3.84481000
_cell_length_c   6.16426400
_cell_angle_alpha   90.00000000
_cell_angle_beta   90.00000000
_cell_angle_gamma   90.00000000
_symmetry_Int_Tables_number   1
_chemical_formula_structural   MnO2
_chemical_formula_sum   'Mn2 O4'
_cell_volume   68.82977559
_cell_formula_units_Z   2
loop_
 _symmetry_equiv_pos_site_id
 _symmetry_equiv_pos_as_xyz
  1  'x, y, z'
loop_
 _atom_site_type_symbol
 _atom_site_label
 _atom_site_symmetry_multiplicity
 _atom_site_fract_x
 _atom_site_fract_y
 _atom_site_fract_z
 _atom_site_occupancy
  Mn  Mn0  1  0.00000000  0.00000000  0.65669850  1
  Mn  Mn1  1  0.50000000  0.50000000  0.34330150  1
  O  O2  1  0.00000000  0.50000000  0.57820050  1
  O  O3  1  0.50000000  0.00000000  0.42179950  1
  O  O4  1  0.00000000  0.50000000  0.16243250  1
  O  O5  1  0.50000000  0.00000000  0.83756750  1
