# generated using pymatgen
data_CoH2SeO4
_symmetry_space_group_name_H-M   'P 1'
_cell_length_a   4.88383518
_cell_length_b   13.50396608
_cell_length_c   7.39269946
_cell_angle_alpha   90.00000000
_cell_angle_beta   129.28936680
_cell_angle_gamma   90.00000000
_symmetry_Int_Tables_number   1
_chemical_formula_structural   CoH2SeO4
_chemical_formula_sum   'Co4 H8 Se4 O16'
_cell_volume   377.34850788
_cell_formula_units_Z   4
loop_
 _symmetry_equiv_pos_site_id
 _symmetry_equiv_pos_as_xyz
  1  'x, y, z'
loop_
 _atom_site_type_symbol
 _atom_site_label
 _atom_site_symmetry_multiplicity
 _atom_site_fract_x
 _atom_site_fract_y
 _atom_site_fract_z
 _atom_site_occupancy
  Co  Co0  1  0.70368150  0.76652100  0.38361300  1
  Co  Co1  1  0.29631850  0.23347900  0.61638700  1
  Co  Co2  1  0.29631850  0.26652100  0.11638700  1
  Co  Co3  1  0.70368150  0.73347900  0.88361300  1
  H  H4  1  0.94100950  0.37052000  0.21284400  1
  H  H5  1  0.05899050  0.87052000  0.28715600  1
  H  H6  1  0.05899050  0.62948000  0.78715600  1
  H  H7  1  0.94100950  0.12948000  0.71284400  1
  H  H8  1  0.78405750  0.38914700  0.95133900  1
  H  H9  1  0.21594250  0.88914700  0.54866100  1
  H  H10  1  0.21594250  0.61085300  0.04866100  1
  H  H11  1  0.78405750  0.11085300  0.45133900  1
  Se  Se12  1  0.87665750  0.39449800  0.61325800  1
  Se  Se13  1  0.12334250  0.89449800  0.88674200  1
  Se  Se14  1  0.12334250  0.60550200  0.38674200  1
  Se  Se15  1  0.87665750  0.10550200  0.11325800  1
  O  O16  1  0.23731350  0.32038800  0.83318700  1
  O  O17  1  0.76268650  0.82038800  0.66681300  1
  O  O18  1  0.76268650  0.67961200  0.16681300  1
  O  O19  1  0.23731350  0.17961200  0.33318700  1
  O  O20  1  0.79260350  0.17637700  0.88188800  1
  O  O21  1  0.20739650  0.67637700  0.61811200  1
  O  O22  1  0.20739650  0.82362300  0.11811200  1
  O  O23  1  0.79260350  0.32362300  0.38188800  1
  O  O24  1  0.55008350  0.13361300  0.12589000  1
  O  O25  1  0.44991650  0.63361300  0.37411000  1
  O  O26  1  0.44991650  0.86638700  0.87411000  1
  O  O27  1  0.55008350  0.36638700  0.62589000  1
  O  O28  1  0.00727750  0.38623300  0.11415600  1
  O  O29  1  0.99272250  0.88623300  0.38584400  1
  O  O30  1  0.99272250  0.61376700  0.88584400  1
  O  O31  1  0.00727750  0.11376700  0.61415600  1
