# generated using pymatgen
data_BaMo2Se2O11
_symmetry_space_group_name_H-M   'P 1'
_cell_length_a   8.13764600
_cell_length_b   16.10360400
_cell_length_c   7.99006600
_cell_angle_alpha   90.00000000
_cell_angle_beta   90.00000000
_cell_angle_gamma   90.00000000
_symmetry_Int_Tables_number   1
_chemical_formula_structural   BaMo2Se2O11
_chemical_formula_sum   'Ba4 Mo8 Se8 O44'
_cell_volume   1047.06162412
_cell_formula_units_Z   4
loop_
 _symmetry_equiv_pos_site_id
 _symmetry_equiv_pos_as_xyz
  1  'x, y, z'
loop_
 _atom_site_type_symbol
 _atom_site_label
 _atom_site_symmetry_multiplicity
 _atom_site_fract_x
 _atom_site_fract_y
 _atom_site_fract_z
 _atom_site_occupancy
  Ba  Ba0  1  0.76854000  0.00000000  0.33209200  1
  Ba  Ba1  1  0.23146000  0.00000000  0.83209200  1
  Ba  Ba2  1  0.26854000  0.50000000  0.33209200  1
  Ba  Ba3  1  0.73146000  0.50000000  0.83209200  1
  Mo  Mo4  1  0.26593150  0.10852950  0.34025500  1
  Mo  Mo5  1  0.23406850  0.39147050  0.84025500  1
  Mo  Mo6  1  0.76593150  0.39147050  0.34025500  1
  Mo  Mo7  1  0.73406850  0.10852950  0.84025500  1
  Mo  Mo8  1  0.76593150  0.60852950  0.34025500  1
  Mo  Mo9  1  0.73406850  0.89147050  0.84025500  1
  Mo  Mo10  1  0.26593150  0.89147050  0.34025500  1
  Mo  Mo11  1  0.23406850  0.60852950  0.84025500  1
  Se  Se12  1  0.91551550  0.20781850  0.18976900  1
  Se  Se13  1  0.08448450  0.20781850  0.68976900  1
  Se  Se14  1  0.41551550  0.29218150  0.18976900  1
  Se  Se15  1  0.58448450  0.29218150  0.68976900  1
  Se  Se16  1  0.41551550  0.70781850  0.18976900  1
  Se  Se17  1  0.58448450  0.70781850  0.68976900  1
  Se  Se18  1  0.91551550  0.79218150  0.18976900  1
  Se  Se19  1  0.08448450  0.79218150  0.68976900  1
  O  O20  1  0.52472850  0.09065050  0.87086800  1
  O  O21  1  0.18551900  0.00000000  0.41742700  1
  O  O22  1  0.22668050  0.14025050  0.60366900  1
  O  O23  1  0.49330300  0.35816600  0.34022300  1
  O  O24  1  0.72668050  0.35974950  0.60366900  1
  O  O25  1  0.24386750  0.08897650  0.12620000  1
  O  O26  1  0.75613250  0.08897650  0.62620000  1
  O  O27  1  0.77331950  0.14025050  0.10366900  1
  O  O28  1  0.22012650  0.26472450  0.81805700  1
  O  O29  1  0.27331950  0.35974950  0.10366900  1
  O  O30  1  0.97527150  0.40934950  0.37086800  1
  O  O31  1  0.77987350  0.26472450  0.31805700  1
  O  O32  1  0.99330300  0.14183400  0.34022300  1
  O  O33  1  0.47527150  0.09065050  0.37086800  1
  O  O34  1  0.25613250  0.41102350  0.62620000  1
  O  O35  1  0.81448100  0.00000000  0.91742700  1
  O  O36  1  0.00669700  0.14183400  0.84022300  1
  O  O37  1  0.50669700  0.35816600  0.84022300  1
  O  O38  1  0.27987350  0.23527550  0.31805700  1
  O  O39  1  0.74386750  0.41102350  0.12620000  1
  O  O40  1  0.72012650  0.23527550  0.81805700  1
  O  O41  1  0.02472850  0.40934950  0.87086800  1
  O  O42  1  0.02472850  0.59065050  0.87086800  1
  O  O43  1  0.68551900  0.50000000  0.41742700  1
  O  O44  1  0.72668050  0.64025050  0.60366900  1
  O  O45  1  0.99330300  0.85816600  0.34022300  1
  O  O46  1  0.22668050  0.85974950  0.60366900  1
  O  O47  1  0.74386750  0.58897650  0.12620000  1
  O  O48  1  0.25613250  0.58897650  0.62620000  1
  O  O49  1  0.27331950  0.64025050  0.10366900  1
  O  O50  1  0.72012650  0.76472450  0.81805700  1
  O  O51  1  0.77331950  0.85974950  0.10366900  1
  O  O52  1  0.47527150  0.90934950  0.37086800  1
  O  O53  1  0.27987350  0.76472450  0.31805700  1
  O  O54  1  0.49330300  0.64183400  0.34022300  1
  O  O55  1  0.97527150  0.59065050  0.37086800  1
  O  O56  1  0.75613250  0.91102350  0.62620000  1
  O  O57  1  0.31448100  0.50000000  0.91742700  1
  O  O58  1  0.50669700  0.64183400  0.84022300  1
  O  O59  1  0.00669700  0.85816600  0.84022300  1
  O  O60  1  0.77987350  0.73527550  0.31805700  1
  O  O61  1  0.24386750  0.91102350  0.12620000  1
  O  O62  1  0.22012650  0.73527550  0.81805700  1
  O  O63  1  0.52472850  0.90934950  0.87086800  1
