# generated using pymatgen
data_Te3Pt2
_symmetry_space_group_name_H-M   'P 1'
_cell_length_a   4.06075009
_cell_length_b   4.06075009
_cell_length_c   52.60543592
_cell_angle_alpha   90.00000000
_cell_angle_beta   90.00000000
_cell_angle_gamma   120.00000000
_symmetry_Int_Tables_number   1
_chemical_formula_structural   Te3Pt2
_chemical_formula_sum   'Te18 Pt12'
_cell_volume   751.23148465
_cell_formula_units_Z   6
loop_
 _symmetry_equiv_pos_site_id
 _symmetry_equiv_pos_as_xyz
  1  'x, y, z'
loop_
 _atom_site_type_symbol
 _atom_site_label
 _atom_site_symmetry_multiplicity
 _atom_site_fract_x
 _atom_site_fract_y
 _atom_site_fract_z
 _atom_site_occupancy
  Te  Te0  1  0.66666667  0.33333333  0.29631633  1
  Te  Te1  1  0.00000000  0.00000000  0.03701700  1
  Te  Te2  1  0.66666667  0.33333333  0.19077133  1
  Te  Te3  1  0.00000000  0.00000000  0.14256200  1
  Te  Te4  1  0.66666667  0.33333333  0.09043833  1
  Te  Te5  1  0.00000000  0.00000000  0.24289500  1
  Te  Te6  1  0.33333333  0.66666667  0.62964967  1
  Te  Te7  1  0.66666667  0.33333333  0.37035033  1
  Te  Te8  1  0.33333333  0.66666667  0.52410467  1
  Te  Te9  1  0.66666667  0.33333333  0.47589533  1
  Te  Te10  1  0.33333333  0.66666667  0.42377167  1
  Te  Te11  1  0.66666667  0.33333333  0.57622833  1
  Te  Te12  1  0.00000000  0.00000000  0.96298300  1
  Te  Te13  1  0.33333333  0.66666667  0.70368367  1
  Te  Te14  1  0.00000000  0.00000000  0.85743800  1
  Te  Te15  1  0.33333333  0.66666667  0.80922867  1
  Te  Te16  1  0.00000000  0.00000000  0.75710500  1
  Te  Te17  1  0.33333333  0.66666667  0.90956167  1
  Pt  Pt18  1  0.33333333  0.66666667  0.31922467  1
  Pt  Pt19  1  0.33333333  0.66666667  0.01410867  1
  Pt  Pt20  1  0.33333333  0.66666667  0.21652467  1
  Pt  Pt21  1  0.33333333  0.66666667  0.11680867  1
  Pt  Pt22  1  0.00000000  0.00000000  0.65255800  1
  Pt  Pt23  1  0.00000000  0.00000000  0.34744200  1
  Pt  Pt24  1  0.00000000  0.00000000  0.54985800  1
  Pt  Pt25  1  0.00000000  0.00000000  0.45014200  1
  Pt  Pt26  1  0.66666667  0.33333333  0.98589133  1
  Pt  Pt27  1  0.66666667  0.33333333  0.68077533  1
  Pt  Pt28  1  0.66666667  0.33333333  0.88319133  1
  Pt  Pt29  1  0.66666667  0.33333333  0.78347533  1
