# generated using pymatgen
data_Cu9Se4(Cl3O7)2
_symmetry_space_group_name_H-M   'P 1'
_cell_length_a   15.32543475
_cell_length_b   6.32225027
_cell_length_c   13.29033967
_cell_angle_alpha   90.00000000
_cell_angle_beta   120.17683285
_cell_angle_gamma   90.00000000
_symmetry_Int_Tables_number   1
_chemical_formula_structural   Cu9Se4(Cl3O7)2
_chemical_formula_sum   'Cu18 Se8 Cl12 O28'
_cell_volume   1113.20353218
_cell_formula_units_Z   2
loop_
 _symmetry_equiv_pos_site_id
 _symmetry_equiv_pos_as_xyz
  1  'x, y, z'
loop_
 _atom_site_type_symbol
 _atom_site_label
 _atom_site_symmetry_multiplicity
 _atom_site_fract_x
 _atom_site_fract_y
 _atom_site_fract_z
 _atom_site_occupancy
  Cu  Cu0  1  0.37837850  0.50000000  0.90621300  1
  Cu  Cu1  1  0.28911850  0.00000000  0.73473400  1
  Cu  Cu2  1  0.88445150  0.50000000  0.21521900  1
  Cu  Cu3  1  0.11554850  0.50000000  0.78478100  1
  Cu  Cu4  1  0.00000000  0.50000000  0.50000000  1
  Cu  Cu5  1  0.62162150  0.50000000  0.09378700  1
  Cu  Cu6  1  0.75000000  0.75000000  0.00000000  1
  Cu  Cu7  1  0.71088150  0.00000000  0.26526600  1
  Cu  Cu8  1  0.75000000  0.25000000  0.00000000  1
  Cu  Cu9  1  0.87837850  0.00000000  0.90621300  1
  Cu  Cu10  1  0.78911850  0.50000000  0.73473400  1
  Cu  Cu11  1  0.38445150  0.00000000  0.21521900  1
  Cu  Cu12  1  0.61554850  0.00000000  0.78478100  1
  Cu  Cu13  1  0.50000000  0.00000000  0.50000000  1
  Cu  Cu14  1  0.12162150  0.00000000  0.09378700  1
  Cu  Cu15  1  0.25000000  0.25000000  0.00000000  1
  Cu  Cu16  1  0.21088150  0.50000000  0.26526600  1
  Cu  Cu17  1  0.25000000  0.75000000  0.00000000  1
  Se  Se18  1  0.96055400  0.00000000  0.19483600  1
  Se  Se19  1  0.03944600  0.00000000  0.80516400  1
  Se  Se20  1  0.75407800  0.50000000  0.36224100  1
  Se  Se21  1  0.24592200  0.50000000  0.63775900  1
  Se  Se22  1  0.46055400  0.50000000  0.19483600  1
  Se  Se23  1  0.53944600  0.50000000  0.80516400  1
  Se  Se24  1  0.25407800  0.00000000  0.36224100  1
  Se  Se25  1  0.74592200  0.00000000  0.63775900  1
  Cl  Cl26  1  0.36711900  0.00000000  0.92965200  1
  Cl  Cl27  1  0.94874100  0.50000000  0.63880900  1
  Cl  Cl28  1  0.63288100  0.00000000  0.07034800  1
  Cl  Cl29  1  0.05125900  0.50000000  0.36119100  1
  Cl  Cl30  1  0.16394800  0.00000000  0.55297700  1
  Cl  Cl31  1  0.83605200  0.00000000  0.44702300  1
  Cl  Cl32  1  0.86711900  0.50000000  0.92965200  1
  Cl  Cl33  1  0.44874100  0.00000000  0.63880900  1
  Cl  Cl34  1  0.13288100  0.50000000  0.07034800  1
  Cl  Cl35  1  0.55125900  0.00000000  0.36119100  1
  Cl  Cl36  1  0.66394800  0.50000000  0.55297700  1
  Cl  Cl37  1  0.33605200  0.50000000  0.44702300  1
  O  O38  1  0.25861100  0.50000000  0.92089900  1
  O  O39  1  0.12590900  0.79347600  0.84579400  1
  O  O40  1  0.86851100  0.50000000  0.36439900  1
  O  O41  1  0.12590900  0.20652400  0.84579400  1
  O  O42  1  0.98415650  0.00000000  0.07919800  1
  O  O43  1  0.68798700  0.69289600  0.25401700  1
  O  O44  1  0.31201300  0.69289600  0.74598300  1
  O  O45  1  0.87409100  0.79347600  0.15420600  1
  O  O46  1  0.87409100  0.20652400  0.15420600  1
  O  O47  1  0.01584350  0.00000000  0.92080200  1
  O  O48  1  0.74138900  0.50000000  0.07910100  1
  O  O49  1  0.13148900  0.50000000  0.63560100  1
  O  O50  1  0.68798700  0.30710400  0.25401700  1
  O  O51  1  0.31201300  0.30710400  0.74598300  1
  O  O52  1  0.75861100  0.00000000  0.92089900  1
  O  O53  1  0.62590900  0.29347600  0.84579400  1
  O  O54  1  0.36851100  0.00000000  0.36439900  1
  O  O55  1  0.62590900  0.70652400  0.84579400  1
  O  O56  1  0.48415650  0.50000000  0.07919800  1
  O  O57  1  0.18798700  0.19289600  0.25401700  1
  O  O58  1  0.81201300  0.19289600  0.74598300  1
  O  O59  1  0.37409100  0.29347600  0.15420600  1
  O  O60  1  0.37409100  0.70652400  0.15420600  1
  O  O61  1  0.51584350  0.50000000  0.92080200  1
  O  O62  1  0.24138900  0.00000000  0.07910100  1
  O  O63  1  0.63148900  0.00000000  0.63560100  1
  O  O64  1  0.18798700  0.80710400  0.25401700  1
  O  O65  1  0.81201300  0.80710400  0.74598300  1
