# generated using pymatgen
data_NiBiAsO5
_symmetry_space_group_name_H-M   'P 1'
_cell_length_a   5.32623608
_cell_length_b   6.82742763
_cell_length_c   6.93194450
_cell_angle_alpha   111.22123636
_cell_angle_beta   107.09164733
_cell_angle_gamma   96.04390628
_symmetry_Int_Tables_number   1
_chemical_formula_structural   NiBiAsO5
_chemical_formula_sum   'Ni2 Bi2 As2 O10'
_cell_volume   218.17541275
_cell_formula_units_Z   2
loop_
 _symmetry_equiv_pos_site_id
 _symmetry_equiv_pos_as_xyz
  1  'x, y, z'
loop_
 _atom_site_type_symbol
 _atom_site_label
 _atom_site_symmetry_multiplicity
 _atom_site_fract_x
 _atom_site_fract_y
 _atom_site_fract_z
 _atom_site_occupancy
  Ni  Ni0  1  0.83228050  0.36513250  0.73725150  1
  Ni  Ni1  1  0.16771950  0.63486750  0.26274850  1
  Bi  Bi2  1  0.40144450  0.23529100  0.96469100  1
  Bi  Bi3  1  0.59855550  0.76470900  0.03530900  1
  As  As4  1  0.84251300  0.81301200  0.61016600  1
  As  As5  1  0.15748700  0.18698800  0.38983400  1
  O  O6  1  0.77040750  0.49692350  0.04676250  1
  O  O7  1  0.22959250  0.50307650  0.95323750  1
  O  O8  1  0.26753450  0.34870900  0.27379100  1
  O  O9  1  0.73246550  0.65129100  0.72620900  1
  O  O10  1  0.58077750  0.77479550  0.37286250  1
  O  O11  1  0.41922250  0.22520450  0.62713750  1
  O  O12  1  0.08240000  0.91672700  0.20296400  1
  O  O13  1  0.91760000  0.08327300  0.79703600  1
  O  O14  1  0.86557350  0.23755500  0.42974200  1
  O  O15  1  0.13442650  0.76244500  0.57025800  1
