# generated using pymatgen
data_Li2NiO3
_symmetry_space_group_name_H-M   'P 1'
_cell_length_a   4.89924400
_cell_length_b   8.47769800
_cell_length_c   5.00384499
_cell_angle_alpha   90.00000000
_cell_angle_beta   109.14445703
_cell_angle_gamma   90.00000000
_symmetry_Int_Tables_number   1
_chemical_formula_structural   Li2NiO3
_chemical_formula_sum   'Li8 Ni4 O12'
_cell_volume   196.33709102
_cell_formula_units_Z   4
loop_
 _symmetry_equiv_pos_site_id
 _symmetry_equiv_pos_as_xyz
  1  'x, y, z'
loop_
 _atom_site_type_symbol
 _atom_site_label
 _atom_site_symmetry_multiplicity
 _atom_site_fract_x
 _atom_site_fract_y
 _atom_site_fract_z
 _atom_site_occupancy
  Li  Li0  1  0.50000000  0.16226300  0.50000000  1
  Li  Li1  1  0.00000000  0.00000000  0.50000000  1
  Li  Li2  1  0.50000000  0.83773700  0.50000000  1
  Li  Li3  1  0.50000000  0.00000000  0.00000000  1
  Li  Li4  1  0.00000000  0.66226300  0.50000000  1
  Li  Li5  1  0.50000000  0.50000000  0.50000000  1
  Li  Li6  1  0.00000000  0.33773700  0.50000000  1
  Li  Li7  1  0.00000000  0.50000000  0.00000000  1
  Ni  Ni8  1  0.50000000  0.33314500  0.00000000  1
  Ni  Ni9  1  0.50000000  0.66685500  0.00000000  1
  Ni  Ni10  1  0.00000000  0.83314500  0.00000000  1
  Ni  Ni11  1  0.00000000  0.16685500  0.00000000  1
  O  O12  1  0.75266900  0.17937800  0.22099900  1
  O  O13  1  0.24733100  0.82062200  0.77900100  1
  O  O14  1  0.78349400  0.00000000  0.77561100  1
  O  O15  1  0.75266900  0.82062200  0.22099900  1
  O  O16  1  0.24733100  0.17937800  0.77900100  1
  O  O17  1  0.21650600  0.00000000  0.22438900  1
  O  O18  1  0.25266900  0.67937800  0.22099900  1
  O  O19  1  0.74733100  0.32062200  0.77900100  1
  O  O20  1  0.28349400  0.50000000  0.77561100  1
  O  O21  1  0.25266900  0.32062200  0.22099900  1
  O  O22  1  0.74733100  0.67937800  0.77900100  1
  O  O23  1  0.71650600  0.50000000  0.22438900  1
