# generated using pymatgen
data_Na4Th(MoO4)4
_symmetry_space_group_name_H-M   'P 1'
_cell_length_a   11.56067400
_cell_length_b   11.56067400
_cell_length_c   12.13983000
_cell_angle_alpha   90.00000000
_cell_angle_beta   90.00000000
_cell_angle_gamma   90.00000000
_symmetry_Int_Tables_number   1
_chemical_formula_structural   Na4Th(MoO4)4
_chemical_formula_sum   'Na16 Th4 Mo16 O64'
_cell_volume   1622.47836532
_cell_formula_units_Z   4
loop_
 _symmetry_equiv_pos_site_id
 _symmetry_equiv_pos_as_xyz
  1  'x, y, z'
loop_
 _atom_site_type_symbol
 _atom_site_label
 _atom_site_symmetry_multiplicity
 _atom_site_fract_x
 _atom_site_fract_y
 _atom_site_fract_z
 _atom_site_occupancy
  Na  Na0  1  0.11840800  0.27755800  0.96814600  1
  Na  Na1  1  0.27755800  0.38159200  0.21814600  1
  Na  Na2  1  0.61840800  0.27755800  0.78185400  1
  Na  Na3  1  0.22244200  0.11840800  0.71814600  1
  Na  Na4  1  0.88159200  0.22244200  0.28185400  1
  Na  Na5  1  0.72244200  0.11840800  0.03185400  1
  Na  Na6  1  0.38159200  0.22244200  0.46814600  1
  Na  Na7  1  0.77755800  0.38159200  0.53185400  1
  Na  Na8  1  0.61840800  0.77755800  0.46814600  1
  Na  Na9  1  0.77755800  0.88159200  0.71814600  1
  Na  Na10  1  0.11840800  0.77755800  0.28185400  1
  Na  Na11  1  0.72244200  0.61840800  0.21814600  1
  Na  Na12  1  0.38159200  0.72244200  0.78185400  1
  Na  Na13  1  0.22244200  0.61840800  0.53185400  1
  Na  Na14  1  0.88159200  0.72244200  0.96814600  1
  Na  Na15  1  0.27755800  0.88159200  0.03185400  1
  Th  Th16  1  0.50000000  0.00000000  0.25000000  1
  Th  Th17  1  0.00000000  0.00000000  0.50000000  1
  Th  Th18  1  0.00000000  0.50000000  0.75000000  1
  Th  Th19  1  0.50000000  0.50000000  0.00000000  1
  Mo  Mo20  1  0.09118800  0.32102600  0.49340800  1
  Mo  Mo21  1  0.59118800  0.32102600  0.25659200  1
  Mo  Mo22  1  0.40881200  0.17897400  0.99340800  1
  Mo  Mo23  1  0.17897400  0.59118800  0.00659200  1
  Mo  Mo24  1  0.90881200  0.17897400  0.75659200  1
  Mo  Mo25  1  0.32102600  0.90881200  0.50659200  1
  Mo  Mo26  1  0.17897400  0.09118800  0.24340800  1
  Mo  Mo27  1  0.32102600  0.40881200  0.74340800  1
  Mo  Mo28  1  0.59118800  0.82102600  0.99340800  1
  Mo  Mo29  1  0.09118800  0.82102600  0.75659200  1
  Mo  Mo30  1  0.90881200  0.67897400  0.49340800  1
  Mo  Mo31  1  0.67897400  0.09118800  0.50659200  1
  Mo  Mo32  1  0.40881200  0.67897400  0.25659200  1
  Mo  Mo33  1  0.82102600  0.40881200  0.00659200  1
  Mo  Mo34  1  0.67897400  0.59118800  0.74340800  1
  Mo  Mo35  1  0.82102600  0.90881200  0.24340800  1
  O  O36  1  0.34388950  0.54126750  0.67465250  1
  O  O37  1  0.29332550  0.17146550  0.89762250  1
  O  O38  1  0.11236800  0.93975600  0.65876500  1
  O  O39  1  0.41045750  0.82179850  0.18788750  1
  O  O40  1  0.17820150  0.91045750  0.43788750  1
  O  O41  1  0.56024400  0.11236800  0.40876500  1
  O  O42  1  0.95873250  0.34388950  0.42465250  1
  O  O43  1  0.15611050  0.95873250  0.17465250  1
  O  O44  1  0.79332550  0.17146550  0.85237750  1
  O  O45  1  0.38763200  0.06024400  0.09123500  1
  O  O46  1  0.43975600  0.38763200  0.84123500  1
  O  O47  1  0.38763200  0.56024400  0.15876500  1
  O  O48  1  0.61236800  0.93975600  0.09123500  1
  O  O49  1  0.06024400  0.11236800  0.34123500  1
  O  O50  1  0.04126750  0.15611050  0.82534750  1
  O  O51  1  0.45873250  0.34388950  0.32534750  1
  O  O52  1  0.32179850  0.58954250  0.93788750  1
  O  O53  1  0.70667450  0.32853450  0.35237750  1
  O  O54  1  0.17146550  0.70667450  0.10237750  1
  O  O55  1  0.15611050  0.45873250  0.07534750  1
  O  O56  1  0.20667450  0.32853450  0.39762250  1
  O  O57  1  0.54126750  0.15611050  0.92465250  1
  O  O58  1  0.32179850  0.08954250  0.31211250  1
  O  O59  1  0.32853450  0.29332550  0.64762250  1
  O  O60  1  0.67820150  0.91045750  0.31211250  1
  O  O61  1  0.43975600  0.88763200  0.40876500  1
  O  O62  1  0.17146550  0.20667450  0.14762250  1
  O  O63  1  0.32853450  0.79332550  0.60237750  1
  O  O64  1  0.58954250  0.17820150  0.18788750  1
  O  O65  1  0.41045750  0.32179850  0.06211250  1
  O  O66  1  0.08954250  0.17820150  0.56211250  1
  O  O67  1  0.34388950  0.04126750  0.57534750  1
  O  O68  1  0.84388950  0.04126750  0.17465250  1
  O  O69  1  0.79332550  0.67146550  0.39762250  1
  O  O70  1  0.61236800  0.43975600  0.15876500  1
  O  O71  1  0.91045750  0.32179850  0.68788750  1
  O  O72  1  0.67820150  0.41045750  0.93788750  1
  O  O73  1  0.06024400  0.61236800  0.90876500  1
  O  O74  1  0.45873250  0.84388950  0.92465250  1
  O  O75  1  0.65611050  0.45873250  0.67465250  1
  O  O76  1  0.29332550  0.67146550  0.35237750  1
  O  O77  1  0.88763200  0.56024400  0.59123500  1
  O  O78  1  0.93975600  0.88763200  0.34123500  1
  O  O79  1  0.88763200  0.06024400  0.65876500  1
  O  O80  1  0.11236800  0.43975600  0.59123500  1
  O  O81  1  0.56024400  0.61236800  0.84123500  1
  O  O82  1  0.54126750  0.65611050  0.32534750  1
  O  O83  1  0.95873250  0.84388950  0.82534750  1
  O  O84  1  0.82179850  0.08954250  0.43788750  1
  O  O85  1  0.20667450  0.82853450  0.85237750  1
  O  O86  1  0.67146550  0.20667450  0.60237750  1
  O  O87  1  0.65611050  0.95873250  0.57534750  1
  O  O88  1  0.70667450  0.82853450  0.89762250  1
  O  O89  1  0.04126750  0.65611050  0.42465250  1
  O  O90  1  0.82179850  0.58954250  0.81211250  1
  O  O91  1  0.82853450  0.79332550  0.14762250  1
  O  O92  1  0.17820150  0.41045750  0.81211250  1
  O  O93  1  0.93975600  0.38763200  0.90876500  1
  O  O94  1  0.67146550  0.70667450  0.64762250  1
  O  O95  1  0.82853450  0.29332550  0.10237750  1
  O  O96  1  0.08954250  0.67820150  0.68788750  1
  O  O97  1  0.91045750  0.82179850  0.56211250  1
  O  O98  1  0.58954250  0.67820150  0.06211250  1
  O  O99  1  0.84388950  0.54126750  0.07534750  1
