# generated using pymatgen
data_RbLiMoO4
_symmetry_space_group_name_H-M   'P 1'
_cell_length_a   9.94244800
_cell_length_b   5.80029000
_cell_length_c   10.23333638
_cell_angle_alpha   90.00000000
_cell_angle_beta   110.76136211
_cell_angle_gamma   90.00000000
_symmetry_Int_Tables_number   1
_chemical_formula_structural   RbLiMoO4
_chemical_formula_sum   'Rb4 Li4 Mo4 O16'
_cell_volume   551.82586981
_cell_formula_units_Z   4
loop_
 _symmetry_equiv_pos_site_id
 _symmetry_equiv_pos_as_xyz
  1  'x, y, z'
loop_
 _atom_site_type_symbol
 _atom_site_label
 _atom_site_symmetry_multiplicity
 _atom_site_fract_x
 _atom_site_fract_y
 _atom_site_fract_z
 _atom_site_occupancy
  Rb  Rb0  1  0.75261750  0.27634050  0.50228900  1
  Rb  Rb1  1  0.25261750  0.22365950  0.00228900  1
  Rb  Rb2  1  0.25261750  0.77634050  0.50228900  1
  Rb  Rb3  1  0.75261750  0.72365950  0.00228900  1
  Li  Li4  1  0.87453700  0.25778400  0.87240300  1
  Li  Li5  1  0.87453700  0.74221600  0.37240300  1
  Li  Li6  1  0.37453700  0.75778400  0.87240300  1
  Li  Li7  1  0.37453700  0.24221600  0.37240300  1
  Mo  Mo8  1  0.49950600  0.75182100  0.24811200  1
  Mo  Mo9  1  0.99950600  0.74817900  0.74811200  1
  Mo  Mo10  1  0.99950600  0.25182100  0.24811200  1
  Mo  Mo11  1  0.49950600  0.24817900  0.74811200  1
  O  O12  1  0.95671850  0.04056750  0.77706700  1
  O  O13  1  0.48880900  0.78603700  0.07016300  1
  O  O14  1  0.87351100  0.55589200  0.78154300  1
  O  O15  1  0.37351100  0.94410800  0.28154300  1
  O  O16  1  0.98880900  0.71396300  0.57016300  1
  O  O17  1  0.67920050  0.81644550  0.36342200  1
  O  O18  1  0.17920050  0.68355450  0.86342200  1
  O  O19  1  0.95671850  0.95943250  0.27706700  1
  O  O20  1  0.45671850  0.54056750  0.77706700  1
  O  O21  1  0.98880900  0.28603700  0.07016300  1
  O  O22  1  0.37351100  0.05589200  0.78154300  1
  O  O23  1  0.87351100  0.44410800  0.28154300  1
  O  O24  1  0.48880900  0.21396300  0.57016300  1
  O  O25  1  0.17920050  0.31644550  0.36342200  1
  O  O26  1  0.67920050  0.18355450  0.86342200  1
  O  O27  1  0.45671850  0.45943250  0.27706700  1
