# generated using pymatgen
data_CoSnH12(OF)6
_symmetry_space_group_name_H-M   'P 1'
_cell_length_a   9.93514380
_cell_length_b   9.93514380
_cell_length_c   10.09877492
_cell_angle_alpha   90.00000000
_cell_angle_beta   90.00000000
_cell_angle_gamma   120.00000000
_symmetry_Int_Tables_number   1
_chemical_formula_structural   CoSnH12(OF)6
_chemical_formula_sum   'Co3 Sn3 H36 O18 F18'
_cell_volume   863.27196893
_cell_formula_units_Z   3
loop_
 _symmetry_equiv_pos_site_id
 _symmetry_equiv_pos_as_xyz
  1  'x, y, z'
loop_
 _atom_site_type_symbol
 _atom_site_label
 _atom_site_symmetry_multiplicity
 _atom_site_fract_x
 _atom_site_fract_y
 _atom_site_fract_z
 _atom_site_occupancy
  Co  Co0  1  0.00000000  0.00000000  0.50000000  1
  Co  Co1  1  0.66666667  0.33333333  0.83333333  1
  Co  Co2  1  0.33333333  0.66666667  0.16666667  1
  Sn  Sn3  1  0.00000000  0.00000000  0.00000000  1
  Sn  Sn4  1  0.66666667  0.33333333  0.33333333  1
  Sn  Sn5  1  0.33333333  0.66666667  0.66666667  1
  H  H6  1  0.98550567  0.81774133  0.71158233  1
  H  H7  1  0.18225867  0.16776433  0.71158233  1
  H  H8  1  0.83223567  0.01449433  0.71158233  1
  H  H9  1  0.01449433  0.18225867  0.28841767  1
  H  H10  1  0.81774133  0.83223567  0.28841767  1
  H  H11  1  0.16776433  0.98550567  0.28841767  1
  H  H12  1  0.07594600  0.79046300  0.59374400  1
  H  H13  1  0.20953700  0.28548300  0.59374400  1
  H  H14  1  0.71451700  0.92405400  0.59374400  1
  H  H15  1  0.79046300  0.71451700  0.40625600  1
  H  H16  1  0.28548300  0.07594600  0.40625600  1
  H  H17  1  0.92405400  0.20953700  0.40625600  1
  H  H18  1  0.65217233  0.15107467  0.04491567  1
  H  H19  1  0.84892533  0.50109767  0.04491567  1
  H  H20  1  0.49890233  0.34782767  0.04491567  1
  H  H21  1  0.68116100  0.51559200  0.62175100  1
  H  H22  1  0.48440800  0.16556900  0.62175100  1
  H  H23  1  0.83443100  0.31883900  0.62175100  1
  H  H24  1  0.74261267  0.12379633  0.92707733  1
  H  H25  1  0.87620367  0.61881633  0.92707733  1
  H  H26  1  0.38118367  0.25738733  0.92707733  1
  H  H27  1  0.45712967  0.04785033  0.73958933  1
  H  H28  1  0.95214967  0.40927933  0.73958933  1
  H  H29  1  0.59072067  0.54287033  0.73958933  1
  H  H30  1  0.31883900  0.48440800  0.37824900  1
  H  H31  1  0.51559200  0.83443100  0.37824900  1
  H  H32  1  0.16556900  0.68116100  0.37824900  1
  H  H33  1  0.34782767  0.84892533  0.95508433  1
  H  H34  1  0.15107467  0.49890233  0.95508433  1
  H  H35  1  0.50109767  0.65217233  0.95508433  1
  H  H36  1  0.40927933  0.45712967  0.26041067  1
  H  H37  1  0.54287033  0.95214967  0.26041067  1
  H  H38  1  0.04785033  0.59072067  0.26041067  1
  H  H39  1  0.12379633  0.38118367  0.07292267  1
  H  H40  1  0.61881633  0.74261267  0.07292267  1
  H  H41  1  0.25738733  0.87620367  0.07292267  1
  O  O42  1  0.17486200  0.17629000  0.61515900  1
  O  O43  1  0.82371000  0.99857200  0.61515900  1
  O  O44  1  0.99857200  0.17486200  0.38484100  1
  O  O45  1  0.82513800  0.82371000  0.38484100  1
  O  O46  1  0.17629000  0.00142800  0.38484100  1
  O  O47  1  0.00142800  0.82513800  0.61515900  1
  O  O48  1  0.84152867  0.50962333  0.94849233  1
  O  O49  1  0.49037667  0.33190533  0.94849233  1
  O  O50  1  0.66523867  0.50819533  0.71817433  1
  O  O51  1  0.49180467  0.15704333  0.71817433  1
  O  O52  1  0.84295667  0.33476133  0.71817433  1
  O  O53  1  0.66809467  0.15847133  0.94849233  1
  O  O54  1  0.50819533  0.84295667  0.28182567  1
  O  O55  1  0.15704333  0.66523867  0.28182567  1
  O  O56  1  0.33190533  0.84152867  0.05150767  1
  O  O57  1  0.15847133  0.49037667  0.05150767  1
  O  O58  1  0.50962333  0.66809467  0.05150767  1
  O  O59  1  0.33476133  0.49180467  0.28182567  1
  F  F60  1  0.29161967  0.48489633  0.55148933  1
  F  F61  1  0.51510367  0.80672333  0.55148933  1
  F  F62  1  0.19327667  0.70838033  0.55148933  1
  F  F63  1  0.70838033  0.51510367  0.44851067  1
  F  F64  1  0.80672333  0.29161967  0.44851067  1
  F  F65  1  0.48489633  0.19327667  0.44851067  1
  F  F66  1  0.95828633  0.81822967  0.88482267  1
  F  F67  1  0.18177033  0.14005667  0.88482267  1
  F  F68  1  0.85994333  0.04171367  0.88482267  1
  F  F69  1  0.37504700  0.84843700  0.78184400  1
  F  F70  1  0.47339000  0.62495300  0.78184400  1
  F  F71  1  0.15156300  0.52661000  0.78184400  1
  F  F72  1  0.62495300  0.15156300  0.21815600  1
  F  F73  1  0.84843700  0.47339000  0.21815600  1
  F  F74  1  0.52661000  0.37504700  0.21815600  1
  F  F75  1  0.04171367  0.18177033  0.11517733  1
  F  F76  1  0.14005667  0.95828633  0.11517733  1
  F  F77  1  0.81822967  0.85994333  0.11517733  1
