# generated using pymatgen
data_CeMnSi2
_symmetry_space_group_name_H-M   'P 1'
_cell_length_a   4.06704400
_cell_length_b   17.16824800
_cell_length_c   3.98481800
_cell_angle_alpha   90.00000000
_cell_angle_beta   90.00000000
_cell_angle_gamma   90.00000000
_symmetry_Int_Tables_number   1
_chemical_formula_structural   CeMnSi2
_chemical_formula_sum   'Ce4 Mn4 Si8'
_cell_volume   278.23601180
_cell_formula_units_Z   4
loop_
 _symmetry_equiv_pos_site_id
 _symmetry_equiv_pos_as_xyz
  1  'x, y, z'
loop_
 _atom_site_type_symbol
 _atom_site_label
 _atom_site_symmetry_multiplicity
 _atom_site_fract_x
 _atom_site_fract_y
 _atom_site_fract_z
 _atom_site_occupancy
  Ce  Ce0  1  0.50000000  0.39691000  0.75000000  1
  Ce  Ce1  1  0.00000000  0.10309000  0.25000000  1
  Ce  Ce2  1  0.00000000  0.89691000  0.75000000  1
  Ce  Ce3  1  0.50000000  0.60309000  0.25000000  1
  Mn  Mn4  1  0.50000000  0.25127400  0.25000000  1
  Mn  Mn5  1  0.00000000  0.24872600  0.75000000  1
  Mn  Mn6  1  0.00000000  0.75127400  0.25000000  1
  Mn  Mn7  1  0.50000000  0.74872600  0.75000000  1
  Si  Si8  1  0.50000000  0.17732100  0.75000000  1
  Si  Si9  1  0.00000000  0.32267900  0.25000000  1
  Si  Si10  1  0.00000000  0.46423300  0.25000000  1
  Si  Si11  1  0.50000000  0.03576700  0.75000000  1
  Si  Si12  1  0.00000000  0.67732100  0.75000000  1
  Si  Si13  1  0.50000000  0.82267900  0.25000000  1
  Si  Si14  1  0.50000000  0.96423300  0.25000000  1
  Si  Si15  1  0.00000000  0.53576700  0.75000000  1
