# generated using pymatgen
data_Ba4Fe2S4I5
_symmetry_space_group_name_H-M   'P 1'
_cell_length_a   13.99903400
_cell_length_b   13.99903400
_cell_length_c   5.17167800
_cell_angle_alpha   90.00000000
_cell_angle_beta   90.00000000
_cell_angle_gamma   90.00000000
_symmetry_Int_Tables_number   1
_chemical_formula_structural   Ba4Fe2S4I5
_chemical_formula_sum   'Ba8 Fe4 S8 I10'
_cell_volume   1013.50900928
_cell_formula_units_Z   2
loop_
 _symmetry_equiv_pos_site_id
 _symmetry_equiv_pos_as_xyz
  1  'x, y, z'
loop_
 _atom_site_type_symbol
 _atom_site_label
 _atom_site_symmetry_multiplicity
 _atom_site_fract_x
 _atom_site_fract_y
 _atom_site_fract_z
 _atom_site_occupancy
  Ba  Ba0  1  0.56062100  0.75039100  0.50000000  1
  Ba  Ba1  1  0.25039100  0.93937900  0.00000000  1
  Ba  Ba2  1  0.74960900  0.06062100  0.00000000  1
  Ba  Ba3  1  0.43937900  0.24960900  0.50000000  1
  Ba  Ba4  1  0.06062100  0.25039100  0.00000000  1
  Ba  Ba5  1  0.75039100  0.43937900  0.50000000  1
  Ba  Ba6  1  0.24960900  0.56062100  0.50000000  1
  Ba  Ba7  1  0.93937900  0.74960900  0.00000000  1
  Fe  Fe8  1  0.50000000  0.00000000  0.25000000  1
  Fe  Fe9  1  0.50000000  0.00000000  0.75000000  1
  Fe  Fe10  1  0.00000000  0.50000000  0.75000000  1
  Fe  Fe11  1  0.00000000  0.50000000  0.25000000  1
  S  S12  1  0.39964200  0.91453700  0.50000000  1
  S  S13  1  0.41453700  0.10035800  0.00000000  1
  S  S14  1  0.60035800  0.08546300  0.50000000  1
  S  S15  1  0.58546300  0.89964200  0.00000000  1
  S  S16  1  0.89964200  0.41453700  0.00000000  1
  S  S17  1  0.91453700  0.60035800  0.50000000  1
  S  S18  1  0.10035800  0.58546300  0.00000000  1
  S  S19  1  0.08546300  0.39964200  0.50000000  1
  I  I20  1  0.79669700  0.86931000  0.50000000  1
  I  I21  1  0.36931000  0.70330300  0.00000000  1
  I  I22  1  0.20330300  0.13069000  0.50000000  1
  I  I23  1  0.00000000  0.00000000  0.00000000  1
  I  I24  1  0.63069000  0.29669700  0.00000000  1
  I  I25  1  0.29669700  0.36931000  0.00000000  1
  I  I26  1  0.86931000  0.20330300  0.50000000  1
  I  I27  1  0.70330300  0.63069000  0.00000000  1
  I  I28  1  0.50000000  0.50000000  0.50000000  1
  I  I29  1  0.13069000  0.79669700  0.50000000  1
