# generated using pymatgen
data_Ho3Ge5
_symmetry_space_group_name_H-M   'P 1'
_cell_length_a   5.75987800
_cell_length_b   13.77385200
_cell_length_c   17.29542200
_cell_angle_alpha   90.00000000
_cell_angle_beta   90.00000000
_cell_angle_gamma   90.00000000
_symmetry_Int_Tables_number   1
_chemical_formula_structural   Ho3Ge5
_chemical_formula_sum   'Ho24 Ge40'
_cell_volume   1372.14453414
_cell_formula_units_Z   8
loop_
 _symmetry_equiv_pos_site_id
 _symmetry_equiv_pos_as_xyz
  1  'x, y, z'
loop_
 _atom_site_type_symbol
 _atom_site_label
 _atom_site_symmetry_multiplicity
 _atom_site_fract_x
 _atom_site_fract_y
 _atom_site_fract_z
 _atom_site_occupancy
  Ho  Ho0  1  0.25000000  0.99903100  0.75000000  1
  Ho  Ho1  1  0.50000000  0.74903100  0.00000000  1
  Ho  Ho2  1  0.98728050  0.74131100  0.16855250  1
  Ho  Ho3  1  0.01271950  0.74131100  0.83144750  1
  Ho  Ho4  1  0.76271950  0.99131100  0.91855250  1
  Ho  Ho5  1  0.23728050  0.99131100  0.08144750  1
  Ho  Ho6  1  0.25000000  0.49903100  0.25000000  1
  Ho  Ho7  1  0.50000000  0.24903100  0.50000000  1
  Ho  Ho8  1  0.98728050  0.24131100  0.66855250  1
  Ho  Ho9  1  0.01271950  0.24131100  0.33144750  1
  Ho  Ho10  1  0.76271950  0.49131100  0.41855250  1
  Ho  Ho11  1  0.23728050  0.49131100  0.58144750  1
  Ho  Ho12  1  0.75000000  0.49903100  0.75000000  1
  Ho  Ho13  1  0.00000000  0.24903100  0.00000000  1
  Ho  Ho14  1  0.48728050  0.24131100  0.16855250  1
  Ho  Ho15  1  0.51271950  0.24131100  0.83144750  1
  Ho  Ho16  1  0.26271950  0.49131100  0.91855250  1
  Ho  Ho17  1  0.73728050  0.49131100  0.08144750  1
  Ho  Ho18  1  0.75000000  0.99903100  0.25000000  1
  Ho  Ho19  1  0.00000000  0.74903100  0.50000000  1
  Ho  Ho20  1  0.48728050  0.74131100  0.66855250  1
  Ho  Ho21  1  0.51271950  0.74131100  0.33144750  1
  Ho  Ho22  1  0.26271950  0.99131100  0.41855250  1
  Ho  Ho23  1  0.73728050  0.99131100  0.58144750  1
  Ge  Ge24  1  0.25000000  0.54651100  0.75000000  1
  Ge  Ge25  1  0.00000000  0.79651100  0.00000000  1
  Ge  Ge26  1  0.44145700  0.84468500  0.18431100  1
  Ge  Ge27  1  0.55854300  0.84468500  0.81568900  1
  Ge  Ge28  1  0.80854300  0.59468500  0.93431100  1
  Ge  Ge29  1  0.19145700  0.59468500  0.06568900  1
  Ge  Ge30  1  0.50397400  0.66133500  0.16326400  1
  Ge  Ge31  1  0.49602600  0.66133500  0.83673600  1
  Ge  Ge32  1  0.24602600  0.91133500  0.91326400  1
  Ge  Ge33  1  0.75397400  0.91133500  0.08673600  1
  Ge  Ge34  1  0.25000000  0.04651100  0.25000000  1
  Ge  Ge35  1  0.00000000  0.29651100  0.50000000  1
  Ge  Ge36  1  0.44145700  0.34468500  0.68431100  1
  Ge  Ge37  1  0.55854300  0.34468500  0.31568900  1
  Ge  Ge38  1  0.80854300  0.09468500  0.43431100  1
  Ge  Ge39  1  0.19145700  0.09468500  0.56568900  1
  Ge  Ge40  1  0.50397400  0.16133500  0.66326400  1
  Ge  Ge41  1  0.49602600  0.16133500  0.33673600  1
  Ge  Ge42  1  0.24602600  0.41133500  0.41326400  1
  Ge  Ge43  1  0.75397400  0.41133500  0.58673600  1
  Ge  Ge44  1  0.75000000  0.04651100  0.75000000  1
  Ge  Ge45  1  0.50000000  0.29651100  0.00000000  1
  Ge  Ge46  1  0.94145700  0.34468500  0.18431100  1
  Ge  Ge47  1  0.05854300  0.34468500  0.81568900  1
  Ge  Ge48  1  0.30854300  0.09468500  0.93431100  1
  Ge  Ge49  1  0.69145700  0.09468500  0.06568900  1
  Ge  Ge50  1  0.00397400  0.16133500  0.16326400  1
  Ge  Ge51  1  0.99602600  0.16133500  0.83673600  1
  Ge  Ge52  1  0.74602600  0.41133500  0.91326400  1
  Ge  Ge53  1  0.25397400  0.41133500  0.08673600  1
  Ge  Ge54  1  0.75000000  0.54651100  0.25000000  1
  Ge  Ge55  1  0.50000000  0.79651100  0.50000000  1
  Ge  Ge56  1  0.94145700  0.84468500  0.68431100  1
  Ge  Ge57  1  0.05854300  0.84468500  0.31568900  1
  Ge  Ge58  1  0.30854300  0.59468500  0.43431100  1
  Ge  Ge59  1  0.69145700  0.59468500  0.56568900  1
  Ge  Ge60  1  0.00397400  0.66133500  0.66326400  1
  Ge  Ge61  1  0.99602600  0.66133500  0.33673600  1
  Ge  Ge62  1  0.74602600  0.91133500  0.41326400  1
  Ge  Ge63  1  0.25397400  0.91133500  0.58673600  1
