# generated using pymatgen
data_TbMg4Cu
_symmetry_space_group_name_H-M   'P 1'
_cell_length_a   13.27401200
_cell_length_b   19.98232200
_cell_length_c   4.03729900
_cell_angle_alpha   90.00000000
_cell_angle_beta   90.00000000
_cell_angle_gamma   90.00000000
_symmetry_Int_Tables_number   1
_chemical_formula_structural   TbMg4Cu
_chemical_formula_sum   'Tb8 Mg32 Cu8'
_cell_volume   1070.87572303
_cell_formula_units_Z   8
loop_
 _symmetry_equiv_pos_site_id
 _symmetry_equiv_pos_as_xyz
  1  'x, y, z'
loop_
 _atom_site_type_symbol
 _atom_site_label
 _atom_site_symmetry_multiplicity
 _atom_site_fract_x
 _atom_site_fract_y
 _atom_site_fract_z
 _atom_site_occupancy
  Tb  Tb0  1  0.30255700  0.00000000  0.00000000  1
  Tb  Tb1  1  0.69744300  0.00000000  0.00000000  1
  Tb  Tb2  1  0.50000000  0.13207100  0.00000000  1
  Tb  Tb3  1  0.50000000  0.86792900  0.00000000  1
  Tb  Tb4  1  0.80255700  0.50000000  0.00000000  1
  Tb  Tb5  1  0.19744300  0.50000000  0.00000000  1
  Tb  Tb6  1  0.00000000  0.63207100  0.00000000  1
  Tb  Tb7  1  0.00000000  0.36792900  0.00000000  1
  Mg  Mg8  1  0.61968350  0.24496750  0.50000000  1
  Mg  Mg9  1  0.38031650  0.24496750  0.50000000  1
  Mg  Mg10  1  0.50000000  0.33547100  0.00000000  1
  Mg  Mg11  1  0.50000000  0.66452900  0.00000000  1
  Mg  Mg12  1  0.86975700  0.91987900  0.50000000  1
  Mg  Mg13  1  0.61968350  0.75503250  0.50000000  1
  Mg  Mg14  1  0.75588200  0.83145300  0.00000000  1
  Mg  Mg15  1  0.13024300  0.91987900  0.50000000  1
  Mg  Mg16  1  0.38031650  0.75503250  0.50000000  1
  Mg  Mg17  1  0.50000000  0.00000000  0.50000000  1
  Mg  Mg18  1  0.86975700  0.08012100  0.50000000  1
  Mg  Mg19  1  0.13024300  0.08012100  0.50000000  1
  Mg  Mg20  1  0.75588200  0.16854700  0.00000000  1
  Mg  Mg21  1  0.24411800  0.83145300  0.00000000  1
  Mg  Mg22  1  0.24411800  0.16854700  0.00000000  1
  Mg  Mg23  1  0.00000000  0.00000000  0.00000000  1
  Mg  Mg24  1  0.11968350  0.74496750  0.50000000  1
  Mg  Mg25  1  0.88031650  0.74496750  0.50000000  1
  Mg  Mg26  1  0.00000000  0.83547100  0.00000000  1
  Mg  Mg27  1  0.00000000  0.16452900  0.00000000  1
  Mg  Mg28  1  0.36975700  0.41987900  0.50000000  1
  Mg  Mg29  1  0.11968350  0.25503250  0.50000000  1
  Mg  Mg30  1  0.25588200  0.33145300  0.00000000  1
  Mg  Mg31  1  0.63024300  0.41987900  0.50000000  1
  Mg  Mg32  1  0.88031650  0.25503250  0.50000000  1
  Mg  Mg33  1  0.00000000  0.50000000  0.50000000  1
  Mg  Mg34  1  0.36975700  0.58012100  0.50000000  1
  Mg  Mg35  1  0.63024300  0.58012100  0.50000000  1
  Mg  Mg36  1  0.25588200  0.66854700  0.00000000  1
  Mg  Mg37  1  0.74411800  0.33145300  0.00000000  1
  Mg  Mg38  1  0.74411800  0.66854700  0.00000000  1
  Mg  Mg39  1  0.50000000  0.50000000  0.00000000  1
  Cu  Cu40  1  0.34022050  0.89436550  0.50000000  1
  Cu  Cu41  1  0.34022050  0.10563450  0.50000000  1
  Cu  Cu42  1  0.65977950  0.10563450  0.50000000  1
  Cu  Cu43  1  0.65977950  0.89436550  0.50000000  1
  Cu  Cu44  1  0.84022050  0.39436550  0.50000000  1
  Cu  Cu45  1  0.84022050  0.60563450  0.50000000  1
  Cu  Cu46  1  0.15977950  0.60563450  0.50000000  1
  Cu  Cu47  1  0.15977950  0.39436550  0.50000000  1
