# generated using pymatgen
data_Na5La(WO4)4
_symmetry_space_group_name_H-M   'P 1'
_cell_length_a   11.85744400
_cell_length_b   11.85744400
_cell_length_c   11.62899600
_cell_angle_alpha   90.00000000
_cell_angle_beta   90.00000000
_cell_angle_gamma   90.00000000
_symmetry_Int_Tables_number   1
_chemical_formula_structural   Na5La(WO4)4
_chemical_formula_sum   'Na20 La4 W16 O64'
_cell_volume   1635.02495524
_cell_formula_units_Z   4
loop_
 _symmetry_equiv_pos_site_id
 _symmetry_equiv_pos_as_xyz
  1  'x, y, z'
loop_
 _atom_site_type_symbol
 _atom_site_label
 _atom_site_symmetry_multiplicity
 _atom_site_fract_x
 _atom_site_fract_y
 _atom_site_fract_z
 _atom_site_occupancy
  Na  Na0  1  0.50000000  0.00000000  0.75000000  1
  Na  Na1  1  0.00000000  0.00000000  0.50000000  1
  Na  Na2  1  0.62105900  0.29619500  0.71734100  1
  Na  Na3  1  0.79619500  0.37894100  0.96734100  1
  Na  Na4  1  0.70380500  0.12105900  0.46734100  1
  Na  Na5  1  0.87894100  0.20380500  0.21734100  1
  Na  Na6  1  0.37894100  0.20380500  0.03265900  1
  Na  Na7  1  0.70380500  0.62105900  0.28265900  1
  Na  Na8  1  0.79619500  0.87894100  0.78265900  1
  Na  Na9  1  0.12105900  0.29619500  0.53265900  1
  Na  Na10  1  0.00000000  0.50000000  0.25000000  1
  Na  Na11  1  0.50000000  0.50000000  0.00000000  1
  Na  Na12  1  0.12105900  0.79619500  0.21734100  1
  Na  Na13  1  0.29619500  0.87894100  0.46734100  1
  Na  Na14  1  0.20380500  0.62105900  0.96734100  1
  Na  Na15  1  0.37894100  0.70380500  0.71734100  1
  Na  Na16  1  0.87894100  0.70380500  0.53265900  1
  Na  Na17  1  0.20380500  0.12105900  0.78265900  1
  Na  Na18  1  0.29619500  0.37894100  0.28265900  1
  Na  Na19  1  0.62105900  0.79619500  0.03265900  1
  La  La20  1  0.50000000  0.00000000  0.25000000  1
  La  La21  1  0.50000000  0.50000000  0.50000000  1
  La  La22  1  0.00000000  0.50000000  0.75000000  1
  La  La23  1  0.00000000  0.00000000  0.00000000  1
  W  W24  1  0.90195700  0.18224700  0.73229300  1
  W  W25  1  0.68224700  0.09804300  0.98229300  1
  W  W26  1  0.81775300  0.40195700  0.48229300  1
  W  W27  1  0.59804300  0.31775300  0.23229300  1
  W  W28  1  0.09804300  0.31775300  0.01770700  1
  W  W29  1  0.31775300  0.40195700  0.76770700  1
  W  W30  1  0.18224700  0.09804300  0.26770700  1
  W  W31  1  0.40195700  0.18224700  0.51770700  1
  W  W32  1  0.40195700  0.68224700  0.23229300  1
  W  W33  1  0.18224700  0.59804300  0.48229300  1
  W  W34  1  0.31775300  0.90195700  0.98229300  1
  W  W35  1  0.09804300  0.81775300  0.73229300  1
  W  W36  1  0.59804300  0.81775300  0.51770700  1
  W  W37  1  0.81775300  0.90195700  0.26770700  1
  W  W38  1  0.68224700  0.59804300  0.76770700  1
  W  W39  1  0.90195700  0.68224700  0.01770700  1
  O  O40  1  0.88466750  0.06166450  0.82919750  1
  O  O41  1  0.56166450  0.11533250  0.07919750  1
  O  O42  1  0.93833550  0.38466750  0.57919750  1
  O  O43  1  0.61533250  0.43833550  0.32919750  1
  O  O44  1  0.61533250  0.93833550  0.42080250  1
  O  O45  1  0.43833550  0.38466750  0.67080250  1
  O  O46  1  0.06166450  0.11533250  0.17080250  1
  O  O47  1  0.88466750  0.56166450  0.92080250  1
  O  O48  1  0.77999300  0.18267800  0.64018800  1
  O  O49  1  0.68267800  0.22000700  0.89018800  1
  O  O50  1  0.81732200  0.27999300  0.39018800  1
  O  O51  1  0.72000700  0.31732200  0.14018800  1
  O  O52  1  0.72000700  0.81732200  0.60981200  1
  O  O53  1  0.31732200  0.27999300  0.85981200  1
  O  O54  1  0.18267800  0.22000700  0.35981200  1
  O  O55  1  0.77999300  0.68267800  0.10981200  1
  O  O56  1  0.91480800  0.31653000  0.81188800  1
  O  O57  1  0.31653000  0.58519200  0.56188800  1
  O  O58  1  0.68347000  0.41480800  0.56188800  1
  O  O59  1  0.58519200  0.18347000  0.31188800  1
  O  O60  1  0.58519200  0.68347000  0.43811200  1
  O  O61  1  0.18347000  0.41480800  0.68811200  1
  O  O62  1  0.31653000  0.08519200  0.18811200  1
  O  O63  1  0.41480800  0.31653000  0.43811200  1
  O  O64  1  0.02389700  0.14983200  0.64382600  1
  O  O65  1  0.64983200  0.97610300  0.89382600  1
  O  O66  1  0.85016800  0.52389700  0.39382600  1
  O  O67  1  0.97610300  0.85016800  0.64382600  1
  O  O68  1  0.97610300  0.35016800  0.10617400  1
  O  O69  1  0.85016800  0.02389700  0.35617400  1
  O  O70  1  0.14983200  0.97610300  0.35617400  1
  O  O71  1  0.52389700  0.14983200  0.60617400  1
  O  O72  1  0.38466750  0.56166450  0.32919750  1
  O  O73  1  0.06166450  0.61533250  0.57919750  1
  O  O74  1  0.43833550  0.88466750  0.07919750  1
  O  O75  1  0.11533250  0.93833550  0.82919750  1
  O  O76  1  0.11533250  0.43833550  0.92080250  1
  O  O77  1  0.93833550  0.88466750  0.17080250  1
  O  O78  1  0.56166450  0.61533250  0.67080250  1
  O  O79  1  0.38466750  0.06166450  0.42080250  1
  O  O80  1  0.27999300  0.68267800  0.14018800  1
  O  O81  1  0.18267800  0.72000700  0.39018800  1
  O  O82  1  0.31732200  0.77999300  0.89018800  1
  O  O83  1  0.22000700  0.81732200  0.64018800  1
  O  O84  1  0.22000700  0.31732200  0.10981200  1
  O  O85  1  0.81732200  0.77999300  0.35981200  1
  O  O86  1  0.68267800  0.72000700  0.85981200  1
  O  O87  1  0.27999300  0.18267800  0.60981200  1
  O  O88  1  0.41480800  0.81653000  0.31188800  1
  O  O89  1  0.81653000  0.08519200  0.06188800  1
  O  O90  1  0.18347000  0.91480800  0.06188800  1
  O  O91  1  0.08519200  0.68347000  0.81188800  1
  O  O92  1  0.08519200  0.18347000  0.93811200  1
  O  O93  1  0.68347000  0.91480800  0.18811200  1
  O  O94  1  0.81653000  0.58519200  0.68811200  1
  O  O95  1  0.91480800  0.81653000  0.93811200  1
  O  O96  1  0.52389700  0.64983200  0.14382600  1
  O  O97  1  0.14983200  0.47610300  0.39382600  1
  O  O98  1  0.35016800  0.02389700  0.89382600  1
  O  O99  1  0.47610300  0.35016800  0.14382600  1
  O  O100  1  0.47610300  0.85016800  0.60617400  1
  O  O101  1  0.35016800  0.52389700  0.85617400  1
  O  O102  1  0.64983200  0.47610300  0.85617400  1
  O  O103  1  0.02389700  0.64983200  0.10617400  1
