# generated using pymatgen
data_InPt
_symmetry_space_group_name_H-M   'P 1'
_cell_length_a   13.39482200
_cell_length_b   4.48125000
_cell_length_c   7.74104987
_cell_angle_alpha   90.00000000
_cell_angle_beta   123.22378666
_cell_angle_gamma   90.00000000
_symmetry_Int_Tables_number   1
_chemical_formula_structural   InPt
_chemical_formula_sum   'In10 Pt10'
_cell_volume   388.70586813
_cell_formula_units_Z   10
loop_
 _symmetry_equiv_pos_site_id
 _symmetry_equiv_pos_as_xyz
  1  'x, y, z'
loop_
 _atom_site_type_symbol
 _atom_site_label
 _atom_site_symmetry_multiplicity
 _atom_site_fract_x
 _atom_site_fract_y
 _atom_site_fract_z
 _atom_site_occupancy
  In  In0  1  0.00000000  0.50000000  0.50000000  1
  In  In1  1  0.85109300  0.00000000  0.15453600  1
  In  In2  1  0.14890700  0.00000000  0.84546400  1
  In  In3  1  0.62790900  0.00000000  0.24359400  1
  In  In4  1  0.37209100  0.00000000  0.75640600  1
  In  In5  1  0.50000000  0.00000000  0.50000000  1
  In  In6  1  0.35109300  0.50000000  0.15453600  1
  In  In7  1  0.64890700  0.50000000  0.84546400  1
  In  In8  1  0.12790900  0.50000000  0.24359400  1
  In  In9  1  0.87209100  0.50000000  0.75640600  1
  Pt  Pt10  1  0.00000000  0.00000000  0.00000000  1
  Pt  Pt11  1  0.24108600  0.50000000  0.73657500  1
  Pt  Pt12  1  0.75891400  0.50000000  0.26342500  1
  Pt  Pt13  1  0.89112600  0.00000000  0.55614800  1
  Pt  Pt14  1  0.10887400  0.00000000  0.44385200  1
  Pt  Pt15  1  0.50000000  0.50000000  0.00000000  1
  Pt  Pt16  1  0.74108600  0.00000000  0.73657500  1
  Pt  Pt17  1  0.25891400  0.00000000  0.26342500  1
  Pt  Pt18  1  0.39112600  0.50000000  0.55614800  1
  Pt  Pt19  1  0.60887400  0.50000000  0.44385200  1
