# generated using pymatgen
data_KNa2LiTi2Fe2(SiO3)8
_symmetry_space_group_name_H-M   'P 1'
_cell_length_a   16.58622400
_cell_length_b   12.80988400
_cell_length_c   10.09955815
_cell_angle_alpha   90.00000000
_cell_angle_beta   115.37641198
_cell_angle_gamma   90.00000000
_symmetry_Int_Tables_number   1
_chemical_formula_structural   KNa2LiTi2Fe2(SiO3)8
_chemical_formula_sum   'K4 Na8 Li4 Ti8 Fe8 Si32 O96'
_cell_volume   1938.78177235
_cell_formula_units_Z   4
loop_
 _symmetry_equiv_pos_site_id
 _symmetry_equiv_pos_as_xyz
  1  'x, y, z'
loop_
 _atom_site_type_symbol
 _atom_site_label
 _atom_site_symmetry_multiplicity
 _atom_site_fract_x
 _atom_site_fract_y
 _atom_site_fract_z
 _atom_site_occupancy
  K  K0  1  0.00109550  0.41707650  0.74512900  1
  K  K1  1  0.00109550  0.58292350  0.24512900  1
  K  K2  1  0.50109550  0.91707650  0.74512900  1
  K  K3  1  0.50109550  0.08292350  0.24512900  1
  Na  Na4  1  0.23657500  0.70167200  0.68804600  1
  Na  Na5  1  0.23657500  0.29832800  0.18804600  1
  Na  Na6  1  0.76097150  0.29795050  0.28945300  1
  Na  Na7  1  0.76097150  0.70204950  0.78945300  1
  Na  Na8  1  0.73657500  0.20167200  0.68804600  1
  Na  Na9  1  0.73657500  0.79832800  0.18804600  1
  Na  Na10  1  0.26097150  0.79795050  0.28945300  1
  Na  Na11  1  0.26097150  0.20204950  0.78945300  1
  Li  Li12  1  0.99726500  0.93581100  0.73492600  1
  Li  Li13  1  0.99726500  0.06418900  0.23492600  1
  Li  Li14  1  0.49726500  0.43581100  0.73492600  1
  Li  Li15  1  0.49726500  0.56418900  0.23492600  1
  Ti  Ti16  1  0.15700600  0.82620100  0.88962600  1
  Ti  Ti17  1  0.15700600  0.17379900  0.38962600  1
  Ti  Ti18  1  0.41117550  0.55097750  0.87769300  1
  Ti  Ti19  1  0.41117550  0.44902250  0.37769300  1
  Ti  Ti20  1  0.65700600  0.32620100  0.88962600  1
  Ti  Ti21  1  0.65700600  0.67379900  0.38962600  1
  Ti  Ti22  1  0.91117550  0.05097750  0.87769300  1
  Ti  Ti23  1  0.91117550  0.94902250  0.37769300  1
  Fe  Fe24  1  0.83865200  0.18231500  0.09278200  1
  Fe  Fe25  1  0.83865200  0.81768500  0.59278200  1
  Fe  Fe26  1  0.58866050  0.44075950  0.10724700  1
  Fe  Fe27  1  0.58866050  0.55924050  0.60724700  1
  Fe  Fe28  1  0.33865200  0.68231500  0.09278200  1
  Fe  Fe29  1  0.33865200  0.31768500  0.59278200  1
  Fe  Fe30  1  0.08866050  0.94075950  0.10724700  1
  Fe  Fe31  1  0.08866050  0.05924050  0.60724700  1
  Si  Si32  1  0.85425300  0.40599600  0.93360700  1
  Si  Si33  1  0.85425300  0.59400400  0.43360700  1
  Si  Si34  1  0.14468650  0.59591450  0.05241700  1
  Si  Si35  1  0.14468650  0.40408550  0.55241700  1
  Si  Si36  1  0.97705700  0.72810500  0.91176600  1
  Si  Si37  1  0.97705700  0.27189500  0.41176600  1
  Si  Si38  1  0.02181700  0.26769100  0.07841100  1
  Si  Si39  1  0.02181700  0.73230900  0.57841100  1
  Si  Si40  1  0.23017950  0.47327050  0.88355800  1
  Si  Si41  1  0.23017950  0.52672950  0.38355800  1
  Si  Si42  1  0.77169100  0.52276300  0.10480700  1
  Si  Si43  1  0.77169100  0.47723700  0.60480700  1
  Si  Si44  1  0.10641600  0.14743800  0.91536300  1
  Si  Si45  1  0.10641600  0.85256200  0.41536300  1
  Si  Si46  1  0.89471600  0.85415000  0.07712000  1
  Si  Si47  1  0.89471600  0.14585000  0.57712000  1
  Si  Si48  1  0.35425300  0.90599600  0.93360700  1
  Si  Si49  1  0.35425300  0.09400400  0.43360700  1
  Si  Si50  1  0.64468650  0.09591450  0.05241700  1
  Si  Si51  1  0.64468650  0.90408550  0.55241700  1
  Si  Si52  1  0.47705700  0.22810500  0.91176600  1
  Si  Si53  1  0.47705700  0.77189500  0.41176600  1
  Si  Si54  1  0.52181700  0.76769100  0.07841100  1
  Si  Si55  1  0.52181700  0.23230900  0.57841100  1
  Si  Si56  1  0.73017950  0.97327050  0.88355800  1
  Si  Si57  1  0.73017950  0.02672950  0.38355800  1
  Si  Si58  1  0.27169100  0.02276300  0.10480700  1
  Si  Si59  1  0.27169100  0.97723700  0.60480700  1
  Si  Si60  1  0.60641600  0.64743800  0.91536300  1
  Si  Si61  1  0.60641600  0.35256200  0.41536300  1
  Si  Si62  1  0.39471600  0.35415000  0.07712000  1
  Si  Si63  1  0.39471600  0.64585000  0.57712000  1
  O  O64  1  0.04289350  0.05014650  0.92280000  1
  O  O65  1  0.04289350  0.94985350  0.42280000  1
  O  O66  1  0.44953450  0.45686950  0.06469200  1
  O  O67  1  0.44953450  0.54313050  0.56469200  1
  O  O68  1  0.04654350  0.82425750  0.92446100  1
  O  O69  1  0.04654350  0.17574250  0.42446100  1
  O  O70  1  0.95635550  0.16917350  0.06115000  1
  O  O71  1  0.95635550  0.83082650  0.56115000  1
  O  O72  1  0.89178300  0.16346500  0.73522500  1
  O  O73  1  0.89178300  0.83653500  0.23522500  1
  O  O74  1  0.11227250  0.83294250  0.26343600  1
  O  O75  1  0.11227250  0.16705750  0.76343600  1
  O  O76  1  0.62894200  0.43149400  0.77071900  1
  O  O77  1  0.62894200  0.56850600  0.27071900  1
  O  O78  1  0.37759150  0.55124450  0.25294300  1
  O  O79  1  0.37759150  0.44875550  0.75294300  1
  O  O80  1  0.29435650  0.57204750  0.89351200  1
  O  O81  1  0.29435650  0.42795250  0.39351200  1
  O  O82  1  0.71063300  0.42022500  0.08577400  1
  O  O83  1  0.71063300  0.57977500  0.58577400  1
  O  O84  1  0.28739500  0.36591300  0.95572200  1
  O  O85  1  0.28739500  0.63408700  0.45572200  1
  O  O86  1  0.71110350  0.62899150  0.04340300  1
  O  O87  1  0.71110350  0.37100850  0.54340300  1
  O  O88  1  0.78566550  0.31017650  0.91576200  1
  O  O89  1  0.78566550  0.68982350  0.41576200  1
  O  O90  1  0.20619400  0.69523400  0.06047400  1
  O  O91  1  0.20619400  0.30476600  0.56047400  1
  O  O92  1  0.16646250  0.49599650  0.96866600  1
  O  O93  1  0.16646250  0.50400350  0.46866600  1
  O  O94  1  0.83595750  0.50705950  0.01852700  1
  O  O95  1  0.83595750  0.49294050  0.51852700  1
  O  O96  1  0.84232200  0.44979400  0.77332900  1
  O  O97  1  0.84232200  0.55020600  0.27332900  1
  O  O98  1  0.16022100  0.55292300  0.21532700  1
  O  O99  1  0.16022100  0.44707700  0.71532700  1
  O  O100  1  0.10390050  0.71679650  0.74207400  1
  O  O101  1  0.10390050  0.28320350  0.24207400  1
  O  O102  1  0.89620000  0.28961900  0.25430100  1
  O  O103  1  0.89620000  0.71038100  0.75430100  1
  O  O104  1  0.03721500  0.61955300  0.97202500  1
  O  O105  1  0.03721500  0.38044700  0.47202500  1
  O  O106  1  0.96063500  0.37542800  0.01976900  1
  O  O107  1  0.96063500  0.62457200  0.51976900  1
  O  O108  1  0.07411250  0.25584050  0.96970900  1
  O  O109  1  0.07411250  0.74415950  0.46970900  1
  O  O110  1  0.93229450  0.74770250  0.03109500  1
  O  O111  1  0.93229450  0.25229750  0.53109500  1
  O  O112  1  0.54289350  0.55014650  0.92280000  1
  O  O113  1  0.54289350  0.44985350  0.42280000  1
  O  O114  1  0.94953450  0.95686950  0.06469200  1
  O  O115  1  0.94953450  0.04313050  0.56469200  1
  O  O116  1  0.54654350  0.32425750  0.92446100  1
  O  O117  1  0.54654350  0.67574250  0.42446100  1
  O  O118  1  0.45635550  0.66917350  0.06115000  1
  O  O119  1  0.45635550  0.33082650  0.56115000  1
  O  O120  1  0.39178300  0.66346500  0.73522500  1
  O  O121  1  0.39178300  0.33653500  0.23522500  1
  O  O122  1  0.61227250  0.33294250  0.26343600  1
  O  O123  1  0.61227250  0.66705750  0.76343600  1
  O  O124  1  0.12894200  0.93149400  0.77071900  1
  O  O125  1  0.12894200  0.06850600  0.27071900  1
  O  O126  1  0.87759150  0.05124450  0.25294300  1
  O  O127  1  0.87759150  0.94875550  0.75294300  1
  O  O128  1  0.79435650  0.07204750  0.89351200  1
  O  O129  1  0.79435650  0.92795250  0.39351200  1
  O  O130  1  0.21063300  0.92022500  0.08577400  1
  O  O131  1  0.21063300  0.07977500  0.58577400  1
  O  O132  1  0.78739500  0.86591300  0.95572200  1
  O  O133  1  0.78739500  0.13408700  0.45572200  1
  O  O134  1  0.21110350  0.12899150  0.04340300  1
  O  O135  1  0.21110350  0.87100850  0.54340300  1
  O  O136  1  0.28566550  0.81017650  0.91576200  1
  O  O137  1  0.28566550  0.18982350  0.41576200  1
  O  O138  1  0.70619400  0.19523400  0.06047400  1
  O  O139  1  0.70619400  0.80476600  0.56047400  1
  O  O140  1  0.66646250  0.99599650  0.96866600  1
  O  O141  1  0.66646250  0.00400350  0.46866600  1
  O  O142  1  0.33595750  0.00705950  0.01852700  1
  O  O143  1  0.33595750  0.99294050  0.51852700  1
  O  O144  1  0.34232200  0.94979400  0.77332900  1
  O  O145  1  0.34232200  0.05020600  0.27332900  1
  O  O146  1  0.66022100  0.05292300  0.21532700  1
  O  O147  1  0.66022100  0.94707700  0.71532700  1
  O  O148  1  0.60390050  0.21679650  0.74207400  1
  O  O149  1  0.60390050  0.78320350  0.24207400  1
  O  O150  1  0.39620000  0.78961900  0.25430100  1
  O  O151  1  0.39620000  0.21038100  0.75430100  1
  O  O152  1  0.53721500  0.11955300  0.97202500  1
  O  O153  1  0.53721500  0.88044700  0.47202500  1
  O  O154  1  0.46063500  0.87542800  0.01976900  1
  O  O155  1  0.46063500  0.12457200  0.51976900  1
  O  O156  1  0.57411250  0.75584050  0.96970900  1
  O  O157  1  0.57411250  0.24415950  0.46970900  1
  O  O158  1  0.43229450  0.24770250  0.03109500  1
  O  O159  1  0.43229450  0.75229750  0.53109500  1
