# generated using pymatgen
data_Ba2Bi
_symmetry_space_group_name_H-M   'P 1'
_cell_length_a   5.38214400
_cell_length_b   5.38214400
_cell_length_c   19.33860000
_cell_angle_alpha   90.00000000
_cell_angle_beta   90.00000000
_cell_angle_gamma   90.00000000
_symmetry_Int_Tables_number   1
_chemical_formula_structural   Ba2Bi
_chemical_formula_sum   'Ba8 Bi4'
_cell_volume   560.19039341
_cell_formula_units_Z   4
loop_
 _symmetry_equiv_pos_site_id
 _symmetry_equiv_pos_as_xyz
  1  'x, y, z'
loop_
 _atom_site_type_symbol
 _atom_site_label
 _atom_site_symmetry_multiplicity
 _atom_site_fract_x
 _atom_site_fract_y
 _atom_site_fract_z
 _atom_site_occupancy
  Ba  Ba0  1  0.50000000  0.00000000  0.00000000  1
  Ba  Ba1  1  0.50000000  0.50000000  0.17968600  1
  Ba  Ba2  1  0.00000000  0.00000000  0.32031400  1
  Ba  Ba3  1  0.00000000  0.50000000  0.00000000  1
  Ba  Ba4  1  0.00000000  0.50000000  0.50000000  1
  Ba  Ba5  1  0.00000000  0.00000000  0.67968600  1
  Ba  Ba6  1  0.50000000  0.50000000  0.82031400  1
  Ba  Ba7  1  0.50000000  0.00000000  0.50000000  1
  Bi  Bi8  1  0.50000000  0.50000000  0.36589900  1
  Bi  Bi9  1  0.00000000  0.00000000  0.13410100  1
  Bi  Bi10  1  0.00000000  0.00000000  0.86589900  1
  Bi  Bi11  1  0.50000000  0.50000000  0.63410100  1
