# generated using pymatgen
data_KFe(MoO4)2
_symmetry_space_group_name_H-M   'P 1'
_cell_length_a   5.75845219
_cell_length_b   5.75845219
_cell_length_c   14.81567800
_cell_angle_alpha   90.00000000
_cell_angle_beta   90.00000000
_cell_angle_gamma   120.00000000
_symmetry_Int_Tables_number   1
_chemical_formula_structural   KFe(MoO4)2
_chemical_formula_sum   'K2 Fe2 Mo4 O16'
_cell_volume   425.46485641
_cell_formula_units_Z   2
loop_
 _symmetry_equiv_pos_site_id
 _symmetry_equiv_pos_as_xyz
  1  'x, y, z'
loop_
 _atom_site_type_symbol
 _atom_site_label
 _atom_site_symmetry_multiplicity
 _atom_site_fract_x
 _atom_site_fract_y
 _atom_site_fract_z
 _atom_site_occupancy
  K  K0  1  0.00000000  0.00000000  0.75000000  1
  K  K1  1  0.00000000  0.00000000  0.25000000  1
  Fe  Fe2  1  0.00000000  0.00000000  0.50000000  1
  Fe  Fe3  1  0.00000000  0.00000000  0.00000000  1
  Mo  Mo4  1  0.66666667  0.33333333  0.88170600  1
  Mo  Mo5  1  0.33333333  0.66666667  0.61829400  1
  Mo  Mo6  1  0.66666667  0.33333333  0.38170600  1
  Mo  Mo7  1  0.33333333  0.66666667  0.11829400  1
  O  O8  1  0.66666667  0.33333333  0.76362300  1
  O  O9  1  0.66666667  0.33333333  0.26362300  1
  O  O10  1  0.33333333  0.66666667  0.73637700  1
  O  O11  1  0.33333333  0.66666667  0.23637700  1
  O  O12  1  0.13404600  0.81192300  0.58120300  1
  O  O13  1  0.86595400  0.18807700  0.41879700  1
  O  O14  1  0.32212300  0.13404600  0.41879700  1
  O  O15  1  0.67787700  0.86595400  0.58120300  1
  O  O16  1  0.67787700  0.81192300  0.08120300  1
  O  O17  1  0.86595400  0.67787700  0.91879700  1
  O  O18  1  0.18807700  0.86595400  0.08120300  1
  O  O19  1  0.13404600  0.32212300  0.08120300  1
  O  O20  1  0.32212300  0.18807700  0.91879700  1
  O  O21  1  0.81192300  0.13404600  0.91879700  1
  O  O22  1  0.18807700  0.32212300  0.58120300  1
  O  O23  1  0.81192300  0.67787700  0.41879700  1
