# generated using pymatgen
data_CaV4(CuO4)3
_symmetry_space_group_name_H-M   'P 1'
_cell_length_a   7.40856800
_cell_length_b   7.40856800
_cell_length_c   7.40856800
_cell_angle_alpha   90.00000000
_cell_angle_beta   90.00000000
_cell_angle_gamma   90.00000000
_symmetry_Int_Tables_number   1
_chemical_formula_structural   CaV4(CuO4)3
_chemical_formula_sum   'Ca2 V8 Cu6 O24'
_cell_volume   406.63318138
_cell_formula_units_Z   2
loop_
 _symmetry_equiv_pos_site_id
 _symmetry_equiv_pos_as_xyz
  1  'x, y, z'
loop_
 _atom_site_type_symbol
 _atom_site_label
 _atom_site_symmetry_multiplicity
 _atom_site_fract_x
 _atom_site_fract_y
 _atom_site_fract_z
 _atom_site_occupancy
  Ca  Ca0  1  0.00000000  0.00000000  0.00000000  1
  Ca  Ca1  1  0.50000000  0.50000000  0.50000000  1
  V  V2  1  0.25000000  0.25000000  0.25000000  1
  V  V3  1  0.25000000  0.75000000  0.25000000  1
  V  V4  1  0.25000000  0.25000000  0.75000000  1
  V  V5  1  0.75000000  0.25000000  0.25000000  1
  V  V6  1  0.75000000  0.75000000  0.75000000  1
  V  V7  1  0.75000000  0.25000000  0.75000000  1
  V  V8  1  0.75000000  0.75000000  0.25000000  1
  V  V9  1  0.25000000  0.75000000  0.75000000  1
  Cu  Cu10  1  0.00000000  0.00000000  0.50000000  1
  Cu  Cu11  1  0.00000000  0.50000000  0.00000000  1
  Cu  Cu12  1  0.50000000  0.00000000  0.00000000  1
  Cu  Cu13  1  0.50000000  0.50000000  0.00000000  1
  Cu  Cu14  1  0.50000000  0.00000000  0.50000000  1
  Cu  Cu15  1  0.00000000  0.50000000  0.50000000  1
  O  O16  1  0.69775200  0.00000000  0.17961200  1
  O  O17  1  0.30224800  0.00000000  0.17961200  1
  O  O18  1  0.19775200  0.50000000  0.32038800  1
  O  O19  1  0.17961200  0.30224800  0.00000000  1
  O  O20  1  0.00000000  0.17961200  0.69775200  1
  O  O21  1  0.50000000  0.32038800  0.80224800  1
  O  O22  1  0.32038800  0.80224800  0.50000000  1
  O  O23  1  0.00000000  0.17961200  0.30224800  1
  O  O24  1  0.80224800  0.50000000  0.32038800  1
  O  O25  1  0.17961200  0.69775200  0.00000000  1
  O  O26  1  0.32038800  0.19775200  0.50000000  1
  O  O27  1  0.50000000  0.32038800  0.19775200  1
  O  O28  1  0.19775200  0.50000000  0.67961200  1
  O  O29  1  0.80224800  0.50000000  0.67961200  1
  O  O30  1  0.69775200  0.00000000  0.82038800  1
  O  O31  1  0.67961200  0.80224800  0.50000000  1
  O  O32  1  0.50000000  0.67961200  0.19775200  1
  O  O33  1  0.00000000  0.82038800  0.30224800  1
  O  O34  1  0.82038800  0.30224800  0.00000000  1
  O  O35  1  0.50000000  0.67961200  0.80224800  1
  O  O36  1  0.30224800  0.00000000  0.82038800  1
  O  O37  1  0.67961200  0.19775200  0.50000000  1
  O  O38  1  0.82038800  0.69775200  0.00000000  1
  O  O39  1  0.00000000  0.82038800  0.69775200  1
