# generated using pymatgen
data_Y2MoO6
_symmetry_space_group_name_H-M   'P 1'
_cell_length_a   16.56451200
_cell_length_b   11.17254000
_cell_length_c   5.42079556
_cell_angle_alpha   90.00000000
_cell_angle_beta   108.36252214
_cell_angle_gamma   90.00000000
_symmetry_Int_Tables_number   1
_chemical_formula_structural   Y2MoO6
_chemical_formula_sum   'Y16 Mo8 O48'
_cell_volume   952.13264725
_cell_formula_units_Z   8
loop_
 _symmetry_equiv_pos_site_id
 _symmetry_equiv_pos_as_xyz
  1  'x, y, z'
loop_
 _atom_site_type_symbol
 _atom_site_label
 _atom_site_symmetry_multiplicity
 _atom_site_fract_x
 _atom_site_fract_y
 _atom_site_fract_z
 _atom_site_occupancy
  Y  Y0  1  0.50000000  0.89330800  0.75000000  1
  Y  Y1  1  0.50000000  0.10669200  0.25000000  1
  Y  Y2  1  0.50000000  0.36371600  0.75000000  1
  Y  Y3  1  0.50000000  0.63628400  0.25000000  1
  Y  Y4  1  0.66799650  0.88427750  0.37802800  1
  Y  Y5  1  0.33200350  0.88427750  0.12197200  1
  Y  Y6  1  0.66799650  0.11572250  0.87802800  1
  Y  Y7  1  0.33200350  0.11572250  0.62197200  1
  Y  Y8  1  0.00000000  0.39330800  0.75000000  1
  Y  Y9  1  0.00000000  0.60669200  0.25000000  1
  Y  Y10  1  0.00000000  0.86371600  0.75000000  1
  Y  Y11  1  0.00000000  0.13628400  0.25000000  1
  Y  Y12  1  0.16799650  0.38427750  0.37802800  1
  Y  Y13  1  0.83200350  0.38427750  0.12197200  1
  Y  Y14  1  0.16799650  0.61572250  0.87802800  1
  Y  Y15  1  0.83200350  0.61572250  0.62197200  1
  Mo  Mo16  1  0.84609550  0.14143550  0.55897600  1
  Mo  Mo17  1  0.15390450  0.14143550  0.94102400  1
  Mo  Mo18  1  0.15390450  0.85856450  0.44102400  1
  Mo  Mo19  1  0.84609550  0.85856450  0.05897600  1
  Mo  Mo20  1  0.34609550  0.64143550  0.55897600  1
  Mo  Mo21  1  0.65390450  0.64143550  0.94102400  1
  Mo  Mo22  1  0.65390450  0.35856450  0.44102400  1
  Mo  Mo23  1  0.34609550  0.35856450  0.05897600  1
  O  O24  1  0.40850000  0.98138300  0.92193900  1
  O  O25  1  0.59150000  0.98138300  0.57806100  1
  O  O26  1  0.59150000  0.01861700  0.07806100  1
  O  O27  1  0.40850000  0.01861700  0.42193900  1
  O  O28  1  0.42803800  0.23518500  0.91698100  1
  O  O29  1  0.57196200  0.23518500  0.58301900  1
  O  O30  1  0.57196200  0.76481500  0.08301900  1
  O  O31  1  0.42803800  0.76481500  0.41698100  1
  O  O32  1  0.39414700  0.27941000  0.36794800  1
  O  O33  1  0.60585300  0.27941000  0.13205200  1
  O  O34  1  0.60585300  0.72059000  0.63205200  1
  O  O35  1  0.39414700  0.72059000  0.86794800  1
  O  O36  1  0.76397600  0.05276700  0.63453500  1
  O  O37  1  0.23602400  0.05276700  0.86546500  1
  O  O38  1  0.23602400  0.94723300  0.36546500  1
  O  O39  1  0.76397600  0.94723300  0.13453500  1
  O  O40  1  0.92062200  0.03087800  0.51397600  1
  O  O41  1  0.07937800  0.03087800  0.98602400  1
  O  O42  1  0.77224900  0.79654600  0.75424600  1
  O  O43  1  0.92062200  0.96912200  0.01397600  1
  O  O44  1  0.77224900  0.20345400  0.25424600  1
  O  O45  1  0.22775100  0.20345400  0.24575400  1
  O  O46  1  0.22775100  0.79654600  0.74575400  1
  O  O47  1  0.07937800  0.96912200  0.48602400  1
  O  O48  1  0.90850000  0.48138300  0.92193900  1
  O  O49  1  0.09150000  0.48138300  0.57806100  1
  O  O50  1  0.09150000  0.51861700  0.07806100  1
  O  O51  1  0.90850000  0.51861700  0.42193900  1
  O  O52  1  0.92803800  0.73518500  0.91698100  1
  O  O53  1  0.07196200  0.73518500  0.58301900  1
  O  O54  1  0.07196200  0.26481500  0.08301900  1
  O  O55  1  0.92803800  0.26481500  0.41698100  1
  O  O56  1  0.89414700  0.77941000  0.36794800  1
  O  O57  1  0.10585300  0.77941000  0.13205200  1
  O  O58  1  0.10585300  0.22059000  0.63205200  1
  O  O59  1  0.89414700  0.22059000  0.86794800  1
  O  O60  1  0.26397600  0.55276700  0.63453500  1
  O  O61  1  0.73602400  0.55276700  0.86546500  1
  O  O62  1  0.73602400  0.44723300  0.36546500  1
  O  O63  1  0.26397600  0.44723300  0.13453500  1
  O  O64  1  0.42062200  0.53087800  0.51397600  1
  O  O65  1  0.57937800  0.53087800  0.98602400  1
  O  O66  1  0.27224900  0.29654600  0.75424600  1
  O  O67  1  0.42062200  0.46912200  0.01397600  1
  O  O68  1  0.27224900  0.70345400  0.25424600  1
  O  O69  1  0.72775100  0.70345400  0.24575400  1
  O  O70  1  0.72775100  0.29654600  0.74575400  1
  O  O71  1  0.57937800  0.46912200  0.48602400  1
