# generated using pymatgen
data_Lu7Sb3
_symmetry_space_group_name_H-M   'P 1'
_cell_length_a   15.73252400
_cell_length_b   15.73252400
_cell_length_c   8.86741600
_cell_angle_alpha   90.00000000
_cell_angle_beta   90.00000000
_cell_angle_gamma   90.00000000
_symmetry_Int_Tables_number   1
_chemical_formula_structural   Lu7Sb3
_chemical_formula_sum   'Lu56 Sb24'
_cell_volume   2194.79463040
_cell_formula_units_Z   8
loop_
 _symmetry_equiv_pos_site_id
 _symmetry_equiv_pos_as_xyz
  1  'x, y, z'
loop_
 _atom_site_type_symbol
 _atom_site_label
 _atom_site_symmetry_multiplicity
 _atom_site_fract_x
 _atom_site_fract_y
 _atom_site_fract_z
 _atom_site_occupancy
  Lu  Lu0  1  0.33524050  0.83524050  0.30593250  1
  Lu  Lu1  1  0.00000000  0.00000000  0.75000000  1
  Lu  Lu2  1  0.48262050  0.83576250  0.00000000  1
  Lu  Lu3  1  0.12341350  0.88337750  0.50000000  1
  Lu  Lu4  1  0.33524050  0.83524050  0.69406750  1
  Lu  Lu5  1  0.12341350  0.11662250  0.00000000  1
  Lu  Lu6  1  0.33576250  0.01737950  0.50000000  1
  Lu  Lu7  1  0.48262050  0.16423750  0.50000000  1
  Lu  Lu8  1  0.66475950  0.83524050  0.80593250  1
  Lu  Lu9  1  0.38337750  0.62341350  0.50000000  1
  Lu  Lu10  1  0.66475950  0.83524050  0.19406750  1
  Lu  Lu11  1  0.61662250  0.37658650  0.50000000  1
  Lu  Lu12  1  0.51737950  0.16423750  0.00000000  1
  Lu  Lu13  1  0.61662250  0.62341350  0.00000000  1
  Lu  Lu14  1  0.33524050  0.16475950  0.80593250  1
  Lu  Lu15  1  0.33576250  0.98262050  0.00000000  1
  Lu  Lu16  1  0.66475950  0.16475950  0.30593250  1
  Lu  Lu17  1  0.33524050  0.16475950  0.19406750  1
  Lu  Lu18  1  0.87658650  0.11662250  0.50000000  1
  Lu  Lu19  1  0.00000000  0.00000000  0.25000000  1
  Lu  Lu20  1  0.51737950  0.83576250  0.50000000  1
  Lu  Lu21  1  0.87658650  0.88337750  0.00000000  1
  Lu  Lu22  1  0.66475950  0.16475950  0.69406750  1
  Lu  Lu23  1  0.66423750  0.98262050  0.50000000  1
  Lu  Lu24  1  0.50000000  0.00000000  0.75000000  1
  Lu  Lu25  1  0.38337750  0.37658650  0.00000000  1
  Lu  Lu26  1  0.66423750  0.01737950  0.00000000  1
  Lu  Lu27  1  0.50000000  0.00000000  0.25000000  1
  Lu  Lu28  1  0.83524050  0.33524050  0.80593250  1
  Lu  Lu29  1  0.50000000  0.50000000  0.25000000  1
  Lu  Lu30  1  0.98262050  0.33576250  0.50000000  1
  Lu  Lu31  1  0.62341350  0.38337750  0.00000000  1
  Lu  Lu32  1  0.83524050  0.33524050  0.19406750  1
  Lu  Lu33  1  0.62341350  0.61662250  0.50000000  1
  Lu  Lu34  1  0.83576250  0.51737950  0.00000000  1
  Lu  Lu35  1  0.98262050  0.66423750  0.00000000  1
  Lu  Lu36  1  0.16475950  0.33524050  0.30593250  1
  Lu  Lu37  1  0.88337750  0.12341350  0.00000000  1
  Lu  Lu38  1  0.16475950  0.33524050  0.69406750  1
  Lu  Lu39  1  0.11662250  0.87658650  0.00000000  1
  Lu  Lu40  1  0.01737950  0.66423750  0.50000000  1
  Lu  Lu41  1  0.11662250  0.12341350  0.50000000  1
  Lu  Lu42  1  0.83524050  0.66475950  0.30593250  1
  Lu  Lu43  1  0.83576250  0.48262050  0.50000000  1
  Lu  Lu44  1  0.16475950  0.66475950  0.80593250  1
  Lu  Lu45  1  0.83524050  0.66475950  0.69406750  1
  Lu  Lu46  1  0.37658650  0.61662250  0.00000000  1
  Lu  Lu47  1  0.50000000  0.50000000  0.75000000  1
  Lu  Lu48  1  0.01737950  0.33576250  0.00000000  1
  Lu  Lu49  1  0.37658650  0.38337750  0.50000000  1
  Lu  Lu50  1  0.16475950  0.66475950  0.19406750  1
  Lu  Lu51  1  0.16423750  0.48262050  0.00000000  1
  Lu  Lu52  1  0.00000000  0.50000000  0.25000000  1
  Lu  Lu53  1  0.88337750  0.87658650  0.50000000  1
  Lu  Lu54  1  0.16423750  0.51737950  0.50000000  1
  Lu  Lu55  1  0.00000000  0.50000000  0.75000000  1
  Sb  Sb56  1  0.80285000  0.00000000  0.75000000  1
  Sb  Sb57  1  0.71968100  0.78031900  0.50000000  1
  Sb  Sb58  1  0.19715000  0.00000000  0.25000000  1
  Sb  Sb59  1  0.28031900  0.21968100  0.50000000  1
  Sb  Sb60  1  0.71968100  0.21968100  0.00000000  1
  Sb  Sb61  1  0.50000000  0.69715000  0.25000000  1
  Sb  Sb62  1  0.28031900  0.78031900  0.00000000  1
  Sb  Sb63  1  0.50000000  0.69715000  0.75000000  1
  Sb  Sb64  1  0.80285000  0.00000000  0.25000000  1
  Sb  Sb65  1  0.50000000  0.30285000  0.25000000  1
  Sb  Sb66  1  0.19715000  0.00000000  0.75000000  1
  Sb  Sb67  1  0.50000000  0.30285000  0.75000000  1
  Sb  Sb68  1  0.30285000  0.50000000  0.25000000  1
  Sb  Sb69  1  0.21968100  0.28031900  0.00000000  1
  Sb  Sb70  1  0.69715000  0.50000000  0.75000000  1
  Sb  Sb71  1  0.78031900  0.71968100  0.00000000  1
  Sb  Sb72  1  0.21968100  0.71968100  0.50000000  1
  Sb  Sb73  1  0.00000000  0.19715000  0.75000000  1
  Sb  Sb74  1  0.78031900  0.28031900  0.50000000  1
  Sb  Sb75  1  0.00000000  0.19715000  0.25000000  1
  Sb  Sb76  1  0.30285000  0.50000000  0.75000000  1
  Sb  Sb77  1  0.00000000  0.80285000  0.75000000  1
  Sb  Sb78  1  0.69715000  0.50000000  0.25000000  1
  Sb  Sb79  1  0.00000000  0.80285000  0.25000000  1
