# generated using pymatgen
data_SrCr2O4
_symmetry_space_group_name_H-M   'P 1'
_cell_length_a   5.18671500
_cell_length_b   6.03187800
_cell_length_c   11.74896200
_cell_angle_alpha   90.00000000
_cell_angle_beta   90.00000000
_cell_angle_gamma   90.00000000
_symmetry_Int_Tables_number   1
_chemical_formula_structural   SrCr2O4
_chemical_formula_sum   'Sr4 Cr8 O16'
_cell_volume   367.57370271
_cell_formula_units_Z   4
loop_
 _symmetry_equiv_pos_site_id
 _symmetry_equiv_pos_as_xyz
  1  'x, y, z'
loop_
 _atom_site_type_symbol
 _atom_site_label
 _atom_site_symmetry_multiplicity
 _atom_site_fract_x
 _atom_site_fract_y
 _atom_site_fract_z
 _atom_site_occupancy
  Sr  Sr0  1  0.35890150  0.00000000  0.50000000  1
  Sr  Sr1  1  0.64109850  0.50000000  0.00000000  1
  Sr  Sr2  1  0.04415250  0.00000000  0.00000000  1
  Sr  Sr3  1  0.95584750  0.50000000  0.50000000  1
  Cr  Cr4  1  0.00485550  0.50000000  0.75718500  1
  Cr  Cr5  1  0.99514450  0.00000000  0.74281500  1
  Cr  Cr6  1  0.50000000  0.25000000  0.25000000  1
  Cr  Cr7  1  0.50000000  0.75000000  0.25000000  1
  Cr  Cr8  1  0.00485550  0.50000000  0.24281500  1
  Cr  Cr9  1  0.99514450  0.00000000  0.25718500  1
  Cr  Cr10  1  0.50000000  0.75000000  0.75000000  1
  Cr  Cr11  1  0.50000000  0.25000000  0.75000000  1
  O  O12  1  0.33847450  0.50000000  0.15782700  1
  O  O13  1  0.33847450  0.50000000  0.84217300  1
  O  O14  1  0.66152550  0.00000000  0.34217300  1
  O  O15  1  0.66152550  0.00000000  0.65782700  1
  O  O16  1  0.67243550  0.50000000  0.33516400  1
  O  O17  1  0.67243550  0.50000000  0.66483600  1
  O  O18  1  0.32756450  0.00000000  0.16483600  1
  O  O19  1  0.32756450  0.00000000  0.83516400  1
  O  O20  1  0.16364450  0.25285700  0.34477300  1
  O  O21  1  0.16364450  0.74714300  0.65522700  1
  O  O22  1  0.83635550  0.75285700  0.15522700  1
  O  O23  1  0.83635550  0.24714300  0.84477300  1
  O  O24  1  0.83635550  0.24714300  0.15522700  1
  O  O25  1  0.83635550  0.75285700  0.84477300  1
  O  O26  1  0.16364450  0.74714300  0.34477300  1
  O  O27  1  0.16364450  0.25285700  0.65522700  1
