# generated using pymatgen
data_Cr2PBrO4
_symmetry_space_group_name_H-M   'P 1'
_cell_length_a   6.33709951
_cell_length_b   11.86156600
_cell_length_c   6.50969380
_cell_angle_alpha   90.00000000
_cell_angle_beta   90.60485442
_cell_angle_gamma   90.00000000
_symmetry_Int_Tables_number   1
_chemical_formula_structural   Cr2PBrO4
_chemical_formula_sum   'Cr8 P4 Br4 O16'
_cell_volume   489.29290402
_cell_formula_units_Z   4
loop_
 _symmetry_equiv_pos_site_id
 _symmetry_equiv_pos_as_xyz
  1  'x, y, z'
loop_
 _atom_site_type_symbol
 _atom_site_label
 _atom_site_symmetry_multiplicity
 _atom_site_fract_x
 _atom_site_fract_y
 _atom_site_fract_z
 _atom_site_occupancy
  Cr  Cr0  1  0.00574100  0.11334300  0.64240600  1
  Cr  Cr1  1  0.50574100  0.38665700  0.64240600  1
  Cr  Cr2  1  0.84786800  0.60511300  0.96780400  1
  Cr  Cr3  1  0.34786800  0.89488700  0.96780400  1
  Cr  Cr4  1  0.99425900  0.88665700  0.35759400  1
  Cr  Cr5  1  0.49425900  0.61334300  0.35759400  1
  Cr  Cr6  1  0.65213200  0.10511300  0.03219600  1
  Cr  Cr7  1  0.15213200  0.39488700  0.03219600  1
  P  P8  1  0.86571100  0.87291700  0.85744500  1
  P  P9  1  0.63428900  0.37291700  0.14255500  1
  P  P10  1  0.36571100  0.62708300  0.85744500  1
  P  P11  1  0.13428900  0.12708300  0.14255500  1
  Br  Br12  1  0.01011300  0.33375600  0.62805200  1
  Br  Br13  1  0.51011300  0.16624400  0.62805200  1
  Br  Br14  1  0.48988700  0.83375600  0.37194800  1
  Br  Br15  1  0.98988700  0.66624400  0.37194800  1
  O  O16  1  0.68213300  0.25103900  0.19027500  1
  O  O17  1  0.18213300  0.24896100  0.19027500  1
  O  O18  1  0.81786700  0.75103900  0.80972500  1
  O  O19  1  0.31786700  0.74896100  0.80972500  1
  O  O20  1  0.83775300  0.43944800  0.08205600  1
  O  O21  1  0.16224700  0.56055200  0.91794400  1
  O  O22  1  0.33775300  0.06055200  0.08205600  1
  O  O23  1  0.66224700  0.93944800  0.91794400  1
  O  O24  1  0.46756900  0.56557000  0.66692400  1
  O  O25  1  0.53243100  0.43443000  0.33307600  1
  O  O26  1  0.03243100  0.06557000  0.33307600  1
  O  O27  1  0.96756900  0.93443000  0.66692400  1
  O  O28  1  0.52903300  0.61676500  0.04081000  1
  O  O29  1  0.02903300  0.88323500  0.04081000  1
  O  O30  1  0.47096700  0.38323500  0.95919000  1
  O  O31  1  0.97096700  0.11676500  0.95919000  1
