# generated using pymatgen
data_CoH12(BrO3)2
_symmetry_space_group_name_H-M   'P 1'
_cell_length_a   11.06848429
_cell_length_b   7.22047866
_cell_length_c   7.14500612
_cell_angle_alpha   90.00000000
_cell_angle_beta   125.79860472
_cell_angle_gamma   90.00000000
_symmetry_Int_Tables_number   1
_chemical_formula_structural   CoH12(BrO3)2
_chemical_formula_sum   'Co2 H24 Br4 O12'
_cell_volume   463.14758388
_cell_formula_units_Z   2
loop_
 _symmetry_equiv_pos_site_id
 _symmetry_equiv_pos_as_xyz
  1  'x, y, z'
loop_
 _atom_site_type_symbol
 _atom_site_label
 _atom_site_symmetry_multiplicity
 _atom_site_fract_x
 _atom_site_fract_y
 _atom_site_fract_z
 _atom_site_occupancy
  Co  Co0  1  0.00000000  0.00000000  0.00000000  1
  Co  Co1  1  0.50000000  0.50000000  0.00000000  1
  H  H2  1  0.23061850  0.50000000  0.17902100  1
  H  H3  1  0.26938150  0.00000000  0.82097900  1
  H  H4  1  0.30872663  0.50000000  0.44961500  1
  H  H5  1  0.19127337  0.00000000  0.55038500  1
  H  H6  1  0.38977812  0.19452012  0.73183800  1
  H  H7  1  0.11022188  0.69452012  0.26816200  1
  H  H8  1  0.11022188  0.30547988  0.26816200  1
  H  H9  1  0.38977812  0.80547988  0.73183800  1
  H  H10  1  0.54570525  0.23838575  0.78077500  1
  H  H11  1  0.45429475  0.23838575  0.21922500  1
  H  H12  1  0.95429475  0.26161425  0.21922500  1
  H  H13  1  0.04570525  0.26161425  0.78077500  1
  H  H14  1  0.73061850  0.00000000  0.17902100  1
  H  H15  1  0.76938150  0.50000000  0.82097900  1
  H  H16  1  0.80872663  0.00000000  0.44961500  1
  H  H17  1  0.69127337  0.50000000  0.55038500  1
  H  H18  1  0.88977812  0.69452012  0.73183800  1
  H  H19  1  0.61022188  0.19452012  0.26816200  1
  H  H20  1  0.61022188  0.80547988  0.26816200  1
  H  H21  1  0.88977812  0.30547988  0.73183800  1
  H  H22  1  0.04570525  0.73838575  0.78077500  1
  H  H23  1  0.95429475  0.73838575  0.21922500  1
  H  H24  1  0.45429475  0.76161425  0.21922500  1
  H  H25  1  0.54570525  0.76161425  0.78077500  1
  Br  Br26  1  0.71639988  0.00000000  0.84279500  1
  Br  Br27  1  0.78360012  0.50000000  0.15720500  1
  Br  Br28  1  0.21639988  0.50000000  0.84279500  1
  Br  Br29  1  0.28360012  0.00000000  0.15720500  1
  O  O30  1  0.21145900  0.50000000  0.29856400  1
  O  O31  1  0.28854100  0.00000000  0.70143600  1
  O  O32  1  0.45722575  0.29861000  0.75586500  1
  O  O33  1  0.54277425  0.29861000  0.24413500  1
  O  O34  1  0.04277425  0.20139000  0.24413500  1
  O  O35  1  0.95722575  0.20139000  0.75586500  1
  O  O36  1  0.71145900  0.00000000  0.29856400  1
  O  O37  1  0.78854100  0.50000000  0.70143600  1
  O  O38  1  0.95722575  0.79861000  0.75586500  1
  O  O39  1  0.04277425  0.79861000  0.24413500  1
  O  O40  1  0.54277425  0.70139000  0.24413500  1
  O  O41  1  0.45722575  0.70139000  0.75586500  1
