# generated using pymatgen
data_Zr3V3C
_symmetry_space_group_name_H-M   'P 1'
_cell_length_a   12.25256800
_cell_length_b   12.25256800
_cell_length_c   12.25256800
_cell_angle_alpha   90.00000000
_cell_angle_beta   90.00000000
_cell_angle_gamma   90.00000000
_symmetry_Int_Tables_number   1
_chemical_formula_structural   Zr3V3C
_chemical_formula_sum   'Zr48 V48 C16'
_cell_volume   1839.42194887
_cell_formula_units_Z   16
loop_
 _symmetry_equiv_pos_site_id
 _symmetry_equiv_pos_as_xyz
  1  'x, y, z'
loop_
 _atom_site_type_symbol
 _atom_site_label
 _atom_site_symmetry_multiplicity
 _atom_site_fract_x
 _atom_site_fract_y
 _atom_site_fract_z
 _atom_site_occupancy
  Zr  Zr0  1  0.50000000  0.69103000  0.50000000  1
  Zr  Zr1  1  0.05897000  0.75000000  0.25000000  1
  Zr  Zr2  1  0.44103000  0.75000000  0.25000000  1
  Zr  Zr3  1  0.25000000  0.94103000  0.25000000  1
  Zr  Zr4  1  0.25000000  0.75000000  0.05897000  1
  Zr  Zr5  1  0.25000000  0.75000000  0.44103000  1
  Zr  Zr6  1  0.50000000  0.00000000  0.19103000  1
  Zr  Zr7  1  0.19103000  0.00000000  0.50000000  1
  Zr  Zr8  1  0.80897000  0.00000000  0.50000000  1
  Zr  Zr9  1  0.00000000  0.00000000  0.30897000  1
  Zr  Zr10  1  0.25000000  0.55897000  0.25000000  1
  Zr  Zr11  1  0.50000000  0.30897000  0.50000000  1
  Zr  Zr12  1  0.50000000  0.19103000  0.00000000  1
  Zr  Zr13  1  0.05897000  0.25000000  0.75000000  1
  Zr  Zr14  1  0.44103000  0.25000000  0.75000000  1
  Zr  Zr15  1  0.25000000  0.44103000  0.75000000  1
  Zr  Zr16  1  0.25000000  0.25000000  0.55897000  1
  Zr  Zr17  1  0.25000000  0.25000000  0.94103000  1
  Zr  Zr18  1  0.50000000  0.50000000  0.69103000  1
  Zr  Zr19  1  0.19103000  0.50000000  0.00000000  1
  Zr  Zr20  1  0.80897000  0.50000000  0.00000000  1
  Zr  Zr21  1  0.00000000  0.50000000  0.80897000  1
  Zr  Zr22  1  0.25000000  0.05897000  0.75000000  1
  Zr  Zr23  1  0.50000000  0.80897000  0.00000000  1
  Zr  Zr24  1  0.00000000  0.69103000  0.00000000  1
  Zr  Zr25  1  0.55897000  0.75000000  0.75000000  1
  Zr  Zr26  1  0.94103000  0.75000000  0.75000000  1
  Zr  Zr27  1  0.75000000  0.94103000  0.75000000  1
  Zr  Zr28  1  0.75000000  0.75000000  0.55897000  1
  Zr  Zr29  1  0.75000000  0.75000000  0.94103000  1
  Zr  Zr30  1  0.00000000  0.00000000  0.69103000  1
  Zr  Zr31  1  0.69103000  0.00000000  0.00000000  1
  Zr  Zr32  1  0.30897000  0.00000000  0.00000000  1
  Zr  Zr33  1  0.50000000  0.00000000  0.80897000  1
  Zr  Zr34  1  0.75000000  0.55897000  0.75000000  1
  Zr  Zr35  1  0.00000000  0.30897000  0.00000000  1
  Zr  Zr36  1  0.00000000  0.19103000  0.50000000  1
  Zr  Zr37  1  0.55897000  0.25000000  0.25000000  1
  Zr  Zr38  1  0.94103000  0.25000000  0.25000000  1
  Zr  Zr39  1  0.75000000  0.44103000  0.25000000  1
  Zr  Zr40  1  0.75000000  0.25000000  0.05897000  1
  Zr  Zr41  1  0.75000000  0.25000000  0.44103000  1
  Zr  Zr42  1  0.00000000  0.50000000  0.19103000  1
  Zr  Zr43  1  0.69103000  0.50000000  0.50000000  1
  Zr  Zr44  1  0.30897000  0.50000000  0.50000000  1
  Zr  Zr45  1  0.50000000  0.50000000  0.30897000  1
  Zr  Zr46  1  0.75000000  0.05897000  0.25000000  1
  Zr  Zr47  1  0.00000000  0.80897000  0.50000000  1
  V  V48  1  0.12500000  0.12500000  0.12500000  1
  V  V49  1  0.62500000  0.87500000  0.37500000  1
  V  V50  1  0.37500000  0.12500000  0.37500000  1
  V  V51  1  0.87500000  0.87500000  0.12500000  1
  V  V52  1  0.32614100  0.32614100  0.32614100  1
  V  V53  1  0.92385900  0.07614100  0.07614100  1
  V  V54  1  0.07614100  0.92385900  0.07614100  1
  V  V55  1  0.57614100  0.07614100  0.42385900  1
  V  V56  1  0.17385900  0.32614100  0.17385900  1
  V  V57  1  0.17385900  0.17385900  0.32614100  1
  V  V58  1  0.32614100  0.17385900  0.17385900  1
  V  V59  1  0.42385900  0.92385900  0.42385900  1
  V  V60  1  0.12500000  0.62500000  0.62500000  1
  V  V61  1  0.62500000  0.37500000  0.87500000  1
  V  V62  1  0.37500000  0.62500000  0.87500000  1
  V  V63  1  0.87500000  0.37500000  0.62500000  1
  V  V64  1  0.32614100  0.82614100  0.82614100  1
  V  V65  1  0.92385900  0.57614100  0.57614100  1
  V  V66  1  0.07614100  0.42385900  0.57614100  1
  V  V67  1  0.57614100  0.57614100  0.92385900  1
  V  V68  1  0.17385900  0.82614100  0.67385900  1
  V  V69  1  0.17385900  0.67385900  0.82614100  1
  V  V70  1  0.32614100  0.67385900  0.67385900  1
  V  V71  1  0.42385900  0.42385900  0.92385900  1
  V  V72  1  0.62500000  0.12500000  0.62500000  1
  V  V73  1  0.12500000  0.87500000  0.87500000  1
  V  V74  1  0.87500000  0.12500000  0.87500000  1
  V  V75  1  0.37500000  0.87500000  0.62500000  1
  V  V76  1  0.82614100  0.32614100  0.82614100  1
  V  V77  1  0.42385900  0.07614100  0.57614100  1
  V  V78  1  0.57614100  0.92385900  0.57614100  1
  V  V79  1  0.07614100  0.07614100  0.92385900  1
  V  V80  1  0.67385900  0.32614100  0.67385900  1
  V  V81  1  0.67385900  0.17385900  0.82614100  1
  V  V82  1  0.82614100  0.17385900  0.67385900  1
  V  V83  1  0.92385900  0.92385900  0.92385900  1
  V  V84  1  0.62500000  0.62500000  0.12500000  1
  V  V85  1  0.12500000  0.37500000  0.37500000  1
  V  V86  1  0.87500000  0.62500000  0.37500000  1
  V  V87  1  0.37500000  0.37500000  0.12500000  1
  V  V88  1  0.82614100  0.82614100  0.32614100  1
  V  V89  1  0.42385900  0.57614100  0.07614100  1
  V  V90  1  0.57614100  0.42385900  0.07614100  1
  V  V91  1  0.07614100  0.57614100  0.42385900  1
  V  V92  1  0.67385900  0.82614100  0.17385900  1
  V  V93  1  0.67385900  0.67385900  0.32614100  1
  V  V94  1  0.82614100  0.67385900  0.17385900  1
  V  V95  1  0.92385900  0.42385900  0.42385900  1
  C  C96  1  0.12500000  0.62500000  0.12500000  1
  C  C97  1  0.12500000  0.87500000  0.37500000  1
  C  C98  1  0.37500000  0.62500000  0.37500000  1
  C  C99  1  0.37500000  0.87500000  0.12500000  1
  C  C100  1  0.12500000  0.12500000  0.62500000  1
  C  C101  1  0.12500000  0.37500000  0.87500000  1
  C  C102  1  0.37500000  0.12500000  0.87500000  1
  C  C103  1  0.37500000  0.37500000  0.62500000  1
  C  C104  1  0.62500000  0.62500000  0.62500000  1
  C  C105  1  0.62500000  0.87500000  0.87500000  1
  C  C106  1  0.87500000  0.62500000  0.87500000  1
  C  C107  1  0.87500000  0.87500000  0.62500000  1
  C  C108  1  0.62500000  0.12500000  0.12500000  1
  C  C109  1  0.62500000  0.37500000  0.37500000  1
  C  C110  1  0.87500000  0.12500000  0.37500000  1
  C  C111  1  0.87500000  0.37500000  0.12500000  1
