# generated using pymatgen
data_Mn(PO3)2
_symmetry_space_group_name_H-M   'P 1'
_cell_length_a   12.25301800
_cell_length_b   8.58615600
_cell_length_c   10.32427399
_cell_angle_alpha   90.00000000
_cell_angle_beta   119.19352324
_cell_angle_gamma   90.00000000
_symmetry_Int_Tables_number   1
_chemical_formula_structural   Mn(PO3)2
_chemical_formula_sum   'Mn8 P16 O48'
_cell_volume   948.20944867
_cell_formula_units_Z   8
loop_
 _symmetry_equiv_pos_site_id
 _symmetry_equiv_pos_as_xyz
  1  'x, y, z'
loop_
 _atom_site_type_symbol
 _atom_site_label
 _atom_site_symmetry_multiplicity
 _atom_site_fract_x
 _atom_site_fract_y
 _atom_site_fract_z
 _atom_site_occupancy
  Mn  Mn0  1  0.25000000  0.25000000  0.50000000  1
  Mn  Mn1  1  0.25000000  0.75000000  0.00000000  1
  Mn  Mn2  1  0.00000000  0.45750000  0.25000000  1
  Mn  Mn3  1  0.50000000  0.04250000  0.75000000  1
  Mn  Mn4  1  0.75000000  0.75000000  0.50000000  1
  Mn  Mn5  1  0.75000000  0.25000000  0.00000000  1
  Mn  Mn6  1  0.50000000  0.95750000  0.25000000  1
  Mn  Mn7  1  0.00000000  0.54250000  0.75000000  1
  P  P8  1  0.30717150  0.50593950  0.30634900  1
  P  P9  1  0.69282850  0.50593950  0.19365100  1
  P  P10  1  0.19282850  0.99406050  0.69365100  1
  P  P11  1  0.80717150  0.99406050  0.80634900  1
  P  P12  1  0.49139550  0.73316050  0.52292000  1
  P  P13  1  0.50860450  0.73316050  0.97708000  1
  P  P14  1  0.00860450  0.76683950  0.47708000  1
  P  P15  1  0.99139550  0.76683950  0.02292000  1
  P  P16  1  0.80717150  0.00593950  0.30634900  1
  P  P17  1  0.19282850  0.00593950  0.19365100  1
  P  P18  1  0.69282850  0.49406050  0.69365100  1
  P  P19  1  0.30717150  0.49406050  0.80634900  1
  P  P20  1  0.99139550  0.23316050  0.52292000  1
  P  P21  1  0.00860450  0.23316050  0.97708000  1
  P  P22  1  0.50860450  0.26683950  0.47708000  1
  P  P23  1  0.49139550  0.26683950  0.02292000  1
  O  O24  1  0.91842650  0.88327450  0.34431900  1
  O  O25  1  0.08157350  0.88327450  0.15568100  1
  O  O26  1  0.58157350  0.61672550  0.65568100  1
  O  O27  1  0.41842650  0.61672550  0.84431900  1
  O  O28  1  0.36572800  0.63087500  0.43994800  1
  O  O29  1  0.63427200  0.63087500  0.06005200  1
  O  O30  1  0.13427200  0.86912500  0.56005200  1
  O  O31  1  0.86572800  0.86912500  0.93994800  1
  O  O32  1  0.27367100  0.57821000  0.16136100  1
  O  O33  1  0.22632900  0.07821000  0.33863900  1
  O  O34  1  0.22632900  0.92179000  0.83863900  1
  O  O35  1  0.27367100  0.42179000  0.66136100  1
  O  O36  1  0.20504300  0.42441100  0.32389700  1
  O  O37  1  0.79495700  0.42441100  0.17610300  1
  O  O38  1  0.29495700  0.07558900  0.67610300  1
  O  O39  1  0.70504300  0.07558900  0.82389700  1
  O  O40  1  0.54594900  0.75912300  0.42008500  1
  O  O41  1  0.95405100  0.25912300  0.07991500  1
  O  O42  1  0.95405100  0.74087700  0.57991500  1
  O  O43  1  0.54594900  0.24087700  0.92008500  1
  O  O44  1  0.03733800  0.63033600  0.41117600  1
  O  O45  1  0.96266200  0.63033600  0.08882400  1
  O  O46  1  0.46266200  0.86966400  0.58882400  1
  O  O47  1  0.53733800  0.86966400  0.91117600  1
  O  O48  1  0.41842650  0.38327450  0.34431900  1
  O  O49  1  0.58157350  0.38327450  0.15568100  1
  O  O50  1  0.08157350  0.11672550  0.65568100  1
  O  O51  1  0.91842650  0.11672550  0.84431900  1
  O  O52  1  0.86572800  0.13087500  0.43994800  1
  O  O53  1  0.13427200  0.13087500  0.06005200  1
  O  O54  1  0.63427200  0.36912500  0.56005200  1
  O  O55  1  0.36572800  0.36912500  0.93994800  1
  O  O56  1  0.77367100  0.07821000  0.16136100  1
  O  O57  1  0.72632900  0.57821000  0.33863900  1
  O  O58  1  0.72632900  0.42179000  0.83863900  1
  O  O59  1  0.77367100  0.92179000  0.66136100  1
  O  O60  1  0.70504300  0.92441100  0.32389700  1
  O  O61  1  0.29495700  0.92441100  0.17610300  1
  O  O62  1  0.79495700  0.57558900  0.67610300  1
  O  O63  1  0.20504300  0.57558900  0.82389700  1
  O  O64  1  0.04594900  0.25912300  0.42008500  1
  O  O65  1  0.45405100  0.75912300  0.07991500  1
  O  O66  1  0.45405100  0.24087700  0.57991500  1
  O  O67  1  0.04594900  0.74087700  0.92008500  1
  O  O68  1  0.53733800  0.13033600  0.41117600  1
  O  O69  1  0.46266200  0.13033600  0.08882400  1
  O  O70  1  0.96266200  0.36966400  0.58882400  1
  O  O71  1  0.03733800  0.36966400  0.91117600  1
