# generated using pymatgen
data_Ta4Te16Pd3
_symmetry_space_group_name_H-M   'P 1'
_cell_length_a   21.89709600
_cell_length_b   3.78856400
_cell_length_c   18.10775865
_cell_angle_alpha   90.00000000
_cell_angle_beta   119.11017737
_cell_angle_gamma   90.00000000
_symmetry_Int_Tables_number   1
_chemical_formula_structural   Ta4Te16Pd3
_chemical_formula_sum   'Ta8 Te32 Pd6'
_cell_volume   1312.44507044
_cell_formula_units_Z   2
loop_
 _symmetry_equiv_pos_site_id
 _symmetry_equiv_pos_as_xyz
  1  'x, y, z'
loop_
 _atom_site_type_symbol
 _atom_site_label
 _atom_site_symmetry_multiplicity
 _atom_site_fract_x
 _atom_site_fract_y
 _atom_site_fract_z
 _atom_site_occupancy
  Ta  Ta0  1  0.08278100  0.00000000  0.84892100  1
  Ta  Ta1  1  0.91721900  0.00000000  0.15107900  1
  Ta  Ta2  1  0.20816300  0.00000000  0.58293700  1
  Ta  Ta3  1  0.79183700  0.00000000  0.41706300  1
  Ta  Ta4  1  0.58278100  0.50000000  0.84892100  1
  Ta  Ta5  1  0.41721900  0.50000000  0.15107900  1
  Ta  Ta6  1  0.70816300  0.50000000  0.58293700  1
  Ta  Ta7  1  0.29183700  0.50000000  0.41706300  1
  Te  Te8  1  0.12102800  0.50000000  0.98171200  1
  Te  Te9  1  0.87897200  0.50000000  0.01828800  1
  Te  Te10  1  0.96153700  0.00000000  0.87881800  1
  Te  Te11  1  0.03846300  0.00000000  0.12118200  1
  Te  Te12  1  0.98245100  0.50000000  0.73477800  1
  Te  Te13  1  0.01754900  0.50000000  0.26522200  1
  Te  Te14  1  0.07715200  0.00000000  0.68452500  1
  Te  Te15  1  0.92284800  0.00000000  0.31547500  1
  Te  Te16  1  0.18624800  0.50000000  0.86500200  1
  Te  Te17  1  0.81375200  0.50000000  0.13499800  1
  Te  Te18  1  0.27466500  0.00000000  0.75188500  1
  Te  Te19  1  0.72533500  0.00000000  0.24811500  1
  Te  Te20  1  0.10148400  0.50000000  0.51787500  1
  Te  Te21  1  0.89851600  0.50000000  0.48212500  1
  Te  Te22  1  0.19243400  0.00000000  0.41162000  1
  Te  Te23  1  0.80756600  0.00000000  0.58838000  1
  Te  Te24  1  0.62102800  0.00000000  0.98171200  1
  Te  Te25  1  0.37897200  0.00000000  0.01828800  1
  Te  Te26  1  0.46153700  0.50000000  0.87881800  1
  Te  Te27  1  0.53846300  0.50000000  0.12118200  1
  Te  Te28  1  0.48245100  0.00000000  0.73477800  1
  Te  Te29  1  0.51754900  0.00000000  0.26522200  1
  Te  Te30  1  0.57715200  0.50000000  0.68452500  1
  Te  Te31  1  0.42284800  0.50000000  0.31547500  1
  Te  Te32  1  0.68624800  0.00000000  0.86500200  1
  Te  Te33  1  0.31375200  0.00000000  0.13499800  1
  Te  Te34  1  0.77466500  0.50000000  0.75188500  1
  Te  Te35  1  0.22533500  0.50000000  0.24811500  1
  Te  Te36  1  0.60148400  0.00000000  0.51787500  1
  Te  Te37  1  0.39851600  0.00000000  0.48212500  1
  Te  Te38  1  0.69243400  0.50000000  0.41162000  1
  Te  Te39  1  0.30756600  0.50000000  0.58838000  1
  Pd  Pd40  1  0.00000000  0.50000000  0.00000000  1
  Pd  Pd41  1  0.17096900  0.50000000  0.69242500  1
  Pd  Pd42  1  0.82903100  0.50000000  0.30757500  1
  Pd  Pd43  1  0.50000000  0.00000000  0.00000000  1
  Pd  Pd44  1  0.67096900  0.00000000  0.69242500  1
  Pd  Pd45  1  0.32903100  0.00000000  0.30757500  1
