# generated using pymatgen
data_Ba2MnO3
_symmetry_space_group_name_H-M   'P 1'
_cell_length_a   6.05853200
_cell_length_b   11.71507200
_cell_length_c   12.82793135
_cell_angle_alpha   90.00000000
_cell_angle_beta   93.42349029
_cell_angle_gamma   90.00000000
_symmetry_Int_Tables_number   1
_chemical_formula_structural   Ba2MnO3
_chemical_formula_sum   'Ba16 Mn8 O24'
_cell_volume   908.85222277
_cell_formula_units_Z   8
loop_
 _symmetry_equiv_pos_site_id
 _symmetry_equiv_pos_as_xyz
  1  'x, y, z'
loop_
 _atom_site_type_symbol
 _atom_site_label
 _atom_site_symmetry_multiplicity
 _atom_site_fract_x
 _atom_site_fract_y
 _atom_site_fract_z
 _atom_site_occupancy
  Ba  Ba0  1  0.76512950  0.89451650  0.07538700  1
  Ba  Ba1  1  0.23487050  0.89451650  0.42461300  1
  Ba  Ba2  1  0.73487050  0.60548350  0.92461300  1
  Ba  Ba3  1  0.26512950  0.60548350  0.57538700  1
  Ba  Ba4  1  0.76468800  0.79421100  0.65027300  1
  Ba  Ba5  1  0.26468800  0.70578900  0.15027300  1
  Ba  Ba6  1  0.23531200  0.79421100  0.84972700  1
  Ba  Ba7  1  0.73531200  0.70578900  0.34972700  1
  Ba  Ba8  1  0.26512950  0.39451650  0.07538700  1
  Ba  Ba9  1  0.73487050  0.39451650  0.42461300  1
  Ba  Ba10  1  0.23487050  0.10548350  0.92461300  1
  Ba  Ba11  1  0.76512950  0.10548350  0.57538700  1
  Ba  Ba12  1  0.26468800  0.29421100  0.65027300  1
  Ba  Ba13  1  0.76468800  0.20578900  0.15027300  1
  Ba  Ba14  1  0.73531200  0.29421100  0.84972700  1
  Ba  Ba15  1  0.23531200  0.20578900  0.34972700  1
  Mn  Mn16  1  0.77410850  0.50356150  0.16350300  1
  Mn  Mn17  1  0.22589150  0.50356150  0.33649700  1
  Mn  Mn18  1  0.27410850  0.99643850  0.66350300  1
  Mn  Mn19  1  0.72589150  0.99643850  0.83649700  1
  Mn  Mn20  1  0.27410850  0.00356150  0.16350300  1
  Mn  Mn21  1  0.72589150  0.00356150  0.33649700  1
  Mn  Mn22  1  0.77410850  0.49643850  0.66350300  1
  Mn  Mn23  1  0.22589150  0.49643850  0.83649700  1
  O  O24  1  0.17118500  0.67518600  0.36970900  1
  O  O25  1  0.67118500  0.82481400  0.86970900  1
  O  O26  1  0.00000000  0.99181800  0.75000000  1
  O  O27  1  0.50000000  0.50818200  0.25000000  1
  O  O28  1  0.21667200  0.90043200  0.03313900  1
  O  O29  1  0.71667200  0.59956800  0.53313900  1
  O  O30  1  0.50000000  0.89921400  0.25000000  1
  O  O31  1  0.78332800  0.90043200  0.46686100  1
  O  O32  1  0.32881500  0.82481400  0.63029100  1
  O  O33  1  0.82881500  0.67518600  0.13029100  1
  O  O34  1  0.28332800  0.59956800  0.96686100  1
  O  O35  1  0.00000000  0.60078600  0.75000000  1
  O  O36  1  0.67118500  0.17518600  0.36970900  1
  O  O37  1  0.17118500  0.32481400  0.86970900  1
  O  O38  1  0.50000000  0.49181800  0.75000000  1
  O  O39  1  0.00000000  0.00818200  0.25000000  1
  O  O40  1  0.71667200  0.40043200  0.03313900  1
  O  O41  1  0.21667200  0.09956800  0.53313900  1
  O  O42  1  0.00000000  0.39921400  0.25000000  1
  O  O43  1  0.28332800  0.40043200  0.46686100  1
  O  O44  1  0.82881500  0.32481400  0.63029100  1
  O  O45  1  0.32881500  0.17518600  0.13029100  1
  O  O46  1  0.78332800  0.09956800  0.96686100  1
  O  O47  1  0.50000000  0.10078600  0.75000000  1
