# generated using pymatgen
data_Sr7Nb6O21
_symmetry_space_group_name_H-M   'P 1'
_cell_length_a   5.74991002
_cell_length_b   5.74991002
_cell_length_c   49.20873356
_cell_angle_alpha   90.00000000
_cell_angle_beta   90.00000000
_cell_angle_gamma   120.00000000
_symmetry_Int_Tables_number   1
_chemical_formula_structural   Sr7Nb6O21
_chemical_formula_sum   'Sr21 Nb18 O63'
_cell_volume   1408.94784570
_cell_formula_units_Z   3
loop_
 _symmetry_equiv_pos_site_id
 _symmetry_equiv_pos_as_xyz
  1  'x, y, z'
loop_
 _atom_site_type_symbol
 _atom_site_label
 _atom_site_symmetry_multiplicity
 _atom_site_fract_x
 _atom_site_fract_y
 _atom_site_fract_z
 _atom_site_occupancy
  Sr  Sr0  1  0.00000000  0.00000000  0.15267200  1
  Sr  Sr1  1  0.00000000  0.00000000  0.23231700  1
  Sr  Sr2  1  0.66666667  0.33333333  0.10101633  1
  Sr  Sr3  1  0.66666667  0.33333333  0.18066133  1
  Sr  Sr4  1  0.33333333  0.66666667  0.28221167  1
  Sr  Sr5  1  0.33333333  0.66666667  0.05112167  1
  Sr  Sr6  1  0.00000000  0.00000000  0.00000000  1
  Sr  Sr7  1  0.66666667  0.33333333  0.48600533  1
  Sr  Sr8  1  0.66666667  0.33333333  0.56565033  1
  Sr  Sr9  1  0.33333333  0.66666667  0.43434967  1
  Sr  Sr10  1  0.33333333  0.66666667  0.51399467  1
  Sr  Sr11  1  0.00000000  0.00000000  0.61554500  1
  Sr  Sr12  1  0.00000000  0.00000000  0.38445500  1
  Sr  Sr13  1  0.66666667  0.33333333  0.33333333  1
  Sr  Sr14  1  0.33333333  0.66666667  0.81933867  1
  Sr  Sr15  1  0.33333333  0.66666667  0.89898367  1
  Sr  Sr16  1  0.00000000  0.00000000  0.76768300  1
  Sr  Sr17  1  0.00000000  0.00000000  0.84732800  1
  Sr  Sr18  1  0.66666667  0.33333333  0.94887833  1
  Sr  Sr19  1  0.66666667  0.33333333  0.71778833  1
  Sr  Sr20  1  0.33333333  0.66666667  0.66666667  1
  Nb  Nb21  1  0.00000000  0.00000000  0.07270700  1
  Nb  Nb22  1  0.33333333  0.66666667  0.20960267  1
  Nb  Nb23  1  0.66666667  0.33333333  0.02379033  1
  Nb  Nb24  1  0.66666667  0.33333333  0.26062633  1
  Nb  Nb25  1  0.00000000  0.00000000  0.30954300  1
  Nb  Nb26  1  0.33333333  0.66666667  0.12373067  1
  Nb  Nb27  1  0.66666667  0.33333333  0.40604033  1
  Nb  Nb28  1  0.00000000  0.00000000  0.54293600  1
  Nb  Nb29  1  0.33333333  0.66666667  0.35712367  1
  Nb  Nb30  1  0.33333333  0.66666667  0.59395967  1
  Nb  Nb31  1  0.66666667  0.33333333  0.64287633  1
  Nb  Nb32  1  0.00000000  0.00000000  0.45706400  1
  Nb  Nb33  1  0.33333333  0.66666667  0.73937367  1
  Nb  Nb34  1  0.66666667  0.33333333  0.87626933  1
  Nb  Nb35  1  0.00000000  0.00000000  0.69045700  1
  Nb  Nb36  1  0.00000000  0.00000000  0.92729300  1
  Nb  Nb37  1  0.33333333  0.66666667  0.97620967  1
  Nb  Nb38  1  0.66666667  0.33333333  0.79039733  1
  O  O39  1  0.54040933  0.99448467  0.23966567  1
  O  O40  1  0.23020567  0.89702133  0.19271433  1
  O  O41  1  0.66681567  0.76979433  0.19271433  1
  O  O42  1  0.86112467  0.67204833  0.04708933  1
  O  O43  1  0.10297867  0.33318433  0.19271433  1
  O  O44  1  0.12625733  0.33884867  0.09366767  1
  O  O45  1  0.21259133  0.87374267  0.09366767  1
  O  O46  1  0.00551533  0.54592467  0.23966567  1
  O  O47  1  0.85574300  0.19445800  0.28624400  1
  O  O48  1  0.43646100  0.43631200  0.14061900  1
  O  O49  1  0.00000000  0.50000000  0.00000000  1
  O  O50  1  0.32795167  0.18907633  0.04708933  1
  O  O51  1  0.99985100  0.56353900  0.14061900  1
  O  O52  1  0.80554200  0.66128500  0.28624400  1
  O  O53  1  0.45407533  0.45959067  0.23966567  1
  O  O54  1  0.56368800  0.00014900  0.14061900  1
  O  O55  1  0.81092367  0.13887533  0.04708933  1
  O  O56  1  0.33871500  0.14425700  0.28624400  1
  O  O57  1  0.66115133  0.78740867  0.09366767  1
  O  O58  1  0.50000000  0.50000000  0.00000000  1
  O  O59  1  0.50000000  0.00000000  0.00000000  1
  O  O60  1  0.20707600  0.32781800  0.57299900  1
  O  O61  1  0.89687233  0.23035467  0.52604767  1
  O  O62  1  0.33348233  0.10312767  0.52604767  1
  O  O63  1  0.52779133  0.00538167  0.38042267  1
  O  O64  1  0.76964533  0.66651767  0.52604767  1
  O  O65  1  0.79292400  0.67218200  0.42700100  1
  O  O66  1  0.87925800  0.20707600  0.42700100  1
  O  O67  1  0.67218200  0.87925800  0.57299900  1
  O  O68  1  0.52240967  0.52779133  0.61957733  1
  O  O69  1  0.10312767  0.76964533  0.47395233  1
  O  O70  1  0.66666667  0.83333333  0.33333333  1
  O  O71  1  0.99461833  0.52240967  0.38042267  1
  O  O72  1  0.66651767  0.89687233  0.47395233  1
  O  O73  1  0.47220867  0.99461833  0.61957733  1
  O  O74  1  0.12074200  0.79292400  0.57299900  1
  O  O75  1  0.23035467  0.33348233  0.47395233  1
  O  O76  1  0.47759033  0.47220867  0.38042267  1
  O  O77  1  0.00538167  0.47759033  0.61957733  1
  O  O78  1  0.32781800  0.12074200  0.42700100  1
  O  O79  1  0.16666667  0.83333333  0.33333333  1
  O  O80  1  0.16666667  0.33333333  0.33333333  1
  O  O81  1  0.87374267  0.66115133  0.90633233  1
  O  O82  1  0.56353900  0.56368800  0.85938100  1
  O  O83  1  0.00014900  0.43646100  0.85938100  1
  O  O84  1  0.19445800  0.33871500  0.71375600  1
  O  O85  1  0.43631200  0.99985100  0.85938100  1
  O  O86  1  0.45959067  0.00551533  0.76033433  1
  O  O87  1  0.54592467  0.54040933  0.76033433  1
  O  O88  1  0.33884867  0.21259133  0.90633233  1
  O  O89  1  0.18907633  0.86112467  0.95291067  1
  O  O90  1  0.76979433  0.10297867  0.80728567  1
  O  O91  1  0.33333333  0.16666667  0.66666667  1
  O  O92  1  0.66128500  0.85574300  0.71375600  1
  O  O93  1  0.33318433  0.23020567  0.80728567  1
  O  O94  1  0.13887533  0.32795167  0.95291067  1
  O  O95  1  0.78740867  0.12625733  0.90633233  1
  O  O96  1  0.89702133  0.66681567  0.80728567  1
  O  O97  1  0.14425700  0.80554200  0.71375600  1
  O  O98  1  0.67204833  0.81092367  0.95291067  1
  O  O99  1  0.99448467  0.45407533  0.76033433  1
  O  O100  1  0.83333333  0.16666667  0.66666667  1
  O  O101  1  0.83333333  0.66666667  0.66666667  1
