# generated using pymatgen
data_ThZn4
_symmetry_space_group_name_H-M   'P 1'
_cell_length_a   4.29703400
_cell_length_b   4.29703400
_cell_length_c   10.30094000
_cell_angle_alpha   90.00000000
_cell_angle_beta   90.00000000
_cell_angle_gamma   90.00000000
_symmetry_Int_Tables_number   1
_chemical_formula_structural   ThZn4
_chemical_formula_sum   'Th2 Zn8'
_cell_volume   190.20171896
_cell_formula_units_Z   2
loop_
 _symmetry_equiv_pos_site_id
 _symmetry_equiv_pos_as_xyz
  1  'x, y, z'
loop_
 _atom_site_type_symbol
 _atom_site_label
 _atom_site_symmetry_multiplicity
 _atom_site_fract_x
 _atom_site_fract_y
 _atom_site_fract_z
 _atom_site_occupancy
  Th  Th0  1  0.00000000  0.00000000  0.00000000  1
  Th  Th1  1  0.50000000  0.50000000  0.50000000  1
  Zn  Zn2  1  0.50000000  0.50000000  0.11794200  1
  Zn  Zn3  1  0.00000000  0.50000000  0.25000000  1
  Zn  Zn4  1  0.50000000  0.00000000  0.25000000  1
  Zn  Zn5  1  0.00000000  0.00000000  0.38205800  1
  Zn  Zn6  1  0.00000000  0.00000000  0.61794200  1
  Zn  Zn7  1  0.50000000  0.00000000  0.75000000  1
  Zn  Zn8  1  0.00000000  0.50000000  0.75000000  1
  Zn  Zn9  1  0.50000000  0.50000000  0.88205800  1
