# generated using pymatgen
data_Ba2Eu3Mn2(CuO6)2
_symmetry_space_group_name_H-M   'P 1'
_cell_length_a   3.90506600
_cell_length_b   3.90506600
_cell_length_c   36.15454800
_cell_angle_alpha   90.00000000
_cell_angle_beta   90.00000000
_cell_angle_gamma   90.00000000
_symmetry_Int_Tables_number   1
_chemical_formula_structural   Ba2Eu3Mn2(CuO6)2
_chemical_formula_sum   'Ba4 Eu6 Mn4 Cu4 O24'
_cell_volume   551.34024270
_cell_formula_units_Z   2
loop_
 _symmetry_equiv_pos_site_id
 _symmetry_equiv_pos_as_xyz
  1  'x, y, z'
loop_
 _atom_site_type_symbol
 _atom_site_label
 _atom_site_symmetry_multiplicity
 _atom_site_fract_x
 _atom_site_fract_y
 _atom_site_fract_z
 _atom_site_occupancy
  Ba  Ba0  1  0.50000000  0.50000000  0.10479700  1
  Ba  Ba1  1  0.00000000  0.00000000  0.39520300  1
  Ba  Ba2  1  0.00000000  0.00000000  0.60479700  1
  Ba  Ba3  1  0.50000000  0.50000000  0.89520300  1
  Eu  Eu4  1  0.50000000  0.50000000  0.00000000  1
  Eu  Eu5  1  0.50000000  0.50000000  0.21309400  1
  Eu  Eu6  1  0.00000000  0.00000000  0.28690600  1
  Eu  Eu7  1  0.00000000  0.00000000  0.50000000  1
  Eu  Eu8  1  0.00000000  0.00000000  0.71309400  1
  Eu  Eu9  1  0.50000000  0.50000000  0.78690600  1
  Mn  Mn10  1  0.00000000  0.00000000  0.16548700  1
  Mn  Mn11  1  0.50000000  0.50000000  0.33451300  1
  Mn  Mn12  1  0.50000000  0.50000000  0.66548700  1
  Mn  Mn13  1  0.00000000  0.00000000  0.83451300  1
  Cu  Cu14  1  0.50000000  0.50000000  0.45166100  1
  Cu  Cu15  1  0.00000000  0.00000000  0.04833900  1
  Cu  Cu16  1  0.00000000  0.00000000  0.95166100  1
  Cu  Cu17  1  0.50000000  0.50000000  0.54833900  1
  O  O18  1  0.50000000  0.00000000  0.32964000  1
  O  O19  1  0.00000000  0.00000000  0.22300900  1
  O  O20  1  0.00000000  0.50000000  0.04219400  1
  O  O21  1  0.50000000  0.50000000  0.38635600  1
  O  O22  1  0.50000000  0.00000000  0.17036000  1
  O  O23  1  0.00000000  0.50000000  0.32964000  1
  O  O24  1  0.00000000  0.50000000  0.45780600  1
  O  O25  1  0.50000000  0.00000000  0.04219400  1
  O  O26  1  0.50000000  0.50000000  0.27699100  1
  O  O27  1  0.50000000  0.00000000  0.45780600  1
  O  O28  1  0.00000000  0.00000000  0.11364400  1
  O  O29  1  0.00000000  0.50000000  0.17036000  1
  O  O30  1  0.00000000  0.50000000  0.82964000  1
  O  O31  1  0.50000000  0.50000000  0.72300900  1
  O  O32  1  0.50000000  0.00000000  0.54219400  1
  O  O33  1  0.00000000  0.00000000  0.88635600  1
  O  O34  1  0.00000000  0.50000000  0.67036000  1
  O  O35  1  0.50000000  0.00000000  0.82964000  1
  O  O36  1  0.50000000  0.00000000  0.95780600  1
  O  O37  1  0.00000000  0.50000000  0.54219400  1
  O  O38  1  0.00000000  0.00000000  0.77699100  1
  O  O39  1  0.00000000  0.50000000  0.95780600  1
  O  O40  1  0.50000000  0.50000000  0.61364400  1
  O  O41  1  0.50000000  0.00000000  0.67036000  1
