# generated using pymatgen
data_Ho4CdCo
_symmetry_space_group_name_H-M   'P 1'
_cell_length_a   13.37015400
_cell_length_b   13.37015400
_cell_length_c   13.37015400
_cell_angle_alpha   90.00000000
_cell_angle_beta   90.00000000
_cell_angle_gamma   90.00000000
_symmetry_Int_Tables_number   1
_chemical_formula_structural   Ho4CdCo
_chemical_formula_sum   'Ho64 Cd16 Co16'
_cell_volume   2390.06233964
_cell_formula_units_Z   16
loop_
 _symmetry_equiv_pos_site_id
 _symmetry_equiv_pos_as_xyz
  1  'x, y, z'
loop_
 _atom_site_type_symbol
 _atom_site_label
 _atom_site_symmetry_multiplicity
 _atom_site_fract_x
 _atom_site_fract_y
 _atom_site_fract_z
 _atom_site_occupancy
  Ho  Ho0  1  0.75000000  0.06175525  0.75000000  1
  Ho  Ho1  1  0.68831575  0.00000000  0.50000000  1
  Ho  Ho2  1  0.56175525  0.25000000  0.75000000  1
  Ho  Ho3  1  0.75000000  0.25000000  0.93824475  1
  Ho  Ho4  1  0.50000000  0.18831575  0.50000000  1
  Ho  Ho5  1  0.84635775  0.15364225  0.34635775  1
  Ho  Ho6  1  0.93824475  0.25000000  0.75000000  1
  Ho  Ho7  1  0.75000000  0.25000000  0.56175525  1
  Ho  Ho8  1  0.31168425  0.00000000  0.50000000  1
  Ho  Ho9  1  0.00000000  0.31168425  0.50000000  1
  Ho  Ho10  1  0.15364225  0.15364225  0.65364225  1
  Ho  Ho11  1  0.65364225  0.34635775  0.34635775  1
  Ho  Ho12  1  0.00000000  0.00000000  0.81168425  1
  Ho  Ho13  1  0.75000000  0.43824475  0.75000000  1
  Ho  Ho14  1  0.00000000  0.00000000  0.18831575  1
  Ho  Ho15  1  0.34635775  0.34635775  0.65364225  1
  Ho  Ho16  1  0.75000000  0.56175525  0.25000000  1
  Ho  Ho17  1  0.68831575  0.50000000  0.00000000  1
  Ho  Ho18  1  0.56175525  0.75000000  0.25000000  1
  Ho  Ho19  1  0.75000000  0.75000000  0.43824475  1
  Ho  Ho20  1  0.50000000  0.68831575  0.00000000  1
  Ho  Ho21  1  0.84635775  0.65364225  0.84635775  1
  Ho  Ho22  1  0.93824475  0.75000000  0.25000000  1
  Ho  Ho23  1  0.75000000  0.75000000  0.06175525  1
  Ho  Ho24  1  0.31168425  0.50000000  0.00000000  1
  Ho  Ho25  1  0.00000000  0.81168425  0.00000000  1
  Ho  Ho26  1  0.15364225  0.65364225  0.15364225  1
  Ho  Ho27  1  0.65364225  0.84635775  0.84635775  1
  Ho  Ho28  1  0.00000000  0.50000000  0.31168425  1
  Ho  Ho29  1  0.75000000  0.93824475  0.25000000  1
  Ho  Ho30  1  0.00000000  0.50000000  0.68831575  1
  Ho  Ho31  1  0.34635775  0.84635775  0.15364225  1
  Ho  Ho32  1  0.25000000  0.06175525  0.25000000  1
  Ho  Ho33  1  0.18831575  0.00000000  0.00000000  1
  Ho  Ho34  1  0.06175525  0.25000000  0.25000000  1
  Ho  Ho35  1  0.25000000  0.25000000  0.43824475  1
  Ho  Ho36  1  0.00000000  0.18831575  0.00000000  1
  Ho  Ho37  1  0.34635775  0.15364225  0.84635775  1
  Ho  Ho38  1  0.43824475  0.25000000  0.25000000  1
  Ho  Ho39  1  0.25000000  0.25000000  0.06175525  1
  Ho  Ho40  1  0.81168425  0.00000000  0.00000000  1
  Ho  Ho41  1  0.50000000  0.31168425  0.00000000  1
  Ho  Ho42  1  0.65364225  0.15364225  0.15364225  1
  Ho  Ho43  1  0.15364225  0.34635775  0.84635775  1
  Ho  Ho44  1  0.50000000  0.00000000  0.31168425  1
  Ho  Ho45  1  0.25000000  0.43824475  0.25000000  1
  Ho  Ho46  1  0.50000000  0.00000000  0.68831575  1
  Ho  Ho47  1  0.84635775  0.34635775  0.15364225  1
  Ho  Ho48  1  0.25000000  0.56175525  0.75000000  1
  Ho  Ho49  1  0.18831575  0.50000000  0.50000000  1
  Ho  Ho50  1  0.06175525  0.75000000  0.75000000  1
  Ho  Ho51  1  0.25000000  0.75000000  0.93824475  1
  Ho  Ho52  1  0.00000000  0.68831575  0.50000000  1
  Ho  Ho53  1  0.34635775  0.65364225  0.34635775  1
  Ho  Ho54  1  0.43824475  0.75000000  0.75000000  1
  Ho  Ho55  1  0.25000000  0.75000000  0.56175525  1
  Ho  Ho56  1  0.81168425  0.50000000  0.50000000  1
  Ho  Ho57  1  0.50000000  0.81168425  0.50000000  1
  Ho  Ho58  1  0.65364225  0.65364225  0.65364225  1
  Ho  Ho59  1  0.15364225  0.84635775  0.34635775  1
  Ho  Ho60  1  0.50000000  0.50000000  0.81168425  1
  Ho  Ho61  1  0.25000000  0.93824475  0.75000000  1
  Ho  Ho62  1  0.50000000  0.50000000  0.18831575  1
  Ho  Ho63  1  0.84635775  0.84635775  0.65364225  1
  Cd  Cd64  1  0.41942425  0.41942425  0.41942425  1
  Cd  Cd65  1  0.08057575  0.08057575  0.41942425  1
  Cd  Cd66  1  0.58057575  0.41942425  0.58057575  1
  Cd  Cd67  1  0.91942425  0.08057575  0.58057575  1
  Cd  Cd68  1  0.41942425  0.91942425  0.91942425  1
  Cd  Cd69  1  0.08057575  0.58057575  0.91942425  1
  Cd  Cd70  1  0.58057575  0.91942425  0.08057575  1
  Cd  Cd71  1  0.91942425  0.58057575  0.08057575  1
  Cd  Cd72  1  0.91942425  0.41942425  0.91942425  1
  Cd  Cd73  1  0.58057575  0.08057575  0.91942425  1
  Cd  Cd74  1  0.08057575  0.41942425  0.08057575  1
  Cd  Cd75  1  0.41942425  0.08057575  0.08057575  1
  Cd  Cd76  1  0.91942425  0.91942425  0.41942425  1
  Cd  Cd77  1  0.58057575  0.58057575  0.41942425  1
  Cd  Cd78  1  0.08057575  0.91942425  0.58057575  1
  Cd  Cd79  1  0.41942425  0.58057575  0.58057575  1
  Co  Co80  1  0.64104475  0.14104475  0.35895525  1
  Co  Co81  1  0.64104475  0.35895525  0.14104475  1
  Co  Co82  1  0.85895525  0.14104475  0.14104475  1
  Co  Co83  1  0.85895525  0.35895525  0.35895525  1
  Co  Co84  1  0.64104475  0.64104475  0.85895525  1
  Co  Co85  1  0.64104475  0.85895525  0.64104475  1
  Co  Co86  1  0.85895525  0.64104475  0.64104475  1
  Co  Co87  1  0.85895525  0.85895525  0.85895525  1
  Co  Co88  1  0.14104475  0.14104475  0.85895525  1
  Co  Co89  1  0.14104475  0.35895525  0.64104475  1
  Co  Co90  1  0.35895525  0.14104475  0.64104475  1
  Co  Co91  1  0.35895525  0.35895525  0.85895525  1
  Co  Co92  1  0.14104475  0.64104475  0.35895525  1
  Co  Co93  1  0.14104475  0.85895525  0.14104475  1
  Co  Co94  1  0.35895525  0.64104475  0.14104475  1
  Co  Co95  1  0.35895525  0.85895525  0.35895525  1
