# generated using pymatgen
data_Ce3(SiNi3)2
_symmetry_space_group_name_H-M   'P 1'
_cell_length_a   8.81925400
_cell_length_b   8.81925400
_cell_length_c   8.81925400
_cell_angle_alpha   90.00000000
_cell_angle_beta   90.00000000
_cell_angle_gamma   90.00000000
_symmetry_Int_Tables_number   1
_chemical_formula_structural   Ce3(SiNi3)2
_chemical_formula_sum   'Ce12 Si8 Ni24'
_cell_volume   685.95488333
_cell_formula_units_Z   4
loop_
 _symmetry_equiv_pos_site_id
 _symmetry_equiv_pos_as_xyz
  1  'x, y, z'
loop_
 _atom_site_type_symbol
 _atom_site_label
 _atom_site_symmetry_multiplicity
 _atom_site_fract_x
 _atom_site_fract_y
 _atom_site_fract_z
 _atom_site_occupancy
  Ce  Ce0  1  0.00000000  0.00000000  0.72000700  1
  Ce  Ce1  1  0.00000000  0.00000000  0.27999300  1
  Ce  Ce2  1  0.27999300  0.00000000  0.00000000  1
  Ce  Ce3  1  0.72000700  0.00000000  0.00000000  1
  Ce  Ce4  1  0.00000000  0.27999300  0.00000000  1
  Ce  Ce5  1  0.00000000  0.72000700  0.00000000  1
  Ce  Ce6  1  0.50000000  0.50000000  0.22000700  1
  Ce  Ce7  1  0.50000000  0.50000000  0.77999300  1
  Ce  Ce8  1  0.77999300  0.50000000  0.50000000  1
  Ce  Ce9  1  0.22000700  0.50000000  0.50000000  1
  Ce  Ce10  1  0.50000000  0.77999300  0.50000000  1
  Ce  Ce11  1  0.50000000  0.22000700  0.50000000  1
  Si  Si12  1  0.25000000  0.75000000  0.25000000  1
  Si  Si13  1  0.75000000  0.25000000  0.25000000  1
  Si  Si14  1  0.25000000  0.25000000  0.25000000  1
  Si  Si15  1  0.25000000  0.25000000  0.75000000  1
  Si  Si16  1  0.75000000  0.25000000  0.75000000  1
  Si  Si17  1  0.25000000  0.75000000  0.75000000  1
  Si  Si18  1  0.75000000  0.75000000  0.75000000  1
  Si  Si19  1  0.75000000  0.75000000  0.25000000  1
  Ni  Ni20  1  0.16179400  0.83820600  0.50000000  1
  Ni  Ni21  1  0.50000000  0.83820600  0.16179400  1
  Ni  Ni22  1  0.16179400  0.50000000  0.83820600  1
  Ni  Ni23  1  0.83820600  0.50000000  0.16179400  1
  Ni  Ni24  1  0.16179400  0.50000000  0.16179400  1
  Ni  Ni25  1  0.83820600  0.16179400  0.50000000  1
  Ni  Ni26  1  0.50000000  0.16179400  0.16179400  1
  Ni  Ni27  1  0.33820600  0.33820600  0.00000000  1
  Ni  Ni28  1  0.50000000  0.16179400  0.83820600  1
  Ni  Ni29  1  0.00000000  0.33820600  0.33820600  1
  Ni  Ni30  1  0.33820600  0.00000000  0.33820600  1
  Ni  Ni31  1  0.16179400  0.16179400  0.50000000  1
  Ni  Ni32  1  0.66179400  0.33820600  0.00000000  1
  Ni  Ni33  1  0.00000000  0.33820600  0.66179400  1
  Ni  Ni34  1  0.66179400  0.00000000  0.33820600  1
  Ni  Ni35  1  0.33820600  0.00000000  0.66179400  1
  Ni  Ni36  1  0.66179400  0.00000000  0.66179400  1
  Ni  Ni37  1  0.33820600  0.66179400  0.00000000  1
  Ni  Ni38  1  0.00000000  0.66179400  0.66179400  1
  Ni  Ni39  1  0.83820600  0.83820600  0.50000000  1
  Ni  Ni40  1  0.00000000  0.66179400  0.33820600  1
  Ni  Ni41  1  0.50000000  0.83820600  0.83820600  1
  Ni  Ni42  1  0.83820600  0.50000000  0.83820600  1
  Ni  Ni43  1  0.66179400  0.66179400  0.00000000  1
