# generated using pymatgen
data_K2Mn2Zn4Si4O15
_symmetry_space_group_name_H-M   'P 1'
_cell_length_a   5.27403871
_cell_length_b   9.15572711
_cell_length_c   15.98041226
_cell_angle_alpha   90.00000000
_cell_angle_beta   90.00000000
_cell_angle_gamma   90.00000000
_symmetry_Int_Tables_number   1
_chemical_formula_structural   K2Mn2Zn4Si4O15
_chemical_formula_sum   'K4 Mn4 Zn8 Si8 O30'
_cell_volume   771.65670129
_cell_formula_units_Z   2
loop_
 _symmetry_equiv_pos_site_id
 _symmetry_equiv_pos_as_xyz
  1  'x, y, z'
loop_
 _atom_site_type_symbol
 _atom_site_label
 _atom_site_symmetry_multiplicity
 _atom_site_fract_x
 _atom_site_fract_y
 _atom_site_fract_z
 _atom_site_occupancy
  K  K0  1  0.43558800  0.50000000  0.61640675  1
  K  K1  1  0.93558800  0.00000000  0.88359325  1
  K  K2  1  0.93558800  0.00000000  0.11640675  1
  K  K3  1  0.43558800  0.50000000  0.38359325  1
  Mn  Mn4  1  0.38854275  0.84393425  0.50000000  1
  Mn  Mn5  1  0.88854275  0.65606575  0.00000000  1
  Mn  Mn6  1  0.88854275  0.34393425  0.00000000  1
  Mn  Mn7  1  0.38854275  0.15606575  0.50000000  1
  Zn  Zn8  1  0.52243850  0.31109950  0.80705025  1
  Zn  Zn9  1  0.52243850  0.68890050  0.80705025  1
  Zn  Zn10  1  0.02243850  0.81109950  0.69294975  1
  Zn  Zn11  1  0.02243850  0.18890050  0.69294975  1
  Zn  Zn12  1  0.02243850  0.81109950  0.30705025  1
  Zn  Zn13  1  0.02243850  0.18890050  0.30705025  1
  Zn  Zn14  1  0.52243850  0.31109950  0.19294975  1
  Zn  Zn15  1  0.52243850  0.68890050  0.19294975  1
  Si  Si16  1  0.44191700  0.82785800  0.00000000  1
  Si  Si17  1  0.94191700  0.67214200  0.50000000  1
  Si  Si18  1  0.50961000  0.00000000  0.69447925  1
  Si  Si19  1  0.00961000  0.50000000  0.80552075  1
  Si  Si20  1  0.94191700  0.32785800  0.50000000  1
  Si  Si21  1  0.44191700  0.17214200  0.00000000  1
  Si  Si22  1  0.00961000  0.50000000  0.19447925  1
  Si  Si23  1  0.50961000  0.00000000  0.30552075  1
  O  O24  1  0.54024625  0.00000000  0.00000000  1
  O  O25  1  0.13821200  0.82304900  0.00000000  1
  O  O26  1  0.63821200  0.67695100  0.50000000  1
  O  O27  1  0.82122550  0.00000000  0.71491325  1
  O  O28  1  0.32122550  0.50000000  0.78508675  1
  O  O29  1  0.95781075  0.50000000  0.90556050  1
  O  O30  1  0.45781075  0.00000000  0.59443950  1
  O  O31  1  0.58619050  0.75220950  0.91967275  1
  O  O32  1  0.58619050  0.24779050  0.91967275  1
  O  O33  1  0.08619050  0.74779050  0.58032725  1
  O  O34  1  0.08619050  0.25220950  0.58032725  1
  O  O35  1  0.87711200  0.35221600  0.76228325  1
  O  O36  1  0.37711200  0.85221600  0.73771675  1
  O  O37  1  0.87711200  0.64778400  0.76228325  1
  O  O38  1  0.37711200  0.14778400  0.73771675  1
  O  O39  1  0.04024625  0.50000000  0.50000000  1
  O  O40  1  0.63821200  0.32304900  0.50000000  1
  O  O41  1  0.13821200  0.17695100  0.00000000  1
  O  O42  1  0.32122550  0.50000000  0.21491325  1
  O  O43  1  0.82122550  0.00000000  0.28508675  1
  O  O44  1  0.45781075  0.00000000  0.40556050  1
  O  O45  1  0.95781075  0.50000000  0.09443950  1
  O  O46  1  0.08619050  0.25220950  0.41967275  1
  O  O47  1  0.08619050  0.74779050  0.41967275  1
  O  O48  1  0.58619050  0.24779050  0.08032725  1
  O  O49  1  0.58619050  0.75220950  0.08032725  1
  O  O50  1  0.37711200  0.85221600  0.26228325  1
  O  O51  1  0.87711200  0.35221600  0.23771675  1
  O  O52  1  0.37711200  0.14778400  0.26228325  1
  O  O53  1  0.87711200  0.64778400  0.23771675  1
