# generated using pymatgen
data_Sr2NiSe2(ClO3)2
_symmetry_space_group_name_H-M   'P 1'
_cell_length_a   5.42322709
_cell_length_b   6.51860939
_cell_length_c   13.29604221
_cell_angle_alpha   90.00000000
_cell_angle_beta   110.98385857
_cell_angle_gamma   90.00000000
_symmetry_Int_Tables_number   1
_chemical_formula_structural   Sr2NiSe2(ClO3)2
_chemical_formula_sum   'Sr4 Ni2 Se4 Cl4 O12'
_cell_volume   438.86790032
_cell_formula_units_Z   2
loop_
 _symmetry_equiv_pos_site_id
 _symmetry_equiv_pos_as_xyz
  1  'x, y, z'
loop_
 _atom_site_type_symbol
 _atom_site_label
 _atom_site_symmetry_multiplicity
 _atom_site_fract_x
 _atom_site_fract_y
 _atom_site_fract_z
 _atom_site_occupancy
  Sr  Sr0  1  0.28105050  0.79763300  0.76565175  1
  Sr  Sr1  1  0.71894950  0.20236700  0.23434825  1
  Sr  Sr2  1  0.71894950  0.29763300  0.73434825  1
  Sr  Sr3  1  0.28105050  0.70236700  0.26565175  1
  Ni  Ni4  1  0.00000000  0.50000000  0.50000000  1
  Ni  Ni5  1  0.00000000  0.00000000  0.00000000  1
  Se  Se6  1  0.42198850  0.26038900  0.92641475  1
  Se  Se7  1  0.42198850  0.23961100  0.42641475  1
  Se  Se8  1  0.57801150  0.76038900  0.57358525  1
  Se  Se9  1  0.57801150  0.73961100  0.07358525  1
  Cl  Cl10  1  0.94714900  0.82106700  0.39656375  1
  Cl  Cl11  1  0.05285100  0.17893300  0.60343625  1
  Cl  Cl12  1  0.05285100  0.32106700  0.10343625  1
  Cl  Cl13  1  0.94714900  0.67893300  0.89656375  1
  O  O14  1  0.12216450  0.37141600  0.37901575  1
  O  O15  1  0.87783550  0.62858400  0.62098425  1
  O  O16  1  0.12216450  0.12858400  0.87901575  1
  O  O17  1  0.87783550  0.87141600  0.12098425  1
  O  O18  1  0.61474750  0.07261700  0.89472575  1
  O  O19  1  0.61474750  0.42738300  0.39472575  1
  O  O20  1  0.38525250  0.57261700  0.60527425  1
  O  O21  1  0.38525250  0.92738300  0.10527425  1
  O  O22  1  0.38806750  0.07117900  0.32445975  1
  O  O23  1  0.61193250  0.57117900  0.17554025  1
  O  O24  1  0.38806750  0.42882100  0.82445975  1
  O  O25  1  0.61193250  0.92882100  0.67554025  1
