# generated using pymatgen
data_Ce2Zn17
_symmetry_space_group_name_H-M   'P 1'
_cell_length_a   9.04885993
_cell_length_b   9.04885993
_cell_length_c   13.28123776
_cell_angle_alpha   90.00000000
_cell_angle_beta   90.00000000
_cell_angle_gamma   120.00000000
_symmetry_Int_Tables_number   1
_chemical_formula_structural   Ce2Zn17
_chemical_formula_sum   'Ce6 Zn51'
_cell_volume   941.79615839
_cell_formula_units_Z   3
loop_
 _symmetry_equiv_pos_site_id
 _symmetry_equiv_pos_as_xyz
  1  'x, y, z'
loop_
 _atom_site_type_symbol
 _atom_site_label
 _atom_site_symmetry_multiplicity
 _atom_site_fract_x
 _atom_site_fract_y
 _atom_site_fract_z
 _atom_site_occupancy
  Ce  Ce0  1  0.33333333  0.66666667  0.00329067  1
  Ce  Ce1  1  0.33333333  0.66666667  0.33004267  1
  Ce  Ce2  1  0.00000000  0.00000000  0.33662400  1
  Ce  Ce3  1  0.00000000  0.00000000  0.66337600  1
  Ce  Ce4  1  0.66666667  0.33333333  0.66995733  1
  Ce  Ce5  1  0.66666667  0.33333333  0.99670933  1
  Zn  Zn6  1  0.33333333  0.66666667  0.76657367  1
  Zn  Zn7  1  0.33333333  0.66666667  0.56675967  1
  Zn  Zn8  1  0.16666667  0.83333333  0.83333333  1
  Zn  Zn9  1  0.33333333  0.16666667  0.16666667  1
  Zn  Zn10  1  0.83333333  0.66666667  0.16666667  1
  Zn  Zn11  1  0.37248867  0.03915533  0.33333333  1
  Zn  Zn12  1  0.00000000  0.29417800  0.00000000  1
  Zn  Zn13  1  0.29417800  0.00000000  0.00000000  1
  Zn  Zn14  1  0.96084467  0.62751133  0.33333333  1
  Zn  Zn15  1  0.00000000  0.70582200  0.00000000  1
  Zn  Zn16  1  0.70582200  0.00000000  0.00000000  1
  Zn  Zn17  1  0.49608067  0.99216133  0.15273133  1
  Zn  Zn18  1  0.49608067  0.50391933  0.15273133  1
  Zn  Zn19  1  0.00783867  0.50391933  0.15273133  1
  Zn  Zn20  1  0.65882800  0.82941400  0.18060200  1
  Zn  Zn21  1  0.17058600  0.34117200  0.18060200  1
  Zn  Zn22  1  0.17058600  0.82941400  0.18060200  1
  Zn  Zn23  1  0.00000000  0.00000000  0.09990700  1
  Zn  Zn24  1  0.00000000  0.00000000  0.90009300  1
  Zn  Zn25  1  0.83333333  0.16666667  0.16666667  1
  Zn  Zn26  1  0.00000000  0.50000000  0.50000000  1
  Zn  Zn27  1  0.50000000  0.00000000  0.50000000  1
  Zn  Zn28  1  0.03915533  0.37248867  0.66666667  1
  Zn  Zn29  1  0.66666667  0.62751133  0.33333333  1
  Zn  Zn30  1  0.96084467  0.33333333  0.33333333  1
  Zn  Zn31  1  0.62751133  0.96084467  0.66666667  1
  Zn  Zn32  1  0.66666667  0.03915533  0.33333333  1
  Zn  Zn33  1  0.37248867  0.33333333  0.33333333  1
  Zn  Zn34  1  0.16274733  0.32549467  0.48606467  1
  Zn  Zn35  1  0.16274733  0.83725267  0.48606467  1
  Zn  Zn36  1  0.67450533  0.83725267  0.48606467  1
  Zn  Zn37  1  0.32549467  0.16274733  0.51393533  1
  Zn  Zn38  1  0.83725267  0.67450533  0.51393533  1
  Zn  Zn39  1  0.83725267  0.16274733  0.51393533  1
  Zn  Zn40  1  0.66666667  0.33333333  0.43324033  1
  Zn  Zn41  1  0.66666667  0.33333333  0.23342633  1
  Zn  Zn42  1  0.50000000  0.50000000  0.50000000  1
  Zn  Zn43  1  0.66666667  0.83333333  0.83333333  1
  Zn  Zn44  1  0.16666667  0.33333333  0.83333333  1
  Zn  Zn45  1  0.70582200  0.70582200  0.00000000  1
  Zn  Zn46  1  0.33333333  0.96084467  0.66666667  1
  Zn  Zn47  1  0.62751133  0.66666667  0.66666667  1
  Zn  Zn48  1  0.29417800  0.29417800  0.00000000  1
  Zn  Zn49  1  0.33333333  0.37248867  0.66666667  1
  Zn  Zn50  1  0.03915533  0.66666667  0.66666667  1
  Zn  Zn51  1  0.82941400  0.65882800  0.81939800  1
  Zn  Zn52  1  0.82941400  0.17058600  0.81939800  1
  Zn  Zn53  1  0.34117200  0.17058600  0.81939800  1
  Zn  Zn54  1  0.99216133  0.49608067  0.84726867  1
  Zn  Zn55  1  0.50391933  0.00783867  0.84726867  1
  Zn  Zn56  1  0.50391933  0.49608067  0.84726867  1
