# generated using pymatgen
data_Sr3CuIrO6
_symmetry_space_group_name_H-M   'P 1'
_cell_length_a   9.46036400
_cell_length_b   9.78087800
_cell_length_c   6.76741270
_cell_angle_alpha   90.00000000
_cell_angle_beta   91.05015773
_cell_angle_gamma   90.00000000
_symmetry_Int_Tables_number   1
_chemical_formula_structural   Sr3CuIrO6
_chemical_formula_sum   'Sr12 Cu4 Ir4 O24'
_cell_volume   626.08802543
_cell_formula_units_Z   4
loop_
 _symmetry_equiv_pos_site_id
 _symmetry_equiv_pos_as_xyz
  1  'x, y, z'
loop_
 _atom_site_type_symbol
 _atom_site_label
 _atom_site_symmetry_multiplicity
 _atom_site_fract_x
 _atom_site_fract_y
 _atom_site_fract_z
 _atom_site_occupancy
  Sr  Sr0  1  0.50000000  0.89877500  0.75000000  1
  Sr  Sr1  1  0.50000000  0.10122500  0.25000000  1
  Sr  Sr2  1  0.81685850  0.07507550  0.62031000  1
  Sr  Sr3  1  0.18314150  0.07507550  0.87969000  1
  Sr  Sr4  1  0.18314150  0.92492450  0.37969000  1
  Sr  Sr5  1  0.81685850  0.92492450  0.12031000  1
  Sr  Sr6  1  0.00000000  0.39877500  0.75000000  1
  Sr  Sr7  1  0.00000000  0.60122500  0.25000000  1
  Sr  Sr8  1  0.31685850  0.57507550  0.62031000  1
  Sr  Sr9  1  0.68314150  0.57507550  0.87969000  1
  Sr  Sr10  1  0.68314150  0.42492450  0.37969000  1
  Sr  Sr11  1  0.31685850  0.42492450  0.12031000  1
  Cu  Cu12  1  0.50000000  0.69159000  0.25000000  1
  Cu  Cu13  1  0.50000000  0.30841000  0.75000000  1
  Cu  Cu14  1  0.00000000  0.19159000  0.25000000  1
  Cu  Cu15  1  0.00000000  0.80841000  0.75000000  1
  Ir  Ir16  1  0.75000000  0.25000000  0.00000000  1
  Ir  Ir17  1  0.75000000  0.75000000  0.50000000  1
  Ir  Ir18  1  0.25000000  0.75000000  0.00000000  1
  Ir  Ir19  1  0.25000000  0.25000000  0.50000000  1
  O  O20  1  0.55761900  0.65952000  0.53679500  1
  O  O21  1  0.44238100  0.65952000  0.96320500  1
  O  O22  1  0.44238100  0.34048000  0.46320500  1
  O  O23  1  0.55761900  0.34048000  0.03679500  1
  O  O24  1  0.21244050  0.18289050  0.21714800  1
  O  O25  1  0.78755950  0.18289050  0.28285200  1
  O  O26  1  0.78755950  0.81710950  0.78285200  1
  O  O27  1  0.21244050  0.81710950  0.71714800  1
  O  O28  1  0.64668700  0.92485300  0.42991000  1
  O  O29  1  0.35331300  0.92485300  0.07009000  1
  O  O30  1  0.35331300  0.07514700  0.57009000  1
  O  O31  1  0.64668700  0.07514700  0.92991000  1
  O  O32  1  0.05761900  0.15952000  0.53679500  1
  O  O33  1  0.94238100  0.15952000  0.96320500  1
  O  O34  1  0.94238100  0.84048000  0.46320500  1
  O  O35  1  0.05761900  0.84048000  0.03679500  1
  O  O36  1  0.71244050  0.68289050  0.21714800  1
  O  O37  1  0.28755950  0.68289050  0.28285200  1
  O  O38  1  0.28755950  0.31710950  0.78285200  1
  O  O39  1  0.71244050  0.31710950  0.71714800  1
  O  O40  1  0.14668700  0.42485300  0.42991000  1
  O  O41  1  0.85331300  0.42485300  0.07009000  1
  O  O42  1  0.85331300  0.57514700  0.57009000  1
  O  O43  1  0.14668700  0.57514700  0.92991000  1
