# generated using pymatgen
data_BaV2(CuO4)2
_symmetry_space_group_name_H-M   'P 1'
_cell_length_a   13.10184200
_cell_length_b   13.10184200
_cell_length_c   8.20727600
_cell_angle_alpha   90.00000000
_cell_angle_beta   90.00000000
_cell_angle_gamma   90.00000000
_symmetry_Int_Tables_number   1
_chemical_formula_structural   BaV2(CuO4)2
_chemical_formula_sum   'Ba8 V16 Cu16 O64'
_cell_volume   1408.84674863
_cell_formula_units_Z   8
loop_
 _symmetry_equiv_pos_site_id
 _symmetry_equiv_pos_as_xyz
  1  'x, y, z'
loop_
 _atom_site_type_symbol
 _atom_site_label
 _atom_site_symmetry_multiplicity
 _atom_site_fract_x
 _atom_site_fract_y
 _atom_site_fract_z
 _atom_site_occupancy
  Ba  Ba0  1  0.50000000  0.00000000  0.75000000  1
  Ba  Ba1  1  0.50000000  0.00000000  0.25000000  1
  Ba  Ba2  1  0.00000000  0.00000000  0.50000000  1
  Ba  Ba3  1  0.00000000  0.00000000  0.00000000  1
  Ba  Ba4  1  0.00000000  0.50000000  0.25000000  1
  Ba  Ba5  1  0.00000000  0.50000000  0.75000000  1
  Ba  Ba6  1  0.50000000  0.50000000  0.00000000  1
  Ba  Ba7  1  0.50000000  0.50000000  0.50000000  1
  V  V8  1  0.89991000  0.75000000  0.87500000  1
  V  V9  1  0.75000000  0.10009000  0.12500000  1
  V  V10  1  0.75000000  0.95144700  0.62500000  1
  V  V11  1  0.04855300  0.75000000  0.37500000  1
  V  V12  1  0.25000000  0.04855300  0.62500000  1
  V  V13  1  0.95144700  0.25000000  0.37500000  1
  V  V14  1  0.25000000  0.89991000  0.12500000  1
  V  V15  1  0.10009000  0.25000000  0.87500000  1
  V  V16  1  0.39991000  0.25000000  0.37500000  1
  V  V17  1  0.25000000  0.60009000  0.62500000  1
  V  V18  1  0.25000000  0.45144700  0.12500000  1
  V  V19  1  0.54855300  0.25000000  0.87500000  1
  V  V20  1  0.75000000  0.54855300  0.12500000  1
  V  V21  1  0.45144700  0.75000000  0.87500000  1
  V  V22  1  0.75000000  0.39991000  0.62500000  1
  V  V23  1  0.60009000  0.75000000  0.37500000  1
  Cu  Cu24  1  0.82325050  0.84340450  0.25733550  1
  Cu  Cu25  1  0.84340450  0.32325050  0.00733550  1
  Cu  Cu26  1  0.15659550  0.82325050  0.74266450  1
  Cu  Cu27  1  0.67674950  0.84340450  0.99266450  1
  Cu  Cu28  1  0.32325050  0.15659550  0.99266450  1
  Cu  Cu29  1  0.84340450  0.17674950  0.74266450  1
  Cu  Cu30  1  0.15659550  0.67674950  0.00733550  1
  Cu  Cu31  1  0.17674950  0.15659550  0.25733550  1
  Cu  Cu32  1  0.32325050  0.34340450  0.75733550  1
  Cu  Cu33  1  0.34340450  0.82325050  0.50733550  1
  Cu  Cu34  1  0.65659550  0.32325050  0.24266450  1
  Cu  Cu35  1  0.17674950  0.34340450  0.49266450  1
  Cu  Cu36  1  0.82325050  0.65659550  0.49266450  1
  Cu  Cu37  1  0.34340450  0.67674950  0.24266450  1
  Cu  Cu38  1  0.65659550  0.17674950  0.50733550  1
  Cu  Cu39  1  0.67674950  0.65659550  0.75733550  1
  O  O40  1  0.02707000  0.15809900  0.27525900  1
  O  O41  1  0.02295600  0.16155700  0.78491200  1
  O  O42  1  0.84190100  0.02707000  0.72474100  1
  O  O43  1  0.33844300  0.97704400  0.03491200  1
  O  O44  1  0.97293000  0.84190100  0.27525900  1
  O  O45  1  0.31653600  0.12473500  0.76272700  1
  O  O46  1  0.15809900  0.97293000  0.72474100  1
  O  O47  1  0.81653600  0.87526500  0.48727300  1
  O  O48  1  0.67766300  0.17438000  0.27082800  1
  O  O49  1  0.82562000  0.67766300  0.72917200  1
  O  O50  1  0.87526500  0.18346400  0.51272700  1
  O  O51  1  0.97704400  0.83844300  0.78491200  1
  O  O52  1  0.12473500  0.81653600  0.51272700  1
  O  O53  1  0.17766300  0.82562000  0.97917200  1
  O  O54  1  0.97704400  0.66155700  0.96508800  1
  O  O55  1  0.12473500  0.68346400  0.23727300  1
  O  O56  1  0.17438000  0.17766300  0.02082800  1
  O  O57  1  0.02295600  0.33844300  0.96508800  1
  O  O58  1  0.87526500  0.31653600  0.23727300  1
  O  O59  1  0.82233700  0.17438000  0.97917200  1
  O  O60  1  0.17438000  0.32233700  0.72917200  1
  O  O61  1  0.18346400  0.12473500  0.48727300  1
  O  O62  1  0.68346400  0.87526500  0.76272700  1
  O  O63  1  0.32233700  0.82562000  0.27082800  1
  O  O64  1  0.66155700  0.02295600  0.03491200  1
  O  O65  1  0.83844300  0.02295600  0.21508800  1
  O  O66  1  0.65809900  0.02707000  0.52525900  1
  O  O67  1  0.82562000  0.82233700  0.02082800  1
  O  O68  1  0.16155700  0.97704400  0.21508800  1
  O  O69  1  0.34190100  0.97293000  0.52525900  1
  O  O70  1  0.02707000  0.34190100  0.47474100  1
  O  O71  1  0.97293000  0.65809900  0.47474100  1
  O  O72  1  0.52707000  0.65809900  0.77525900  1
  O  O73  1  0.52295600  0.66155700  0.28491200  1
  O  O74  1  0.34190100  0.52707000  0.22474100  1
  O  O75  1  0.83844300  0.47704400  0.53491200  1
  O  O76  1  0.47293000  0.34190100  0.77525900  1
  O  O77  1  0.81653600  0.62473500  0.26272700  1
  O  O78  1  0.65809900  0.47293000  0.22474100  1
  O  O79  1  0.31653600  0.37526500  0.98727300  1
  O  O80  1  0.17766300  0.67438000  0.77082800  1
  O  O81  1  0.32562000  0.17766300  0.22917200  1
  O  O82  1  0.37526500  0.68346400  0.01272700  1
  O  O83  1  0.47704400  0.33844300  0.28491200  1
  O  O84  1  0.62473500  0.31653600  0.01272700  1
  O  O85  1  0.67766300  0.32562000  0.47917200  1
  O  O86  1  0.47704400  0.16155700  0.46508800  1
  O  O87  1  0.62473500  0.18346400  0.73727300  1
  O  O88  1  0.67438000  0.67766300  0.52082800  1
  O  O89  1  0.52295600  0.83844300  0.46508800  1
  O  O90  1  0.37526500  0.81653600  0.73727300  1
  O  O91  1  0.32233700  0.67438000  0.47917200  1
  O  O92  1  0.67438000  0.82233700  0.22917200  1
  O  O93  1  0.68346400  0.62473500  0.98727300  1
  O  O94  1  0.18346400  0.37526500  0.26272700  1
  O  O95  1  0.82233700  0.32562000  0.77082800  1
  O  O96  1  0.16155700  0.52295600  0.53491200  1
  O  O97  1  0.33844300  0.52295600  0.71508800  1
  O  O98  1  0.15809900  0.52707000  0.02525900  1
  O  O99  1  0.32562000  0.32233700  0.52082800  1
  O  O100  1  0.66155700  0.47704400  0.71508800  1
  O  O101  1  0.84190100  0.47293000  0.02525900  1
  O  O102  1  0.52707000  0.84190100  0.97474100  1
  O  O103  1  0.47293000  0.15809900  0.97474100  1
