# generated using pymatgen
data_KNaMnO2
_symmetry_space_group_name_H-M   'P 1'
_cell_length_a   9.45195631
_cell_length_b   9.81229785
_cell_length_c   7.05591200
_cell_angle_alpha   90.00000000
_cell_angle_beta   90.00000000
_cell_angle_gamma   90.00000000
_symmetry_Int_Tables_number   1
_chemical_formula_structural   KNaMnO2
_chemical_formula_sum   'K8 Na8 Mn8 O16'
_cell_volume   654.40345523
_cell_formula_units_Z   8
loop_
 _symmetry_equiv_pos_site_id
 _symmetry_equiv_pos_as_xyz
  1  'x, y, z'
loop_
 _atom_site_type_symbol
 _atom_site_label
 _atom_site_symmetry_multiplicity
 _atom_site_fract_x
 _atom_site_fract_y
 _atom_site_fract_z
 _atom_site_occupancy
  K  K0  1  0.75000000  0.25000000  0.50000000  1
  K  K1  1  0.75000000  0.75000000  0.00000000  1
  K  K2  1  0.50000000  0.00000000  0.75000000  1
  K  K3  1  0.50000000  0.00000000  0.25000000  1
  K  K4  1  0.25000000  0.75000000  0.50000000  1
  K  K5  1  0.25000000  0.25000000  0.00000000  1
  K  K6  1  0.00000000  0.50000000  0.75000000  1
  K  K7  1  0.00000000  0.50000000  0.25000000  1
  Na  Na8  1  0.14966050  0.00000000  0.75000000  1
  Na  Na9  1  0.85033950  0.00000000  0.75000000  1
  Na  Na10  1  0.14966050  0.00000000  0.25000000  1
  Na  Na11  1  0.85033950  0.00000000  0.25000000  1
  Na  Na12  1  0.64966050  0.50000000  0.75000000  1
  Na  Na13  1  0.35033950  0.50000000  0.75000000  1
  Na  Na14  1  0.64966050  0.50000000  0.25000000  1
  Na  Na15  1  0.35033950  0.50000000  0.25000000  1
  Mn  Mn16  1  0.89265350  0.23194050  0.00000000  1
  Mn  Mn17  1  0.89265350  0.76805950  0.50000000  1
  Mn  Mn18  1  0.10734650  0.76805950  0.00000000  1
  Mn  Mn19  1  0.10734650  0.23194050  0.50000000  1
  Mn  Mn20  1  0.39265350  0.73194050  0.00000000  1
  Mn  Mn21  1  0.39265350  0.26805950  0.50000000  1
  Mn  Mn22  1  0.60734650  0.26805950  0.00000000  1
  Mn  Mn23  1  0.60734650  0.73194050  0.50000000  1
  O  O24  1  0.00000000  0.19705450  0.25000000  1
  O  O25  1  0.00000000  0.19705450  0.75000000  1
  O  O26  1  0.00000000  0.80294550  0.75000000  1
  O  O27  1  0.00000000  0.80294550  0.25000000  1
  O  O28  1  0.27854550  0.91419950  0.00000000  1
  O  O29  1  0.72145450  0.08580050  0.00000000  1
  O  O30  1  0.27854550  0.08580050  0.50000000  1
  O  O31  1  0.72145450  0.91419950  0.50000000  1
  O  O32  1  0.50000000  0.69705450  0.25000000  1
  O  O33  1  0.50000000  0.69705450  0.75000000  1
  O  O34  1  0.50000000  0.30294550  0.75000000  1
  O  O35  1  0.50000000  0.30294550  0.25000000  1
  O  O36  1  0.77854550  0.41419950  0.00000000  1
  O  O37  1  0.22145450  0.58580050  0.00000000  1
  O  O38  1  0.77854550  0.58580050  0.50000000  1
  O  O39  1  0.22145450  0.41419950  0.50000000  1
