# generated using pymatgen
data_Ta5Ga3
_symmetry_space_group_name_H-M   'P 1'
_cell_length_a   10.27450400
_cell_length_b   10.27450400
_cell_length_c   5.13655200
_cell_angle_alpha   90.00000000
_cell_angle_beta   90.00000000
_cell_angle_gamma   90.00000000
_symmetry_Int_Tables_number   1
_chemical_formula_structural   Ta5Ga3
_chemical_formula_sum   'Ta20 Ga12'
_cell_volume   542.24233316
_cell_formula_units_Z   4
loop_
 _symmetry_equiv_pos_site_id
 _symmetry_equiv_pos_as_xyz
  1  'x, y, z'
loop_
 _atom_site_type_symbol
 _atom_site_label
 _atom_site_symmetry_multiplicity
 _atom_site_fract_x
 _atom_site_fract_y
 _atom_site_fract_z
 _atom_site_occupancy
  Ta  Ta0  1  0.42509500  0.72228600  0.50000000  1
  Ta  Ta1  1  0.50000000  0.00000000  0.25000000  1
  Ta  Ta2  1  0.42509500  0.27771400  0.00000000  1
  Ta  Ta3  1  0.57490500  0.72228600  0.00000000  1
  Ta  Ta4  1  0.50000000  0.00000000  0.75000000  1
  Ta  Ta5  1  0.77771400  0.92509500  0.00000000  1
  Ta  Ta6  1  0.57490500  0.27771400  0.50000000  1
  Ta  Ta7  1  0.22228600  0.92509500  0.50000000  1
  Ta  Ta8  1  0.22228600  0.07490500  0.00000000  1
  Ta  Ta9  1  0.77771400  0.07490500  0.50000000  1
  Ta  Ta10  1  0.92509500  0.22228600  0.00000000  1
  Ta  Ta11  1  0.00000000  0.50000000  0.75000000  1
  Ta  Ta12  1  0.92509500  0.77771400  0.50000000  1
  Ta  Ta13  1  0.07490500  0.22228600  0.50000000  1
  Ta  Ta14  1  0.00000000  0.50000000  0.25000000  1
  Ta  Ta15  1  0.27771400  0.42509500  0.50000000  1
  Ta  Ta16  1  0.07490500  0.77771400  0.00000000  1
  Ta  Ta17  1  0.72228600  0.42509500  0.00000000  1
  Ta  Ta18  1  0.72228600  0.57490500  0.50000000  1
  Ta  Ta19  1  0.27771400  0.57490500  0.00000000  1
  Ga  Ga20  1  0.33381600  0.83381600  0.00000000  1
  Ga  Ga21  1  0.00000000  0.00000000  0.75000000  1
  Ga  Ga22  1  0.33381600  0.16618400  0.50000000  1
  Ga  Ga23  1  0.66618400  0.16618400  0.00000000  1
  Ga  Ga24  1  0.00000000  0.00000000  0.25000000  1
  Ga  Ga25  1  0.66618400  0.83381600  0.50000000  1
  Ga  Ga26  1  0.83381600  0.33381600  0.50000000  1
  Ga  Ga27  1  0.50000000  0.50000000  0.25000000  1
  Ga  Ga28  1  0.83381600  0.66618400  0.00000000  1
  Ga  Ga29  1  0.16618400  0.66618400  0.50000000  1
  Ga  Ga30  1  0.50000000  0.50000000  0.75000000  1
  Ga  Ga31  1  0.16618400  0.33381600  0.00000000  1
