# generated using pymatgen
data_Sr2Co2O5
_symmetry_space_group_name_H-M   'P 1'
_cell_length_a   5.43796000
_cell_length_b   5.53068800
_cell_length_c   16.28380000
_cell_angle_alpha   90.00000000
_cell_angle_beta   90.00000000
_cell_angle_gamma   90.00000000
_symmetry_Int_Tables_number   1
_chemical_formula_structural   Sr2Co2O5
_chemical_formula_sum   'Sr8 Co8 O20'
_cell_volume   489.74603420
_cell_formula_units_Z   4
loop_
 _symmetry_equiv_pos_site_id
 _symmetry_equiv_pos_as_xyz
  1  'x, y, z'
loop_
 _atom_site_type_symbol
 _atom_site_label
 _atom_site_symmetry_multiplicity
 _atom_site_fract_x
 _atom_site_fract_y
 _atom_site_fract_z
 _atom_site_occupancy
  Sr  Sr0  1  0.99196700  0.00850500  0.61078800  1
  Sr  Sr1  1  0.49196700  0.49149500  0.88921200  1
  Sr  Sr2  1  0.49196700  0.49149500  0.61078800  1
  Sr  Sr3  1  0.99196700  0.00850500  0.88921200  1
  Sr  Sr4  1  0.49196700  0.50850500  0.11078800  1
  Sr  Sr5  1  0.99196700  0.99149500  0.38921200  1
  Sr  Sr6  1  0.99196700  0.99149500  0.11078800  1
  Sr  Sr7  1  0.49196700  0.50850500  0.38921200  1
  Co  Co8  1  0.98990700  0.50000000  0.00000000  1
  Co  Co9  1  0.48990700  0.00000000  0.00000000  1
  Co  Co10  1  0.52324000  0.93649900  0.75000000  1
  Co  Co11  1  0.02324000  0.56350100  0.75000000  1
  Co  Co12  1  0.48990700  0.00000000  0.50000000  1
  Co  Co13  1  0.98990700  0.50000000  0.50000000  1
  Co  Co14  1  0.02324000  0.43649900  0.25000000  1
  Co  Co15  1  0.52324000  0.06350100  0.25000000  1
  O  O16  1  0.74156050  0.75103450  0.99649450  1
  O  O17  1  0.24156050  0.74896550  0.50350550  1
  O  O18  1  0.24156050  0.74896550  0.99649450  1
  O  O19  1  0.74156050  0.75103450  0.50350550  1
  O  O20  1  0.47752200  0.03040700  0.64403500  1
  O  O21  1  0.97752200  0.46959300  0.85596500  1
  O  O22  1  0.97752200  0.46959300  0.64403500  1
  O  O23  1  0.47752200  0.03040700  0.85596500  1
  O  O24  1  0.87578550  0.88096450  0.75000000  1
  O  O25  1  0.37578550  0.61903550  0.75000000  1
  O  O26  1  0.24156050  0.25103450  0.49649450  1
  O  O27  1  0.74156050  0.24896550  0.00350550  1
  O  O28  1  0.74156050  0.24896550  0.49649450  1
  O  O29  1  0.24156050  0.25103450  0.00350550  1
  O  O30  1  0.97752200  0.53040700  0.14403500  1
  O  O31  1  0.47752200  0.96959300  0.35596500  1
  O  O32  1  0.47752200  0.96959300  0.14403500  1
  O  O33  1  0.97752200  0.53040700  0.35596500  1
  O  O34  1  0.37578550  0.38096450  0.25000000  1
  O  O35  1  0.87578550  0.11903550  0.25000000  1
