# generated using pymatgen
data_K2YbMoPO8
_symmetry_space_group_name_H-M   'P 1'
_cell_length_a   6.98895200
_cell_length_b   12.38755800
_cell_length_c   20.09442000
_cell_angle_alpha   90.00000000
_cell_angle_beta   90.00000000
_cell_angle_gamma   90.00000000
_symmetry_Int_Tables_number   1
_chemical_formula_structural   K2YbMoPO8
_chemical_formula_sum   'K16 Yb8 Mo8 P8 O64'
_cell_volume   1739.69547566
_cell_formula_units_Z   8
loop_
 _symmetry_equiv_pos_site_id
 _symmetry_equiv_pos_as_xyz
  1  'x, y, z'
loop_
 _atom_site_type_symbol
 _atom_site_label
 _atom_site_symmetry_multiplicity
 _atom_site_fract_x
 _atom_site_fract_y
 _atom_site_fract_z
 _atom_site_occupancy
  K  K0  1  0.97481950  0.58307950  0.15727150  1
  K  K1  1  0.97481950  0.41692050  0.34272850  1
  K  K2  1  0.02518050  0.58307950  0.65727150  1
  K  K3  1  0.52518050  0.41692050  0.65727150  1
  K  K4  1  0.47481950  0.58307950  0.34272850  1
  K  K5  1  0.47481950  0.41692050  0.15727150  1
  K  K6  1  0.52518050  0.58307950  0.84272850  1
  K  K7  1  0.02518050  0.41692050  0.84272850  1
  K  K8  1  0.47481950  0.08307950  0.65727150  1
  K  K9  1  0.47481950  0.91692050  0.84272850  1
  K  K10  1  0.52518050  0.08307950  0.15727150  1
  K  K11  1  0.02518050  0.91692050  0.15727150  1
  K  K12  1  0.97481950  0.08307950  0.84272850  1
  K  K13  1  0.97481950  0.91692050  0.65727150  1
  K  K14  1  0.02518050  0.08307950  0.34272850  1
  K  K15  1  0.52518050  0.91692050  0.34272850  1
  Yb  Yb16  1  0.25000000  0.68007900  0.00000000  1
  Yb  Yb17  1  0.75000000  0.81992100  0.00000000  1
  Yb  Yb18  1  0.25000000  0.18007900  0.00000000  1
  Yb  Yb19  1  0.75000000  0.31992100  0.00000000  1
  Yb  Yb20  1  0.75000000  0.18007900  0.50000000  1
  Yb  Yb21  1  0.25000000  0.31992100  0.50000000  1
  Yb  Yb22  1  0.75000000  0.68007900  0.50000000  1
  Yb  Yb23  1  0.25000000  0.81992100  0.50000000  1
  Mo  Mo24  1  0.00000000  0.75000000  0.83592700  1
  Mo  Mo25  1  0.50000000  0.75000000  0.16407300  1
  Mo  Mo26  1  0.00000000  0.25000000  0.16407300  1
  Mo  Mo27  1  0.50000000  0.25000000  0.83592700  1
  Mo  Mo28  1  0.50000000  0.25000000  0.33592700  1
  Mo  Mo29  1  0.00000000  0.25000000  0.66407300  1
  Mo  Mo30  1  0.50000000  0.75000000  0.66407300  1
  Mo  Mo31  1  0.00000000  0.75000000  0.33592700  1
  P  P32  1  0.25000000  0.93226200  0.00000000  1
  P  P33  1  0.75000000  0.56773800  0.00000000  1
  P  P34  1  0.75000000  0.06773800  0.00000000  1
  P  P35  1  0.25000000  0.43226200  0.00000000  1
  P  P36  1  0.75000000  0.43226200  0.50000000  1
  P  P37  1  0.25000000  0.06773800  0.50000000  1
  P  P38  1  0.25000000  0.56773800  0.50000000  1
  P  P39  1  0.75000000  0.93226200  0.50000000  1
  O  O40  1  0.57535150  0.14358950  0.00920450  1
  O  O41  1  0.70967000  0.27539900  0.88642100  1
  O  O42  1  0.57535150  0.64358950  0.99079550  1
  O  O43  1  0.92464850  0.64358950  0.00920450  1
  O  O44  1  0.07535150  0.35641050  0.99079550  1
  O  O45  1  0.76991350  0.49460550  0.93820150  1
  O  O46  1  0.79033000  0.77539900  0.88642100  1
  O  O47  1  0.73008650  0.49460550  0.06179850  1
  O  O48  1  0.26991350  0.50539450  0.93820150  1
  O  O49  1  0.26991350  0.49460550  0.56179850  1
  O  O50  1  0.45122200  0.63371800  0.71440000  1
  O  O51  1  0.23008650  0.50539450  0.06179850  1
  O  O52  1  0.07535150  0.85641050  0.00920450  1
  O  O53  1  0.04877800  0.36628200  0.21440000  1
  O  O54  1  0.42464850  0.85641050  0.99079550  1
  O  O55  1  0.92464850  0.14358950  0.99079550  1
  O  O56  1  0.95122200  0.63371800  0.78560000  1
  O  O57  1  0.42464850  0.35641050  0.00920450  1
  O  O58  1  0.20967000  0.72460100  0.88642100  1
  O  O59  1  0.95122200  0.36628200  0.71440000  1
  O  O60  1  0.23008650  0.49460550  0.43820150  1
  O  O61  1  0.54877800  0.63371800  0.21440000  1
  O  O62  1  0.73008650  0.50539450  0.43820150  1
  O  O63  1  0.04877800  0.63371800  0.28560000  1
  O  O64  1  0.79033000  0.27539900  0.11357900  1
  O  O65  1  0.20967000  0.22460100  0.11357900  1
  O  O66  1  0.29033000  0.22460100  0.88642100  1
  O  O67  1  0.76991350  0.50539450  0.56179850  1
  O  O68  1  0.29033000  0.72460100  0.11357900  1
  O  O69  1  0.54877800  0.36628200  0.28560000  1
  O  O70  1  0.70967000  0.77539900  0.11357900  1
  O  O71  1  0.45122200  0.36628200  0.78560000  1
  O  O72  1  0.07535150  0.64358950  0.50920450  1
  O  O73  1  0.20967000  0.77539900  0.38642100  1
  O  O74  1  0.07535150  0.14358950  0.49079550  1
  O  O75  1  0.42464850  0.14358950  0.50920450  1
  O  O76  1  0.57535150  0.85641050  0.49079550  1
  O  O77  1  0.26991350  0.99460550  0.43820150  1
  O  O78  1  0.29033000  0.27539900  0.38642100  1
  O  O79  1  0.23008650  0.99460550  0.56179850  1
  O  O80  1  0.76991350  0.00539450  0.43820150  1
  O  O81  1  0.76991350  0.99460550  0.06179850  1
  O  O82  1  0.95122200  0.13371800  0.21440000  1
  O  O83  1  0.73008650  0.00539450  0.56179850  1
  O  O84  1  0.57535150  0.35641050  0.50920450  1
  O  O85  1  0.54877800  0.86628200  0.71440000  1
  O  O86  1  0.92464850  0.35641050  0.49079550  1
  O  O87  1  0.42464850  0.64358950  0.49079550  1
  O  O88  1  0.45122200  0.13371800  0.28560000  1
  O  O89  1  0.92464850  0.85641050  0.50920450  1
  O  O90  1  0.70967000  0.22460100  0.38642100  1
  O  O91  1  0.45122200  0.86628200  0.21440000  1
  O  O92  1  0.73008650  0.99460550  0.93820150  1
  O  O93  1  0.04877800  0.13371800  0.71440000  1
  O  O94  1  0.23008650  0.00539450  0.93820150  1
  O  O95  1  0.54877800  0.13371800  0.78560000  1
  O  O96  1  0.29033000  0.77539900  0.61357900  1
  O  O97  1  0.70967000  0.72460100  0.61357900  1
  O  O98  1  0.79033000  0.72460100  0.38642100  1
  O  O99  1  0.26991350  0.00539450  0.06179850  1
  O  O100  1  0.79033000  0.22460100  0.61357900  1
  O  O101  1  0.04877800  0.86628200  0.78560000  1
  O  O102  1  0.20967000  0.27539900  0.61357900  1
  O  O103  1  0.95122200  0.86628200  0.28560000  1
