# generated using pymatgen
data_Ba(CuP2)2
_symmetry_space_group_name_H-M   'P 1'
_cell_length_a   5.46584600
_cell_length_b   10.26065200
_cell_length_c   19.07202800
_cell_angle_alpha   90.00000000
_cell_angle_beta   90.00000000
_cell_angle_gamma   90.00000000
_symmetry_Int_Tables_number   1
_chemical_formula_structural   Ba(CuP2)2
_chemical_formula_sum   'Ba8 Cu16 P32'
_cell_volume   1069.61928681
_cell_formula_units_Z   8
loop_
 _symmetry_equiv_pos_site_id
 _symmetry_equiv_pos_as_xyz
  1  'x, y, z'
loop_
 _atom_site_type_symbol
 _atom_site_label
 _atom_site_symmetry_multiplicity
 _atom_site_fract_x
 _atom_site_fract_y
 _atom_site_fract_z
 _atom_site_occupancy
  Ba  Ba0  1  0.50000000  0.00000000  0.00000000  1
  Ba  Ba1  1  0.75000000  0.75000000  0.75000000  1
  Ba  Ba2  1  0.50000000  0.50000000  0.50000000  1
  Ba  Ba3  1  0.75000000  0.25000000  0.25000000  1
  Ba  Ba4  1  0.00000000  0.00000000  0.50000000  1
  Ba  Ba5  1  0.25000000  0.75000000  0.25000000  1
  Ba  Ba6  1  0.00000000  0.50000000  0.00000000  1
  Ba  Ba7  1  0.25000000  0.25000000  0.75000000  1
  Cu  Cu8  1  0.25000000  0.75000000  0.87158100  1
  Cu  Cu9  1  0.00000000  0.00000000  0.87841900  1
  Cu  Cu10  1  0.25000000  0.75000000  0.62841900  1
  Cu  Cu11  1  0.50000000  0.00000000  0.62158100  1
  Cu  Cu12  1  0.25000000  0.25000000  0.37158100  1
  Cu  Cu13  1  0.00000000  0.50000000  0.37841900  1
  Cu  Cu14  1  0.25000000  0.25000000  0.12841900  1
  Cu  Cu15  1  0.50000000  0.50000000  0.12158100  1
  Cu  Cu16  1  0.75000000  0.75000000  0.37158100  1
  Cu  Cu17  1  0.50000000  0.00000000  0.37841900  1
  Cu  Cu18  1  0.75000000  0.75000000  0.12841900  1
  Cu  Cu19  1  0.00000000  0.00000000  0.12158100  1
  Cu  Cu20  1  0.75000000  0.25000000  0.87158100  1
  Cu  Cu21  1  0.50000000  0.50000000  0.87841900  1
  Cu  Cu22  1  0.75000000  0.25000000  0.62841900  1
  Cu  Cu23  1  0.00000000  0.50000000  0.62158100  1
  P  P24  1  0.56752550  0.80944300  0.55409050  1
  P  P25  1  0.93247450  0.69055700  0.55409050  1
  P  P26  1  0.18247450  0.55944300  0.80409050  1
  P  P27  1  0.56752550  0.69055700  0.94590950  1
  P  P28  1  0.31752550  0.94055700  0.80409050  1
  P  P29  1  0.31752550  0.55944300  0.69590950  1
  P  P30  1  0.93247450  0.80944300  0.94590950  1
  P  P31  1  0.18247450  0.94055700  0.69590950  1
  P  P32  1  0.56752550  0.30944300  0.05409050  1
  P  P33  1  0.93247450  0.19055700  0.05409050  1
  P  P34  1  0.18247450  0.05944300  0.30409050  1
  P  P35  1  0.56752550  0.19055700  0.44590950  1
  P  P36  1  0.31752550  0.44055700  0.30409050  1
  P  P37  1  0.31752550  0.05944300  0.19590950  1
  P  P38  1  0.93247450  0.30944300  0.44590950  1
  P  P39  1  0.18247450  0.44055700  0.19590950  1
  P  P40  1  0.06752550  0.80944300  0.05409050  1
  P  P41  1  0.43247450  0.69055700  0.05409050  1
  P  P42  1  0.68247450  0.55944300  0.30409050  1
  P  P43  1  0.06752550  0.69055700  0.44590950  1
  P  P44  1  0.81752550  0.94055700  0.30409050  1
  P  P45  1  0.81752550  0.55944300  0.19590950  1
  P  P46  1  0.43247450  0.80944300  0.44590950  1
  P  P47  1  0.68247450  0.94055700  0.19590950  1
  P  P48  1  0.06752550  0.30944300  0.55409050  1
  P  P49  1  0.43247450  0.19055700  0.55409050  1
  P  P50  1  0.68247450  0.05944300  0.80409050  1
  P  P51  1  0.06752550  0.19055700  0.94590950  1
  P  P52  1  0.81752550  0.44055700  0.80409050  1
  P  P53  1  0.81752550  0.05944300  0.69590950  1
  P  P54  1  0.43247450  0.30944300  0.94590950  1
  P  P55  1  0.68247450  0.44055700  0.69590950  1
