# generated using pymatgen
data_Li2U3V2O15
_symmetry_space_group_name_H-M   'P 1'
_cell_length_a   7.44855800
_cell_length_b   7.44855800
_cell_length_c   24.97773800
_cell_angle_alpha   90.00000000
_cell_angle_beta   90.00000000
_cell_angle_gamma   90.00000000
_symmetry_Int_Tables_number   1
_chemical_formula_structural   Li2U3V2O15
_chemical_formula_sum   'Li8 U12 V8 O60'
_cell_volume   1385.79028860
_cell_formula_units_Z   4
loop_
 _symmetry_equiv_pos_site_id
 _symmetry_equiv_pos_as_xyz
  1  'x, y, z'
loop_
 _atom_site_type_symbol
 _atom_site_label
 _atom_site_symmetry_multiplicity
 _atom_site_fract_x
 _atom_site_fract_y
 _atom_site_fract_z
 _atom_site_occupancy
  Li  Li0  1  0.00000000  0.00000000  0.34437100  1
  Li  Li1  1  0.50000000  0.00000000  0.40562900  1
  Li  Li2  1  0.50000000  0.00000000  0.09437100  1
  Li  Li3  1  0.50000000  0.50000000  0.15562900  1
  Li  Li4  1  0.50000000  0.50000000  0.84437100  1
  Li  Li5  1  0.00000000  0.50000000  0.90562900  1
  Li  Li6  1  0.00000000  0.50000000  0.59437100  1
  Li  Li7  1  0.00000000  0.00000000  0.65562900  1
  U  U8  1  0.50000000  0.50000000  0.41500400  1
  U  U9  1  0.00000000  0.50000000  0.33499600  1
  U  U10  1  0.00000000  0.00000000  0.08499600  1
  U  U11  1  0.00000000  0.50000000  0.16500400  1
  U  U12  1  0.50000000  0.50000000  0.00000000  1
  U  U13  1  0.50000000  0.00000000  0.25000000  1
  U  U14  1  0.00000000  0.00000000  0.91500400  1
  U  U15  1  0.50000000  0.00000000  0.83499600  1
  U  U16  1  0.50000000  0.50000000  0.58499600  1
  U  U17  1  0.50000000  0.00000000  0.66500400  1
  U  U18  1  0.00000000  0.00000000  0.50000000  1
  U  U19  1  0.00000000  0.50000000  0.75000000  1
  V  V20  1  0.50000000  0.50000000  0.28227300  1
  V  V21  1  0.00000000  0.50000000  0.46772700  1
  V  V22  1  0.00000000  0.50000000  0.03227300  1
  V  V23  1  0.00000000  0.00000000  0.21772700  1
  V  V24  1  0.00000000  0.00000000  0.78227300  1
  V  V25  1  0.50000000  0.00000000  0.96772700  1
  V  V26  1  0.50000000  0.00000000  0.53227300  1
  V  V27  1  0.50000000  0.50000000  0.71772700  1
  O  O28  1  0.17756950  0.50000000  0.42225850  1
  O  O29  1  0.75427200  0.00000000  0.08685000  1
  O  O30  1  0.50000000  0.00000000  0.17637200  1
  O  O31  1  0.00000000  0.25427200  0.33685000  1
  O  O32  1  0.30625600  0.00000000  0.49336800  1
  O  O33  1  0.00000000  0.82243050  0.17225850  1
  O  O34  1  0.50000000  0.25427200  0.41315000  1
  O  O35  1  0.50000000  0.74572800  0.41315000  1
  O  O36  1  0.50000000  0.00000000  0.32362800  1
  O  O37  1  0.82243050  0.50000000  0.42225850  1
  O  O38  1  0.67756950  0.50000000  0.32774150  1
  O  O39  1  0.00000000  0.32243050  0.07774150  1
  O  O40  1  0.75427200  0.50000000  0.16315000  1
  O  O41  1  0.50000000  0.30625600  0.24336800  1
  O  O42  1  0.24572800  0.50000000  0.16315000  1
  O  O43  1  0.24572800  0.00000000  0.08685000  1
  O  O44  1  0.50000000  0.19374400  0.00663200  1
  O  O45  1  0.50000000  0.50000000  0.07362800  1
  O  O46  1  0.00000000  0.74572800  0.33685000  1
  O  O47  1  0.00000000  0.50000000  0.25000000  1
  O  O48  1  0.50000000  0.80625600  0.00663200  1
  O  O49  1  0.00000000  0.17756950  0.17225850  1
  O  O50  1  0.00000000  0.67756950  0.07774150  1
  O  O51  1  0.80625600  0.00000000  0.25663200  1
  O  O52  1  0.50000000  0.69374400  0.24336800  1
  O  O53  1  0.69374400  0.00000000  0.49336800  1
  O  O54  1  0.32243050  0.50000000  0.32774150  1
  O  O55  1  0.19374400  0.00000000  0.25663200  1
  O  O56  1  0.00000000  0.00000000  0.00000000  1
  O  O57  1  0.00000000  0.00000000  0.42637200  1
  O  O58  1  0.67756950  0.00000000  0.92225850  1
  O  O59  1  0.25427200  0.50000000  0.58685000  1
  O  O60  1  0.00000000  0.50000000  0.67637200  1
  O  O61  1  0.50000000  0.75427200  0.83685000  1
  O  O62  1  0.80625600  0.50000000  0.99336800  1
  O  O63  1  0.50000000  0.32243050  0.67225850  1
  O  O64  1  0.00000000  0.75427200  0.91315000  1
  O  O65  1  0.00000000  0.24572800  0.91315000  1
  O  O66  1  0.00000000  0.50000000  0.82362800  1
  O  O67  1  0.32243050  0.00000000  0.92225850  1
  O  O68  1  0.17756950  0.00000000  0.82774150  1
  O  O69  1  0.50000000  0.82243050  0.57774150  1
  O  O70  1  0.25427200  0.00000000  0.66315000  1
  O  O71  1  0.00000000  0.80625600  0.74336800  1
  O  O72  1  0.74572800  0.00000000  0.66315000  1
  O  O73  1  0.74572800  0.50000000  0.58685000  1
  O  O74  1  0.00000000  0.69374400  0.50663200  1
  O  O75  1  0.00000000  0.00000000  0.57362800  1
  O  O76  1  0.50000000  0.24572800  0.83685000  1
  O  O77  1  0.50000000  0.00000000  0.75000000  1
  O  O78  1  0.00000000  0.30625600  0.50663200  1
  O  O79  1  0.50000000  0.67756950  0.67225850  1
  O  O80  1  0.50000000  0.17756950  0.57774150  1
  O  O81  1  0.30625600  0.50000000  0.75663200  1
  O  O82  1  0.00000000  0.19374400  0.74336800  1
  O  O83  1  0.19374400  0.50000000  0.99336800  1
  O  O84  1  0.82243050  0.00000000  0.82774150  1
  O  O85  1  0.69374400  0.50000000  0.75663200  1
  O  O86  1  0.50000000  0.50000000  0.50000000  1
  O  O87  1  0.50000000  0.50000000  0.92637200  1
