# generated using pymatgen
data_Eu3Sb5O12
_symmetry_space_group_name_H-M   'P 1'
_cell_length_a   11.04807400
_cell_length_b   11.04807400
_cell_length_c   11.04807400
_cell_angle_alpha   90.00000000
_cell_angle_beta   90.00000000
_cell_angle_gamma   90.00000000
_symmetry_Int_Tables_number   1
_chemical_formula_structural   Eu3Sb5O12
_chemical_formula_sum   'Eu12 Sb20 O48'
_cell_volume   1348.52723972
_cell_formula_units_Z   4
loop_
 _symmetry_equiv_pos_site_id
 _symmetry_equiv_pos_as_xyz
  1  'x, y, z'
loop_
 _atom_site_type_symbol
 _atom_site_label
 _atom_site_symmetry_multiplicity
 _atom_site_fract_x
 _atom_site_fract_y
 _atom_site_fract_z
 _atom_site_occupancy
  Eu  Eu0  1  0.50000000  0.00000000  0.25000000  1
  Eu  Eu1  1  0.25000000  0.50000000  0.00000000  1
  Eu  Eu2  1  0.25000000  0.00000000  0.50000000  1
  Eu  Eu3  1  0.50000000  0.25000000  0.00000000  1
  Eu  Eu4  1  0.00000000  0.25000000  0.50000000  1
  Eu  Eu5  1  0.00000000  0.50000000  0.25000000  1
  Eu  Eu6  1  0.00000000  0.50000000  0.75000000  1
  Eu  Eu7  1  0.75000000  0.00000000  0.50000000  1
  Eu  Eu8  1  0.75000000  0.50000000  0.00000000  1
  Eu  Eu9  1  0.00000000  0.75000000  0.50000000  1
  Eu  Eu10  1  0.50000000  0.75000000  0.00000000  1
  Eu  Eu11  1  0.50000000  0.00000000  0.75000000  1
  Sb  Sb12  1  0.00000000  0.27673700  0.00000000  1
  Sb  Sb13  1  0.00000000  0.72326300  0.00000000  1
  Sb  Sb14  1  0.00000000  0.00000000  0.72326300  1
  Sb  Sb15  1  0.00000000  0.00000000  0.27673700  1
  Sb  Sb16  1  0.27673700  0.00000000  0.00000000  1
  Sb  Sb17  1  0.72326300  0.00000000  0.00000000  1
  Sb  Sb18  1  0.25127700  0.25127700  0.25127700  1
  Sb  Sb19  1  0.24872300  0.24872300  0.75127700  1
  Sb  Sb20  1  0.75127700  0.24872300  0.24872300  1
  Sb  Sb21  1  0.24872300  0.75127700  0.24872300  1
  Sb  Sb22  1  0.50000000  0.77673700  0.50000000  1
  Sb  Sb23  1  0.50000000  0.22326300  0.50000000  1
  Sb  Sb24  1  0.50000000  0.50000000  0.22326300  1
  Sb  Sb25  1  0.50000000  0.50000000  0.77673700  1
  Sb  Sb26  1  0.77673700  0.50000000  0.50000000  1
  Sb  Sb27  1  0.22326300  0.50000000  0.50000000  1
  Sb  Sb28  1  0.75127700  0.75127700  0.75127700  1
  Sb  Sb29  1  0.74872300  0.74872300  0.25127700  1
  Sb  Sb30  1  0.25127700  0.74872300  0.74872300  1
  Sb  Sb31  1  0.74872300  0.25127700  0.74872300  1
  O  O32  1  0.39819600  0.39819600  0.11497800  1
  O  O33  1  0.38502200  0.10180400  0.89819600  1
  O  O34  1  0.61497800  0.10180400  0.10180400  1
  O  O35  1  0.10180400  0.61497800  0.10180400  1
  O  O36  1  0.10180400  0.38502200  0.89819600  1
  O  O37  1  0.89819600  0.10180400  0.38502200  1
  O  O38  1  0.10180400  0.89819600  0.38502200  1
  O  O39  1  0.89819600  0.38502200  0.10180400  1
  O  O40  1  0.38502200  0.89819600  0.10180400  1
  O  O41  1  0.11497800  0.39819600  0.39819600  1
  O  O42  1  0.39819600  0.11497800  0.39819600  1
  O  O43  1  0.10180400  0.10180400  0.61497800  1
  O  O44  1  0.13627700  0.33385200  0.13627700  1
  O  O45  1  0.86372300  0.66614800  0.13627700  1
  O  O46  1  0.13627700  0.66614800  0.86372300  1
  O  O47  1  0.86372300  0.13627700  0.66614800  1
  O  O48  1  0.36372300  0.36372300  0.83385200  1
  O  O49  1  0.83385200  0.36372300  0.36372300  1
  O  O50  1  0.66614800  0.13627700  0.86372300  1
  O  O51  1  0.66614800  0.86372300  0.13627700  1
  O  O52  1  0.13627700  0.86372300  0.66614800  1
  O  O53  1  0.13627700  0.13627700  0.33385200  1
  O  O54  1  0.33385200  0.13627700  0.13627700  1
  O  O55  1  0.36372300  0.83385200  0.36372300  1
  O  O56  1  0.89819600  0.89819600  0.61497800  1
  O  O57  1  0.88502200  0.60180400  0.39819600  1
  O  O58  1  0.11497800  0.60180400  0.60180400  1
  O  O59  1  0.60180400  0.11497800  0.60180400  1
  O  O60  1  0.60180400  0.88502200  0.39819600  1
  O  O61  1  0.39819600  0.60180400  0.88502200  1
  O  O62  1  0.60180400  0.39819600  0.88502200  1
  O  O63  1  0.39819600  0.88502200  0.60180400  1
  O  O64  1  0.88502200  0.39819600  0.60180400  1
  O  O65  1  0.61497800  0.89819600  0.89819600  1
  O  O66  1  0.89819600  0.61497800  0.89819600  1
  O  O67  1  0.60180400  0.60180400  0.11497800  1
  O  O68  1  0.63627700  0.83385200  0.63627700  1
  O  O69  1  0.36372300  0.16614800  0.63627700  1
  O  O70  1  0.63627700  0.16614800  0.36372300  1
  O  O71  1  0.36372300  0.63627700  0.16614800  1
  O  O72  1  0.86372300  0.86372300  0.33385200  1
  O  O73  1  0.33385200  0.86372300  0.86372300  1
  O  O74  1  0.16614800  0.63627700  0.36372300  1
  O  O75  1  0.16614800  0.36372300  0.63627700  1
  O  O76  1  0.63627700  0.36372300  0.16614800  1
  O  O77  1  0.63627700  0.63627700  0.83385200  1
  O  O78  1  0.83385200  0.63627700  0.63627700  1
  O  O79  1  0.86372300  0.33385200  0.86372300  1
