# generated using pymatgen
data_Na2UCl6
_symmetry_space_group_name_H-M   'P 1'
_cell_length_a   12.11616552
_cell_length_b   12.11616552
_cell_length_c   6.26608800
_cell_angle_alpha   90.00000000
_cell_angle_beta   90.00000000
_cell_angle_gamma   120.00000000
_symmetry_Int_Tables_number   1
_chemical_formula_structural   Na2UCl6
_chemical_formula_sum   'Na6 U3 Cl18'
_cell_volume   796.63157662
_cell_formula_units_Z   3
loop_
 _symmetry_equiv_pos_site_id
 _symmetry_equiv_pos_as_xyz
  1  'x, y, z'
loop_
 _atom_site_type_symbol
 _atom_site_label
 _atom_site_symmetry_multiplicity
 _atom_site_fract_x
 _atom_site_fract_y
 _atom_site_fract_z
 _atom_site_occupancy
  Na  Na0  1  0.66044250  0.00000000  0.00000000  1
  Na  Na1  1  0.33955750  0.00000000  0.00000000  1
  Na  Na2  1  0.00000000  0.66044250  0.00000000  1
  Na  Na3  1  0.66044250  0.66044250  0.00000000  1
  Na  Na4  1  0.33955750  0.33955750  0.00000000  1
  Na  Na5  1  0.00000000  0.33955750  0.00000000  1
  U  U6  1  0.66666667  0.33333333  0.50516200  1
  U  U7  1  0.33333333  0.66666667  0.49483800  1
  U  U8  1  0.00000000  0.00000000  0.00000000  1
  Cl  Cl9  1  0.56367900  0.12735800  0.75028200  1
  Cl  Cl10  1  0.77021000  0.22979000  0.26724200  1
  Cl  Cl11  1  0.78917300  0.89458650  0.22744200  1
  Cl  Cl12  1  0.43632100  0.56367900  0.24971800  1
  Cl  Cl13  1  0.77021000  0.54042000  0.26724200  1
  Cl  Cl14  1  0.10541350  0.21082700  0.22744200  1
  Cl  Cl15  1  0.22979000  0.77021000  0.73275800  1
  Cl  Cl16  1  0.56367900  0.43632100  0.75028200  1
  Cl  Cl17  1  0.22979000  0.45958000  0.73275800  1
  Cl  Cl18  1  0.12735800  0.56367900  0.24971800  1
  Cl  Cl19  1  0.21082700  0.10541350  0.77255800  1
  Cl  Cl20  1  0.10541350  0.89458650  0.22744200  1
  Cl  Cl21  1  0.54042000  0.77021000  0.73275800  1
  Cl  Cl22  1  0.43632100  0.87264200  0.24971800  1
  Cl  Cl23  1  0.89458650  0.10541350  0.77255800  1
  Cl  Cl24  1  0.87264200  0.43632100  0.75028200  1
  Cl  Cl25  1  0.45958000  0.22979000  0.26724200  1
  Cl  Cl26  1  0.89458650  0.78917300  0.77255800  1
