# generated using pymatgen
data_Sr3Fe2(SeO3)6
_symmetry_space_group_name_H-M   'P 1'
_cell_length_a   8.92065214
_cell_length_b   8.92065214
_cell_length_c   40.21129460
_cell_angle_alpha   90.00000000
_cell_angle_beta   90.00000000
_cell_angle_gamma   120.00000000
_symmetry_Int_Tables_number   1
_chemical_formula_structural   Sr3Fe2(SeO3)6
_chemical_formula_sum   'Sr18 Fe12 Se36 O108'
_cell_volume   2771.22568892
_cell_formula_units_Z   6
loop_
 _symmetry_equiv_pos_site_id
 _symmetry_equiv_pos_as_xyz
  1  'x, y, z'
loop_
 _atom_site_type_symbol
 _atom_site_label
 _atom_site_symmetry_multiplicity
 _atom_site_fract_x
 _atom_site_fract_y
 _atom_site_fract_z
 _atom_site_occupancy
  Sr  Sr0  1  0.25501267  0.33333333  0.08333333  1
  Sr  Sr1  1  0.07832067  0.74498733  0.08333333  1
  Sr  Sr2  1  0.41165400  0.00000000  0.25000000  1
  Sr  Sr3  1  0.58834600  0.58834600  0.25000000  1
  Sr  Sr4  1  0.00000000  0.41165400  0.25000000  1
  Sr  Sr5  1  0.66666667  0.92167933  0.08333333  1
  Sr  Sr6  1  0.92167933  0.66666667  0.41666667  1
  Sr  Sr7  1  0.74498733  0.07832067  0.41666667  1
  Sr  Sr8  1  0.07832067  0.33333333  0.58333333  1
  Sr  Sr9  1  0.25501267  0.92167933  0.58333333  1
  Sr  Sr10  1  0.66666667  0.74498733  0.58333333  1
  Sr  Sr11  1  0.33333333  0.25501267  0.41666667  1
  Sr  Sr12  1  0.58834600  0.00000000  0.75000000  1
  Sr  Sr13  1  0.41165400  0.41165400  0.75000000  1
  Sr  Sr14  1  0.74498733  0.66666667  0.91666667  1
  Sr  Sr15  1  0.92167933  0.25501267  0.91666667  1
  Sr  Sr16  1  0.33333333  0.07832067  0.91666667  1
  Sr  Sr17  1  0.00000000  0.58834600  0.75000000  1
  Fe  Fe18  1  0.33333333  0.66666667  0.16666667  1
  Fe  Fe19  1  0.00000000  0.00000000  0.00000000  1
  Fe  Fe20  1  0.66666667  0.33333333  0.08333333  1
  Fe  Fe21  1  0.00000000  0.00000000  0.25000000  1
  Fe  Fe22  1  1.00000000  0.00000000  0.50000000  1
  Fe  Fe23  1  0.66666667  0.33333333  0.33333333  1
  Fe  Fe24  1  0.33333333  0.66666667  0.41666667  1
  Fe  Fe25  1  0.66666667  0.33333333  0.58333333  1
  Fe  Fe26  1  0.66666667  0.33333333  0.83333333  1
  Fe  Fe27  1  0.33333333  0.66666667  0.66666667  1
  Fe  Fe28  1  0.00000000  0.00000000  0.75000000  1
  Fe  Fe29  1  0.33333333  0.66666667  0.91666667  1
  Se  Se30  1  0.66941633  0.62018467  0.13718767  1
  Se  Se31  1  0.28685133  0.28410167  0.19614567  1
  Se  Se32  1  0.66391700  0.61743500  0.02947900  1
  Se  Se33  1  0.37981533  0.04923167  0.13718767  1
  Se  Se34  1  0.95351800  0.33608300  0.02947900  1
  Se  Se35  1  0.95076833  0.33058367  0.13718767  1
  Se  Se36  1  0.00274967  0.71589833  0.30385433  1
  Se  Se37  1  0.71589833  0.00274967  0.19614567  1
  Se  Se38  1  0.28410167  0.28685133  0.30385433  1
  Se  Se39  1  0.99725033  0.71314867  0.19614567  1
  Se  Se40  1  0.71314867  0.99725033  0.30385433  1
  Se  Se41  1  0.38256500  0.04648200  0.02947900  1
  Se  Se42  1  0.33608300  0.95351800  0.47052100  1
  Se  Se43  1  0.95351800  0.61743500  0.52947900  1
  Se  Se44  1  0.33058367  0.95076833  0.36281233  1
  Se  Se45  1  0.04648200  0.38256500  0.47052100  1
  Se  Se46  1  0.62018467  0.66941633  0.36281233  1
  Se  Se47  1  0.61743500  0.66391700  0.47052100  1
  Se  Se48  1  0.66941633  0.04923167  0.63718767  1
  Se  Se49  1  0.38256500  0.33608300  0.52947900  1
  Se  Se50  1  0.95076833  0.62018467  0.63718767  1
  Se  Se51  1  0.66391700  0.04648200  0.52947900  1
  Se  Se52  1  0.37981533  0.33058367  0.63718767  1
  Se  Se53  1  0.04923167  0.37981533  0.36281233  1
  Se  Se54  1  0.00274967  0.28685133  0.80385433  1
  Se  Se55  1  0.62018467  0.95076833  0.86281233  1
  Se  Se56  1  0.99725033  0.28410167  0.69614567  1
  Se  Se57  1  0.71314867  0.71589833  0.80385433  1
  Se  Se58  1  0.28685133  0.00274967  0.69614567  1
  Se  Se59  1  0.28410167  0.99725033  0.80385433  1
  Se  Se60  1  0.33608300  0.38256500  0.97052100  1
  Se  Se61  1  0.04923167  0.66941633  0.86281233  1
  Se  Se62  1  0.61743500  0.95351800  0.97052100  1
  Se  Se63  1  0.33058367  0.37981533  0.86281233  1
  Se  Se64  1  0.04648200  0.66391700  0.97052100  1
  Se  Se65  1  0.71589833  0.71314867  0.69614567  1
  O  O66  1  0.09840533  0.49213267  0.05495467  1
  O  O67  1  0.09665033  0.21441067  0.21978667  1
  O  O68  1  0.15879933  0.72706067  0.27837867  1
  O  O69  1  0.43173867  0.27293933  0.22162133  1
  O  O70  1  0.29208100  0.82359800  0.13558700  1
  O  O71  1  0.04125233  0.19818367  0.03107967  1
  O  O72  1  0.23492800  0.06039400  0.11171200  1
  O  O73  1  0.54890633  0.42998367  0.11354667  1
  O  O74  1  0.82546600  0.76507200  0.11171200  1
  O  O75  1  0.86485033  0.49026467  0.30225367  1
  O  O76  1  0.88223967  0.78558933  0.28021333  1
  O  O77  1  0.45225600  0.23668300  0.05312000  1
  O  O78  1  0.13514967  0.62541433  0.19774633  1
  O  O79  1  0.11776033  0.90334967  0.21978667  1
  O  O80  1  0.53151700  0.70791900  0.13558700  1
  O  O81  1  0.90334967  0.11776033  0.28021333  1
  O  O82  1  0.56826133  0.84120067  0.27837867  1
  O  O83  1  0.17640200  0.46848300  0.13558700  1
  O  O84  1  0.37458567  0.50973533  0.19774633  1
  O  O85  1  0.50786733  0.60627267  0.05495467  1
  O  O86  1  0.84120067  0.56826133  0.22162133  1
  O  O87  1  0.88107733  0.45109367  0.11354667  1
  O  O88  1  0.27293933  0.43173867  0.27837867  1
  O  O89  1  0.72706067  0.15879933  0.22162133  1
  O  O90  1  0.78442700  0.54774400  0.05312000  1
  O  O91  1  0.76331700  0.21557300  0.05312000  1
  O  O92  1  0.57001633  0.11892267  0.11354667  1
  O  O93  1  0.80181633  0.84306867  0.03107967  1
  O  O94  1  0.39372733  0.90159467  0.05495467  1
  O  O95  1  0.50973533  0.37458567  0.30225367  1
  O  O96  1  0.93960600  0.17453400  0.11171200  1
  O  O97  1  0.62541433  0.13514967  0.30225367  1
  O  O98  1  0.21441067  0.09665033  0.28021333  1
  O  O99  1  0.78558933  0.88223967  0.21978667  1
  O  O100  1  0.15693133  0.95874767  0.03107967  1
  O  O101  1  0.49026467  0.86485033  0.19774633  1
  O  O102  1  0.76507200  0.82546600  0.38828800  1
  O  O103  1  0.76331700  0.54774400  0.55312000  1
  O  O104  1  0.82546600  0.06039400  0.61171200  1
  O  O105  1  0.09840533  0.60627267  0.55495467  1
  O  O106  1  0.95874767  0.15693133  0.46892033  1
  O  O107  1  0.70791900  0.53151700  0.36441300  1
  O  O108  1  0.90159467  0.39372733  0.44504533  1
  O  O109  1  0.21557300  0.76331700  0.44688000  1
  O  O110  1  0.49213267  0.09840533  0.44504533  1
  O  O111  1  0.53151700  0.82359800  0.63558700  1
  O  O112  1  0.54890633  0.11892267  0.61354667  1
  O  O113  1  0.11892267  0.57001633  0.38645333  1
  O  O114  1  0.80181633  0.95874767  0.53107967  1
  O  O115  1  0.78442700  0.23668300  0.55312000  1
  O  O116  1  0.19818367  0.04125233  0.46892033  1
  O  O117  1  0.57001633  0.45109367  0.61354667  1
  O  O118  1  0.23492800  0.17453400  0.61171200  1
  O  O119  1  0.84306867  0.80181633  0.46892033  1
  O  O120  1  0.04125233  0.84306867  0.53107967  1
  O  O121  1  0.17453400  0.93960600  0.38828800  1
  O  O122  1  0.50786733  0.90159467  0.55495467  1
  O  O123  1  0.54774400  0.78442700  0.44688000  1
  O  O124  1  0.93960600  0.76507200  0.61171200  1
  O  O125  1  0.39372733  0.49213267  0.55495467  1
  O  O126  1  0.45109367  0.88107733  0.38645333  1
  O  O127  1  0.42998367  0.54890633  0.38645333  1
  O  O128  1  0.23668300  0.45225600  0.44688000  1
  O  O129  1  0.46848300  0.17640200  0.36441300  1
  O  O130  1  0.06039400  0.23492800  0.38828800  1
  O  O131  1  0.17640200  0.70791900  0.63558700  1
  O  O132  1  0.60627267  0.50786733  0.44504533  1
  O  O133  1  0.29208100  0.46848300  0.63558700  1
  O  O134  1  0.88107733  0.42998367  0.61354667  1
  O  O135  1  0.45225600  0.21557300  0.55312000  1
  O  O136  1  0.82359800  0.29208100  0.36441300  1
  O  O137  1  0.15693133  0.19818367  0.53107967  1
  O  O138  1  0.43173867  0.15879933  0.72162133  1
  O  O139  1  0.42998367  0.88107733  0.88645333  1
  O  O140  1  0.49213267  0.39372733  0.94504533  1
  O  O141  1  0.76507200  0.93960600  0.88828800  1
  O  O142  1  0.62541433  0.49026467  0.80225367  1
  O  O143  1  0.37458567  0.86485033  0.69774633  1
  O  O144  1  0.56826133  0.72706067  0.77837867  1
  O  O145  1  0.88223967  0.09665033  0.78021333  1
  O  O146  1  0.15879933  0.43173867  0.77837867  1
  O  O147  1  0.19818367  0.15693133  0.96892033  1
  O  O148  1  0.21557300  0.45225600  0.94688000  1
  O  O149  1  0.78558933  0.90334967  0.71978667  1
  O  O150  1  0.46848300  0.29208100  0.86441300  1
  O  O151  1  0.45109367  0.57001633  0.88645333  1
  O  O152  1  0.86485033  0.37458567  0.80225367  1
  O  O153  1  0.23668300  0.78442700  0.94688000  1
  O  O154  1  0.90159467  0.50786733  0.94504533  1
  O  O155  1  0.50973533  0.13514967  0.80225367  1
  O  O156  1  0.70791900  0.17640200  0.86441300  1
  O  O157  1  0.84120067  0.27293933  0.72162133  1
  O  O158  1  0.17453400  0.23492800  0.88828800  1
  O  O159  1  0.21441067  0.11776033  0.78021333  1
  O  O160  1  0.60627267  0.09840533  0.94504533  1
  O  O161  1  0.06039400  0.82546600  0.88828800  1
  O  O162  1  0.11776033  0.21441067  0.71978667  1
  O  O163  1  0.09665033  0.88223967  0.71978667  1
  O  O164  1  0.90334967  0.78558933  0.78021333  1
  O  O165  1  0.13514967  0.50973533  0.69774633  1
  O  O166  1  0.72706067  0.56826133  0.72162133  1
  O  O167  1  0.84306867  0.04125233  0.96892033  1
  O  O168  1  0.27293933  0.84120067  0.77837867  1
  O  O169  1  0.95874767  0.80181633  0.96892033  1
  O  O170  1  0.54774400  0.76331700  0.94688000  1
  O  O171  1  0.11892267  0.54890633  0.88645333  1
  O  O172  1  0.49026467  0.62541433  0.69774633  1
  O  O173  1  0.82359800  0.53151700  0.86441300  1
