# generated using pymatgen
data_Er3(CuSi)4
_symmetry_space_group_name_H-M   'P 1'
_cell_length_a   4.11229400
_cell_length_b   6.51315800
_cell_length_c   13.59236400
_cell_angle_alpha   90.00000000
_cell_angle_beta   90.00000000
_cell_angle_gamma   90.00000000
_symmetry_Int_Tables_number   1
_chemical_formula_structural   Er3(CuSi)4
_chemical_formula_sum   'Er6 Cu8 Si8'
_cell_volume   364.05815690
_cell_formula_units_Z   2
loop_
 _symmetry_equiv_pos_site_id
 _symmetry_equiv_pos_as_xyz
  1  'x, y, z'
loop_
 _atom_site_type_symbol
 _atom_site_label
 _atom_site_symmetry_multiplicity
 _atom_site_fract_x
 _atom_site_fract_y
 _atom_site_fract_z
 _atom_site_occupancy
  Er  Er0  1  0.00000000  0.00000000  0.87167000  1
  Er  Er1  1  0.50000000  0.50000000  0.62833000  1
  Er  Er2  1  0.00000000  0.50000000  0.00000000  1
  Er  Er3  1  0.50000000  0.50000000  0.37167000  1
  Er  Er4  1  0.00000000  0.00000000  0.12833000  1
  Er  Er5  1  0.50000000  0.00000000  0.50000000  1
  Cu  Cu6  1  0.50000000  0.69124400  0.83173000  1
  Cu  Cu7  1  0.00000000  0.19124400  0.66827000  1
  Cu  Cu8  1  0.50000000  0.30875600  0.83173000  1
  Cu  Cu9  1  0.00000000  0.80875600  0.66827000  1
  Cu  Cu10  1  0.00000000  0.19124400  0.33173000  1
  Cu  Cu11  1  0.50000000  0.69124400  0.16827000  1
  Cu  Cu12  1  0.00000000  0.80875600  0.33173000  1
  Cu  Cu13  1  0.50000000  0.30875600  0.16827000  1
  Si  Si14  1  0.50000000  0.81527600  0.00000000  1
  Si  Si15  1  0.50000000  0.18472400  0.00000000  1
  Si  Si16  1  0.00000000  0.50000000  0.78428700  1
  Si  Si17  1  0.50000000  0.00000000  0.71571300  1
  Si  Si18  1  0.00000000  0.31527600  0.50000000  1
  Si  Si19  1  0.00000000  0.68472400  0.50000000  1
  Si  Si20  1  0.50000000  0.00000000  0.28428700  1
  Si  Si21  1  0.00000000  0.50000000  0.21571300  1
