# generated using pymatgen
data_TiMn2O4
_symmetry_space_group_name_H-M   'P 1'
_cell_length_a   6.23290650
_cell_length_b   6.23290650
_cell_length_c   8.70939300
_cell_angle_alpha   90.00000000
_cell_angle_beta   90.00000000
_cell_angle_gamma   90.00000000
_symmetry_Int_Tables_number   1
_chemical_formula_structural   TiMn2O4
_chemical_formula_sum   'Ti4 Mn8 O16'
_cell_volume   338.35228373
_cell_formula_units_Z   4
loop_
 _symmetry_equiv_pos_site_id
 _symmetry_equiv_pos_as_xyz
  1  'x, y, z'
loop_
 _atom_site_type_symbol
 _atom_site_label
 _atom_site_symmetry_multiplicity
 _atom_site_fract_x
 _atom_site_fract_y
 _atom_site_fract_z
 _atom_site_occupancy
  Ti  Ti0  1  0.50000000  0.24463850  0.00000000  1
  Ti  Ti1  1  0.75536150  0.50000000  0.75000000  1
  Ti  Ti2  1  0.24463850  0.50000000  0.25000000  1
  Ti  Ti3  1  0.50000000  0.75536150  0.50000000  1
  Mn  Mn4  1  0.00000000  0.25542750  0.00000000  1
  Mn  Mn5  1  0.74457250  0.00000000  0.75000000  1
  Mn  Mn6  1  0.25542750  0.00000000  0.25000000  1
  Mn  Mn7  1  0.00000000  0.74457250  0.50000000  1
  Mn  Mn8  1  0.25185600  0.25185600  0.62500000  1
  Mn  Mn9  1  0.74814400  0.25185600  0.37500000  1
  Mn  Mn10  1  0.25185600  0.74814400  0.87500000  1
  Mn  Mn11  1  0.74814400  0.74814400  0.12500000  1
  O  O12  1  0.27183750  0.03641950  0.99630900  1
  O  O13  1  0.96358050  0.27183750  0.74630900  1
  O  O14  1  0.03641950  0.72816250  0.24630900  1
  O  O15  1  0.27183750  0.96358050  0.50369100  1
  O  O16  1  0.72816250  0.03641950  0.00369100  1
  O  O17  1  0.72816250  0.96358050  0.49630900  1
  O  O18  1  0.03641950  0.27183750  0.25369100  1
  O  O19  1  0.96358050  0.72816250  0.75369100  1
  O  O20  1  0.27056550  0.48608250  0.02222800  1
  O  O21  1  0.51391750  0.27056550  0.77222800  1
  O  O22  1  0.48608250  0.72943450  0.27222800  1
  O  O23  1  0.27056550  0.51391750  0.47777200  1
  O  O24  1  0.72943450  0.48608250  0.97777200  1
  O  O25  1  0.72943450  0.51391750  0.52222800  1
  O  O26  1  0.48608250  0.27056550  0.22777200  1
  O  O27  1  0.51391750  0.72943450  0.72777200  1
