# generated using pymatgen
data_LiMn2NiO6
_symmetry_space_group_name_H-M   'P 1'
_cell_length_a   8.77850621
_cell_length_b   4.99086707
_cell_length_c   10.42357366
_cell_angle_alpha   90.00000000
_cell_angle_beta   94.21647918
_cell_angle_gamma   90.00000000
_symmetry_Int_Tables_number   1
_chemical_formula_structural   LiMn2NiO6
_chemical_formula_sum   'Li4 Mn8 Ni4 O24'
_cell_volume   455.44526969
_cell_formula_units_Z   4
loop_
 _symmetry_equiv_pos_site_id
 _symmetry_equiv_pos_as_xyz
  1  'x, y, z'
loop_
 _atom_site_type_symbol
 _atom_site_label
 _atom_site_symmetry_multiplicity
 _atom_site_fract_x
 _atom_site_fract_y
 _atom_site_fract_z
 _atom_site_occupancy
  Li  Li0  1  0.50000000  0.65660300  0.25000000  1
  Li  Li1  1  0.50000000  0.34339700  0.75000000  1
  Li  Li2  1  0.00000000  0.15660300  0.25000000  1
  Li  Li3  1  0.00000000  0.84339700  0.75000000  1
  Mn  Mn4  1  0.58294400  0.74758100  0.99484000  1
  Mn  Mn5  1  0.41705600  0.74758100  0.50516000  1
  Mn  Mn6  1  0.58294400  0.25241900  0.49484000  1
  Mn  Mn7  1  0.41705600  0.25241900  0.00516000  1
  Mn  Mn8  1  0.08294400  0.24758100  0.99484000  1
  Mn  Mn9  1  0.91705600  0.24758100  0.50516000  1
  Mn  Mn10  1  0.08294400  0.75241900  0.49484000  1
  Mn  Mn11  1  0.91705600  0.75241900  0.00516000  1
  Ni  Ni12  1  0.25000000  0.75000000  0.00000000  1
  Ni  Ni13  1  0.25000000  0.25000000  0.50000000  1
  Ni  Ni14  1  0.75000000  0.25000000  0.00000000  1
  Ni  Ni15  1  0.75000000  0.75000000  0.50000000  1
  O  O16  1  0.42140600  0.56269200  0.89755700  1
  O  O17  1  0.42140600  0.43730800  0.39755700  1
  O  O18  1  0.57859400  0.56269200  0.60244300  1
  O  O19  1  0.57245500  0.09271900  0.90515400  1
  O  O20  1  0.57859400  0.43730800  0.10244300  1
  O  O21  1  0.25598750  0.41935550  0.09235100  1
  O  O22  1  0.57245500  0.90728100  0.40515400  1
  O  O23  1  0.42754500  0.09271900  0.59484600  1
  O  O24  1  0.25598750  0.58064450  0.59235100  1
  O  O25  1  0.74401250  0.58064450  0.90764900  1
  O  O26  1  0.74401250  0.41935550  0.40764900  1
  O  O27  1  0.42754500  0.90728100  0.09484600  1
  O  O28  1  0.92140600  0.06269200  0.89755700  1
  O  O29  1  0.92140600  0.93730800  0.39755700  1
  O  O30  1  0.07859400  0.06269200  0.60244300  1
  O  O31  1  0.07245500  0.59271900  0.90515400  1
  O  O32  1  0.07859400  0.93730800  0.10244300  1
  O  O33  1  0.75598750  0.91935550  0.09235100  1
  O  O34  1  0.07245500  0.40728100  0.40515400  1
  O  O35  1  0.92754500  0.59271900  0.59484600  1
  O  O36  1  0.75598750  0.08064450  0.59235100  1
  O  O37  1  0.24401250  0.08064450  0.90764900  1
  O  O38  1  0.24401250  0.91935550  0.40764900  1
  O  O39  1  0.92754500  0.40728100  0.09484600  1
