# generated using pymatgen
data_Tb2Fe17
_symmetry_space_group_name_H-M   'P 1'
_cell_length_a   8.48069584
_cell_length_b   8.48069584
_cell_length_c   12.40707080
_cell_angle_alpha   90.00000000
_cell_angle_beta   90.00000000
_cell_angle_gamma   120.00000000
_symmetry_Int_Tables_number   1
_chemical_formula_structural   Tb2Fe17
_chemical_formula_sum   'Tb6 Fe51'
_cell_volume   772.79244487
_cell_formula_units_Z   3
loop_
 _symmetry_equiv_pos_site_id
 _symmetry_equiv_pos_as_xyz
  1  'x, y, z'
loop_
 _atom_site_type_symbol
 _atom_site_label
 _atom_site_symmetry_multiplicity
 _atom_site_fract_x
 _atom_site_fract_y
 _atom_site_fract_z
 _atom_site_occupancy
  Tb  Tb0  1  0.33333333  0.66666667  0.32556167  1
  Tb  Tb1  1  0.33333333  0.66666667  0.00777167  1
  Tb  Tb2  1  0.00000000  0.00000000  0.65889500  1
  Tb  Tb3  1  0.00000000  0.00000000  0.34110500  1
  Tb  Tb4  1  0.66666667  0.33333333  0.99222833  1
  Tb  Tb5  1  0.66666667  0.33333333  0.67443833  1
  Fe  Fe6  1  0.16666667  0.83333333  0.83333333  1
  Fe  Fe7  1  0.83333333  0.66666667  0.16666667  1
  Fe  Fe8  1  0.33333333  0.16666667  0.16666667  1
  Fe  Fe9  1  0.96140867  0.62807533  0.33333333  1
  Fe  Fe10  1  0.70525800  1.00000000  0.00000000  1
  Fe  Fe11  1  0.00000000  0.70525800  0.00000000  1
  Fe  Fe12  1  0.29474200  1.00000000  0.00000000  1
  Fe  Fe13  1  0.00000000  0.29474200  0.00000000  1
  Fe  Fe14  1  0.37192467  0.03859133  0.33333333  1
  Fe  Fe15  1  0.16650633  0.83349367  0.17676267  1
  Fe  Fe16  1  0.16650633  0.33301267  0.17676267  1
  Fe  Fe17  1  0.66698733  0.83349367  0.17676267  1
  Fe  Fe18  1  0.50016033  0.49983967  0.15657067  1
  Fe  Fe19  1  0.50016033  0.00032067  0.15657067  1
  Fe  Fe20  1  0.99967933  0.49983967  0.15657067  1
  Fe  Fe21  1  0.33333333  0.66666667  0.56983767  1
  Fe  Fe22  1  0.33333333  0.66666667  0.76349567  1
  Fe  Fe23  1  0.83333333  0.16666667  0.16666667  1
  Fe  Fe24  1  0.50000000  0.00000000  0.50000000  1
  Fe  Fe25  1  0.00000000  0.50000000  0.50000000  1
  Fe  Fe26  1  0.62807533  0.96140867  0.66666667  1
  Fe  Fe27  1  0.37192467  0.33333333  0.33333333  1
  Fe  Fe28  1  0.66666667  0.03859133  0.33333333  1
  Fe  Fe29  1  0.96140867  0.33333333  0.33333333  1
  Fe  Fe30  1  0.66666667  0.62807533  0.33333333  1
  Fe  Fe31  1  0.03859133  0.37192467  0.66666667  1
  Fe  Fe32  1  0.83317300  0.16682700  0.51009600  1
  Fe  Fe33  1  0.83317300  0.66634600  0.51009600  1
  Fe  Fe34  1  0.33365400  0.16682700  0.51009600  1
  Fe  Fe35  1  0.16682700  0.83317300  0.48990400  1
  Fe  Fe36  1  0.16682700  0.33365400  0.48990400  1
  Fe  Fe37  1  0.66634600  0.83317300  0.48990400  1
  Fe  Fe38  1  0.00000000  0.00000000  0.90317100  1
  Fe  Fe39  1  0.00000000  0.00000000  0.09682900  1
  Fe  Fe40  1  0.50000000  0.50000000  0.50000000  1
  Fe  Fe41  1  0.16666667  0.33333333  0.83333333  1
  Fe  Fe42  1  0.66666667  0.83333333  0.83333333  1
  Fe  Fe43  1  0.29474200  0.29474200  0.00000000  1
  Fe  Fe44  1  0.03859133  0.66666667  0.66666667  1
  Fe  Fe45  1  0.33333333  0.37192467  0.66666667  1
  Fe  Fe46  1  0.62807533  0.66666667  0.66666667  1
  Fe  Fe47  1  0.33333333  0.96140867  0.66666667  1
  Fe  Fe48  1  0.70525800  0.70525800  0.00000000  1
  Fe  Fe49  1  0.49983967  0.50016033  0.84342933  1
  Fe  Fe50  1  0.49983967  0.99967933  0.84342933  1
  Fe  Fe51  1  0.00032067  0.50016033  0.84342933  1
  Fe  Fe52  1  0.83349367  0.16650633  0.82323733  1
  Fe  Fe53  1  0.83349367  0.66698733  0.82323733  1
  Fe  Fe54  1  0.33301267  0.16650633  0.82323733  1
  Fe  Fe55  1  0.66666667  0.33333333  0.23650433  1
  Fe  Fe56  1  0.66666667  0.33333333  0.43016233  1
