# generated using pymatgen
data_Ba8V7O22
_symmetry_space_group_name_H-M   'P 1'
_cell_length_a   5.88807962
_cell_length_b   5.88807962
_cell_length_c   58.44919869
_cell_angle_alpha   90.00000000
_cell_angle_beta   90.00000000
_cell_angle_gamma   120.00000000
_symmetry_Int_Tables_number   1
_chemical_formula_structural   Ba8V7O22
_chemical_formula_sum   'Ba24 V21 O66'
_cell_volume   1754.91684162
_cell_formula_units_Z   3
loop_
 _symmetry_equiv_pos_site_id
 _symmetry_equiv_pos_as_xyz
  1  'x, y, z'
loop_
 _atom_site_type_symbol
 _atom_site_label
 _atom_site_symmetry_multiplicity
 _atom_site_fract_x
 _atom_site_fract_y
 _atom_site_fract_z
 _atom_site_occupancy
  Ba  Ba0  1  0.33333333  0.66666667  0.27890167  1
  Ba  Ba1  1  0.33333333  0.66666667  0.05443167  1
  Ba  Ba2  1  0.66666667  0.33333333  0.15229633  1
  Ba  Ba3  1  0.00000000  0.00000000  0.18103700  1
  Ba  Ba4  1  0.66666667  0.33333333  0.22762333  1
  Ba  Ba5  1  0.00000000  0.00000000  0.10571000  1
  Ba  Ba6  1  0.66666667  0.33333333  0.01417933  1
  Ba  Ba7  1  0.00000000  0.00000000  0.31915400  1
  Ba  Ba8  1  0.00000000  0.00000000  0.61223500  1
  Ba  Ba9  1  0.00000000  0.00000000  0.38776500  1
  Ba  Ba10  1  0.33333333  0.66666667  0.48562967  1
  Ba  Ba11  1  0.66666667  0.33333333  0.51437033  1
  Ba  Ba12  1  0.33333333  0.66666667  0.56095667  1
  Ba  Ba13  1  0.66666667  0.33333333  0.43904333  1
  Ba  Ba14  1  0.33333333  0.66666667  0.34751267  1
  Ba  Ba15  1  0.66666667  0.33333333  0.65248733  1
  Ba  Ba16  1  0.66666667  0.33333333  0.94556833  1
  Ba  Ba17  1  0.66666667  0.33333333  0.72109833  1
  Ba  Ba18  1  0.00000000  0.00000000  0.81896300  1
  Ba  Ba19  1  0.33333333  0.66666667  0.84770367  1
  Ba  Ba20  1  0.00000000  0.00000000  0.89429000  1
  Ba  Ba21  1  0.33333333  0.66666667  0.77237667  1
  Ba  Ba22  1  0.00000000  0.00000000  0.68084600  1
  Ba  Ba23  1  0.33333333  0.66666667  0.98582067  1
  V  V24  1  0.00000000  0.00000000  0.00000000  1
  V  V25  1  0.66666667  0.33333333  0.07735433  1
  V  V26  1  0.00000000  0.00000000  0.25597900  1
  V  V27  1  0.33333333  0.66666667  0.20125567  1
  V  V28  1  0.33333333  0.66666667  0.13207767  1
  V  V29  1  0.66666667  0.33333333  0.28838933  1
  V  V30  1  0.00000000  0.00000000  0.04494400  1
  V  V31  1  0.66666667  0.33333333  0.33333333  1
  V  V32  1  0.33333333  0.66666667  0.41068767  1
  V  V33  1  0.66666667  0.33333333  0.58931233  1
  V  V34  1  0.00000000  0.00000000  0.53458900  1
  V  V35  1  0.00000000  0.00000000  0.46541100  1
  V  V36  1  0.33333333  0.66666667  0.62172267  1
  V  V37  1  0.66666667  0.33333333  0.37827733  1
  V  V38  1  0.33333333  0.66666667  0.66666667  1
  V  V39  1  0.00000000  0.00000000  0.74402100  1
  V  V40  1  0.33333333  0.66666667  0.92264567  1
  V  V41  1  0.66666667  0.33333333  0.86792233  1
  V  V42  1  0.66666667  0.33333333  0.79874433  1
  V  V43  1  0.00000000  0.00000000  0.95505600  1
  V  V44  1  0.33333333  0.66666667  0.71161067  1
  O  O45  1  0.33333333  0.66666667  0.23067367  1
  O  O46  1  0.33333333  0.66666667  0.10265967  1
  O  O47  1  0.66666667  0.33333333  0.10697833  1
  O  O48  1  0.00000000  0.00000000  0.22635500  1
  O  O49  1  0.83715567  0.67431133  0.26688933  1
  O  O50  1  0.32568867  0.16284433  0.26688933  1
  O  O51  1  0.83715567  0.16284433  0.26688933  1
  O  O52  1  0.82951100  0.17048900  0.06644400  1
  O  O53  1  0.82951100  0.65902200  0.06644400  1
  O  O54  1  0.34097800  0.17048900  0.06644400  1
  O  O55  1  0.49533767  0.99067533  0.19112833  1
  O  O56  1  0.00932467  0.50466233  0.19112833  1
  O  O57  1  0.49533767  0.50466233  0.19112833  1
  O  O58  1  0.17132900  0.82867100  0.14220500  1
  O  O59  1  0.17132900  0.34265800  0.14220500  1
  O  O60  1  0.69517267  0.84758633  0.02163533  1
  O  O61  1  0.15241367  0.30482733  0.02163533  1
  O  O62  1  0.15241367  0.84758633  0.02163533  1
  O  O63  1  0.51425300  0.48574700  0.31169800  1
  O  O64  1  0.97149400  0.48574700  0.31169800  1
  O  O65  1  0.51425300  0.02850600  0.31169800  1
  O  O66  1  0.65734200  0.82867100  0.14220500  1
  O  O67  1  0.00000000  0.00000000  0.56400700  1
  O  O68  1  0.00000000  0.00000000  0.43599300  1
  O  O69  1  0.33333333  0.66666667  0.44031167  1
  O  O70  1  0.66666667  0.33333333  0.55968833  1
  O  O71  1  0.50382233  0.00764467  0.60022267  1
  O  O72  1  0.99235533  0.49617767  0.60022267  1
  O  O73  1  0.50382233  0.49617767  0.60022267  1
  O  O74  1  0.49617767  0.50382233  0.39977733  1
  O  O75  1  0.49617767  0.99235533  0.39977733  1
  O  O76  1  0.00764467  0.50382233  0.39977733  1
  O  O77  1  0.16200433  0.32400867  0.52446167  1
  O  O78  1  0.67599133  0.83799567  0.52446167  1
  O  O79  1  0.16200433  0.83799567  0.52446167  1
  O  O80  1  0.83799567  0.16200433  0.47553833  1
  O  O81  1  0.83799567  0.67599133  0.47553833  1
  O  O82  1  0.36183933  0.18091967  0.35496867  1
  O  O83  1  0.81908033  0.63816067  0.35496867  1
  O  O84  1  0.81908033  0.18091967  0.35496867  1
  O  O85  1  0.18091967  0.81908033  0.64503133  1
  O  O86  1  0.63816067  0.81908033  0.64503133  1
  O  O87  1  0.18091967  0.36183933  0.64503133  1
  O  O88  1  0.32400867  0.16200433  0.47553833  1
  O  O89  1  0.66666667  0.33333333  0.89734033  1
  O  O90  1  0.66666667  0.33333333  0.76932633  1
  O  O91  1  0.00000000  0.00000000  0.77364500  1
  O  O92  1  0.33333333  0.66666667  0.89302167  1
  O  O93  1  0.17048900  0.34097800  0.93355600  1
  O  O94  1  0.65902200  0.82951100  0.93355600  1
  O  O95  1  0.17048900  0.82951100  0.93355600  1
  O  O96  1  0.16284433  0.83715567  0.73311067  1
  O  O97  1  0.16284433  0.32568867  0.73311067  1
  O  O98  1  0.67431133  0.83715567  0.73311067  1
  O  O99  1  0.82867100  0.65734200  0.85779500  1
  O  O100  1  0.34265800  0.17132900  0.85779500  1
  O  O101  1  0.82867100  0.17132900  0.85779500  1
  O  O102  1  0.50466233  0.49533767  0.80887167  1
  O  O103  1  0.50466233  0.00932467  0.80887167  1
  O  O104  1  0.02850600  0.51425300  0.68830200  1
  O  O105  1  0.48574700  0.97149400  0.68830200  1
  O  O106  1  0.48574700  0.51425300  0.68830200  1
  O  O107  1  0.84758633  0.15241367  0.97836467  1
  O  O108  1  0.30482733  0.15241367  0.97836467  1
  O  O109  1  0.84758633  0.69517267  0.97836467  1
  O  O110  1  0.99067533  0.49533767  0.80887167  1
