# generated using pymatgen
data_Na3FeO3
_symmetry_space_group_name_H-M   'P 1'
_cell_length_a   13.42177600
_cell_length_b   10.81455200
_cell_length_c   6.20537038
_cell_angle_alpha   90.00000000
_cell_angle_beta   116.73631571
_cell_angle_gamma   90.00000000
_symmetry_Int_Tables_number   1
_chemical_formula_structural   Na3FeO3
_chemical_formula_sum   'Na24 Fe8 O24'
_cell_volume   804.41417020
_cell_formula_units_Z   8
loop_
 _symmetry_equiv_pos_site_id
 _symmetry_equiv_pos_as_xyz
  1  'x, y, z'
loop_
 _atom_site_type_symbol
 _atom_site_label
 _atom_site_symmetry_multiplicity
 _atom_site_fract_x
 _atom_site_fract_y
 _atom_site_fract_z
 _atom_site_occupancy
  Na  Na0  1  0.27154500  0.52288900  0.38465400  1
  Na  Na1  1  0.91007500  0.26319600  0.51440700  1
  Na  Na2  1  0.27154500  0.47711100  0.88465400  1
  Na  Na3  1  0.75429850  0.47774050  0.96669700  1
  Na  Na4  1  0.00971400  0.02583700  0.22570800  1
  Na  Na5  1  0.15163150  0.21340950  0.00395700  1
  Na  Na6  1  0.75429850  0.52225950  0.46669700  1
  Na  Na7  1  0.00971400  0.97416300  0.72570800  1
  Na  Na8  1  0.15163150  0.78659050  0.50395700  1
  Na  Na9  1  0.02032250  0.45772850  0.94585100  1
  Na  Na10  1  0.02032250  0.54227150  0.44585100  1
  Na  Na11  1  0.91007500  0.73680400  0.01440700  1
  Na  Na12  1  0.77154500  0.02288900  0.38465400  1
  Na  Na13  1  0.41007500  0.76319600  0.51440700  1
  Na  Na14  1  0.77154500  0.97711100  0.88465400  1
  Na  Na15  1  0.25429850  0.97774050  0.96669700  1
  Na  Na16  1  0.50971400  0.52583700  0.22570800  1
  Na  Na17  1  0.65163150  0.71340950  0.00395700  1
  Na  Na18  1  0.25429850  0.02225950  0.46669700  1
  Na  Na19  1  0.50971400  0.47416300  0.72570800  1
  Na  Na20  1  0.65163150  0.28659050  0.50395700  1
  Na  Na21  1  0.52032250  0.95772850  0.94585100  1
  Na  Na22  1  0.52032250  0.04227150  0.44585100  1
  Na  Na23  1  0.41007500  0.23680400  0.01440700  1
  Fe  Fe24  1  0.88485150  0.23850550  0.95565700  1
  Fe  Fe25  1  0.13874200  0.73911300  0.03194900  1
  Fe  Fe26  1  0.13874200  0.26088700  0.53194900  1
  Fe  Fe27  1  0.88485150  0.76149450  0.45565700  1
  Fe  Fe28  1  0.38485150  0.73850550  0.95565700  1
  Fe  Fe29  1  0.63874200  0.23911300  0.03194900  1
  Fe  Fe30  1  0.63874200  0.76088700  0.53194900  1
  Fe  Fe31  1  0.38485150  0.26149450  0.45565700  1
  O  O32  1  0.04010550  0.72976750  0.68942200  1
  O  O33  1  0.29343100  0.69891500  0.11490900  1
  O  O34  1  0.09346050  0.37437350  0.70334600  1
  O  O35  1  0.29343100  0.30108500  0.61490900  1
  O  O36  1  0.04010550  0.27023250  0.18942200  1
  O  O37  1  0.09346050  0.62562650  0.20334600  1
  O  O38  1  0.83547400  0.62248600  0.25383600  1
  O  O39  1  0.62890450  0.59809750  0.63144000  1
  O  O40  1  0.62890450  0.40190250  0.13144000  1
  O  O41  1  0.38500250  0.60206950  0.77072800  1
  O  O42  1  0.83547400  0.37751400  0.75383600  1
  O  O43  1  0.38500250  0.39793050  0.27072800  1
  O  O44  1  0.54010550  0.22976750  0.68942200  1
  O  O45  1  0.79343100  0.19891500  0.11490900  1
  O  O46  1  0.59346050  0.87437350  0.70334600  1
  O  O47  1  0.79343100  0.80108500  0.61490900  1
  O  O48  1  0.54010550  0.77023250  0.18942200  1
  O  O49  1  0.59346050  0.12562650  0.20334600  1
  O  O50  1  0.33547400  0.12248600  0.25383600  1
  O  O51  1  0.12890450  0.09809750  0.63144000  1
  O  O52  1  0.12890450  0.90190250  0.13144000  1
  O  O53  1  0.88500250  0.10206950  0.77072800  1
  O  O54  1  0.33547400  0.87751400  0.75383600  1
  O  O55  1  0.88500250  0.89793050  0.27072800  1
