# generated using pymatgen
data_Ca3Mn2(Si2O7)2
_symmetry_space_group_name_H-M   'P 1'
_cell_length_a   17.17467000
_cell_length_b   7.73991400
_cell_length_c   10.17611826
_cell_angle_alpha   90.00000000
_cell_angle_beta   123.24940253
_cell_angle_gamma   90.00000000
_symmetry_Int_Tables_number   1
_chemical_formula_structural   Ca3Mn2(Si2O7)2
_chemical_formula_sum   'Ca12 Mn8 Si16 O56'
_cell_volume   1131.26554005
_cell_formula_units_Z   4
loop_
 _symmetry_equiv_pos_site_id
 _symmetry_equiv_pos_as_xyz
  1  'x, y, z'
loop_
 _atom_site_type_symbol
 _atom_site_label
 _atom_site_symmetry_multiplicity
 _atom_site_fract_x
 _atom_site_fract_y
 _atom_site_fract_z
 _atom_site_occupancy
  Ca  Ca0  1  0.80387150  0.96526950  0.54185900  1
  Ca  Ca1  1  0.19612850  0.96526950  0.95814100  1
  Ca  Ca2  1  0.80387150  0.03473050  0.04185900  1
  Ca  Ca3  1  0.00000000  0.34558500  0.25000000  1
  Ca  Ca4  1  0.19612850  0.03473050  0.45814100  1
  Ca  Ca5  1  0.00000000  0.65441500  0.75000000  1
  Ca  Ca6  1  0.30387150  0.46526950  0.54185900  1
  Ca  Ca7  1  0.69612850  0.46526950  0.95814100  1
  Ca  Ca8  1  0.30387150  0.53473050  0.04185900  1
  Ca  Ca9  1  0.50000000  0.84558500  0.25000000  1
  Ca  Ca10  1  0.69612850  0.53473050  0.45814100  1
  Ca  Ca11  1  0.50000000  0.15441500  0.75000000  1
  Mn  Mn12  1  0.00000000  0.78582300  0.25000000  1
  Mn  Mn13  1  0.00000000  0.21417700  0.75000000  1
  Mn  Mn14  1  0.00000000  0.00000000  0.00000000  1
  Mn  Mn15  1  0.00000000  0.00000000  0.50000000  1
  Mn  Mn16  1  0.50000000  0.28582300  0.25000000  1
  Mn  Mn17  1  0.50000000  0.71417700  0.75000000  1
  Mn  Mn18  1  0.50000000  0.50000000  0.00000000  1
  Mn  Mn19  1  0.50000000  0.50000000  0.50000000  1
  Si  Si20  1  0.17751700  0.71161700  0.65882400  1
  Si  Si21  1  0.67751700  0.78838300  0.15882400  1
  Si  Si22  1  0.62647150  0.15936950  0.14586900  1
  Si  Si23  1  0.12647150  0.34063050  0.64586900  1
  Si  Si24  1  0.32248300  0.21161700  0.84117600  1
  Si  Si25  1  0.37352850  0.84063050  0.85413100  1
  Si  Si26  1  0.87352850  0.65936950  0.35413100  1
  Si  Si27  1  0.82248300  0.28838300  0.34117600  1
  Si  Si28  1  0.67751700  0.21161700  0.65882400  1
  Si  Si29  1  0.17751700  0.28838300  0.15882400  1
  Si  Si30  1  0.12647150  0.65936950  0.14586900  1
  Si  Si31  1  0.62647150  0.84063050  0.64586900  1
  Si  Si32  1  0.82248300  0.71161700  0.84117600  1
  Si  Si33  1  0.87352850  0.34063050  0.85413100  1
  Si  Si34  1  0.37352850  0.15936950  0.35413100  1
  Si  Si35  1  0.32248300  0.78838300  0.34117600  1
  O  O36  1  0.91396900  0.78967300  0.50370500  1
  O  O37  1  0.06638900  0.03842800  0.71869100  1
  O  O38  1  0.94682550  0.40423250  0.81028600  1
  O  O39  1  0.06638900  0.96157200  0.21869100  1
  O  O40  1  0.89637900  0.16082300  0.48176800  1
  O  O41  1  0.22069450  0.27083450  0.81454600  1
  O  O42  1  0.94682550  0.59576750  0.31028600  1
  O  O43  1  0.60362100  0.66082300  0.01823200  1
  O  O44  1  0.77930550  0.72916550  0.18545400  1
  O  O45  1  0.83401800  0.49069700  0.40619600  1
  O  O46  1  0.93361100  0.96157200  0.28130900  1
  O  O47  1  0.10362100  0.83917700  0.51823200  1
  O  O48  1  0.27930550  0.77083450  0.68545400  1
  O  O49  1  0.91396900  0.21032700  0.00370500  1
  O  O50  1  0.33401800  0.00930300  0.90619600  1
  O  O51  1  0.39637900  0.33917700  0.98176800  1
  O  O52  1  0.31732500  0.21157000  0.67793500  1
  O  O53  1  0.16598200  0.50930300  0.59380400  1
  O  O54  1  0.18267500  0.71157000  0.82206500  1
  O  O55  1  0.66598200  0.99069700  0.09380400  1
  O  O56  1  0.72069450  0.22916550  0.31454600  1
  O  O57  1  0.93361100  0.03842800  0.78130900  1
  O  O58  1  0.81732500  0.28843000  0.17793500  1
  O  O59  1  0.05317450  0.59576750  0.18971400  1
  O  O60  1  0.68267500  0.78843000  0.32206500  1
  O  O61  1  0.05317450  0.40423250  0.68971400  1
  O  O62  1  0.08603100  0.78967300  0.99629500  1
  O  O63  1  0.08603100  0.21032700  0.49629500  1
  O  O64  1  0.41396900  0.28967300  0.50370500  1
  O  O65  1  0.56638900  0.53842800  0.71869100  1
  O  O66  1  0.44682550  0.90423250  0.81028600  1
  O  O67  1  0.56638900  0.46157200  0.21869100  1
  O  O68  1  0.39637900  0.66082300  0.48176800  1
  O  O69  1  0.72069450  0.77083450  0.81454600  1
  O  O70  1  0.44682550  0.09576750  0.31028600  1
  O  O71  1  0.10362100  0.16082300  0.01823200  1
  O  O72  1  0.27930550  0.22916550  0.18545400  1
  O  O73  1  0.33401800  0.99069700  0.40619600  1
  O  O74  1  0.43361100  0.46157200  0.28130900  1
  O  O75  1  0.60362100  0.33917700  0.51823200  1
  O  O76  1  0.77930550  0.27083450  0.68545400  1
  O  O77  1  0.41396900  0.71032700  0.00370500  1
  O  O78  1  0.83401800  0.50930300  0.90619600  1
  O  O79  1  0.89637900  0.83917700  0.98176800  1
  O  O80  1  0.81732500  0.71157000  0.67793500  1
  O  O81  1  0.66598200  0.00930300  0.59380400  1
  O  O82  1  0.68267500  0.21157000  0.82206500  1
  O  O83  1  0.16598200  0.49069700  0.09380400  1
  O  O84  1  0.22069450  0.72916550  0.31454600  1
  O  O85  1  0.43361100  0.53842800  0.78130900  1
  O  O86  1  0.31732500  0.78843000  0.17793500  1
  O  O87  1  0.55317450  0.09576750  0.18971400  1
  O  O88  1  0.18267500  0.28843000  0.32206500  1
  O  O89  1  0.55317450  0.90423250  0.68971400  1
  O  O90  1  0.58603100  0.28967300  0.99629500  1
  O  O91  1  0.58603100  0.71032700  0.49629500  1
