# generated using pymatgen
data_CrFe(BiO3)2
_symmetry_space_group_name_H-M   'P 1'
_cell_length_a   5.61207660
_cell_length_b   5.61207660
_cell_length_c   13.95960400
_cell_angle_alpha   90.00000000
_cell_angle_beta   90.00000000
_cell_angle_gamma   120.00000000
_symmetry_Int_Tables_number   1
_chemical_formula_structural   CrFe(BiO3)2
_chemical_formula_sum   'Cr3 Fe3 Bi6 O18'
_cell_volume   380.75964290
_cell_formula_units_Z   3
loop_
 _symmetry_equiv_pos_site_id
 _symmetry_equiv_pos_as_xyz
  1  'x, y, z'
loop_
 _atom_site_type_symbol
 _atom_site_label
 _atom_site_symmetry_multiplicity
 _atom_site_fract_x
 _atom_site_fract_y
 _atom_site_fract_z
 _atom_site_occupancy
  Cr  Cr0  1  0.00000000  0.00000000  0.77472100  1
  Cr  Cr1  1  0.66666667  0.33333333  0.10805433  1
  Cr  Cr2  1  0.33333333  0.66666667  0.44138767  1
  Fe  Fe3  1  0.33333333  0.66666667  0.93660667  1
  Fe  Fe4  1  0.00000000  0.00000000  0.26994000  1
  Fe  Fe5  1  0.66666667  0.33333333  0.60327333  1
  Bi  Bi6  1  0.66666667  0.33333333  0.82521167  1
  Bi  Bi7  1  0.00000000  0.00000000  0.99476633  1
  Bi  Bi8  1  0.33333333  0.66666667  0.15854500  1
  Bi  Bi9  1  0.66666667  0.33333333  0.32809967  1
  Bi  Bi10  1  0.00000000  0.00000000  0.49187833  1
  Bi  Bi11  1  0.33333333  0.66666667  0.66143300  1
  O  O12  1  0.74977250  0.64982850  0.70298800  1
  O  O13  1  0.90005600  0.25022750  0.70298800  1
  O  O14  1  0.35017150  0.09994400  0.70298800  1
  O  O15  1  0.68469017  0.91487933  0.86853933  1
  O  O16  1  0.23018917  0.31530983  0.86853933  1
  O  O17  1  0.08512067  0.76981083  0.86853933  1
  O  O18  1  0.41643917  0.98316183  0.03632133  1
  O  O19  1  0.56672267  0.58356083  0.03632133  1
  O  O20  1  0.01683817  0.43327733  0.03632133  1
  O  O21  1  0.35135683  0.24821267  0.20187267  1
  O  O22  1  0.89685583  0.64864317  0.20187267  1
  O  O23  1  0.75178733  0.10314417  0.20187267  1
  O  O24  1  0.08310583  0.31649517  0.36965467  1
  O  O25  1  0.23338933  0.91689417  0.36965467  1
  O  O26  1  0.68350483  0.76661067  0.36965467  1
  O  O27  1  0.01802350  0.58154600  0.53520600  1
  O  O28  1  0.56352250  0.98197650  0.53520600  1
  O  O29  1  0.41845400  0.43647750  0.53520600  1
