# generated using pymatgen
data_MnBiPO5
_symmetry_space_group_name_H-M   'P 1'
_cell_length_a   5.45850788
_cell_length_b   11.44234500
_cell_length_c   7.73868696
_cell_angle_alpha   90.00000000
_cell_angle_beta   112.19028874
_cell_angle_gamma   90.00000000
_symmetry_Int_Tables_number   1
_chemical_formula_structural   MnBiPO5
_chemical_formula_sum   'Mn4 Bi4 P4 O20'
_cell_volume   447.54486436
_cell_formula_units_Z   4
loop_
 _symmetry_equiv_pos_site_id
 _symmetry_equiv_pos_as_xyz
  1  'x, y, z'
loop_
 _atom_site_type_symbol
 _atom_site_label
 _atom_site_symmetry_multiplicity
 _atom_site_fract_x
 _atom_site_fract_y
 _atom_site_fract_z
 _atom_site_occupancy
  Mn  Mn0  1  0.55613350  0.08833300  0.68938150  1
  Mn  Mn1  1  0.44386650  0.58833300  0.81061850  1
  Mn  Mn2  1  0.55613350  0.41166700  0.18938150  1
  Mn  Mn3  1  0.44386650  0.91166700  0.31061850  1
  Bi  Bi4  1  0.05828650  0.59777900  0.18378450  1
  Bi  Bi5  1  0.94171350  0.40222100  0.81621550  1
  Bi  Bi6  1  0.05828650  0.90222100  0.68378450  1
  Bi  Bi7  1  0.94171350  0.09777900  0.31621550  1
  P  P8  1  0.18544250  0.15024200  0.97775950  1
  P  P9  1  0.18544250  0.34975800  0.47775950  1
  P  P10  1  0.81455750  0.84975800  0.02224050  1
  P  P11  1  0.81455750  0.65024200  0.52224050  1
  O  O12  1  0.26434050  0.41778800  0.66477350  1
  O  O13  1  0.26434050  0.08221200  0.16477350  1
  O  O14  1  0.73565950  0.91778800  0.83522650  1
  O  O15  1  0.73565950  0.58221200  0.33522650  1
  O  O16  1  0.31773650  0.27334100  0.00814850  1
  O  O17  1  0.31773650  0.22665900  0.50814850  1
  O  O18  1  0.68226350  0.72665900  0.99185150  1
  O  O19  1  0.68226350  0.77334100  0.49185150  1
  O  O20  1  0.23794050  0.97565500  0.48714350  1
  O  O21  1  0.23794050  0.52434500  0.98714350  1
  O  O22  1  0.76205950  0.47565500  0.01285650  1
  O  O23  1  0.76205950  0.02434500  0.51285650  1
  O  O24  1  0.27145350  0.42206900  0.33897650  1
  O  O25  1  0.72854650  0.57793100  0.66102350  1
  O  O26  1  0.72854650  0.92206900  0.16102350  1
  O  O27  1  0.27145350  0.07793100  0.83897650  1
  O  O28  1  0.88153150  0.17415200  0.89656950  1
  O  O29  1  0.11846850  0.67415200  0.60343050  1
  O  O30  1  0.88153150  0.32584800  0.39656950  1
  O  O31  1  0.11846850  0.82584800  0.10343050  1
