# generated using pymatgen
data_BaCuSn2
_symmetry_space_group_name_H-M   'P 1'
_cell_length_a   4.86309600
_cell_length_b   19.62081400
_cell_length_c   4.69183300
_cell_angle_alpha   90.00000000
_cell_angle_beta   90.00000000
_cell_angle_gamma   90.00000000
_symmetry_Int_Tables_number   1
_chemical_formula_structural   BaCuSn2
_chemical_formula_sum   'Ba4 Cu4 Sn8'
_cell_volume   447.68486177
_cell_formula_units_Z   4
loop_
 _symmetry_equiv_pos_site_id
 _symmetry_equiv_pos_as_xyz
  1  'x, y, z'
loop_
 _atom_site_type_symbol
 _atom_site_label
 _atom_site_symmetry_multiplicity
 _atom_site_fract_x
 _atom_site_fract_y
 _atom_site_fract_z
 _atom_site_occupancy
  Ba  Ba0  1  0.50000000  0.10809300  0.75000000  1
  Ba  Ba1  1  0.00000000  0.39190700  0.25000000  1
  Ba  Ba2  1  0.00000000  0.60809300  0.75000000  1
  Ba  Ba3  1  0.50000000  0.89190700  0.25000000  1
  Cu  Cu4  1  0.00000000  0.17912700  0.25000000  1
  Cu  Cu5  1  0.50000000  0.32087300  0.75000000  1
  Cu  Cu6  1  0.50000000  0.67912700  0.25000000  1
  Cu  Cu7  1  0.00000000  0.82087300  0.75000000  1
  Sn  Sn8  1  0.50000000  0.45666000  0.75000000  1
  Sn  Sn9  1  0.00000000  0.04334000  0.25000000  1
  Sn  Sn10  1  0.50000000  0.24994100  0.25000000  1
  Sn  Sn11  1  0.00000000  0.25005900  0.75000000  1
  Sn  Sn12  1  0.00000000  0.95666000  0.75000000  1
  Sn  Sn13  1  0.50000000  0.54334000  0.25000000  1
  Sn  Sn14  1  0.00000000  0.74994100  0.25000000  1
  Sn  Sn15  1  0.50000000  0.75005900  0.75000000  1
