# generated using pymatgen
data_Cu2PO4F
_symmetry_space_group_name_H-M   'P 1'
_cell_length_a   12.91923200
_cell_length_b   6.25889800
_cell_length_c   10.14234203
_cell_angle_alpha   90.00000000
_cell_angle_beta   119.26353466
_cell_angle_gamma   90.00000000
_symmetry_Int_Tables_number   1
_chemical_formula_structural   Cu2PO4F
_chemical_formula_sum   'Cu16 P8 O32 F8'
_cell_volume   715.44919884
_cell_formula_units_Z   8
loop_
 _symmetry_equiv_pos_site_id
 _symmetry_equiv_pos_as_xyz
  1  'x, y, z'
loop_
 _atom_site_type_symbol
 _atom_site_label
 _atom_site_symmetry_multiplicity
 _atom_site_fract_x
 _atom_site_fract_y
 _atom_site_fract_z
 _atom_site_occupancy
  Cu  Cu0  1  0.43870300  0.75696000  0.99822700  1
  Cu  Cu1  1  0.06129700  0.25696000  0.50177300  1
  Cu  Cu2  1  0.56129700  0.24304000  0.00177300  1
  Cu  Cu3  1  0.93870300  0.74304000  0.49822700  1
  Cu  Cu4  1  0.15282350  0.88486850  0.34884600  1
  Cu  Cu5  1  0.84717650  0.88486850  0.15115400  1
  Cu  Cu6  1  0.84717650  0.11513150  0.65115400  1
  Cu  Cu7  1  0.15282350  0.11513150  0.84884600  1
  Cu  Cu8  1  0.93870300  0.25696000  0.99822700  1
  Cu  Cu9  1  0.56129700  0.75696000  0.50177300  1
  Cu  Cu10  1  0.06129700  0.74304000  0.00177300  1
  Cu  Cu11  1  0.43870300  0.24304000  0.49822700  1
  Cu  Cu12  1  0.65282350  0.38486850  0.34884600  1
  Cu  Cu13  1  0.34717650  0.38486850  0.15115400  1
  Cu  Cu14  1  0.34717650  0.61513150  0.65115400  1
  Cu  Cu15  1  0.65282350  0.61513150  0.84884600  1
  P  P16  1  0.82802050  0.39324750  0.19837600  1
  P  P17  1  0.67197950  0.89324750  0.30162400  1
  P  P18  1  0.17197950  0.60675250  0.80162400  1
  P  P19  1  0.32802050  0.10675250  0.69837600  1
  P  P20  1  0.32802050  0.89324750  0.19837600  1
  P  P21  1  0.17197950  0.39324750  0.30162400  1
  P  P22  1  0.67197950  0.10675250  0.80162400  1
  P  P23  1  0.82802050  0.60675250  0.69837600  1
  O  O24  1  0.18477750  0.58590450  0.40378200  1
  O  O25  1  0.81522250  0.58590450  0.09621800  1
  O  O26  1  0.81522250  0.41409550  0.59621800  1
  O  O27  1  0.18477750  0.41409550  0.90378200  1
  O  O28  1  0.29411500  0.65525200  0.80953000  1
  O  O29  1  0.20588500  0.15525200  0.69047000  1
  O  O30  1  0.70588500  0.34474800  0.19047000  1
  O  O31  1  0.79411500  0.84474800  0.30953000  1
  O  O32  1  0.07674150  0.56968550  0.63578400  1
  O  O33  1  0.42325850  0.06968550  0.86421600  1
  O  O34  1  0.92325850  0.43031450  0.36421600  1
  O  O35  1  0.57674150  0.93031450  0.13578400  1
  O  O36  1  0.13665850  0.80185150  0.86780400  1
  O  O37  1  0.86334150  0.80185150  0.63219600  1
  O  O38  1  0.86334150  0.19814850  0.13219600  1
  O  O39  1  0.13665850  0.19814850  0.36780400  1
  O  O40  1  0.68477750  0.08590450  0.40378200  1
  O  O41  1  0.31522250  0.08590450  0.09621800  1
  O  O42  1  0.31522250  0.91409550  0.59621800  1
  O  O43  1  0.68477750  0.91409550  0.90378200  1
  O  O44  1  0.79411500  0.15525200  0.80953000  1
  O  O45  1  0.70588500  0.65525200  0.69047000  1
  O  O46  1  0.20588500  0.84474800  0.19047000  1
  O  O47  1  0.29411500  0.34474800  0.30953000  1
  O  O48  1  0.57674150  0.06968550  0.63578400  1
  O  O49  1  0.92325850  0.56968550  0.86421600  1
  O  O50  1  0.42325850  0.93031450  0.36421600  1
  O  O51  1  0.07674150  0.43031450  0.13578400  1
  O  O52  1  0.63665850  0.30185150  0.86780400  1
  O  O53  1  0.36334150  0.30185150  0.63219600  1
  O  O54  1  0.36334150  0.69814850  0.13219600  1
  O  O55  1  0.63665850  0.69814850  0.36780400  1
  F  F56  1  0.97570250  0.11901350  0.59770100  1
  F  F57  1  0.02429750  0.11901350  0.90229900  1
  F  F58  1  0.02429750  0.88098650  0.40229900  1
  F  F59  1  0.97570250  0.88098650  0.09770100  1
  F  F60  1  0.47570250  0.61901350  0.59770100  1
  F  F61  1  0.52429750  0.61901350  0.90229900  1
  F  F62  1  0.52429750  0.38098650  0.40229900  1
  F  F63  1  0.47570250  0.38098650  0.09770100  1
