# generated using pymatgen
data_Tb2(GePt3)3
_symmetry_space_group_name_H-M   'P 1'
_cell_length_a   13.58175400
_cell_length_b   7.85819200
_cell_length_c   10.13903101
_cell_angle_alpha   90.00000000
_cell_angle_beta   116.92627768
_cell_angle_gamma   90.00000000
_symmetry_Int_Tables_number   1
_chemical_formula_structural   Tb2(GePt3)3
_chemical_formula_sum   'Tb8 Ge12 Pt36'
_cell_volume   964.80624150
_cell_formula_units_Z   4
loop_
 _symmetry_equiv_pos_site_id
 _symmetry_equiv_pos_as_xyz
  1  'x, y, z'
loop_
 _atom_site_type_symbol
 _atom_site_label
 _atom_site_symmetry_multiplicity
 _atom_site_fract_x
 _atom_site_fract_y
 _atom_site_fract_z
 _atom_site_occupancy
  Tb  Tb0  1  0.16951500  0.58501100  0.25090300  1
  Tb  Tb1  1  0.33048500  0.91498900  0.74909700  1
  Tb  Tb2  1  0.66951500  0.91498900  0.75090300  1
  Tb  Tb3  1  0.83048500  0.58501100  0.24909700  1
  Tb  Tb4  1  0.66951500  0.08501100  0.25090300  1
  Tb  Tb5  1  0.83048500  0.41498900  0.74909700  1
  Tb  Tb6  1  0.16951500  0.41498900  0.75090300  1
  Tb  Tb7  1  0.33048500  0.08501100  0.24909700  1
  Ge  Ge8  1  0.08967900  0.72853700  0.49734700  1
  Ge  Ge9  1  0.58967900  0.77146300  0.99734700  1
  Ge  Ge10  1  0.25000000  0.75000000  0.00000000  1
  Ge  Ge11  1  0.41032100  0.77146300  0.50265300  1
  Ge  Ge12  1  0.91032100  0.72853700  0.00265300  1
  Ge  Ge13  1  0.25000000  0.25000000  0.50000000  1
  Ge  Ge14  1  0.58967900  0.22853700  0.49734700  1
  Ge  Ge15  1  0.08967900  0.27146300  0.99734700  1
  Ge  Ge16  1  0.75000000  0.25000000  0.00000000  1
  Ge  Ge17  1  0.91032100  0.27146300  0.50265300  1
  Ge  Ge18  1  0.41032100  0.22853700  0.00265300  1
  Ge  Ge19  1  0.75000000  0.75000000  0.50000000  1
  Pt  Pt20  1  0.00000000  0.86702600  0.25000000  1
  Pt  Pt21  1  0.55925550  0.08177850  0.92216700  1
  Pt  Pt22  1  0.22253500  0.08198900  0.91998500  1
  Pt  Pt23  1  0.10492500  0.19131100  0.24184100  1
  Pt  Pt24  1  0.22253500  0.91801100  0.41998500  1
  Pt  Pt25  1  0.11232300  0.91041300  0.07676300  1
  Pt  Pt26  1  0.27746500  0.41801100  0.08001500  1
  Pt  Pt27  1  0.94074450  0.41822150  0.07783300  1
  Pt  Pt28  1  0.39507500  0.69131100  0.25815900  1
  Pt  Pt29  1  0.10492500  0.80868900  0.74184100  1
  Pt  Pt30  1  0.11232300  0.08958700  0.57676300  1
  Pt  Pt31  1  0.05925550  0.41822150  0.42216700  1
  Pt  Pt32  1  0.27746500  0.58198900  0.58001500  1
  Pt  Pt33  1  0.39507500  0.30868900  0.75815900  1
  Pt  Pt34  1  0.38767700  0.58958700  0.92323700  1
  Pt  Pt35  1  0.50000000  0.63297400  0.75000000  1
  Pt  Pt36  1  0.44074450  0.08177850  0.57783300  1
  Pt  Pt37  1  0.38767700  0.41041300  0.42323700  1
  Pt  Pt38  1  0.50000000  0.36702600  0.25000000  1
  Pt  Pt39  1  0.05925550  0.58177850  0.92216700  1
  Pt  Pt40  1  0.72253500  0.58198900  0.91998500  1
  Pt  Pt41  1  0.60492500  0.69131100  0.24184100  1
  Pt  Pt42  1  0.72253500  0.41801100  0.41998500  1
  Pt  Pt43  1  0.61232300  0.41041300  0.07676300  1
  Pt  Pt44  1  0.77746500  0.91801100  0.08001500  1
  Pt  Pt45  1  0.44074450  0.91822150  0.07783300  1
  Pt  Pt46  1  0.89507500  0.19131100  0.25815900  1
  Pt  Pt47  1  0.60492500  0.30868900  0.74184100  1
  Pt  Pt48  1  0.61232300  0.58958700  0.57676300  1
  Pt  Pt49  1  0.55925550  0.91822150  0.42216700  1
  Pt  Pt50  1  0.77746500  0.08198900  0.58001500  1
  Pt  Pt51  1  0.89507500  0.80868900  0.75815900  1
  Pt  Pt52  1  0.88767700  0.08958700  0.92323700  1
  Pt  Pt53  1  0.00000000  0.13297400  0.75000000  1
  Pt  Pt54  1  0.94074450  0.58177850  0.57783300  1
  Pt  Pt55  1  0.88767700  0.91041300  0.42323700  1
