# generated using pymatgen
data_Eu2(MoO4)3
_symmetry_space_group_name_H-M   'P 1'
_cell_length_a   7.84465600
_cell_length_b   11.75429600
_cell_length_c   11.65353812
_cell_angle_alpha   90.00000000
_cell_angle_beta   108.90879848
_cell_angle_gamma   90.00000000
_symmetry_Int_Tables_number   1
_chemical_formula_structural   Eu2(MoO4)3
_chemical_formula_sum   'Eu8 Mo12 O48'
_cell_volume   1016.56653884
_cell_formula_units_Z   4
loop_
 _symmetry_equiv_pos_site_id
 _symmetry_equiv_pos_as_xyz
  1  'x, y, z'
loop_
 _atom_site_type_symbol
 _atom_site_label
 _atom_site_symmetry_multiplicity
 _atom_site_fract_x
 _atom_site_fract_y
 _atom_site_fract_z
 _atom_site_occupancy
  Eu  Eu0  1  0.67626600  0.87162500  0.09184400  1
  Eu  Eu1  1  0.32373400  0.87162500  0.40815600  1
  Eu  Eu2  1  0.32373400  0.12837500  0.90815600  1
  Eu  Eu3  1  0.67626600  0.12837500  0.59184400  1
  Eu  Eu4  1  0.17626600  0.37162500  0.09184400  1
  Eu  Eu5  1  0.82373400  0.37162500  0.40815600  1
  Eu  Eu6  1  0.82373400  0.62837500  0.90815600  1
  Eu  Eu7  1  0.17626600  0.62837500  0.59184400  1
  Mo  Mo8  1  0.50000000  0.87856800  0.75000000  1
  Mo  Mo9  1  0.50000000  0.12143200  0.25000000  1
  Mo  Mo10  1  0.15861400  0.85659800  0.05252500  1
  Mo  Mo11  1  0.84138600  0.85659800  0.44747500  1
  Mo  Mo12  1  0.84138600  0.14340200  0.94747500  1
  Mo  Mo13  1  0.15861400  0.14340200  0.55252500  1
  Mo  Mo14  1  0.00000000  0.37856800  0.75000000  1
  Mo  Mo15  1  0.00000000  0.62143200  0.25000000  1
  Mo  Mo16  1  0.65861400  0.35659800  0.05252500  1
  Mo  Mo17  1  0.34138600  0.35659800  0.44747500  1
  Mo  Mo18  1  0.34138600  0.64340200  0.94747500  1
  Mo  Mo19  1  0.65861400  0.64340200  0.55252500  1
  O  O20  1  0.48821650  0.95951950  0.61397700  1
  O  O21  1  0.51178350  0.95951950  0.88602300  1
  O  O22  1  0.51178350  0.04048050  0.38602300  1
  O  O23  1  0.48821650  0.04048050  0.11397700  1
  O  O24  1  0.14309850  0.96526450  0.94586000  1
  O  O25  1  0.85690150  0.96526450  0.55414000  1
  O  O26  1  0.85690150  0.03473550  0.05414000  1
  O  O27  1  0.14309850  0.03473550  0.44586000  1
  O  O28  1  0.78557750  0.92634850  0.30302200  1
  O  O29  1  0.21442250  0.92634850  0.19697800  1
  O  O30  1  0.21442250  0.07365150  0.69697800  1
  O  O31  1  0.78557750  0.07365150  0.80302200  1
  O  O32  1  0.61391950  0.21329250  0.92182300  1
  O  O33  1  0.38608050  0.21329250  0.57817700  1
  O  O34  1  0.38608050  0.78670750  0.07817700  1
  O  O35  1  0.61391950  0.78670750  0.42182300  1
  O  O36  1  0.30398900  0.20805600  0.21931500  1
  O  O37  1  0.69601100  0.20805600  0.28068500  1
  O  O38  1  0.69601100  0.79194400  0.78068500  1
  O  O39  1  0.30398900  0.79194400  0.71931500  1
  O  O40  1  0.43106750  0.70289950  0.54138900  1
  O  O41  1  0.56893250  0.70289950  0.95861100  1
  O  O42  1  0.56893250  0.29710050  0.45861100  1
  O  O43  1  0.43106750  0.29710050  0.04138900  1
  O  O44  1  0.98821650  0.45951950  0.61397700  1
  O  O45  1  0.01178350  0.45951950  0.88602300  1
  O  O46  1  0.01178350  0.54048050  0.38602300  1
  O  O47  1  0.98821650  0.54048050  0.11397700  1
  O  O48  1  0.64309850  0.46526450  0.94586000  1
  O  O49  1  0.35690150  0.46526450  0.55414000  1
  O  O50  1  0.35690150  0.53473550  0.05414000  1
  O  O51  1  0.64309850  0.53473550  0.44586000  1
  O  O52  1  0.28557750  0.42634850  0.30302200  1
  O  O53  1  0.71442250  0.42634850  0.19697800  1
  O  O54  1  0.71442250  0.57365150  0.69697800  1
  O  O55  1  0.28557750  0.57365150  0.80302200  1
  O  O56  1  0.11391950  0.71329250  0.92182300  1
  O  O57  1  0.88608050  0.71329250  0.57817700  1
  O  O58  1  0.88608050  0.28670750  0.07817700  1
  O  O59  1  0.11391950  0.28670750  0.42182300  1
  O  O60  1  0.80398900  0.70805600  0.21931500  1
  O  O61  1  0.19601100  0.70805600  0.28068500  1
  O  O62  1  0.19601100  0.29194400  0.78068500  1
  O  O63  1  0.80398900  0.29194400  0.71931500  1
  O  O64  1  0.93106750  0.20289950  0.54138900  1
  O  O65  1  0.06893250  0.20289950  0.95861100  1
  O  O66  1  0.06893250  0.79710050  0.45861100  1
  O  O67  1  0.93106750  0.79710050  0.04138900  1
