# generated using pymatgen
data_LiMo(PO3)4
_symmetry_space_group_name_H-M   'P 1'
_cell_length_a   15.78339600
_cell_length_b   7.45333400
_cell_length_c   9.84724182
_cell_angle_alpha   90.00000000
_cell_angle_beta   123.01118237
_cell_angle_gamma   90.00000000
_symmetry_Int_Tables_number   1
_chemical_formula_structural   LiMo(PO3)4
_chemical_formula_sum   'Li4 Mo4 P16 O48'
_cell_volume   971.40869252
_cell_formula_units_Z   4
loop_
 _symmetry_equiv_pos_site_id
 _symmetry_equiv_pos_as_xyz
  1  'x, y, z'
loop_
 _atom_site_type_symbol
 _atom_site_label
 _atom_site_symmetry_multiplicity
 _atom_site_fract_x
 _atom_site_fract_y
 _atom_site_fract_z
 _atom_site_occupancy
  Li  Li0  1  0.00000000  0.30804900  0.75000000  1
  Li  Li1  1  0.00000000  0.69195100  0.25000000  1
  Li  Li2  1  0.50000000  0.80804900  0.75000000  1
  Li  Li3  1  0.50000000  0.19195100  0.25000000  1
  Mo  Mo4  1  0.00000000  0.86384400  0.75000000  1
  Mo  Mo5  1  0.00000000  0.13615600  0.25000000  1
  Mo  Mo6  1  0.50000000  0.36384400  0.75000000  1
  Mo  Mo7  1  0.50000000  0.63615600  0.25000000  1
  P  P8  1  0.35889550  0.67095550  0.83036100  1
  P  P9  1  0.36814900  0.07569900  0.86555900  1
  P  P10  1  0.64110450  0.32904450  0.16963900  1
  P  P11  1  0.63185100  0.92430100  0.13444100  1
  P  P12  1  0.86814900  0.42430100  0.36555900  1
  P  P13  1  0.13185100  0.57569900  0.63444100  1
  P  P14  1  0.14110450  0.17095550  0.66963900  1
  P  P15  1  0.85889550  0.82904450  0.33036100  1
  P  P16  1  0.85889550  0.17095550  0.83036100  1
  P  P17  1  0.86814900  0.57569900  0.86555900  1
  P  P18  1  0.14110450  0.82904450  0.16963900  1
  P  P19  1  0.13185100  0.42430100  0.13444100  1
  P  P20  1  0.36814900  0.92430100  0.36555900  1
  P  P21  1  0.63185100  0.07569900  0.63444100  1
  P  P22  1  0.64110450  0.67095550  0.66963900  1
  P  P23  1  0.35889550  0.32904450  0.33036100  1
  O  O24  1  0.07420450  0.42771450  0.95529900  1
  O  O25  1  0.38082750  0.63797350  0.99675400  1
  O  O26  1  0.64246950  0.12126750  0.21144100  1
  O  O27  1  0.61917250  0.36202650  0.00324600  1
  O  O28  1  0.89748200  0.69915800  0.77727400  1
  O  O29  1  0.75148450  0.38997150  0.30469300  1
  O  O30  1  0.92950600  0.09051200  0.78776600  1
  O  O31  1  0.74851550  0.88997150  0.19530700  1
  O  O32  1  0.88082750  0.86202650  0.49675400  1
  O  O33  1  0.92579550  0.42771450  0.54470100  1
  O  O34  1  0.35753050  0.87873250  0.78855900  1
  O  O35  1  0.85753050  0.62126750  0.28855900  1
  O  O36  1  0.89748200  0.30084200  0.27727400  1
  O  O37  1  0.07049400  0.09051200  0.71223400  1
  O  O38  1  0.92950600  0.90948800  0.28776600  1
  O  O39  1  0.10251800  0.69915800  0.72272600  1
  O  O40  1  0.10251800  0.30084200  0.22272600  1
  O  O41  1  0.92579550  0.57228550  0.04470100  1
  O  O42  1  0.07420450  0.57228550  0.45529900  1
  O  O43  1  0.11917250  0.13797350  0.50324600  1
  O  O44  1  0.25148450  0.11002850  0.80469300  1
  O  O45  1  0.07049400  0.90948800  0.21223400  1
  O  O46  1  0.24851550  0.61002850  0.69530700  1
  O  O47  1  0.14246950  0.37873250  0.71144100  1
  O  O48  1  0.57420450  0.92771450  0.95529900  1
  O  O49  1  0.88082750  0.13797350  0.99675400  1
  O  O50  1  0.14246950  0.62126750  0.21144100  1
  O  O51  1  0.11917250  0.86202650  0.00324600  1
  O  O52  1  0.39748200  0.19915800  0.77727400  1
  O  O53  1  0.25148450  0.88997150  0.30469300  1
  O  O54  1  0.42950600  0.59051200  0.78776600  1
  O  O55  1  0.24851550  0.38997150  0.19530700  1
  O  O56  1  0.38082750  0.36202650  0.49675400  1
  O  O57  1  0.42579550  0.92771450  0.54470100  1
  O  O58  1  0.85753050  0.37873250  0.78855900  1
  O  O59  1  0.35753050  0.12126750  0.28855900  1
  O  O60  1  0.39748200  0.80084200  0.27727400  1
  O  O61  1  0.57049400  0.59051200  0.71223400  1
  O  O62  1  0.42950600  0.40948800  0.28776600  1
  O  O63  1  0.60251800  0.19915800  0.72272600  1
  O  O64  1  0.60251800  0.80084200  0.22272600  1
  O  O65  1  0.42579550  0.07228550  0.04470100  1
  O  O66  1  0.57420450  0.07228550  0.45529900  1
  O  O67  1  0.61917250  0.63797350  0.50324600  1
  O  O68  1  0.75148450  0.61002850  0.80469300  1
  O  O69  1  0.57049400  0.40948800  0.21223400  1
  O  O70  1  0.74851550  0.11002850  0.69530700  1
  O  O71  1  0.64246950  0.87873250  0.71144100  1
