# generated using pymatgen
data_MoSO6
_symmetry_space_group_name_H-M   'P 1'
_cell_length_a   27.23390400
_cell_length_b   12.38909800
_cell_length_c   8.84136733
_cell_angle_alpha   90.00000000
_cell_angle_beta   104.59756384
_cell_angle_gamma   90.00000000
_symmetry_Int_Tables_number   1
_chemical_formula_structural   MoSO6
_chemical_formula_sum   'Mo24 S24 O144'
_cell_volume   2886.81325941
_cell_formula_units_Z   24
loop_
 _symmetry_equiv_pos_site_id
 _symmetry_equiv_pos_as_xyz
  1  'x, y, z'
loop_
 _atom_site_type_symbol
 _atom_site_label
 _atom_site_symmetry_multiplicity
 _atom_site_fract_x
 _atom_site_fract_y
 _atom_site_fract_z
 _atom_site_occupancy
  Mo  Mo0  1  0.42077850  0.12151250  0.89187200  1
  Mo  Mo1  1  0.41602750  0.62583950  0.90158300  1
  Mo  Mo2  1  0.24326200  0.11641700  0.26139100  1
  Mo  Mo3  1  0.24326200  0.88358300  0.76139100  1
  Mo  Mo4  1  0.07922150  0.37848750  0.10812800  1
  Mo  Mo5  1  0.42077850  0.87848750  0.39187200  1
  Mo  Mo6  1  0.07922150  0.62151250  0.60812800  1
  Mo  Mo7  1  0.08397250  0.12583950  0.59841700  1
  Mo  Mo8  1  0.25673800  0.61641700  0.23860900  1
  Mo  Mo9  1  0.25673800  0.38358300  0.73860900  1
  Mo  Mo10  1  0.08397250  0.87416050  0.09841700  1
  Mo  Mo11  1  0.41602750  0.37416050  0.40158300  1
  Mo  Mo12  1  0.92077850  0.62151250  0.89187200  1
  Mo  Mo13  1  0.91602750  0.12583950  0.90158300  1
  Mo  Mo14  1  0.74326200  0.61641700  0.26139100  1
  Mo  Mo15  1  0.74326200  0.38358300  0.76139100  1
  Mo  Mo16  1  0.57922150  0.87848750  0.10812800  1
  Mo  Mo17  1  0.92077850  0.37848750  0.39187200  1
  Mo  Mo18  1  0.57922150  0.12151250  0.60812800  1
  Mo  Mo19  1  0.58397250  0.62583950  0.59841700  1
  Mo  Mo20  1  0.75673800  0.11641700  0.23860900  1
  Mo  Mo21  1  0.75673800  0.88358300  0.73860900  1
  Mo  Mo22  1  0.58397250  0.37416050  0.09841700  1
  Mo  Mo23  1  0.91602750  0.87416050  0.40158300  1
  S  S24  1  0.28697350  0.12943550  0.68327300  1
  S  S25  1  0.44522450  0.37418050  0.02820400  1
  S  S26  1  0.12243000  0.62715000  0.24120800  1
  S  S27  1  0.37757000  0.12715000  0.25879200  1
  S  S28  1  0.44522450  0.62581950  0.52820400  1
  S  S29  1  0.21302650  0.37056450  0.31672700  1
  S  S30  1  0.05477550  0.87418050  0.47179600  1
  S  S31  1  0.28697350  0.87056450  0.18327300  1
  S  S32  1  0.05477550  0.12581950  0.97179600  1
  S  S33  1  0.37757000  0.87285000  0.75879200  1
  S  S34  1  0.21302650  0.62943550  0.81672700  1
  S  S35  1  0.12243000  0.37285000  0.74120800  1
  S  S36  1  0.78697350  0.62943550  0.68327300  1
  S  S37  1  0.94522450  0.87418050  0.02820400  1
  S  S38  1  0.62243000  0.12715000  0.24120800  1
  S  S39  1  0.87757000  0.62715000  0.25879200  1
  S  S40  1  0.94522450  0.12581950  0.52820400  1
  S  S41  1  0.71302650  0.87056450  0.31672700  1
  S  S42  1  0.55477550  0.37418050  0.47179600  1
  S  S43  1  0.78697350  0.37056450  0.18327300  1
  S  S44  1  0.55477550  0.62581950  0.97179600  1
  S  S45  1  0.87757000  0.37285000  0.75879200  1
  S  S46  1  0.71302650  0.12943550  0.81672700  1
  S  S47  1  0.62243000  0.87285000  0.74120800  1
  O  O48  1  0.41360500  0.21740500  0.32671000  1
  O  O49  1  0.22444350  0.13192550  0.06354100  1
  O  O50  1  0.27555650  0.63192550  0.43645900  1
  O  O51  1  0.24935300  0.72223100  0.82218500  1
  O  O52  1  0.39501100  0.96621000  0.86895000  1
  O  O53  1  0.08639500  0.71740500  0.17329000  1
  O  O54  1  0.02224900  0.39746300  0.97682500  1
  O  O55  1  0.25064700  0.77776900  0.17781500  1
  O  O56  1  0.16271600  0.65989300  0.72327200  1
  O  O57  1  0.14772550  0.10358250  0.64548700  1
  O  O58  1  0.27555650  0.36807450  0.93645900  1
  O  O59  1  0.22444350  0.86807450  0.56354100  1
  O  O60  1  0.43661850  0.87143850  0.21767400  1
  O  O61  1  0.41510800  0.28341500  0.93448900  1
  O  O62  1  0.47775100  0.89746300  0.52317500  1
  O  O63  1  0.49832550  0.65642750  0.58354300  1
  O  O64  1  0.38189950  0.89809050  0.60191600  1
  O  O65  1  0.16271600  0.34010700  0.22327200  1
  O  O66  1  0.08489200  0.78341500  0.56551100  1
  O  O67  1  0.32596450  0.84430750  0.76385400  1
  O  O68  1  0.08639500  0.28259500  0.67329000  1
  O  O69  1  0.08489200  0.21658500  0.06551100  1
  O  O70  1  0.42119150  0.59611550  0.65319100  1
  O  O71  1  0.10498900  0.53379000  0.13105000  1
  O  O72  1  0.32596450  0.15569250  0.26385400  1
  O  O73  1  0.17403550  0.65569250  0.23614600  1
  O  O74  1  0.18758500  0.09540800  0.31159700  1
  O  O75  1  0.06004600  0.96699200  0.58509100  1
  O  O76  1  0.43995400  0.53300800  0.41490900  1
  O  O77  1  0.42967500  0.64891100  0.09785100  1
  O  O78  1  0.33728400  0.84010700  0.27672800  1
  O  O79  1  0.21322850  0.59613250  0.97538000  1
  O  O80  1  0.47775100  0.10253700  0.02317500  1
  O  O81  1  0.11810050  0.39809050  0.89808400  1
  O  O82  1  0.00167450  0.15642750  0.91645700  1
  O  O83  1  0.17403550  0.34430750  0.73614600  1
  O  O84  1  0.28677150  0.09613250  0.52462000  1
  O  O85  1  0.24935300  0.27776900  0.32218500  1
  O  O86  1  0.06338150  0.62856150  0.78232600  1
  O  O87  1  0.07880850  0.90388450  0.34680900  1
  O  O88  1  0.28677150  0.90386750  0.02462000  1
  O  O89  1  0.35227450  0.39641750  0.35451300  1
  O  O90  1  0.49832550  0.34357250  0.08354300  1
  O  O91  1  0.07032500  0.14891100  0.40214900  1
  O  O92  1  0.39501100  0.03379000  0.36895000  1
  O  O93  1  0.42967500  0.35108900  0.59785100  1
  O  O94  1  0.43661850  0.12856150  0.71767400  1
  O  O95  1  0.06004600  0.03300800  0.08509100  1
  O  O96  1  0.21322850  0.40386750  0.47538000  1
  O  O97  1  0.25064700  0.22223100  0.67781500  1
  O  O98  1  0.10498900  0.46621000  0.63105000  1
  O  O99  1  0.35227450  0.60358250  0.85451300  1
  O  O100  1  0.23319050  0.45963650  0.23265600  1
  O  O101  1  0.14772550  0.89641750  0.14548700  1
  O  O102  1  0.42119150  0.40388450  0.15319100  1
  O  O103  1  0.07880850  0.09611550  0.84680900  1
  O  O104  1  0.02224900  0.60253700  0.47682500  1
  O  O105  1  0.31241500  0.40459200  0.68840300  1
  O  O106  1  0.41360500  0.78259500  0.82671000  1
  O  O107  1  0.06338150  0.37143850  0.28232600  1
  O  O108  1  0.43995400  0.46699200  0.91490900  1
  O  O109  1  0.07032500  0.85108900  0.90214900  1
  O  O110  1  0.26680950  0.04036350  0.76734400  1
  O  O111  1  0.26680950  0.95963650  0.26734400  1
  O  O112  1  0.33728400  0.15989300  0.77672800  1
  O  O113  1  0.18758500  0.90459200  0.81159700  1
  O  O114  1  0.38189950  0.10190950  0.10191600  1
  O  O115  1  0.11810050  0.60190950  0.39808400  1
  O  O116  1  0.41510800  0.71658500  0.43448900  1
  O  O117  1  0.00167450  0.84357250  0.41645700  1
  O  O118  1  0.23319050  0.54036350  0.73265600  1
  O  O119  1  0.31241500  0.59540800  0.18840300  1
  O  O120  1  0.91360500  0.71740500  0.32671000  1
  O  O121  1  0.72444350  0.63192550  0.06354100  1
  O  O122  1  0.77555650  0.13192550  0.43645900  1
  O  O123  1  0.74935300  0.22223100  0.82218500  1
  O  O124  1  0.89501100  0.46621000  0.86895000  1
  O  O125  1  0.58639500  0.21740500  0.17329000  1
  O  O126  1  0.52224900  0.89746300  0.97682500  1
  O  O127  1  0.75064700  0.27776900  0.17781500  1
  O  O128  1  0.66271600  0.15989300  0.72327200  1
  O  O129  1  0.64772550  0.60358250  0.64548700  1
  O  O130  1  0.77555650  0.86807450  0.93645900  1
  O  O131  1  0.72444350  0.36807450  0.56354100  1
  O  O132  1  0.93661850  0.37143850  0.21767400  1
  O  O133  1  0.91510800  0.78341500  0.93448900  1
  O  O134  1  0.97775100  0.39746300  0.52317500  1
  O  O135  1  0.99832550  0.15642750  0.58354300  1
  O  O136  1  0.88189950  0.39809050  0.60191600  1
  O  O137  1  0.66271600  0.84010700  0.22327200  1
  O  O138  1  0.58489200  0.28341500  0.56551100  1
  O  O139  1  0.82596450  0.34430750  0.76385400  1
  O  O140  1  0.58639500  0.78259500  0.67329000  1
  O  O141  1  0.58489200  0.71658500  0.06551100  1
  O  O142  1  0.92119150  0.09611550  0.65319100  1
  O  O143  1  0.60498900  0.03379000  0.13105000  1
  O  O144  1  0.82596450  0.65569250  0.26385400  1
  O  O145  1  0.67403550  0.15569250  0.23614600  1
  O  O146  1  0.68758500  0.59540800  0.31159700  1
  O  O147  1  0.56004600  0.46699200  0.58509100  1
  O  O148  1  0.93995400  0.03300800  0.41490900  1
  O  O149  1  0.92967500  0.14891100  0.09785100  1
  O  O150  1  0.83728400  0.34010700  0.27672800  1
  O  O151  1  0.71322850  0.09613250  0.97538000  1
  O  O152  1  0.97775100  0.60253700  0.02317500  1
  O  O153  1  0.61810050  0.89809050  0.89808400  1
  O  O154  1  0.50167450  0.65642750  0.91645700  1
  O  O155  1  0.67403550  0.84430750  0.73614600  1
  O  O156  1  0.78677150  0.59613250  0.52462000  1
  O  O157  1  0.74935300  0.77776900  0.32218500  1
  O  O158  1  0.56338150  0.12856150  0.78232600  1
  O  O159  1  0.57880850  0.40388450  0.34680900  1
  O  O160  1  0.78677150  0.40386750  0.02462000  1
  O  O161  1  0.85227450  0.89641750  0.35451300  1
  O  O162  1  0.99832550  0.84357250  0.08354300  1
  O  O163  1  0.57032500  0.64891100  0.40214900  1
  O  O164  1  0.89501100  0.53379000  0.36895000  1
  O  O165  1  0.92967500  0.85108900  0.59785100  1
  O  O166  1  0.93661850  0.62856150  0.71767400  1
  O  O167  1  0.56004600  0.53300800  0.08509100  1
  O  O168  1  0.71322850  0.90386750  0.47538000  1
  O  O169  1  0.75064700  0.72223100  0.67781500  1
  O  O170  1  0.60498900  0.96621000  0.63105000  1
  O  O171  1  0.85227450  0.10358250  0.85451300  1
  O  O172  1  0.73319050  0.95963650  0.23265600  1
  O  O173  1  0.64772550  0.39641750  0.14548700  1
  O  O174  1  0.92119150  0.90388450  0.15319100  1
  O  O175  1  0.57880850  0.59611550  0.84680900  1
  O  O176  1  0.52224900  0.10253700  0.47682500  1
  O  O177  1  0.81241500  0.90459200  0.68840300  1
  O  O178  1  0.91360500  0.28259500  0.82671000  1
  O  O179  1  0.56338150  0.87143850  0.28232600  1
  O  O180  1  0.93995400  0.96699200  0.91490900  1
  O  O181  1  0.57032500  0.35108900  0.90214900  1
  O  O182  1  0.76680950  0.54036350  0.76734400  1
  O  O183  1  0.76680950  0.45963650  0.26734400  1
  O  O184  1  0.83728400  0.65989300  0.77672800  1
  O  O185  1  0.68758500  0.40459200  0.81159700  1
  O  O186  1  0.88189950  0.60190950  0.10191600  1
  O  O187  1  0.61810050  0.10190950  0.39808400  1
  O  O188  1  0.91510800  0.21658500  0.43448900  1
  O  O189  1  0.50167450  0.34357250  0.41645700  1
  O  O190  1  0.73319050  0.04036350  0.73265600  1
  O  O191  1  0.81241500  0.09540800  0.18840300  1
