# generated using pymatgen
data_Nd3(CuGe)4
_symmetry_space_group_name_H-M   'P 1'
_cell_length_a   4.32723200
_cell_length_b   6.74497800
_cell_length_c   14.33581000
_cell_angle_alpha   90.00000000
_cell_angle_beta   90.00000000
_cell_angle_gamma   90.00000000
_symmetry_Int_Tables_number   1
_chemical_formula_structural   Nd3(CuGe)4
_chemical_formula_sum   'Nd6 Cu8 Ge8'
_cell_volume   418.42049987
_cell_formula_units_Z   2
loop_
 _symmetry_equiv_pos_site_id
 _symmetry_equiv_pos_as_xyz
  1  'x, y, z'
loop_
 _atom_site_type_symbol
 _atom_site_label
 _atom_site_symmetry_multiplicity
 _atom_site_fract_x
 _atom_site_fract_y
 _atom_site_fract_z
 _atom_site_occupancy
  Nd  Nd0  1  0.00000000  0.50000000  0.86771400  1
  Nd  Nd1  1  0.00000000  0.00000000  0.00000000  1
  Nd  Nd2  1  0.50000000  0.00000000  0.63228600  1
  Nd  Nd3  1  0.50000000  0.00000000  0.36771400  1
  Nd  Nd4  1  0.50000000  0.50000000  0.50000000  1
  Nd  Nd5  1  0.00000000  0.50000000  0.13228600  1
  Cu  Cu6  1  0.00000000  0.68595900  0.66642300  1
  Cu  Cu7  1  0.50000000  0.81404100  0.83357700  1
  Cu  Cu8  1  0.50000000  0.18595900  0.83357700  1
  Cu  Cu9  1  0.00000000  0.31404100  0.66642300  1
  Cu  Cu10  1  0.50000000  0.18595900  0.16642300  1
  Cu  Cu11  1  0.00000000  0.31404100  0.33357700  1
  Cu  Cu12  1  0.00000000  0.68595900  0.33357700  1
  Cu  Cu13  1  0.50000000  0.81404100  0.16642300  1
  Ge  Ge14  1  0.50000000  0.31118100  0.00000000  1
  Ge  Ge15  1  0.50000000  0.50000000  0.71619100  1
  Ge  Ge16  1  0.00000000  0.00000000  0.78380900  1
  Ge  Ge17  1  0.50000000  0.68881900  0.00000000  1
  Ge  Ge18  1  0.00000000  0.81118100  0.50000000  1
  Ge  Ge19  1  0.00000000  0.00000000  0.21619100  1
  Ge  Ge20  1  0.50000000  0.50000000  0.28380900  1
  Ge  Ge21  1  0.00000000  0.18881900  0.50000000  1
