# generated using pymatgen
data_RbNa7(CoO3)2
_symmetry_space_group_name_H-M   'P 1'
_cell_length_a   10.88077200
_cell_length_b   4.43595600
_cell_length_c   10.81433735
_cell_angle_alpha   90.00000000
_cell_angle_beta   91.34473090
_cell_angle_gamma   90.00000000
_symmetry_Int_Tables_number   1
_chemical_formula_structural   RbNa7(CoO3)2
_chemical_formula_sum   'Rb2 Na14 Co4 O12'
_cell_volume   521.82781965
_cell_formula_units_Z   2
loop_
 _symmetry_equiv_pos_site_id
 _symmetry_equiv_pos_as_xyz
  1  'x, y, z'
loop_
 _atom_site_type_symbol
 _atom_site_label
 _atom_site_symmetry_multiplicity
 _atom_site_fract_x
 _atom_site_fract_y
 _atom_site_fract_z
 _atom_site_occupancy
  Rb  Rb0  1  0.00000000  0.00000000  0.50000000  1
  Rb  Rb1  1  0.50000000  0.50000000  0.50000000  1
  Na  Na2  1  0.85570000  0.00000000  0.77943500  1
  Na  Na3  1  0.72673600  0.00000000  0.39494700  1
  Na  Na4  1  0.73242200  0.50000000  0.90644900  1
  Na  Na5  1  0.77326400  0.50000000  0.60505300  1
  Na  Na6  1  0.64430000  0.50000000  0.22056500  1
  Na  Na7  1  0.76757800  0.00000000  0.09355100  1
  Na  Na8  1  0.00000000  0.50000000  0.00000000  1
  Na  Na9  1  0.35570000  0.50000000  0.77943500  1
  Na  Na10  1  0.22673600  0.50000000  0.39494700  1
  Na  Na11  1  0.23242200  0.00000000  0.90644900  1
  Na  Na12  1  0.27326400  0.00000000  0.60505300  1
  Na  Na13  1  0.14430000  0.00000000  0.22056500  1
  Na  Na14  1  0.26757800  0.50000000  0.09355100  1
  Na  Na15  1  0.50000000  0.00000000  0.00000000  1
  Co  Co16  1  0.58407200  0.00000000  0.73989900  1
  Co  Co17  1  0.91592800  0.50000000  0.26010100  1
  Co  Co18  1  0.08407200  0.50000000  0.73989900  1
  Co  Co19  1  0.41592800  0.00000000  0.26010100  1
  O  O20  1  0.58270100  0.00000000  0.23025400  1
  O  O21  1  0.67708400  0.00000000  0.89446000  1
  O  O22  1  0.82291600  0.50000000  0.10554000  1
  O  O23  1  0.68568000  0.00000000  0.60609100  1
  O  O24  1  0.91729900  0.50000000  0.76974600  1
  O  O25  1  0.81432000  0.50000000  0.39390900  1
  O  O26  1  0.08270100  0.50000000  0.23025400  1
  O  O27  1  0.17708400  0.50000000  0.89446000  1
  O  O28  1  0.32291600  0.00000000  0.10554000  1
  O  O29  1  0.18568000  0.50000000  0.60609100  1
  O  O30  1  0.41729900  0.00000000  0.76974600  1
  O  O31  1  0.31432000  0.00000000  0.39390900  1
