# generated using pymatgen
data_K3FeO3
_symmetry_space_group_name_H-M   'P 1'
_cell_length_a   7.20634200
_cell_length_b   11.40250200
_cell_length_c   6.61109435
_cell_angle_alpha   90.00000000
_cell_angle_beta   101.12685985
_cell_angle_gamma   90.00000000
_symmetry_Int_Tables_number   1
_chemical_formula_structural   K3FeO3
_chemical_formula_sum   'K12 Fe4 O12'
_cell_volume   533.02421617
_cell_formula_units_Z   4
loop_
 _symmetry_equiv_pos_site_id
 _symmetry_equiv_pos_as_xyz
  1  'x, y, z'
loop_
 _atom_site_type_symbol
 _atom_site_label
 _atom_site_symmetry_multiplicity
 _atom_site_fract_x
 _atom_site_fract_y
 _atom_site_fract_z
 _atom_site_occupancy
  K  K0  1  0.37235000  0.00000000  0.64615000  1
  K  K1  1  0.50000000  0.30414400  0.50000000  1
  K  K2  1  0.50000000  0.69585600  0.50000000  1
  K  K3  1  0.50000000  0.24043500  0.00000000  1
  K  K4  1  0.62765000  0.00000000  0.35385000  1
  K  K5  1  0.50000000  0.75956500  0.00000000  1
  K  K6  1  0.87235000  0.50000000  0.64615000  1
  K  K7  1  0.00000000  0.80414400  0.50000000  1
  K  K8  1  0.00000000  0.19585600  0.50000000  1
  K  K9  1  0.00000000  0.74043500  0.00000000  1
  K  K10  1  0.12765000  0.50000000  0.35385000  1
  K  K11  1  0.00000000  0.25956500  0.00000000  1
  Fe  Fe12  1  0.17167700  0.00000000  0.14447900  1
  Fe  Fe13  1  0.82832300  0.00000000  0.85552100  1
  Fe  Fe14  1  0.67167700  0.50000000  0.14447900  1
  Fe  Fe15  1  0.32832300  0.50000000  0.85552100  1
  O  O16  1  0.29654200  0.86468500  0.26358100  1
  O  O17  1  0.09930600  0.00000000  0.83867000  1
  O  O18  1  0.90069400  0.00000000  0.16133000  1
  O  O19  1  0.70345800  0.13531500  0.73641900  1
  O  O20  1  0.70345800  0.86468500  0.73641900  1
  O  O21  1  0.29654200  0.13531500  0.26358100  1
  O  O22  1  0.79654200  0.36468500  0.26358100  1
  O  O23  1  0.59930600  0.50000000  0.83867000  1
  O  O24  1  0.40069400  0.50000000  0.16133000  1
  O  O25  1  0.20345800  0.63531500  0.73641900  1
  O  O26  1  0.20345800  0.36468500  0.73641900  1
  O  O27  1  0.79654200  0.63531500  0.26358100  1
