# generated using pymatgen
data_YbGa2Ge3
_symmetry_space_group_name_H-M   'P 1'
_cell_length_a   4.22075800
_cell_length_b   23.37395000
_cell_length_c   10.82942500
_cell_angle_alpha   90.00000000
_cell_angle_beta   90.00000000
_cell_angle_gamma   90.00000000
_symmetry_Int_Tables_number   1
_chemical_formula_structural   YbGa2Ge3
_chemical_formula_sum   'Yb8 Ga16 Ge24'
_cell_volume   1068.38544022
_cell_formula_units_Z   8
loop_
 _symmetry_equiv_pos_site_id
 _symmetry_equiv_pos_as_xyz
  1  'x, y, z'
loop_
 _atom_site_type_symbol
 _atom_site_label
 _atom_site_symmetry_multiplicity
 _atom_site_fract_x
 _atom_site_fract_y
 _atom_site_fract_z
 _atom_site_occupancy
  Yb  Yb0  1  0.00000000  0.98169600  0.63146600  1
  Yb  Yb1  1  0.00000000  0.70018600  0.81195000  1
  Yb  Yb2  1  0.50000000  0.51830400  0.13146600  1
  Yb  Yb3  1  0.50000000  0.79981400  0.31195000  1
  Yb  Yb4  1  0.50000000  0.48169600  0.63146600  1
  Yb  Yb5  1  0.50000000  0.20018600  0.81195000  1
  Yb  Yb6  1  0.00000000  0.01830400  0.13146600  1
  Yb  Yb7  1  0.00000000  0.29981400  0.31195000  1
  Ga  Ga8  1  0.00000000  0.84944700  0.75569400  1
  Ga  Ga9  1  0.00000000  0.51476800  0.37797600  1
  Ga  Ga10  1  0.00000000  0.88598900  0.12927300  1
  Ga  Ga11  1  0.50000000  0.65055300  0.25569400  1
  Ga  Ga12  1  0.50000000  0.61401100  0.62927300  1
  Ga  Ga13  1  0.50000000  0.98523200  0.87797600  1
  Ga  Ga14  1  0.50000000  0.75096700  0.99892500  1
  Ga  Ga15  1  0.00000000  0.74903300  0.49892500  1
  Ga  Ga16  1  0.50000000  0.34944700  0.75569400  1
  Ga  Ga17  1  0.50000000  0.01476800  0.37797600  1
  Ga  Ga18  1  0.50000000  0.38598900  0.12927300  1
  Ga  Ga19  1  0.00000000  0.15055300  0.25569400  1
  Ga  Ga20  1  0.00000000  0.11401100  0.62927300  1
  Ga  Ga21  1  0.00000000  0.48523200  0.87797600  1
  Ga  Ga22  1  0.00000000  0.25096700  0.99892500  1
  Ga  Ga23  1  0.50000000  0.24903300  0.49892500  1
  Ge  Ge24  1  0.00000000  0.58713500  0.96119600  1
  Ge  Ge25  1  0.50000000  0.91286500  0.46119600  1
  Ge  Ge26  1  0.00000000  0.57158500  0.72478600  1
  Ge  Ge27  1  0.00000000  0.70560300  0.28719900  1
  Ge  Ge28  1  0.00000000  0.92990000  0.90822500  1
  Ge  Ge29  1  0.50000000  0.79439700  0.78719900  1
  Ge  Ge30  1  0.50000000  0.92841500  0.22478600  1
  Ge  Ge31  1  0.00000000  0.77743600  0.10799900  1
  Ge  Ge32  1  0.50000000  0.72256400  0.60799900  1
  Ge  Ge33  1  0.00000000  0.85854200  0.52311900  1
  Ge  Ge34  1  0.50000000  0.64145800  0.02311900  1
  Ge  Ge35  1  0.50000000  0.57010000  0.40822500  1
  Ge  Ge36  1  0.50000000  0.08713500  0.96119600  1
  Ge  Ge37  1  0.00000000  0.41286500  0.46119600  1
  Ge  Ge38  1  0.50000000  0.07158500  0.72478600  1
  Ge  Ge39  1  0.50000000  0.20560300  0.28719900  1
  Ge  Ge40  1  0.50000000  0.42990000  0.90822500  1
  Ge  Ge41  1  0.00000000  0.29439700  0.78719900  1
  Ge  Ge42  1  0.00000000  0.42841500  0.22478600  1
  Ge  Ge43  1  0.50000000  0.27743600  0.10799900  1
  Ge  Ge44  1  0.00000000  0.22256400  0.60799900  1
  Ge  Ge45  1  0.50000000  0.35854200  0.52311900  1
  Ge  Ge46  1  0.00000000  0.14145800  0.02311900  1
  Ge  Ge47  1  0.00000000  0.07010000  0.40822500  1
