# generated using pymatgen
data_GdWClO4
_symmetry_space_group_name_H-M   'P 1'
_cell_length_a   10.45601000
_cell_length_b   7.44966800
_cell_length_c   7.04012774
_cell_angle_alpha   90.00000000
_cell_angle_beta   107.48253942
_cell_angle_gamma   90.00000000
_symmetry_Int_Tables_number   1
_chemical_formula_structural   GdWClO4
_chemical_formula_sum   'Gd4 W4 Cl4 O16'
_cell_volume   523.05174686
_cell_formula_units_Z   4
loop_
 _symmetry_equiv_pos_site_id
 _symmetry_equiv_pos_as_xyz
  1  'x, y, z'
loop_
 _atom_site_type_symbol
 _atom_site_label
 _atom_site_symmetry_multiplicity
 _atom_site_fract_x
 _atom_site_fract_y
 _atom_site_fract_z
 _atom_site_occupancy
  Gd  Gd0  1  0.77830400  0.00000000  0.88218500  1
  Gd  Gd1  1  0.22169600  0.00000000  0.11781500  1
  Gd  Gd2  1  0.27830400  0.50000000  0.88218500  1
  Gd  Gd3  1  0.72169600  0.50000000  0.11781500  1
  W  W4  1  0.63733000  0.00000000  0.26735200  1
  W  W5  1  0.36267000  0.00000000  0.73264800  1
  W  W6  1  0.13733000  0.50000000  0.26735200  1
  W  W7  1  0.86267000  0.50000000  0.73264800  1
  Cl  Cl8  1  0.01195600  0.00000000  0.76902600  1
  Cl  Cl9  1  0.98804400  0.00000000  0.23097400  1
  Cl  Cl10  1  0.51195600  0.50000000  0.76902600  1
  Cl  Cl11  1  0.48804400  0.50000000  0.23097400  1
  O  O12  1  0.45650200  0.00000000  0.19933100  1
  O  O13  1  0.54349800  0.00000000  0.80066900  1
  O  O14  1  0.69876150  0.19016950  0.15475900  1
  O  O15  1  0.30123850  0.80983050  0.84524100  1
  O  O16  1  0.69876150  0.80983050  0.15475900  1
  O  O17  1  0.30123850  0.19016950  0.84524100  1
  O  O18  1  0.29342300  0.00000000  0.46619400  1
  O  O19  1  0.70657700  0.00000000  0.53380600  1
  O  O20  1  0.95650200  0.50000000  0.19933100  1
  O  O21  1  0.04349800  0.50000000  0.80066900  1
  O  O22  1  0.19876150  0.69016950  0.15475900  1
  O  O23  1  0.80123850  0.30983050  0.84524100  1
  O  O24  1  0.19876150  0.30983050  0.15475900  1
  O  O25  1  0.80123850  0.69016950  0.84524100  1
  O  O26  1  0.79342300  0.50000000  0.46619400  1
  O  O27  1  0.20657700  0.50000000  0.53380600  1
