# generated using pymatgen
data_CrHg5O6
_symmetry_space_group_name_H-M   'P 1'
_cell_length_a   11.52932400
_cell_length_b   11.89699600
_cell_length_c   6.84986403
_cell_angle_alpha   90.00000000
_cell_angle_beta   97.94600525
_cell_angle_gamma   90.00000000
_symmetry_Int_Tables_number   1
_chemical_formula_structural   CrHg5O6
_chemical_formula_sum   'Cr4 Hg20 O24'
_cell_volume   930.53606207
_cell_formula_units_Z   4
loop_
 _symmetry_equiv_pos_site_id
 _symmetry_equiv_pos_as_xyz
  1  'x, y, z'
loop_
 _atom_site_type_symbol
 _atom_site_label
 _atom_site_symmetry_multiplicity
 _atom_site_fract_x
 _atom_site_fract_y
 _atom_site_fract_z
 _atom_site_occupancy
  Cr  Cr0  1  0.50000000  0.18292800  0.25000000  1
  Cr  Cr1  1  0.50000000  0.81707200  0.75000000  1
  Cr  Cr2  1  0.00000000  0.68292800  0.25000000  1
  Cr  Cr3  1  0.00000000  0.31707200  0.75000000  1
  Hg  Hg4  1  0.27661550  0.92602250  0.30260400  1
  Hg  Hg5  1  0.72338450  0.92602250  0.19739600  1
  Hg  Hg6  1  0.72338450  0.07397750  0.69739600  1
  Hg  Hg7  1  0.27661550  0.07397750  0.80260400  1
  Hg  Hg8  1  0.65969400  0.72559000  0.28986200  1
  Hg  Hg9  1  0.65969400  0.27441000  0.78986200  1
  Hg  Hg10  1  0.34030600  0.27441000  0.71013800  1
  Hg  Hg11  1  0.34030600  0.72559000  0.21013800  1
  Hg  Hg12  1  0.00000000  0.00000000  0.00000000  1
  Hg  Hg13  1  0.00000000  0.00000000  0.50000000  1
  Hg  Hg14  1  0.77661550  0.42602250  0.30260400  1
  Hg  Hg15  1  0.22338450  0.42602250  0.19739600  1
  Hg  Hg16  1  0.22338450  0.57397750  0.69739600  1
  Hg  Hg17  1  0.77661550  0.57397750  0.80260400  1
  Hg  Hg18  1  0.15969400  0.22559000  0.28986200  1
  Hg  Hg19  1  0.15969400  0.77441000  0.78986200  1
  Hg  Hg20  1  0.84030600  0.77441000  0.71013800  1
  Hg  Hg21  1  0.84030600  0.22559000  0.21013800  1
  Hg  Hg22  1  0.50000000  0.50000000  0.00000000  1
  Hg  Hg23  1  0.50000000  0.50000000  0.50000000  1
  O  O24  1  0.37956650  0.10266750  0.20707400  1
  O  O25  1  0.62043350  0.10266750  0.29292600  1
  O  O26  1  0.62043350  0.89733250  0.79292600  1
  O  O27  1  0.37956650  0.89733250  0.70707400  1
  O  O28  1  0.50611100  0.26508300  0.05274300  1
  O  O29  1  0.49388900  0.26508300  0.44725700  1
  O  O30  1  0.49388900  0.73491700  0.94725700  1
  O  O31  1  0.50611100  0.73491700  0.55274300  1
  O  O32  1  0.86019600  0.04844200  0.14576300  1
  O  O33  1  0.13980400  0.04844200  0.35423700  1
  O  O34  1  0.13980400  0.95155800  0.85423700  1
  O  O35  1  0.86019600  0.95155800  0.64576300  1
  O  O36  1  0.87956650  0.60266750  0.20707400  1
  O  O37  1  0.12043350  0.60266750  0.29292600  1
  O  O38  1  0.12043350  0.39733250  0.79292600  1
  O  O39  1  0.87956650  0.39733250  0.70707400  1
  O  O40  1  0.00611100  0.76508300  0.05274300  1
  O  O41  1  0.99388900  0.76508300  0.44725700  1
  O  O42  1  0.99388900  0.23491700  0.94725700  1
  O  O43  1  0.00611100  0.23491700  0.55274300  1
  O  O44  1  0.36019600  0.54844200  0.14576300  1
  O  O45  1  0.63980400  0.54844200  0.35423700  1
  O  O46  1  0.63980400  0.45155800  0.85423700  1
  O  O47  1  0.36019600  0.45155800  0.64576300  1
