# generated using pymatgen
data_Np3Te4
_symmetry_space_group_name_H-M   'P 1'
_cell_length_a   9.32102200
_cell_length_b   9.32102200
_cell_length_c   9.32102200
_cell_angle_alpha   90.00000000
_cell_angle_beta   90.00000000
_cell_angle_gamma   90.00000000
_symmetry_Int_Tables_number   1
_chemical_formula_structural   Np3Te4
_chemical_formula_sum   'Np12 Te16'
_cell_volume   809.82391732
_cell_formula_units_Z   4
loop_
 _symmetry_equiv_pos_site_id
 _symmetry_equiv_pos_as_xyz
  1  'x, y, z'
loop_
 _atom_site_type_symbol
 _atom_site_label
 _atom_site_symmetry_multiplicity
 _atom_site_fract_x
 _atom_site_fract_y
 _atom_site_fract_z
 _atom_site_occupancy
  Np  Np0  1  0.12500000  0.00000000  0.75000000  1
  Np  Np1  1  0.25000000  0.37500000  0.00000000  1
  Np  Np2  1  0.37500000  0.00000000  0.25000000  1
  Np  Np3  1  0.00000000  0.75000000  0.12500000  1
  Np  Np4  1  0.00000000  0.25000000  0.37500000  1
  Np  Np5  1  0.75000000  0.12500000  0.00000000  1
  Np  Np6  1  0.62500000  0.50000000  0.25000000  1
  Np  Np7  1  0.75000000  0.87500000  0.50000000  1
  Np  Np8  1  0.87500000  0.50000000  0.75000000  1
  Np  Np9  1  0.50000000  0.25000000  0.62500000  1
  Np  Np10  1  0.50000000  0.75000000  0.87500000  1
  Np  Np11  1  0.25000000  0.62500000  0.50000000  1
  Te  Te12  1  0.32599100  0.32599100  0.32599100  1
  Te  Te13  1  0.82599100  0.17400900  0.67400900  1
  Te  Te14  1  0.17400900  0.67400900  0.82599100  1
  Te  Te15  1  0.07599100  0.92400900  0.42400900  1
  Te  Te16  1  0.67400900  0.82599100  0.17400900  1
  Te  Te17  1  0.42400900  0.07599100  0.92400900  1
  Te  Te18  1  0.92400900  0.42400900  0.07599100  1
  Te  Te19  1  0.07599100  0.07599100  0.07599100  1
  Te  Te20  1  0.82599100  0.82599100  0.82599100  1
  Te  Te21  1  0.32599100  0.67400900  0.17400900  1
  Te  Te22  1  0.67400900  0.17400900  0.32599100  1
  Te  Te23  1  0.57599100  0.42400900  0.92400900  1
  Te  Te24  1  0.17400900  0.32599100  0.67400900  1
  Te  Te25  1  0.92400900  0.57599100  0.42400900  1
  Te  Te26  1  0.42400900  0.92400900  0.57599100  1
  Te  Te27  1  0.57599100  0.57599100  0.57599100  1
