# generated using pymatgen
data_LiFe4(PO4)3
_symmetry_space_group_name_H-M   'P 1'
_cell_length_a   11.89212600
_cell_length_b   13.11593400
_cell_length_c   6.58688317
_cell_angle_alpha   90.00000000
_cell_angle_beta   114.74806733
_cell_angle_gamma   90.00000000
_symmetry_Int_Tables_number   1
_chemical_formula_structural   LiFe4(PO4)3
_chemical_formula_sum   'Li4 Fe16 P12 O48'
_cell_volume   933.03892205
_cell_formula_units_Z   4
loop_
 _symmetry_equiv_pos_site_id
 _symmetry_equiv_pos_as_xyz
  1  'x, y, z'
loop_
 _atom_site_type_symbol
 _atom_site_label
 _atom_site_symmetry_multiplicity
 _atom_site_fract_x
 _atom_site_fract_y
 _atom_site_fract_z
 _atom_site_occupancy
  Li  Li0  1  0.50000000  0.49310100  0.25000000  1
  Li  Li1  1  0.50000000  0.50689900  0.75000000  1
  Li  Li2  1  0.00000000  0.99310100  0.25000000  1
  Li  Li3  1  0.00000000  0.00689900  0.75000000  1
  Fe  Fe4  1  0.21172000  0.84414900  0.12565300  1
  Fe  Fe5  1  0.50000000  0.23271300  0.25000000  1
  Fe  Fe6  1  0.78828000  0.84414900  0.37434700  1
  Fe  Fe7  1  0.50000000  0.00060400  0.25000000  1
  Fe  Fe8  1  0.21172000  0.15585100  0.62565300  1
  Fe  Fe9  1  0.78828000  0.15585100  0.87434700  1
  Fe  Fe10  1  0.50000000  0.99939600  0.75000000  1
  Fe  Fe11  1  0.50000000  0.76728700  0.75000000  1
  Fe  Fe12  1  0.71172000  0.34414900  0.12565300  1
  Fe  Fe13  1  0.00000000  0.73271300  0.25000000  1
  Fe  Fe14  1  0.28828000  0.34414900  0.37434700  1
  Fe  Fe15  1  0.00000000  0.50060400  0.25000000  1
  Fe  Fe16  1  0.71172000  0.65585100  0.62565300  1
  Fe  Fe17  1  0.28828000  0.65585100  0.87434700  1
  Fe  Fe18  1  0.00000000  0.49939600  0.75000000  1
  Fe  Fe19  1  0.00000000  0.26728700  0.75000000  1
  P  P20  1  0.50000000  0.79438300  0.25000000  1
  P  P21  1  0.22107350  0.89014950  0.61828700  1
  P  P22  1  0.77892650  0.10985050  0.38171300  1
  P  P23  1  0.77892650  0.89014950  0.88171300  1
  P  P24  1  0.50000000  0.20561700  0.75000000  1
  P  P25  1  0.22107350  0.10985050  0.11828700  1
  P  P26  1  0.00000000  0.29438300  0.25000000  1
  P  P27  1  0.72107350  0.39014950  0.61828700  1
  P  P28  1  0.27892650  0.60985050  0.38171300  1
  P  P29  1  0.27892650  0.39014950  0.88171300  1
  P  P30  1  0.00000000  0.70561700  0.75000000  1
  P  P31  1  0.72107350  0.60985050  0.11828700  1
  O  O32  1  0.15487550  0.99409050  0.59576300  1
  O  O33  1  0.39856250  0.87291250  0.24287400  1
  O  O34  1  0.60143750  0.12708750  0.75712600  1
  O  O35  1  0.53602450  0.72945050  0.46317500  1
  O  O36  1  0.39856250  0.12708750  0.74287400  1
  O  O37  1  0.21657600  0.17631100  0.30758200  1
  O  O38  1  0.53602450  0.27054950  0.96317500  1
  O  O39  1  0.84512450  0.99409050  0.90423700  1
  O  O40  1  0.46397550  0.72945050  0.03682500  1
  O  O41  1  0.15487550  0.00590950  0.09576300  1
  O  O42  1  0.78342400  0.17631100  0.19241800  1
  O  O43  1  0.34582900  0.33573300  0.11300200  1
  O  O44  1  0.78342400  0.82368900  0.69241800  1
  O  O45  1  0.65417100  0.33573300  0.38699800  1
  O  O46  1  0.63712600  0.10011800  0.33448800  1
  O  O47  1  0.21657600  0.82368900  0.80758200  1
  O  O48  1  0.84512450  0.00590950  0.40423700  1
  O  O49  1  0.63712600  0.89988200  0.83448800  1
  O  O50  1  0.46397550  0.27054950  0.53682500  1
  O  O51  1  0.65417100  0.66426700  0.88699800  1
  O  O52  1  0.60143750  0.87291250  0.25712600  1
  O  O53  1  0.36287400  0.10011800  0.16551200  1
  O  O54  1  0.34582900  0.66426700  0.61300200  1
  O  O55  1  0.36287400  0.89988200  0.66551200  1
  O  O56  1  0.65487550  0.49409050  0.59576300  1
  O  O57  1  0.89856250  0.37291250  0.24287400  1
  O  O58  1  0.10143750  0.62708750  0.75712600  1
  O  O59  1  0.03602450  0.22945050  0.46317500  1
  O  O60  1  0.89856250  0.62708750  0.74287400  1
  O  O61  1  0.71657600  0.67631100  0.30758200  1
  O  O62  1  0.03602450  0.77054950  0.96317500  1
  O  O63  1  0.34512450  0.49409050  0.90423700  1
  O  O64  1  0.96397550  0.22945050  0.03682500  1
  O  O65  1  0.65487550  0.50590950  0.09576300  1
  O  O66  1  0.28342400  0.67631100  0.19241800  1
  O  O67  1  0.84582900  0.83573300  0.11300200  1
  O  O68  1  0.28342400  0.32368900  0.69241800  1
  O  O69  1  0.15417100  0.83573300  0.38699800  1
  O  O70  1  0.13712600  0.60011800  0.33448800  1
  O  O71  1  0.71657600  0.32368900  0.80758200  1
  O  O72  1  0.34512450  0.50590950  0.40423700  1
  O  O73  1  0.13712600  0.39988200  0.83448800  1
  O  O74  1  0.96397550  0.77054950  0.53682500  1
  O  O75  1  0.15417100  0.16426700  0.88699800  1
  O  O76  1  0.10143750  0.37291250  0.25712600  1
  O  O77  1  0.86287400  0.60011800  0.16551200  1
  O  O78  1  0.84582900  0.16426700  0.61300200  1
  O  O79  1  0.86287400  0.39988200  0.66551200  1
