# generated using pymatgen
data_Os(SeCl6)2
_symmetry_space_group_name_H-M   'P 1'
_cell_length_a   12.29922000
_cell_length_b   13.00591600
_cell_length_c   22.02565600
_cell_angle_alpha   90.00000000
_cell_angle_beta   90.00000000
_cell_angle_gamma   90.00000000
_symmetry_Int_Tables_number   1
_chemical_formula_structural   Os(SeCl6)2
_chemical_formula_sum   'Os8 Se16 Cl96'
_cell_volume   3523.28168912
_cell_formula_units_Z   8
loop_
 _symmetry_equiv_pos_site_id
 _symmetry_equiv_pos_as_xyz
  1  'x, y, z'
loop_
 _atom_site_type_symbol
 _atom_site_label
 _atom_site_symmetry_multiplicity
 _atom_site_fract_x
 _atom_site_fract_y
 _atom_site_fract_z
 _atom_site_occupancy
  Os  Os0  1  0.25000000  0.75000000  0.16522300  1
  Os  Os1  1  0.50000000  0.50000000  0.41522300  1
  Os  Os2  1  0.25000000  0.25000000  0.66522300  1
  Os  Os3  1  0.50000000  0.00000000  0.91522300  1
  Os  Os4  1  0.75000000  0.75000000  0.66522300  1
  Os  Os5  1  0.00000000  0.50000000  0.91522300  1
  Os  Os6  1  0.75000000  0.25000000  0.16522300  1
  Os  Os7  1  0.00000000  0.00000000  0.41522300  1
  Se  Se8  1  0.25447750  0.02151750  0.24813500  1
  Se  Se9  1  0.50447750  0.22848250  0.49813500  1
  Se  Se10  1  0.49552250  0.77151750  0.49813500  1
  Se  Se11  1  0.24552250  0.47848250  0.24813500  1
  Se  Se12  1  0.25447750  0.52151750  0.74813500  1
  Se  Se13  1  0.50447750  0.72848250  0.99813500  1
  Se  Se14  1  0.49552250  0.27151750  0.99813500  1
  Se  Se15  1  0.24552250  0.97848250  0.74813500  1
  Se  Se16  1  0.75447750  0.02151750  0.74813500  1
  Se  Se17  1  0.00447750  0.22848250  0.99813500  1
  Se  Se18  1  0.99552250  0.77151750  0.99813500  1
  Se  Se19  1  0.74552250  0.47848250  0.74813500  1
  Se  Se20  1  0.75447750  0.52151750  0.24813500  1
  Se  Se21  1  0.00447750  0.72848250  0.49813500  1
  Se  Se22  1  0.99552250  0.27151750  0.49813500  1
  Se  Se23  1  0.74552250  0.97848250  0.24813500  1
  Cl  Cl24  1  0.10754300  0.67387400  0.42318800  1
  Cl  Cl25  1  0.88196450  0.60488200  0.49213350  1
  Cl  Cl26  1  0.61007550  0.42411150  0.34157900  1
  Cl  Cl27  1  0.85754300  0.57612600  0.17318800  1
  Cl  Cl28  1  0.14166900  0.67472950  0.24122850  1
  Cl  Cl29  1  0.13992450  0.67411150  0.09157900  1
  Cl  Cl30  1  0.38787900  0.33180650  0.07161050  1
  Cl  Cl31  1  0.39035300  0.35151950  0.41812350  1
  Cl  Cl32  1  0.14245700  0.42387400  0.17318800  1
  Cl  Cl33  1  0.36803550  0.35488200  0.24213350  1
  Cl  Cl34  1  0.14035300  0.89848050  0.16812350  1
  Cl  Cl35  1  0.60833100  0.42472950  0.49122850  1
  Cl  Cl36  1  0.36212100  0.08180650  0.32161050  1
  Cl  Cl37  1  0.11212100  0.16819350  0.07161050  1
  Cl  Cl38  1  0.86007550  0.32588850  0.09157900  1
  Cl  Cl39  1  0.35964700  0.60151950  0.16812350  1
  Cl  Cl40  1  0.13196450  0.14511800  0.24213350  1
  Cl  Cl41  1  0.35833100  0.82527050  0.24122850  1
  Cl  Cl42  1  0.39166900  0.57527050  0.49122850  1
  Cl  Cl43  1  0.60964700  0.64848050  0.41812350  1
  Cl  Cl44  1  0.38992450  0.57588850  0.34157900  1
  Cl  Cl45  1  0.39245700  0.82612600  0.42318800  1
  Cl  Cl46  1  0.11803550  0.39511800  0.49213350  1
  Cl  Cl47  1  0.13787900  0.41819350  0.32161050  1
  Cl  Cl48  1  0.10754300  0.17387400  0.92318800  1
  Cl  Cl49  1  0.88196450  0.10488200  0.99213350  1
  Cl  Cl50  1  0.61007550  0.92411150  0.84157900  1
  Cl  Cl51  1  0.85754300  0.07612600  0.67318800  1
  Cl  Cl52  1  0.14166900  0.17472950  0.74122850  1
  Cl  Cl53  1  0.13992450  0.17411150  0.59157900  1
  Cl  Cl54  1  0.38787900  0.83180650  0.57161050  1
  Cl  Cl55  1  0.39035300  0.85151950  0.91812350  1
  Cl  Cl56  1  0.14245700  0.92387400  0.67318800  1
  Cl  Cl57  1  0.36803550  0.85488200  0.74213350  1
  Cl  Cl58  1  0.14035300  0.39848050  0.66812350  1
  Cl  Cl59  1  0.60833100  0.92472950  0.99122850  1
  Cl  Cl60  1  0.36212100  0.58180650  0.82161050  1
  Cl  Cl61  1  0.11212100  0.66819350  0.57161050  1
  Cl  Cl62  1  0.86007550  0.82588850  0.59157900  1
  Cl  Cl63  1  0.35964700  0.10151950  0.66812350  1
  Cl  Cl64  1  0.13196450  0.64511800  0.74213350  1
  Cl  Cl65  1  0.35833100  0.32527050  0.74122850  1
  Cl  Cl66  1  0.39166900  0.07527050  0.99122850  1
  Cl  Cl67  1  0.60964700  0.14848050  0.91812350  1
  Cl  Cl68  1  0.38992450  0.07588850  0.84157900  1
  Cl  Cl69  1  0.39245700  0.32612600  0.92318800  1
  Cl  Cl70  1  0.11803550  0.89511800  0.99213350  1
  Cl  Cl71  1  0.13787900  0.91819350  0.82161050  1
  Cl  Cl72  1  0.60754300  0.67387400  0.92318800  1
  Cl  Cl73  1  0.38196450  0.60488200  0.99213350  1
  Cl  Cl74  1  0.11007550  0.42411150  0.84157900  1
  Cl  Cl75  1  0.35754300  0.57612600  0.67318800  1
  Cl  Cl76  1  0.64166900  0.67472950  0.74122850  1
  Cl  Cl77  1  0.63992450  0.67411150  0.59157900  1
  Cl  Cl78  1  0.88787900  0.33180650  0.57161050  1
  Cl  Cl79  1  0.89035300  0.35151950  0.91812350  1
  Cl  Cl80  1  0.64245700  0.42387400  0.67318800  1
  Cl  Cl81  1  0.86803550  0.35488200  0.74213350  1
  Cl  Cl82  1  0.64035300  0.89848050  0.66812350  1
  Cl  Cl83  1  0.10833100  0.42472950  0.99122850  1
  Cl  Cl84  1  0.86212100  0.08180650  0.82161050  1
  Cl  Cl85  1  0.61212100  0.16819350  0.57161050  1
  Cl  Cl86  1  0.36007550  0.32588850  0.59157900  1
  Cl  Cl87  1  0.85964700  0.60151950  0.66812350  1
  Cl  Cl88  1  0.63196450  0.14511800  0.74213350  1
  Cl  Cl89  1  0.85833100  0.82527050  0.74122850  1
  Cl  Cl90  1  0.89166900  0.57527050  0.99122850  1
  Cl  Cl91  1  0.10964700  0.64848050  0.91812350  1
  Cl  Cl92  1  0.88992450  0.57588850  0.84157900  1
  Cl  Cl93  1  0.89245700  0.82612600  0.92318800  1
  Cl  Cl94  1  0.61803550  0.39511800  0.99213350  1
  Cl  Cl95  1  0.63787900  0.41819350  0.82161050  1
  Cl  Cl96  1  0.60754300  0.17387400  0.42318800  1
  Cl  Cl97  1  0.38196450  0.10488200  0.49213350  1
  Cl  Cl98  1  0.11007550  0.92411150  0.34157900  1
  Cl  Cl99  1  0.35754300  0.07612600  0.17318800  1
  Cl  Cl100  1  0.64166900  0.17472950  0.24122850  1
  Cl  Cl101  1  0.63992450  0.17411150  0.09157900  1
  Cl  Cl102  1  0.88787900  0.83180650  0.07161050  1
  Cl  Cl103  1  0.89035300  0.85151950  0.41812350  1
  Cl  Cl104  1  0.64245700  0.92387400  0.17318800  1
  Cl  Cl105  1  0.86803550  0.85488200  0.24213350  1
  Cl  Cl106  1  0.64035300  0.39848050  0.16812350  1
  Cl  Cl107  1  0.10833100  0.92472950  0.49122850  1
  Cl  Cl108  1  0.86212100  0.58180650  0.32161050  1
  Cl  Cl109  1  0.61212100  0.66819350  0.07161050  1
  Cl  Cl110  1  0.36007550  0.82588850  0.09157900  1
  Cl  Cl111  1  0.85964700  0.10151950  0.16812350  1
  Cl  Cl112  1  0.63196450  0.64511800  0.24213350  1
  Cl  Cl113  1  0.85833100  0.32527050  0.24122850  1
  Cl  Cl114  1  0.89166900  0.07527050  0.49122850  1
  Cl  Cl115  1  0.10964700  0.14848050  0.41812350  1
  Cl  Cl116  1  0.88992450  0.07588850  0.34157900  1
  Cl  Cl117  1  0.89245700  0.32612600  0.42318800  1
  Cl  Cl118  1  0.61803550  0.89511800  0.49213350  1
  Cl  Cl119  1  0.63787900  0.91819350  0.32161050  1
