# generated using pymatgen
data_Mn8Zn14Ga27
_symmetry_space_group_name_H-M   'P 1'
_cell_length_a   13.57645729
_cell_length_b   13.57645729
_cell_length_c   14.58947043
_cell_angle_alpha   90.00000000
_cell_angle_beta   90.00000000
_cell_angle_gamma   120.00000000
_symmetry_Int_Tables_number   1
_chemical_formula_structural   Mn8Zn14Ga27
_chemical_formula_sum   'Mn24 Zn42 Ga81'
_cell_volume   2328.85835647
_cell_formula_units_Z   3
loop_
 _symmetry_equiv_pos_site_id
 _symmetry_equiv_pos_as_xyz
  1  'x, y, z'
loop_
 _atom_site_type_symbol
 _atom_site_label
 _atom_site_symmetry_multiplicity
 _atom_site_fract_x
 _atom_site_fract_y
 _atom_site_fract_z
 _atom_site_occupancy
  Mn  Mn0  1  0.69528467  0.68104833  0.40041933  1
  Mn  Mn1  1  0.00000000  0.00000000  0.18552000  1
  Mn  Mn2  1  0.68104833  0.98576367  0.59958067  1
  Mn  Mn3  1  0.30471533  0.31895167  0.59958067  1
  Mn  Mn4  1  0.01423633  0.69528467  0.59958067  1
  Mn  Mn5  1  0.31895167  0.01423633  0.40041933  1
  Mn  Mn6  1  0.98576367  0.30471533  0.40041933  1
  Mn  Mn7  1  0.00000000  0.00000000  0.81448000  1
  Mn  Mn8  1  0.36195133  0.01438167  0.73375267  1
  Mn  Mn9  1  0.66666667  0.33333333  0.51885333  1
  Mn  Mn10  1  0.34771500  0.31909700  0.93291400  1
  Mn  Mn11  1  0.97138200  0.65228500  0.93291400  1
  Mn  Mn12  1  0.68090300  0.02861800  0.93291400  1
  Mn  Mn13  1  0.98561833  0.34756967  0.73375267  1
  Mn  Mn14  1  0.65243033  0.63804867  0.73375267  1
  Mn  Mn15  1  0.66666667  0.33333333  0.14781333  1
  Mn  Mn16  1  0.02861800  0.34771500  0.06708600  1
  Mn  Mn17  1  0.33333333  0.66666667  0.85218667  1
  Mn  Mn18  1  0.01438167  0.65243033  0.26624733  1
  Mn  Mn19  1  0.63804867  0.98561833  0.26624733  1
  Mn  Mn20  1  0.34756967  0.36195133  0.26624733  1
  Mn  Mn21  1  0.65228500  0.68090300  0.06708600  1
  Mn  Mn22  1  0.31909700  0.97138200  0.06708600  1
  Mn  Mn23  1  0.33333333  0.66666667  0.48114667  1
  Zn  Zn24  1  0.88594700  0.88142300  0.34481000  1
  Zn  Zn25  1  0.23575733  0.12404967  0.49882267  1
  Zn  Zn26  1  0.00000000  0.00000000  0.50000000  1
  Zn  Zn27  1  0.00452400  0.88594700  0.65519000  1
  Zn  Zn28  1  0.11170767  0.23575733  0.50117733  1
  Zn  Zn29  1  0.99547600  0.11405300  0.34481000  1
  Zn  Zn30  1  0.11405300  0.11857700  0.65519000  1
  Zn  Zn31  1  0.88829233  0.76424267  0.49882267  1
  Zn  Zn32  1  0.76424267  0.87595033  0.50117733  1
  Zn  Zn33  1  0.11857700  0.00452400  0.34481000  1
  Zn  Zn34  1  0.88142300  0.99547600  0.65519000  1
  Zn  Zn35  1  0.12404967  0.88829233  0.50117733  1
  Zn  Zn36  1  0.87595033  0.11170767  0.49882267  1
  Zn  Zn37  1  0.00000000  0.00000000  0.00000000  1
  Zn  Zn38  1  0.55261367  0.21475633  0.67814333  1
  Zn  Zn39  1  0.90242400  0.45738300  0.83215600  1
  Zn  Zn40  1  0.66666667  0.33333333  0.83333333  1
  Zn  Zn41  1  0.67119067  0.21928033  0.98852333  1
  Zn  Zn42  1  0.77837433  0.56909067  0.83451067  1
  Zn  Zn43  1  0.66214267  0.44738633  0.67814333  1
  Zn  Zn44  1  0.78071967  0.45191033  0.98852333  1
  Zn  Zn45  1  0.55495900  0.09757600  0.83215600  1
  Zn  Zn46  1  0.43090933  0.20928367  0.83451067  1
  Zn  Zn47  1  0.78524367  0.33785733  0.67814333  1
  Zn  Zn48  1  0.54808967  0.32880933  0.98852333  1
  Zn  Zn49  1  0.79071633  0.22162567  0.83451067  1
  Zn  Zn50  1  0.54261700  0.44504100  0.83215600  1
  Zn  Zn51  1  0.66666667  0.33333333  0.33333333  1
  Zn  Zn52  1  0.21928033  0.54808967  0.01147667  1
  Zn  Zn53  1  0.56909067  0.79071633  0.16548933  1
  Zn  Zn54  1  0.33333333  0.66666667  0.16666667  1
  Zn  Zn55  1  0.33785733  0.55261367  0.32185667  1
  Zn  Zn56  1  0.44504100  0.90242400  0.16784400  1
  Zn  Zn57  1  0.32880933  0.78071967  0.01147667  1
  Zn  Zn58  1  0.44738633  0.78524367  0.32185667  1
  Zn  Zn59  1  0.22162567  0.43090933  0.16548933  1
  Zn  Zn60  1  0.09757600  0.54261700  0.16784400  1
  Zn  Zn61  1  0.45191033  0.67119067  0.01147667  1
  Zn  Zn62  1  0.21475633  0.66214267  0.32185667  1
  Zn  Zn63  1  0.45738300  0.55495900  0.16784400  1
  Zn  Zn64  1  0.20928367  0.77837433  0.16548933  1
  Zn  Zn65  1  0.33333333  0.66666667  0.66666667  1
  Ga  Ga66  1  0.65056467  0.98894733  0.43551833  1
  Ga  Ga67  1  0.82221133  0.99986967  0.22151167  1
  Ga  Ga68  1  0.50204100  0.17692300  0.44528600  1
  Ga  Ga69  1  0.15362467  0.34169033  0.66965733  1
  Ga  Ga70  1  0.18806567  0.84637533  0.66965733  1
  Ga  Ga71  1  0.17692300  0.67488200  0.55471400  1
  Ga  Ga72  1  0.65830967  0.81193433  0.66965733  1
  Ga  Ga73  1  0.00013033  0.82234167  0.22151167  1
  Ga  Ga74  1  0.81193433  0.15362467  0.33034267  1
  Ga  Ga75  1  0.32511800  0.50204100  0.55471400  1
  Ga  Ga76  1  0.82307700  0.32511800  0.44528600  1
  Ga  Ga77  1  0.98894733  0.33838267  0.56448167  1
  Ga  Ga78  1  0.17778867  0.00013033  0.77848833  1
  Ga  Ga79  1  0.82234167  0.82221133  0.77848833  1
  Ga  Ga80  1  0.66161733  0.65056467  0.56448167  1
  Ga  Ga81  1  0.34943533  0.01105267  0.56448167  1
  Ga  Ga82  1  0.66666667  0.83333333  0.33333333  1
  Ga  Ga83  1  0.67488200  0.49795900  0.44528600  1
  Ga  Ga84  1  0.49795900  0.82307700  0.55471400  1
  Ga  Ga85  1  0.01105267  0.66161733  0.43551833  1
  Ga  Ga86  1  0.99986967  0.17765833  0.77848833  1
  Ga  Ga87  1  0.84637533  0.65830967  0.33034267  1
  Ga  Ga88  1  0.17765833  0.17778867  0.22151167  1
  Ga  Ga89  1  0.34169033  0.18806567  0.33034267  1
  Ga  Ga90  1  0.33838267  0.34943533  0.43551833  1
  Ga  Ga91  1  0.16666667  0.83333333  0.33333333  1
  Ga  Ga92  1  0.16666667  0.33333333  0.33333333  1
  Ga  Ga93  1  0.31723133  0.32228067  0.76885167  1
  Ga  Ga94  1  0.48887800  0.33320300  0.55484500  1
  Ga  Ga95  1  0.16870767  0.51025633  0.77861933  1
  Ga  Ga96  1  0.82029133  0.67502367  0.00299067  1
  Ga  Ga97  1  0.85473233  0.17970867  0.00299067  1
  Ga  Ga98  1  0.84358967  0.00821533  0.88804733  1
  Ga  Ga99  1  0.32497633  0.14526767  0.00299067  1
  Ga  Ga100  1  0.66679700  0.15567500  0.55484500  1
  Ga  Ga101  1  0.47860100  0.48695800  0.66367600  1
  Ga  Ga102  1  0.99178467  0.83537433  0.88804733  1
  Ga  Ga103  1  0.48974367  0.65845133  0.77861933  1
  Ga  Ga104  1  0.65561400  0.67171600  0.89781500  1
  Ga  Ga105  1  0.84445533  0.33346367  0.11182167  1
  Ga  Ga106  1  0.48900833  0.15554467  0.11182167  1
  Ga  Ga107  1  0.32828400  0.98389800  0.89781500  1
  Ga  Ga108  1  0.01610200  0.34438600  0.89781500  1
  Ga  Ga109  1  0.33333333  0.16666667  0.66666667  1
  Ga  Ga110  1  0.34154867  0.83129233  0.77861933  1
  Ga  Ga111  1  0.16462567  0.15641033  0.88804733  1
  Ga  Ga112  1  0.67771933  0.99495067  0.76885167  1
  Ga  Ga113  1  0.66653633  0.51099167  0.11182167  1
  Ga  Ga114  1  0.51304200  0.99164300  0.66367600  1
  Ga  Ga115  1  0.84432500  0.51112200  0.55484500  1
  Ga  Ga116  1  0.00835700  0.52139900  0.66367600  1
  Ga  Ga117  1  0.00504933  0.68276867  0.76885167  1
  Ga  Ga118  1  0.83333333  0.16666667  0.66666667  1
  Ga  Ga119  1  0.83333333  0.66666667  0.66666667  1
  Ga  Ga120  1  0.98389800  0.65561400  0.10218500  1
  Ga  Ga121  1  0.15554467  0.66653633  0.88817833  1
  Ga  Ga122  1  0.83537433  0.84358967  0.11195267  1
  Ga  Ga123  1  0.48695800  0.00835700  0.33632400  1
  Ga  Ga124  1  0.52139900  0.51304200  0.33632400  1
  Ga  Ga125  1  0.51025633  0.34154867  0.22138067  1
  Ga  Ga126  1  0.99164300  0.47860100  0.33632400  1
  Ga  Ga127  1  0.33346367  0.48900833  0.88817833  1
  Ga  Ga128  1  0.14526767  0.82029133  0.99700933  1
  Ga  Ga129  1  0.65845133  0.16870767  0.22138067  1
  Ga  Ga130  1  0.15641033  0.99178467  0.11195267  1
  Ga  Ga131  1  0.32228067  0.00504933  0.23114833  1
  Ga  Ga132  1  0.51112200  0.66679700  0.44515500  1
  Ga  Ga133  1  0.15567500  0.48887800  0.44515500  1
  Ga  Ga134  1  0.99495067  0.31723133  0.23114833  1
  Ga  Ga135  1  0.68276867  0.67771933  0.23114833  1
  Ga  Ga136  1  0.00000000  0.50000000  0.00000000  1
  Ga  Ga137  1  0.00821533  0.16462567  0.11195267  1
  Ga  Ga138  1  0.83129233  0.48974367  0.22138067  1
  Ga  Ga139  1  0.34438600  0.32828400  0.10218500  1
  Ga  Ga140  1  0.33320300  0.84432500  0.44515500  1
  Ga  Ga141  1  0.17970867  0.32497633  0.99700933  1
  Ga  Ga142  1  0.51099167  0.84445533  0.88817833  1
  Ga  Ga143  1  0.67502367  0.85473233  0.99700933  1
  Ga  Ga144  1  0.67171600  0.01610200  0.10218500  1
  Ga  Ga145  1  0.50000000  0.50000000  0.00000000  1
  Ga  Ga146  1  0.50000000  0.00000000  0.00000000  1
