# generated using pymatgen
data_Tl4Ni7(PO4)6
_symmetry_space_group_name_H-M   'P 1'
_cell_length_a   10.84840600
_cell_length_b   14.45703000
_cell_length_c   6.78230107
_cell_angle_alpha   90.00000000
_cell_angle_beta   103.39456324
_cell_angle_gamma   90.00000000
_symmetry_Int_Tables_number   1
_chemical_formula_structural   Tl4Ni7(PO4)6
_chemical_formula_sum   'Tl8 Ni14 P12 O48'
_cell_volume   1034.77204064
_cell_formula_units_Z   2
loop_
 _symmetry_equiv_pos_site_id
 _symmetry_equiv_pos_as_xyz
  1  'x, y, z'
loop_
 _atom_site_type_symbol
 _atom_site_label
 _atom_site_symmetry_multiplicity
 _atom_site_fract_x
 _atom_site_fract_y
 _atom_site_fract_z
 _atom_site_occupancy
  Tl  Tl0  1  0.69794000  0.00000000  0.49538000  1
  Tl  Tl1  1  0.37902000  0.88545900  0.46688500  1
  Tl  Tl2  1  0.08185500  0.00000000  0.52070700  1
  Tl  Tl3  1  0.37902000  0.11454100  0.46688500  1
  Tl  Tl4  1  0.19794000  0.50000000  0.49538000  1
  Tl  Tl5  1  0.87902000  0.38545900  0.46688500  1
  Tl  Tl6  1  0.58185500  0.50000000  0.52070700  1
  Tl  Tl7  1  0.87902000  0.61454100  0.46688500  1
  Ni  Ni8  1  0.00066900  0.00000000  0.00031700  1
  Ni  Ni9  1  0.32718900  0.31030900  0.17442400  1
  Ni  Ni10  1  0.66586250  0.30374850  0.81461900  1
  Ni  Ni11  1  0.49743400  0.12023700  0.99040900  1
  Ni  Ni12  1  0.32718900  0.68969100  0.17442400  1
  Ni  Ni13  1  0.66586250  0.69625150  0.81461900  1
  Ni  Ni14  1  0.49743400  0.87976300  0.99040900  1
  Ni  Ni15  1  0.50066900  0.50000000  0.00031700  1
  Ni  Ni16  1  0.82718900  0.81030900  0.17442400  1
  Ni  Ni17  1  0.16586250  0.80374850  0.81461900  1
  Ni  Ni18  1  0.99743400  0.62023700  0.99040900  1
  Ni  Ni19  1  0.82718900  0.18969100  0.17442400  1
  Ni  Ni20  1  0.16586250  0.19625150  0.81461900  1
  Ni  Ni21  1  0.99743400  0.37976300  0.99040900  1
  P  P22  1  0.69536800  0.00000000  0.98865600  1
  P  P23  1  0.58384350  0.29966050  0.26674300  1
  P  P24  1  0.58384350  0.70033950  0.26674300  1
  P  P25  1  0.40837800  0.30737100  0.72702100  1
  P  P26  1  0.29962400  0.00000000  0.99112900  1
  P  P27  1  0.40837800  0.69262900  0.72702100  1
  P  P28  1  0.19536800  0.50000000  0.98865600  1
  P  P29  1  0.08384350  0.79966050  0.26674300  1
  P  P30  1  0.08384350  0.20033950  0.26674300  1
  P  P31  1  0.90837800  0.80737100  0.72702100  1
  P  P32  1  0.79962400  0.50000000  0.99112900  1
  P  P33  1  0.90837800  0.19262900  0.72702100  1
  O  O34  1  0.30640150  0.70426650  0.85375000  1
  O  O35  1  0.80967900  0.00000000  0.89592100  1
  O  O36  1  0.64652750  0.69185750  0.49227800  1
  O  O37  1  0.69044850  0.91098450  0.12046500  1
  O  O38  1  0.68654500  0.28966900  0.13960200  1
  O  O39  1  0.56438700  0.00000000  0.83026100  1
  O  O40  1  0.50189550  0.22013950  0.77326700  1
  O  O41  1  0.69044850  0.08901550  0.12046500  1
  O  O42  1  0.49442150  0.61427250  0.19884100  1
  O  O43  1  0.30052300  0.09034700  0.86156000  1
  O  O44  1  0.34875350  0.31789350  0.50086600  1
  O  O45  1  0.48733900  0.78409800  0.21492500  1
  O  O46  1  0.30052300  0.90965300  0.86156000  1
  O  O47  1  0.43646000  0.00000000  0.13627900  1
  O  O48  1  0.19346200  0.00000000  0.10261600  1
  O  O49  1  0.64652750  0.30814250  0.49227800  1
  O  O50  1  0.30640150  0.29573350  0.85375000  1
  O  O51  1  0.48733900  0.21590200  0.21492500  1
  O  O52  1  0.68654500  0.71033100  0.13960200  1
  O  O53  1  0.50334500  0.61078000  0.79981400  1
  O  O54  1  0.34875350  0.68210650  0.50086600  1
  O  O55  1  0.49442150  0.38572750  0.19884100  1
  O  O56  1  0.50189550  0.77986050  0.77326700  1
  O  O57  1  0.50334500  0.38922000  0.79981400  1
  O  O58  1  0.80640150  0.20426650  0.85375000  1
  O  O59  1  0.30967900  0.50000000  0.89592100  1
  O  O60  1  0.14652750  0.19185750  0.49227800  1
  O  O61  1  0.19044850  0.41098450  0.12046500  1
  O  O62  1  0.18654500  0.78966900  0.13960200  1
  O  O63  1  0.06438700  0.50000000  0.83026100  1
  O  O64  1  0.00189550  0.72013950  0.77326700  1
  O  O65  1  0.19044850  0.58901550  0.12046500  1
  O  O66  1  0.99442150  0.11427250  0.19884100  1
  O  O67  1  0.80052300  0.59034700  0.86156000  1
  O  O68  1  0.84875350  0.81789350  0.50086600  1
  O  O69  1  0.98733900  0.28409800  0.21492500  1
  O  O70  1  0.80052300  0.40965300  0.86156000  1
  O  O71  1  0.93646000  0.50000000  0.13627900  1
  O  O72  1  0.69346200  0.50000000  0.10261600  1
  O  O73  1  0.14652750  0.80814250  0.49227800  1
  O  O74  1  0.80640150  0.79573350  0.85375000  1
  O  O75  1  0.98733900  0.71590200  0.21492500  1
  O  O76  1  0.18654500  0.21033100  0.13960200  1
  O  O77  1  0.00334500  0.11078000  0.79981400  1
  O  O78  1  0.84875350  0.18210650  0.50086600  1
  O  O79  1  0.99442150  0.88572750  0.19884100  1
  O  O80  1  0.00189550  0.27986050  0.77326700  1
  O  O81  1  0.00334500  0.88922000  0.79981400  1
