# generated using pymatgen
data_Tb2In16Pt7
_symmetry_space_group_name_H-M   'P 1'
_cell_length_a   12.36029200
_cell_length_b   20.27192000
_cell_length_c   4.46615000
_cell_angle_alpha   90.00000000
_cell_angle_beta   90.00000000
_cell_angle_gamma   90.00000000
_symmetry_Int_Tables_number   1
_chemical_formula_structural   Tb2In16Pt7
_chemical_formula_sum   'Tb4 In32 Pt14'
_cell_volume   1119.06913981
_cell_formula_units_Z   2
loop_
 _symmetry_equiv_pos_site_id
 _symmetry_equiv_pos_as_xyz
  1  'x, y, z'
loop_
 _atom_site_type_symbol
 _atom_site_label
 _atom_site_symmetry_multiplicity
 _atom_site_fract_x
 _atom_site_fract_y
 _atom_site_fract_z
 _atom_site_occupancy
  Tb  Tb0  1  0.83118600  0.00000000  0.50000000  1
  Tb  Tb1  1  0.16881400  0.00000000  0.50000000  1
  Tb  Tb2  1  0.33118600  0.50000000  0.50000000  1
  Tb  Tb3  1  0.66881400  0.50000000  0.50000000  1
  In  In4  1  0.36479750  0.22350550  0.00000000  1
  In  In5  1  0.36783400  0.00000000  0.00000000  1
  In  In6  1  0.36479750  0.77649450  0.00000000  1
  In  In7  1  0.36969550  0.11316150  0.50000000  1
  In  In8  1  0.63030450  0.88683850  0.50000000  1
  In  In9  1  0.63520250  0.77649450  0.00000000  1
  In  In10  1  0.62444500  0.66277600  0.50000000  1
  In  In11  1  0.62444500  0.33722400  0.50000000  1
  In  In12  1  0.37555500  0.66277600  0.50000000  1
  In  In13  1  0.63216600  0.00000000  0.00000000  1
  In  In14  1  0.36969550  0.88683850  0.50000000  1
  In  In15  1  0.50000000  0.57308600  0.00000000  1
  In  In16  1  0.63030450  0.11316150  0.50000000  1
  In  In17  1  0.37555500  0.33722400  0.50000000  1
  In  In18  1  0.50000000  0.42691400  0.00000000  1
  In  In19  1  0.63520250  0.22350550  0.00000000  1
  In  In20  1  0.86479750  0.72350550  0.00000000  1
  In  In21  1  0.86783400  0.50000000  0.00000000  1
  In  In22  1  0.86479750  0.27649450  0.00000000  1
  In  In23  1  0.86969550  0.61316150  0.50000000  1
  In  In24  1  0.13030450  0.38683850  0.50000000  1
  In  In25  1  0.13520250  0.27649450  0.00000000  1
  In  In26  1  0.12444500  0.16277600  0.50000000  1
  In  In27  1  0.12444500  0.83722400  0.50000000  1
  In  In28  1  0.87555500  0.16277600  0.50000000  1
  In  In29  1  0.13216600  0.50000000  0.00000000  1
  In  In30  1  0.86969550  0.38683850  0.50000000  1
  In  In31  1  0.00000000  0.07308600  0.00000000  1
  In  In32  1  0.13030450  0.61316150  0.50000000  1
  In  In33  1  0.87555500  0.83722400  0.50000000  1
  In  In34  1  0.00000000  0.92691400  0.00000000  1
  In  In35  1  0.13520250  0.72350550  0.00000000  1
  Pt  Pt36  1  0.77550600  0.89113400  0.00000000  1
  Pt  Pt37  1  0.77550600  0.10886600  0.00000000  1
  Pt  Pt38  1  0.22449400  0.10886600  0.00000000  1
  Pt  Pt39  1  0.50000000  0.22433500  0.50000000  1
  Pt  Pt40  1  0.50000000  0.77566500  0.50000000  1
  Pt  Pt41  1  0.50000000  0.00000000  0.50000000  1
  Pt  Pt42  1  0.22449400  0.89113400  0.00000000  1
  Pt  Pt43  1  0.27550600  0.39113400  0.00000000  1
  Pt  Pt44  1  0.27550600  0.60886600  0.00000000  1
  Pt  Pt45  1  0.72449400  0.60886600  0.00000000  1
  Pt  Pt46  1  0.00000000  0.72433500  0.50000000  1
  Pt  Pt47  1  0.00000000  0.27566500  0.50000000  1
  Pt  Pt48  1  0.00000000  0.50000000  0.50000000  1
  Pt  Pt49  1  0.72449400  0.39113400  0.00000000  1
