# generated using pymatgen
data_Na2Te4WO12
_symmetry_space_group_name_H-M   'P 1'
_cell_length_a   17.54071200
_cell_length_b   5.87978600
_cell_length_c   11.46642209
_cell_angle_alpha   90.00000000
_cell_angle_beta   104.87621542
_cell_angle_gamma   90.00000000
_symmetry_Int_Tables_number   1
_chemical_formula_structural   Na2Te4WO12
_chemical_formula_sum   'Na8 Te16 W4 O48'
_cell_volume   1142.95929365
_cell_formula_units_Z   4
loop_
 _symmetry_equiv_pos_site_id
 _symmetry_equiv_pos_as_xyz
  1  'x, y, z'
loop_
 _atom_site_type_symbol
 _atom_site_label
 _atom_site_symmetry_multiplicity
 _atom_site_fract_x
 _atom_site_fract_y
 _atom_site_fract_z
 _atom_site_occupancy
  Na  Na0  1  0.78842750  0.22839150  0.73396300  1
  Na  Na1  1  0.71157250  0.72839150  0.76603700  1
  Na  Na2  1  0.71157250  0.27160850  0.26603700  1
  Na  Na3  1  0.78842750  0.77160850  0.23396300  1
  Na  Na4  1  0.28842750  0.72839150  0.73396300  1
  Na  Na5  1  0.21157250  0.22839150  0.76603700  1
  Na  Na6  1  0.21157250  0.77160850  0.26603700  1
  Na  Na7  1  0.28842750  0.27160850  0.23396300  1
  Te  Te8  1  0.59413650  0.28462850  0.59865900  1
  Te  Te9  1  0.90586350  0.78462850  0.90134100  1
  Te  Te10  1  0.90586350  0.21537150  0.40134100  1
  Te  Te11  1  0.59413650  0.71537150  0.09865900  1
  Te  Te12  1  0.65697800  0.17067500  0.93628200  1
  Te  Te13  1  0.84302200  0.67067500  0.56371800  1
  Te  Te14  1  0.84302200  0.32932500  0.06371800  1
  Te  Te15  1  0.65697800  0.82932500  0.43628200  1
  Te  Te16  1  0.09413650  0.78462850  0.59865900  1
  Te  Te17  1  0.40586350  0.28462850  0.90134100  1
  Te  Te18  1  0.40586350  0.71537150  0.40134100  1
  Te  Te19  1  0.09413650  0.21537150  0.09865900  1
  Te  Te20  1  0.15697800  0.67067500  0.93628200  1
  Te  Te21  1  0.34302200  0.17067500  0.56371800  1
  Te  Te22  1  0.34302200  0.82932500  0.06371800  1
  Te  Te23  1  0.15697800  0.32932500  0.43628200  1
  W  W24  1  0.00000000  0.33996800  0.75000000  1
  W  W25  1  0.00000000  0.66003200  0.25000000  1
  W  W26  1  0.50000000  0.83996800  0.75000000  1
  W  W27  1  0.50000000  0.16003200  0.25000000  1
  O  O28  1  0.88886750  0.39420150  0.66189800  1
  O  O29  1  0.61113250  0.89420150  0.83810200  1
  O  O30  1  0.61113250  0.10579850  0.33810200  1
  O  O31  1  0.88886750  0.60579850  0.16189800  1
  O  O32  1  0.75922600  0.07427600  0.92920900  1
  O  O33  1  0.74077400  0.57427600  0.57079100  1
  O  O34  1  0.74077400  0.42572400  0.07079100  1
  O  O35  1  0.75922600  0.92572400  0.42920900  1
  O  O36  1  0.66277300  0.01699000  0.58960100  1
  O  O37  1  0.83722700  0.51699000  0.91039900  1
  O  O38  1  0.83722700  0.48301000  0.41039900  1
  O  O39  1  0.66277300  0.98301000  0.08960100  1
  O  O40  1  0.65904050  0.34760450  0.75478700  1
  O  O41  1  0.84095950  0.84760450  0.74521300  1
  O  O42  1  0.84095950  0.15239550  0.24521300  1
  O  O43  1  0.65904050  0.65239550  0.25478700  1
  O  O44  1  0.51157350  0.11917250  0.63596200  1
  O  O45  1  0.98842650  0.61917250  0.86403800  1
  O  O46  1  0.98842650  0.38082750  0.36403800  1
  O  O47  1  0.51157350  0.88082750  0.13596200  1
  O  O48  1  0.97625250  0.14327050  0.85753100  1
  O  O49  1  0.52374750  0.64327050  0.64246900  1
  O  O50  1  0.52374750  0.35672950  0.14246900  1
  O  O51  1  0.97625250  0.85672950  0.35753100  1
  O  O52  1  0.38886750  0.89420150  0.66189800  1
  O  O53  1  0.11113250  0.39420150  0.83810200  1
  O  O54  1  0.11113250  0.60579850  0.33810200  1
  O  O55  1  0.38886750  0.10579850  0.16189800  1
  O  O56  1  0.25922600  0.57427600  0.92920900  1
  O  O57  1  0.24077400  0.07427600  0.57079100  1
  O  O58  1  0.24077400  0.92572400  0.07079100  1
  O  O59  1  0.25922600  0.42572400  0.42920900  1
  O  O60  1  0.16277300  0.51699000  0.58960100  1
  O  O61  1  0.33722700  0.01699000  0.91039900  1
  O  O62  1  0.33722700  0.98301000  0.41039900  1
  O  O63  1  0.16277300  0.48301000  0.08960100  1
  O  O64  1  0.15904050  0.84760450  0.75478700  1
  O  O65  1  0.34095950  0.34760450  0.74521300  1
  O  O66  1  0.34095950  0.65239550  0.24521300  1
  O  O67  1  0.15904050  0.15239550  0.25478700  1
  O  O68  1  0.01157350  0.61917250  0.63596200  1
  O  O69  1  0.48842650  0.11917250  0.86403800  1
  O  O70  1  0.48842650  0.88082750  0.36403800  1
  O  O71  1  0.01157350  0.38082750  0.13596200  1
  O  O72  1  0.47625250  0.64327050  0.85753100  1
  O  O73  1  0.02374750  0.14327050  0.64246900  1
  O  O74  1  0.02374750  0.85672950  0.14246900  1
  O  O75  1  0.47625250  0.35672950  0.35753100  1
