# generated using pymatgen
data_Li2Ni(WO4)2
_symmetry_space_group_name_H-M   'P 1'
_cell_length_a   5.02268420
_cell_length_b   5.68266979
_cell_length_c   5.90048117
_cell_angle_alpha   109.19625138
_cell_angle_beta   88.82380736
_cell_angle_gamma   116.15224663
_symmetry_Int_Tables_number   1
_chemical_formula_structural   Li2Ni(WO4)2
_chemical_formula_sum   'Li2 Ni1 W2 O8'
_cell_volume   141.22095730
_cell_formula_units_Z   1
loop_
 _symmetry_equiv_pos_site_id
 _symmetry_equiv_pos_as_xyz
  1  'x, y, z'
loop_
 _atom_site_type_symbol
 _atom_site_label
 _atom_site_symmetry_multiplicity
 _atom_site_fract_x
 _atom_site_fract_y
 _atom_site_fract_z
 _atom_site_occupancy
  Li  Li0  1  0.03882000  0.07731550  0.74762150  1
  Li  Li1  1  0.96118000  0.92268450  0.25237850  1
  Ni  Ni2  1  0.50000000  0.00000000  0.00000000  1
  W  W3  1  0.73185600  0.47452250  0.66374150  1
  W  W4  1  0.26814400  0.52547750  0.33625850  1
  O  O5  1  0.24630000  0.75405650  0.19132350  1
  O  O6  1  0.75370000  0.24594350  0.80867650  1
  O  O7  1  0.72457900  0.76101200  0.92408300  1
  O  O8  1  0.27542100  0.23898800  0.07591700  1
  O  O9  1  0.17164100  0.72165400  0.66931600  1
  O  O10  1  0.82835900  0.27834600  0.33068400  1
  O  O11  1  0.68411300  0.72120600  0.45746700  1
  O  O12  1  0.31588700  0.27879400  0.54253300  1
