# generated using pymatgen
data_RbEu(SO4)2
_symmetry_space_group_name_H-M   'P 1'
_cell_length_a   13.80858000
_cell_length_b   5.50311600
_cell_length_c   9.72335654
_cell_angle_alpha   90.00000000
_cell_angle_beta   102.48788348
_cell_angle_gamma   90.00000000
_symmetry_Int_Tables_number   1
_chemical_formula_structural   RbEu(SO4)2
_chemical_formula_sum   'Rb4 Eu4 S8 O32'
_cell_volume   721.39937594
_cell_formula_units_Z   4
loop_
 _symmetry_equiv_pos_site_id
 _symmetry_equiv_pos_as_xyz
  1  'x, y, z'
loop_
 _atom_site_type_symbol
 _atom_site_label
 _atom_site_symmetry_multiplicity
 _atom_site_fract_x
 _atom_site_fract_y
 _atom_site_fract_z
 _atom_site_occupancy
  Rb  Rb0  1  0.75000000  0.25000000  0.00000000  1
  Rb  Rb1  1  0.75000000  0.75000000  0.50000000  1
  Rb  Rb2  1  0.25000000  0.75000000  0.00000000  1
  Rb  Rb3  1  0.25000000  0.25000000  0.50000000  1
  Eu  Eu4  1  0.00000000  0.82158000  0.25000000  1
  Eu  Eu5  1  0.00000000  0.17842000  0.75000000  1
  Eu  Eu6  1  0.50000000  0.32158000  0.25000000  1
  Eu  Eu7  1  0.50000000  0.67842000  0.75000000  1
  S  S8  1  0.91237900  0.26282100  0.38736500  1
  S  S9  1  0.91237900  0.73717900  0.88736500  1
  S  S10  1  0.58762100  0.23717900  0.61263500  1
  S  S11  1  0.58762100  0.76282100  0.11263500  1
  S  S12  1  0.41237900  0.76282100  0.38736500  1
  S  S13  1  0.41237900  0.23717900  0.88736500  1
  S  S14  1  0.08762100  0.73717900  0.61263500  1
  S  S15  1  0.08762100  0.26282100  0.11263500  1
  O  O16  1  0.98079400  0.19455500  0.09218800  1
  O  O17  1  0.60650450  0.99695350  0.68314900  1
  O  O18  1  0.89349550  0.50304650  0.31685100  1
  O  O19  1  0.88311100  0.72409100  0.02627100  1
  O  O20  1  0.61688900  0.77590900  0.97372900  1
  O  O21  1  0.85473300  0.93239600  0.79831800  1
  O  O22  1  0.64526700  0.56760400  0.20168200  1
  O  O23  1  0.51920600  0.30544500  0.90781200  1
  O  O24  1  0.98079400  0.80544500  0.59218800  1
  O  O25  1  0.85473300  0.06760400  0.29831800  1
  O  O26  1  0.64526700  0.43239600  0.70168200  1
  O  O27  1  0.88311100  0.27590900  0.52627100  1
  O  O28  1  0.60650450  0.00304650  0.18314900  1
  O  O29  1  0.89349550  0.49695350  0.81685100  1
  O  O30  1  0.51920600  0.69455500  0.40781200  1
  O  O31  1  0.61688900  0.22409100  0.47372900  1
  O  O32  1  0.48079400  0.69455500  0.09218800  1
  O  O33  1  0.10650450  0.49695350  0.68314900  1
  O  O34  1  0.39349550  0.00304650  0.31685100  1
  O  O35  1  0.38311100  0.22409100  0.02627100  1
  O  O36  1  0.11688900  0.27590900  0.97372900  1
  O  O37  1  0.35473300  0.43239600  0.79831800  1
  O  O38  1  0.14526700  0.06760400  0.20168200  1
  O  O39  1  0.01920600  0.80544500  0.90781200  1
  O  O40  1  0.48079400  0.30544500  0.59218800  1
  O  O41  1  0.35473300  0.56760400  0.29831800  1
  O  O42  1  0.14526700  0.93239600  0.70168200  1
  O  O43  1  0.38311100  0.77590900  0.52627100  1
  O  O44  1  0.10650450  0.50304650  0.18314900  1
  O  O45  1  0.39349550  0.99695350  0.81685100  1
  O  O46  1  0.01920600  0.19455500  0.40781200  1
  O  O47  1  0.11688900  0.72409100  0.47372900  1
