# generated using pymatgen
data_Rb5(CoO2)2
_symmetry_space_group_name_H-M   'P 1'
_cell_length_a   7.07518326
_cell_length_b   9.37825527
_cell_length_c   9.71731734
_cell_angle_alpha   118.30871207
_cell_angle_beta   89.29211115
_cell_angle_gamma   108.74394166
_symmetry_Int_Tables_number   1
_chemical_formula_structural   Rb5(CoO2)2
_chemical_formula_sum   'Rb10 Co4 O8'
_cell_volume   529.91748881
_cell_formula_units_Z   2
loop_
 _symmetry_equiv_pos_site_id
 _symmetry_equiv_pos_as_xyz
  1  'x, y, z'
loop_
 _atom_site_type_symbol
 _atom_site_label
 _atom_site_symmetry_multiplicity
 _atom_site_fract_x
 _atom_site_fract_y
 _atom_site_fract_z
 _atom_site_occupancy
  Rb  Rb0  1  0.09658843  0.61072326  0.22270772  1
  Rb  Rb1  1  0.90341157  0.38927674  0.77729228  1
  Rb  Rb2  1  0.10029905  0.21469967  0.22251696  1
  Rb  Rb3  1  0.89970095  0.78530033  0.77748304  1
  Rb  Rb4  1  0.26907190  0.07391127  0.97592948  1
  Rb  Rb5  1  0.73092810  0.92608873  0.02407052  1
  Rb  Rb6  1  0.61885048  0.99093968  0.36427622  1
  Rb  Rb7  1  0.38114952  0.00906032  0.63572378  1
  Rb  Rb8  1  0.37855516  0.54932403  0.61651048  1
  Rb  Rb9  1  0.62144484  0.45067597  0.38348952  1
  Co  Co10  1  0.38996430  0.61014835  0.97141008  1
  Co  Co11  1  0.61003570  0.38985165  0.02858992  1
  Co  Co12  1  0.01501498  0.21376071  0.57728380  1
  Co  Co13  1  0.98498502  0.78623929  0.42271620  1
  O  O14  1  0.31028912  0.78069576  0.95491560  1
  O  O15  1  0.68971088  0.21930424  0.04508440  1
  O  O16  1  0.77103930  0.68686612  0.52115541  1
  O  O17  1  0.22896070  0.31313388  0.47884459  1
  O  O18  1  0.68043243  0.59156903  0.04836506  1
  O  O19  1  0.31956757  0.40843097  0.95163494  1
  O  O20  1  0.18962609  0.88854790  0.31402106  1
  O  O21  1  0.81037391  0.11145210  0.68597894  1
