# generated using pymatgen
data_ThI3
_symmetry_space_group_name_H-M   'P 1'
_cell_length_a   9.31443000
_cell_length_b   20.38367000
_cell_length_c   14.92952400
_cell_angle_alpha   90.00000000
_cell_angle_beta   90.00000000
_cell_angle_gamma   90.00000000
_symmetry_Int_Tables_number   1
_chemical_formula_structural   ThI3
_chemical_formula_sum   'Th16 I48'
_cell_volume   2834.55327722
_cell_formula_units_Z   16
loop_
 _symmetry_equiv_pos_site_id
 _symmetry_equiv_pos_as_xyz
  1  'x, y, z'
loop_
 _atom_site_type_symbol
 _atom_site_label
 _atom_site_symmetry_multiplicity
 _atom_site_fract_x
 _atom_site_fract_y
 _atom_site_fract_z
 _atom_site_occupancy
  Th  Th0  1  0.50000000  0.00000000  0.50000000  1
  Th  Th1  1  0.50000000  0.00000000  0.00000000  1
  Th  Th2  1  0.50000000  0.00000000  0.25000000  1
  Th  Th3  1  0.50000000  0.00000000  0.75000000  1
  Th  Th4  1  0.67253250  0.17235550  0.50000000  1
  Th  Th5  1  0.17253250  0.32764450  0.00000000  1
  Th  Th6  1  0.82746750  0.32764450  0.50000000  1
  Th  Th7  1  0.32746750  0.17235550  0.00000000  1
  Th  Th8  1  0.00000000  0.50000000  0.50000000  1
  Th  Th9  1  0.00000000  0.50000000  0.00000000  1
  Th  Th10  1  0.00000000  0.50000000  0.25000000  1
  Th  Th11  1  0.00000000  0.50000000  0.75000000  1
  Th  Th12  1  0.17253250  0.67235550  0.50000000  1
  Th  Th13  1  0.67253250  0.82764450  0.00000000  1
  Th  Th14  1  0.32746750  0.82764450  0.50000000  1
  Th  Th15  1  0.82746750  0.67235550  0.00000000  1
  I  I16  1  0.75000000  0.25000000  0.32076200  1
  I  I17  1  0.25000000  0.25000000  0.17923800  1
  I  I18  1  0.75000000  0.25000000  0.67923800  1
  I  I19  1  0.25000000  0.25000000  0.82076200  1
  I  I20  1  0.72711950  0.45247350  0.37106400  1
  I  I21  1  0.22711950  0.04752650  0.12893600  1
  I  I22  1  0.77288050  0.04752650  0.37106400  1
  I  I23  1  0.27288050  0.45247350  0.12893600  1
  I  I24  1  0.77288050  0.04752650  0.62893600  1
  I  I25  1  0.27288050  0.45247350  0.87106400  1
  I  I26  1  0.72711950  0.45247350  0.62893600  1
  I  I27  1  0.22711950  0.04752650  0.87106400  1
  I  I28  1  0.89817400  0.37688400  0.12721400  1
  I  I29  1  0.39817400  0.12311600  0.37278600  1
  I  I30  1  0.60182600  0.12311600  0.12721400  1
  I  I31  1  0.10182600  0.37688400  0.37278600  1
  I  I32  1  0.60182600  0.12311600  0.87278600  1
  I  I33  1  0.10182600  0.37688400  0.62721400  1
  I  I34  1  0.89817400  0.37688400  0.87278600  1
  I  I35  1  0.39817400  0.12311600  0.62721400  1
  I  I36  1  0.01410750  0.19644450  0.50000000  1
  I  I37  1  0.51410750  0.30355550  0.00000000  1
  I  I38  1  0.48589250  0.30355550  0.50000000  1
  I  I39  1  0.98589250  0.19644450  0.00000000  1
  I  I40  1  0.25000000  0.75000000  0.32076200  1
  I  I41  1  0.75000000  0.75000000  0.17923800  1
  I  I42  1  0.25000000  0.75000000  0.67923800  1
  I  I43  1  0.75000000  0.75000000  0.82076200  1
  I  I44  1  0.22711950  0.95247350  0.37106400  1
  I  I45  1  0.72711950  0.54752650  0.12893600  1
  I  I46  1  0.27288050  0.54752650  0.37106400  1
  I  I47  1  0.77288050  0.95247350  0.12893600  1
  I  I48  1  0.27288050  0.54752650  0.62893600  1
  I  I49  1  0.77288050  0.95247350  0.87106400  1
  I  I50  1  0.22711950  0.95247350  0.62893600  1
  I  I51  1  0.72711950  0.54752650  0.87106400  1
  I  I52  1  0.39817400  0.87688400  0.12721400  1
  I  I53  1  0.89817400  0.62311600  0.37278600  1
  I  I54  1  0.10182600  0.62311600  0.12721400  1
  I  I55  1  0.60182600  0.87688400  0.37278600  1
  I  I56  1  0.10182600  0.62311600  0.87278600  1
  I  I57  1  0.60182600  0.87688400  0.62721400  1
  I  I58  1  0.39817400  0.87688400  0.87278600  1
  I  I59  1  0.89817400  0.62311600  0.62721400  1
  I  I60  1  0.51410750  0.69644450  0.50000000  1
  I  I61  1  0.01410750  0.80355550  0.00000000  1
  I  I62  1  0.98589250  0.80355550  0.50000000  1
  I  I63  1  0.48589250  0.69644450  0.00000000  1
