# generated using pymatgen
data_TiFe(BiO3)2
_symmetry_space_group_name_H-M   'P 1'
_cell_length_a   5.69630319
_cell_length_b   5.69630319
_cell_length_c   14.16129783
_cell_angle_alpha   90.00000000
_cell_angle_beta   90.00000000
_cell_angle_gamma   120.00000000
_symmetry_Int_Tables_number   1
_chemical_formula_structural   TiFe(BiO3)2
_chemical_formula_sum   'Ti3 Fe3 Bi6 O18'
_cell_volume   397.94209525
_cell_formula_units_Z   3
loop_
 _symmetry_equiv_pos_site_id
 _symmetry_equiv_pos_as_xyz
  1  'x, y, z'
loop_
 _atom_site_type_symbol
 _atom_site_label
 _atom_site_symmetry_multiplicity
 _atom_site_fract_x
 _atom_site_fract_y
 _atom_site_fract_z
 _atom_site_occupancy
  Ti  Ti0  1  0.66666667  0.33333333  0.06207333  1
  Ti  Ti1  1  0.33333333  0.66666667  0.39540667  1
  Ti  Ti2  1  0.00000000  0.00000000  0.72874000  1
  Fe  Fe3  1  0.00000000  0.00000000  0.23037833  1
  Fe  Fe4  1  0.66666667  0.33333333  0.56371167  1
  Fe  Fe5  1  0.33333333  0.66666667  0.89704500  1
  Bi  Bi6  1  0.33333333  0.66666667  0.17616658  1
  Bi  Bi7  1  0.00000000  0.00000000  0.00612125  1
  Bi  Bi8  1  0.00000000  0.00000000  0.50949992  1
  Bi  Bi9  1  0.66666667  0.33333333  0.33945458  1
  Bi  Bi10  1  0.66666667  0.33333333  0.84283325  1
  Bi  Bi11  1  0.33333333  0.66666667  0.67278792  1
  O  O12  1  0.27711792  0.90627058  0.29386308  1
  O  O13  1  0.09372942  0.37084733  0.29386308  1
  O  O14  1  0.62915267  0.72288208  0.29386308  1
  O  O15  1  0.75679367  0.09250383  0.12300083  1
  O  O16  1  0.33571017  0.24320633  0.12300083  1
  O  O17  1  0.90749617  0.66428983  0.12300083  1
  O  O18  1  0.94378458  0.23960392  0.62719642  1
  O  O19  1  0.76039608  0.70418067  0.62719642  1
  O  O20  1  0.29581933  0.05621542  0.62719642  1
  O  O21  1  0.42346033  0.42583717  0.45633417  1
  O  O22  1  0.00237683  0.57653967  0.45633417  1
  O  O23  1  0.57416283  0.99762317  0.45633417  1
  O  O24  1  0.61045125  0.57293725  0.96052975  1
  O  O25  1  0.42706275  0.03751400  0.96052975  1
  O  O26  1  0.96248600  0.38954875  0.96052975  1
  O  O27  1  0.09012700  0.75917050  0.78966750  1
  O  O28  1  0.66904350  0.90987300  0.78966750  1
  O  O29  1  0.24082950  0.33095650  0.78966750  1
