# generated using pymatgen
data_Na3Fe2(MoO4)3
_symmetry_space_group_name_H-M   'P 1'
_cell_length_a   12.42070600
_cell_length_b   13.81861200
_cell_length_c   7.32417169
_cell_angle_alpha   90.00000000
_cell_angle_beta   113.90102216
_cell_angle_gamma   90.00000000
_symmetry_Int_Tables_number   1
_chemical_formula_structural   Na3Fe2(MoO4)3
_chemical_formula_sum   'Na12 Fe8 Mo12 O48'
_cell_volume   1149.29795979
_cell_formula_units_Z   4
loop_
 _symmetry_equiv_pos_site_id
 _symmetry_equiv_pos_as_xyz
  1  'x, y, z'
loop_
 _atom_site_type_symbol
 _atom_site_label
 _atom_site_symmetry_multiplicity
 _atom_site_fract_x
 _atom_site_fract_y
 _atom_site_fract_z
 _atom_site_occupancy
  Na  Na0  1  0.50000000  0.99108150  0.25000000  1
  Na  Na1  1  0.50000000  0.00891850  0.75000000  1
  Na  Na2  1  0.50000000  0.73240700  0.75000000  1
  Na  Na3  1  0.50000000  0.26759300  0.25000000  1
  Na  Na4  1  0.00000000  0.00000000  0.00000000  1
  Na  Na5  1  0.00000000  0.00000000  0.50000000  1
  Na  Na6  1  0.00000000  0.49108150  0.25000000  1
  Na  Na7  1  0.00000000  0.50891850  0.75000000  1
  Na  Na8  1  0.00000000  0.23240700  0.75000000  1
  Na  Na9  1  0.00000000  0.76759300  0.25000000  1
  Na  Na10  1  0.50000000  0.50000000  0.00000000  1
  Na  Na11  1  0.50000000  0.50000000  0.50000000  1
  Fe  Fe12  1  0.71398350  0.84008850  0.62949500  1
  Fe  Fe13  1  0.28601650  0.84008850  0.87050500  1
  Fe  Fe14  1  0.28601650  0.15991150  0.37050500  1
  Fe  Fe15  1  0.71398350  0.15991150  0.12949500  1
  Fe  Fe16  1  0.21398350  0.34008850  0.62949500  1
  Fe  Fe17  1  0.78601650  0.34008850  0.87050500  1
  Fe  Fe18  1  0.78601650  0.65991150  0.37050500  1
  Fe  Fe19  1  0.21398350  0.65991150  0.12949500  1
  Mo  Mo20  1  0.27187350  0.89113450  0.37302400  1
  Mo  Mo21  1  0.72812650  0.89113450  0.12697600  1
  Mo  Mo22  1  0.72812650  0.10886550  0.62697600  1
  Mo  Mo23  1  0.27187350  0.10886550  0.87302400  1
  Mo  Mo24  1  0.50000000  0.71986800  0.25000000  1
  Mo  Mo25  1  0.50000000  0.28013200  0.75000000  1
  Mo  Mo26  1  0.77187350  0.39113450  0.37302400  1
  Mo  Mo27  1  0.22812650  0.39113450  0.12697600  1
  Mo  Mo28  1  0.22812650  0.60886550  0.62697600  1
  Mo  Mo29  1  0.77187350  0.60886550  0.87302400  1
  Mo  Mo30  1  0.00000000  0.21986800  0.25000000  1
  Mo  Mo31  1  0.00000000  0.78013200  0.75000000  1
  O  O32  1  0.54151450  0.79968150  0.47642000  1
  O  O33  1  0.45848550  0.79968150  0.02358000  1
  O  O34  1  0.45848550  0.20031850  0.52358000  1
  O  O35  1  0.54151450  0.20031850  0.97642000  1
  O  O36  1  0.12089950  0.91564750  0.30534600  1
  O  O37  1  0.87910050  0.91564750  0.19465400  1
  O  O38  1  0.87910050  0.08435250  0.69465400  1
  O  O39  1  0.12089950  0.08435250  0.80534600  1
  O  O40  1  0.32908050  0.83173250  0.61163500  1
  O  O41  1  0.67091950  0.83173250  0.88836500  1
  O  O42  1  0.67091950  0.16826750  0.38836500  1
  O  O43  1  0.32908050  0.16826750  0.11163500  1
  O  O44  1  0.34996350  0.00511650  0.40001300  1
  O  O45  1  0.65003650  0.00511650  0.09998700  1
  O  O46  1  0.65003650  0.99488350  0.59998700  1
  O  O47  1  0.34996350  0.99488350  0.90001300  1
  O  O48  1  0.61009200  0.63182500  0.23130800  1
  O  O49  1  0.38990800  0.63182500  0.26869200  1
  O  O50  1  0.38990800  0.36817500  0.76869200  1
  O  O51  1  0.61009200  0.36817500  0.73130800  1
  O  O52  1  0.28161750  0.81891050  0.17209600  1
  O  O53  1  0.71838250  0.81891050  0.32790400  1
  O  O54  1  0.71838250  0.18108950  0.82790400  1
  O  O55  1  0.28161750  0.18108950  0.67209600  1
  O  O56  1  0.04151450  0.29968150  0.47642000  1
  O  O57  1  0.95848550  0.29968150  0.02358000  1
  O  O58  1  0.95848550  0.70031850  0.52358000  1
  O  O59  1  0.04151450  0.70031850  0.97642000  1
  O  O60  1  0.62089950  0.41564750  0.30534600  1
  O  O61  1  0.37910050  0.41564750  0.19465400  1
  O  O62  1  0.37910050  0.58435250  0.69465400  1
  O  O63  1  0.62089950  0.58435250  0.80534600  1
  O  O64  1  0.82908050  0.33173250  0.61163500  1
  O  O65  1  0.17091950  0.33173250  0.88836500  1
  O  O66  1  0.17091950  0.66826750  0.38836500  1
  O  O67  1  0.82908050  0.66826750  0.11163500  1
  O  O68  1  0.84996350  0.50511650  0.40001300  1
  O  O69  1  0.15003650  0.50511650  0.09998700  1
  O  O70  1  0.15003650  0.49488350  0.59998700  1
  O  O71  1  0.84996350  0.49488350  0.90001300  1
  O  O72  1  0.11009200  0.13182500  0.23130800  1
  O  O73  1  0.88990800  0.13182500  0.26869200  1
  O  O74  1  0.88990800  0.86817500  0.76869200  1
  O  O75  1  0.11009200  0.86817500  0.73130800  1
  O  O76  1  0.78161750  0.31891050  0.17209600  1
  O  O77  1  0.21838250  0.31891050  0.32790400  1
  O  O78  1  0.21838250  0.68108950  0.82790400  1
  O  O79  1  0.78161750  0.68108950  0.67209600  1
