# generated using pymatgen
data_La4Os6O19
_symmetry_space_group_name_H-M   'P 1'
_cell_length_a   9.14968600
_cell_length_b   9.14968600
_cell_length_c   9.14968600
_cell_angle_alpha   90.00000000
_cell_angle_beta   90.00000000
_cell_angle_gamma   90.00000000
_symmetry_Int_Tables_number   1
_chemical_formula_structural   La4Os6O19
_chemical_formula_sum   'La8 Os12 O38'
_cell_volume   765.98201111
_cell_formula_units_Z   2
loop_
 _symmetry_equiv_pos_site_id
 _symmetry_equiv_pos_as_xyz
  1  'x, y, z'
loop_
 _atom_site_type_symbol
 _atom_site_label
 _atom_site_symmetry_multiplicity
 _atom_site_fract_x
 _atom_site_fract_y
 _atom_site_fract_z
 _atom_site_occupancy
  La  La0  1  0.15718100  0.15718100  0.84281900  1
  La  La1  1  0.15718100  0.84281900  0.15718100  1
  La  La2  1  0.34281900  0.34281900  0.34281900  1
  La  La3  1  0.84281900  0.15718100  0.15718100  1
  La  La4  1  0.65718100  0.65718100  0.34281900  1
  La  La5  1  0.65718100  0.34281900  0.65718100  1
  La  La6  1  0.84281900  0.84281900  0.84281900  1
  La  La7  1  0.34281900  0.65718100  0.65718100  1
  Os  Os8  1  0.50000000  0.36280600  0.00000000  1
  Os  Os9  1  0.00000000  0.50000000  0.36280600  1
  Os  Os10  1  0.13719400  0.50000000  0.00000000  1
  Os  Os11  1  0.50000000  0.00000000  0.13719400  1
  Os  Os12  1  0.36280600  0.00000000  0.50000000  1
  Os  Os13  1  0.00000000  0.13719400  0.50000000  1
  Os  Os14  1  0.00000000  0.86280600  0.50000000  1
  Os  Os15  1  0.50000000  0.00000000  0.86280600  1
  Os  Os16  1  0.63719400  0.00000000  0.50000000  1
  Os  Os17  1  0.00000000  0.50000000  0.63719400  1
  Os  Os18  1  0.86280600  0.50000000  0.00000000  1
  Os  Os19  1  0.50000000  0.63719400  0.00000000  1
  O  O20  1  0.00000000  0.32402000  0.00000000  1
  O  O21  1  0.00000000  0.00000000  0.32402000  1
  O  O22  1  0.67598000  0.00000000  0.00000000  1
  O  O23  1  0.00000000  0.00000000  0.67598000  1
  O  O24  1  0.32402000  0.00000000  0.00000000  1
  O  O25  1  0.00000000  0.67598000  0.00000000  1
  O  O26  1  0.00000000  0.00000000  0.00000000  1
  O  O27  1  0.28366400  0.34360000  0.01151700  1
  O  O28  1  0.48848300  0.21633600  0.84360000  1
  O  O29  1  0.15640000  0.51151700  0.21633600  1
  O  O30  1  0.51151700  0.21633600  0.15640000  1
  O  O31  1  0.65640000  0.98848300  0.28366400  1
  O  O32  1  0.01151700  0.28366400  0.34360000  1
  O  O33  1  0.34360000  0.01151700  0.28366400  1
  O  O34  1  0.84360000  0.48848300  0.21633600  1
  O  O35  1  0.98848300  0.28366400  0.65640000  1
  O  O36  1  0.21633600  0.15640000  0.51151700  1
  O  O37  1  0.28366400  0.65640000  0.98848300  1
  O  O38  1  0.21633600  0.84360000  0.48848300  1
  O  O39  1  0.50000000  0.82402000  0.50000000  1
  O  O40  1  0.50000000  0.50000000  0.82402000  1
  O  O41  1  0.17598000  0.50000000  0.50000000  1
  O  O42  1  0.50000000  0.50000000  0.17598000  1
  O  O43  1  0.82402000  0.50000000  0.50000000  1
  O  O44  1  0.50000000  0.17598000  0.50000000  1
  O  O45  1  0.50000000  0.50000000  0.50000000  1
  O  O46  1  0.78366400  0.84360000  0.51151700  1
  O  O47  1  0.98848300  0.71633600  0.34360000  1
  O  O48  1  0.65640000  0.01151700  0.71633600  1
  O  O49  1  0.01151700  0.71633600  0.65640000  1
  O  O50  1  0.15640000  0.48848300  0.78366400  1
  O  O51  1  0.51151700  0.78366400  0.84360000  1
  O  O52  1  0.84360000  0.51151700  0.78366400  1
  O  O53  1  0.34360000  0.98848300  0.71633600  1
  O  O54  1  0.48848300  0.78366400  0.15640000  1
  O  O55  1  0.71633600  0.65640000  0.01151700  1
  O  O56  1  0.78366400  0.15640000  0.48848300  1
  O  O57  1  0.71633600  0.34360000  0.98848300  1
