# generated using pymatgen
data_SmTl(WO4)2
_symmetry_space_group_name_H-M   'P 1'
_cell_length_a   11.06650000
_cell_length_b   10.86328800
_cell_length_c   7.53079262
_cell_angle_alpha   90.00000000
_cell_angle_beta   130.31955833
_cell_angle_gamma   90.00000000
_symmetry_Int_Tables_number   1
_chemical_formula_structural   SmTl(WO4)2
_chemical_formula_sum   'Sm4 Tl4 W8 O32'
_cell_volume   690.27511085
_cell_formula_units_Z   4
loop_
 _symmetry_equiv_pos_site_id
 _symmetry_equiv_pos_as_xyz
  1  'x, y, z'
loop_
 _atom_site_type_symbol
 _atom_site_label
 _atom_site_symmetry_multiplicity
 _atom_site_fract_x
 _atom_site_fract_y
 _atom_site_fract_z
 _atom_site_occupancy
  Sm  Sm0  1  0.00000000  0.77560100  0.25000000  1
  Sm  Sm1  1  0.00000000  0.22439900  0.75000000  1
  Sm  Sm2  1  0.50000000  0.27560100  0.25000000  1
  Sm  Sm3  1  0.50000000  0.72439900  0.75000000  1
  Tl  Tl4  1  0.00000000  0.78743500  0.75000000  1
  Tl  Tl5  1  0.00000000  0.21256500  0.25000000  1
  Tl  Tl6  1  0.50000000  0.28743500  0.75000000  1
  Tl  Tl7  1  0.50000000  0.71256500  0.25000000  1
  W  W8  1  0.80588900  0.49526300  0.78322300  1
  W  W9  1  0.19411100  0.49526300  0.71677700  1
  W  W10  1  0.80588900  0.50473700  0.28322300  1
  W  W11  1  0.19411100  0.50473700  0.21677700  1
  W  W12  1  0.30588900  0.99526300  0.78322300  1
  W  W13  1  0.69411100  0.99526300  0.71677700  1
  W  W14  1  0.30588900  0.00473700  0.28322300  1
  W  W15  1  0.69411100  0.00473700  0.21677700  1
  O  O16  1  0.71805900  0.34631700  0.62877600  1
  O  O17  1  0.28194100  0.34631700  0.87122400  1
  O  O18  1  0.28194100  0.65368300  0.37122400  1
  O  O19  1  0.71805900  0.65368300  0.12877600  1
  O  O20  1  0.63617900  0.41145500  0.19160300  1
  O  O21  1  0.36382100  0.41145500  0.30839700  1
  O  O22  1  0.36382100  0.58854500  0.80839700  1
  O  O23  1  0.63617900  0.58854500  0.69160300  1
  O  O24  1  0.98104850  0.39181850  0.53104400  1
  O  O25  1  0.01895150  0.39181850  0.96895600  1
  O  O26  1  0.01895150  0.60818150  0.46895600  1
  O  O27  1  0.98104850  0.60818150  0.03104400  1
  O  O28  1  0.81358850  0.43737650  0.05909300  1
  O  O29  1  0.18641150  0.43737650  0.44090700  1
  O  O30  1  0.18641150  0.56262350  0.94090700  1
  O  O31  1  0.81358850  0.56262350  0.55909300  1
  O  O32  1  0.21805900  0.84631700  0.62877600  1
  O  O33  1  0.78194100  0.84631700  0.87122400  1
  O  O34  1  0.78194100  0.15368300  0.37122400  1
  O  O35  1  0.21805900  0.15368300  0.12877600  1
  O  O36  1  0.13617900  0.91145500  0.19160300  1
  O  O37  1  0.86382100  0.91145500  0.30839700  1
  O  O38  1  0.86382100  0.08854500  0.80839700  1
  O  O39  1  0.13617900  0.08854500  0.69160300  1
  O  O40  1  0.48104850  0.89181850  0.53104400  1
  O  O41  1  0.51895150  0.89181850  0.96895600  1
  O  O42  1  0.51895150  0.10818150  0.46895600  1
  O  O43  1  0.48104850  0.10818150  0.03104400  1
  O  O44  1  0.31358850  0.93737650  0.05909300  1
  O  O45  1  0.68641150  0.93737650  0.44090700  1
  O  O46  1  0.68641150  0.06262350  0.94090700  1
  O  O47  1  0.31358850  0.06262350  0.55909300  1
