# generated using pymatgen
data_Sm(CrSi)2
_symmetry_space_group_name_H-M   'P 1'
_cell_length_a   3.89926800
_cell_length_b   3.89926800
_cell_length_c   10.76094400
_cell_angle_alpha   90.00000000
_cell_angle_beta   90.00000000
_cell_angle_gamma   90.00000000
_symmetry_Int_Tables_number   1
_chemical_formula_structural   Sm(CrSi)2
_chemical_formula_sum   'Sm2 Cr4 Si4'
_cell_volume   163.61252332
_cell_formula_units_Z   2
loop_
 _symmetry_equiv_pos_site_id
 _symmetry_equiv_pos_as_xyz
  1  'x, y, z'
loop_
 _atom_site_type_symbol
 _atom_site_label
 _atom_site_symmetry_multiplicity
 _atom_site_fract_x
 _atom_site_fract_y
 _atom_site_fract_z
 _atom_site_occupancy
  Sm  Sm0  1  0.00000000  0.00000000  0.00000000  1
  Sm  Sm1  1  0.50000000  0.50000000  0.50000000  1
  Cr  Cr2  1  0.00000000  0.50000000  0.25000000  1
  Cr  Cr3  1  0.50000000  0.00000000  0.25000000  1
  Cr  Cr4  1  0.50000000  0.00000000  0.75000000  1
  Cr  Cr5  1  0.00000000  0.50000000  0.75000000  1
  Si  Si6  1  0.00000000  0.00000000  0.38168100  1
  Si  Si7  1  0.50000000  0.50000000  0.11831900  1
  Si  Si8  1  0.50000000  0.50000000  0.88168100  1
  Si  Si9  1  0.00000000  0.00000000  0.61831900  1
