# generated using pymatgen
data_Nd2Zn15Ge2
_symmetry_space_group_name_H-M   'P 1'
_cell_length_a   9.31092173
_cell_length_b   9.31092173
_cell_length_c   12.96954706
_cell_angle_alpha   90.00000000
_cell_angle_beta   90.00000000
_cell_angle_gamma   120.00000000
_symmetry_Int_Tables_number   1
_chemical_formula_structural   Nd2Zn15Ge2
_chemical_formula_sum   'Nd6 Zn45 Ge6'
_cell_volume   973.73502652
_cell_formula_units_Z   3
loop_
 _symmetry_equiv_pos_site_id
 _symmetry_equiv_pos_as_xyz
  1  'x, y, z'
loop_
 _atom_site_type_symbol
 _atom_site_label
 _atom_site_symmetry_multiplicity
 _atom_site_fract_x
 _atom_site_fract_y
 _atom_site_fract_z
 _atom_site_occupancy
  Nd  Nd0  1  0.33333333  0.66666667  0.00023967  1
  Nd  Nd1  1  0.33333333  0.66666667  0.33309367  1
  Nd  Nd2  1  0.00000000  0.00000000  0.33357300  1
  Nd  Nd3  1  0.00000000  0.00000000  0.66642700  1
  Nd  Nd4  1  0.66666667  0.33333333  0.66690633  1
  Nd  Nd5  1  0.66666667  0.33333333  0.99976033  1
  Zn  Zn6  1  0.16666667  0.83333333  0.83333333  1
  Zn  Zn7  1  0.33333333  0.16666667  0.16666667  1
  Zn  Zn8  1  0.83333333  0.66666667  0.16666667  1
  Zn  Zn9  1  0.97549567  0.64216233  0.33333333  1
  Zn  Zn10  1  0.00000000  0.69117100  0.00000000  1
  Zn  Zn11  1  0.69117100  1.00000000  0.00000000  1
  Zn  Zn12  1  0.35783767  0.02450433  0.33333333  1
  Zn  Zn13  1  0.00000000  0.30882900  0.00000000  1
  Zn  Zn14  1  0.30882900  1.00000000  0.00000000  1
  Zn  Zn15  1  0.49262433  0.98524867  0.15578667  1
  Zn  Zn16  1  0.49262433  0.50737567  0.15578667  1
  Zn  Zn17  1  0.01475133  0.50737567  0.15578667  1
  Zn  Zn18  1  0.65191533  0.82595767  0.17754667  1
  Zn  Zn19  1  0.17404233  0.34808467  0.17754667  1
  Zn  Zn20  1  0.17404233  0.82595767  0.17754667  1
  Zn  Zn21  1  0.83333333  0.16666667  0.16666667  1
  Zn  Zn22  1  0.00000000  0.50000000  0.50000000  1
  Zn  Zn23  1  0.50000000  0.00000000  0.50000000  1
  Zn  Zn24  1  0.64216233  0.97549567  0.66666667  1
  Zn  Zn25  1  0.66666667  0.02450433  0.33333333  1
  Zn  Zn26  1  0.35783767  0.33333333  0.33333333  1
  Zn  Zn27  1  0.02450433  0.35783767  0.66666667  1
  Zn  Zn28  1  0.66666667  0.64216233  0.33333333  1
  Zn  Zn29  1  0.97549567  0.33333333  0.33333333  1
  Zn  Zn30  1  0.15929100  0.31858200  0.48912000  1
  Zn  Zn31  1  0.15929100  0.84070900  0.48912000  1
  Zn  Zn32  1  0.68141800  0.84070900  0.48912000  1
  Zn  Zn33  1  0.31858200  0.15929100  0.51088000  1
  Zn  Zn34  1  0.84070900  0.68141800  0.51088000  1
  Zn  Zn35  1  0.84070900  0.15929100  0.51088000  1
  Zn  Zn36  1  0.50000000  0.50000000  0.50000000  1
  Zn  Zn37  1  0.66666667  0.83333333  0.83333333  1
  Zn  Zn38  1  0.16666667  0.33333333  0.83333333  1
  Zn  Zn39  1  0.30882900  0.30882900  0.00000000  1
  Zn  Zn40  1  0.33333333  0.35783767  0.66666667  1
  Zn  Zn41  1  0.02450433  0.66666667  0.66666667  1
  Zn  Zn42  1  0.69117100  0.69117100  0.00000000  1
  Zn  Zn43  1  0.33333333  0.97549567  0.66666667  1
  Zn  Zn44  1  0.64216233  0.66666667  0.66666667  1
  Zn  Zn45  1  0.82595767  0.65191533  0.82245333  1
  Zn  Zn46  1  0.82595767  0.17404233  0.82245333  1
  Zn  Zn47  1  0.34808467  0.17404233  0.82245333  1
  Zn  Zn48  1  0.98524867  0.49262433  0.84421333  1
  Zn  Zn49  1  0.50737567  0.01475133  0.84421333  1
  Zn  Zn50  1  0.50737567  0.49262433  0.84421333  1
  Ge  Ge51  1  0.33333333  0.66666667  0.76580267  1
  Ge  Ge52  1  0.33333333  0.66666667  0.56753067  1
  Ge  Ge53  1  0.00000000  0.00000000  0.09913600  1
  Ge  Ge54  1  0.00000000  0.00000000  0.90086400  1
  Ge  Ge55  1  0.66666667  0.33333333  0.43246933  1
  Ge  Ge56  1  0.66666667  0.33333333  0.23419733  1
