# generated using pymatgen
data_RbCuCl3
_symmetry_space_group_name_H-M   'P 1'
_cell_length_a   12.23843800
_cell_length_b   6.99746800
_cell_length_c   12.58885775
_cell_angle_alpha   90.00000000
_cell_angle_beta   90.73035010
_cell_angle_gamma   90.00000000
_symmetry_Int_Tables_number   1
_chemical_formula_structural   RbCuCl3
_chemical_formula_sum   'Rb8 Cu8 Cl24'
_cell_volume   1077.99799904
_cell_formula_units_Z   8
loop_
 _symmetry_equiv_pos_site_id
 _symmetry_equiv_pos_as_xyz
  1  'x, y, z'
loop_
 _atom_site_type_symbol
 _atom_site_label
 _atom_site_symmetry_multiplicity
 _atom_site_fract_x
 _atom_site_fract_y
 _atom_site_fract_z
 _atom_site_occupancy
  Rb  Rb0  1  0.82943050  0.49267150  0.87491500  1
  Rb  Rb1  1  0.83549250  0.45528950  0.37628800  1
  Rb  Rb2  1  0.67056950  0.99267150  0.12508500  1
  Rb  Rb3  1  0.66450750  0.95528950  0.62371200  1
  Rb  Rb4  1  0.32943050  0.99267150  0.87491500  1
  Rb  Rb5  1  0.33549250  0.95528950  0.37628800  1
  Rb  Rb6  1  0.17056950  0.49267150  0.12508500  1
  Rb  Rb7  1  0.16450750  0.45528950  0.62371200  1
  Cu  Cu8  1  0.00000000  0.01836200  0.00000000  1
  Cu  Cu9  1  0.99679250  0.97380650  0.74966700  1
  Cu  Cu10  1  0.00000000  0.92348500  0.50000000  1
  Cu  Cu11  1  0.50320750  0.47380650  0.25033300  1
  Cu  Cu12  1  0.50000000  0.51836200  0.00000000  1
  Cu  Cu13  1  0.49679250  0.47380650  0.74966700  1
  Cu  Cu14  1  0.50000000  0.42348500  0.50000000  1
  Cu  Cu15  1  0.00320750  0.97380650  0.25033300  1
  Cl  Cl16  1  0.91544550  0.24779250  0.09998200  1
  Cl  Cl17  1  0.58662050  0.19446950  0.40054200  1
  Cl  Cl18  1  0.92628100  0.16287100  0.61034100  1
  Cl  Cl19  1  0.56682450  0.27899550  0.88662000  1
  Cl  Cl20  1  0.83991750  0.95892550  0.33780800  1
  Cl  Cl21  1  0.66589000  0.49075600  0.16244300  1
  Cl  Cl22  1  0.58455450  0.74779250  0.90001800  1
  Cl  Cl23  1  0.57371900  0.66287100  0.38965900  1
  Cl  Cl24  1  0.91337950  0.69446950  0.59945800  1
  Cl  Cl25  1  0.66008250  0.45892550  0.66219200  1
  Cl  Cl26  1  0.83411000  0.99075600  0.83755700  1
  Cl  Cl27  1  0.93317550  0.77899550  0.11338000  1
  Cl  Cl28  1  0.41544550  0.74779250  0.09998200  1
  Cl  Cl29  1  0.08662050  0.69446950  0.40054200  1
  Cl  Cl30  1  0.42628100  0.66287100  0.61034100  1
  Cl  Cl31  1  0.06682450  0.77899550  0.88662000  1
  Cl  Cl32  1  0.33991750  0.45892550  0.33780800  1
  Cl  Cl33  1  0.16589000  0.99075600  0.16244300  1
  Cl  Cl34  1  0.08455450  0.24779250  0.90001800  1
  Cl  Cl35  1  0.07371900  0.16287100  0.38965900  1
  Cl  Cl36  1  0.41337950  0.19446950  0.59945800  1
  Cl  Cl37  1  0.16008250  0.95892550  0.66219200  1
  Cl  Cl38  1  0.33411000  0.49075600  0.83755700  1
  Cl  Cl39  1  0.43317550  0.27899550  0.11338000  1
