# generated using pymatgen
data_La7Os4C9
_symmetry_space_group_name_H-M   'P 1'
_cell_length_a   12.03216400
_cell_length_b   5.42909000
_cell_length_c   12.00084514
_cell_angle_alpha   90.00000000
_cell_angle_beta   110.84982527
_cell_angle_gamma   90.00000000
_symmetry_Int_Tables_number   1
_chemical_formula_structural   La7Os4C9
_chemical_formula_sum   'La14 Os8 C18'
_cell_volume   732.60452564
_cell_formula_units_Z   2
loop_
 _symmetry_equiv_pos_site_id
 _symmetry_equiv_pos_as_xyz
  1  'x, y, z'
loop_
 _atom_site_type_symbol
 _atom_site_label
 _atom_site_symmetry_multiplicity
 _atom_site_fract_x
 _atom_site_fract_y
 _atom_site_fract_z
 _atom_site_occupancy
  La  La0  1  0.87348500  0.50000000  0.15710600  1
  La  La1  1  0.14693400  0.00000000  0.32077900  1
  La  La2  1  0.85306600  0.00000000  0.67922100  1
  La  La3  1  0.13702500  0.00000000  0.61743300  1
  La  La4  1  0.86297500  0.00000000  0.38256700  1
  La  La5  1  0.00000000  0.00000000  0.00000000  1
  La  La6  1  0.12651500  0.50000000  0.84289400  1
  La  La7  1  0.37348500  0.00000000  0.15710600  1
  La  La8  1  0.64693400  0.50000000  0.32077900  1
  La  La9  1  0.35306600  0.50000000  0.67922100  1
  La  La10  1  0.63702500  0.50000000  0.61743300  1
  La  La11  1  0.36297500  0.50000000  0.38256700  1
  La  La12  1  0.50000000  0.50000000  0.00000000  1
  La  La13  1  0.62651500  0.00000000  0.84289400  1
  Os  Os14  1  0.35763800  0.00000000  0.85877100  1
  Os  Os15  1  0.06615300  0.50000000  0.42878900  1
  Os  Os16  1  0.93384700  0.50000000  0.57121100  1
  Os  Os17  1  0.64236200  0.00000000  0.14122900  1
  Os  Os18  1  0.85763800  0.50000000  0.85877100  1
  Os  Os19  1  0.56615300  0.00000000  0.42878900  1
  Os  Os20  1  0.43384700  0.00000000  0.57121100  1
  Os  Os21  1  0.14236200  0.50000000  0.14122900  1
  C  C22  1  0.88456500  0.50000000  0.70934000  1
  C  C23  1  0.92202300  0.00000000  0.17977300  1
  C  C24  1  0.89202600  0.50000000  0.38747200  1
  C  C25  1  0.19603300  0.00000000  0.85544500  1
  C  C26  1  0.80396700  0.00000000  0.14455500  1
  C  C27  1  0.00000000  0.50000000  0.00000000  1
  C  C28  1  0.07797700  0.00000000  0.82022700  1
  C  C29  1  0.11543500  0.50000000  0.29066000  1
  C  C30  1  0.10797400  0.50000000  0.61252800  1
  C  C31  1  0.38456500  0.00000000  0.70934000  1
  C  C32  1  0.42202300  0.50000000  0.17977300  1
  C  C33  1  0.39202600  0.00000000  0.38747200  1
  C  C34  1  0.69603300  0.50000000  0.85544500  1
  C  C35  1  0.30396700  0.50000000  0.14455500  1
  C  C36  1  0.50000000  0.00000000  0.00000000  1
  C  C37  1  0.57797700  0.50000000  0.82022700  1
  C  C38  1  0.61543500  0.00000000  0.29066000  1
  C  C39  1  0.60797400  0.00000000  0.61252800  1
