# generated using pymatgen
data_Yb3(Ga2Ge3)2
_symmetry_space_group_name_H-M   'P 1'
_cell_length_a   23.91555800
_cell_length_b   4.26972400
_cell_length_c   10.85303797
_cell_angle_alpha   90.00000000
_cell_angle_beta   91.15339625
_cell_angle_gamma   90.00000000
_symmetry_Int_Tables_number   1
_chemical_formula_structural   Yb3(Ga2Ge3)2
_chemical_formula_sum   'Yb12 Ga16 Ge24'
_cell_volume   1108.00989950
_cell_formula_units_Z   4
loop_
 _symmetry_equiv_pos_site_id
 _symmetry_equiv_pos_as_xyz
  1  'x, y, z'
loop_
 _atom_site_type_symbol
 _atom_site_label
 _atom_site_symmetry_multiplicity
 _atom_site_fract_x
 _atom_site_fract_y
 _atom_site_fract_z
 _atom_site_occupancy
  Yb  Yb0  1  0.85560000  0.50000000  0.89358600  1
  Yb  Yb1  1  0.82378800  0.00000000  0.45320200  1
  Yb  Yb2  1  0.97651700  0.50000000  0.16614800  1
  Yb  Yb3  1  0.67621200  0.50000000  0.54679800  1
  Yb  Yb4  1  0.64440000  0.00000000  0.10641400  1
  Yb  Yb5  1  0.52348300  0.00000000  0.83385200  1
  Yb  Yb6  1  0.35560000  0.00000000  0.89358600  1
  Yb  Yb7  1  0.32378800  0.50000000  0.45320200  1
  Yb  Yb8  1  0.47651700  0.00000000  0.16614800  1
  Yb  Yb9  1  0.17621200  0.00000000  0.54679800  1
  Yb  Yb10  1  0.14440000  0.50000000  0.10641400  1
  Yb  Yb11  1  0.02348300  0.50000000  0.83385200  1
  Ga  Ga12  1  0.57841400  0.00000000  0.58776200  1
  Ga  Ga13  1  0.92158600  0.50000000  0.41223800  1
  Ga  Ga14  1  0.74060800  0.50000000  0.25810300  1
  Ga  Ga15  1  0.56529100  0.50000000  0.26891900  1
  Ga  Ga16  1  0.75939200  0.00000000  0.74189700  1
  Ga  Ga17  1  0.86394900  0.00000000  0.11652500  1
  Ga  Ga18  1  0.63605100  0.50000000  0.88347500  1
  Ga  Ga19  1  0.93470900  0.00000000  0.73108100  1
  Ga  Ga20  1  0.07841400  0.50000000  0.58776200  1
  Ga  Ga21  1  0.42158600  0.00000000  0.41223800  1
  Ga  Ga22  1  0.24060800  0.00000000  0.25810300  1
  Ga  Ga23  1  0.06529100  0.00000000  0.26891900  1
  Ga  Ga24  1  0.25939200  0.50000000  0.74189700  1
  Ga  Ga25  1  0.36394900  0.50000000  0.11652500  1
  Ga  Ga26  1  0.13605100  0.00000000  0.88347500  1
  Ga  Ga27  1  0.43470900  0.50000000  0.73108100  1
  Ge  Ge28  1  0.79090700  0.50000000  0.64015000  1
  Ge  Ge29  1  0.97625900  0.00000000  0.39492800  1
  Ge  Ge30  1  0.84784000  0.50000000  0.23696200  1
  Ge  Ge31  1  0.77480600  0.00000000  0.97283900  1
  Ge  Ge32  1  0.55190000  0.50000000  0.03498700  1
  Ge  Ge33  1  0.89525700  0.50000000  0.63492800  1
  Ge  Ge34  1  0.52374100  0.50000000  0.60507200  1
  Ge  Ge35  1  0.94810000  0.00000000  0.96501300  1
  Ge  Ge36  1  0.72519400  0.50000000  0.02716100  1
  Ge  Ge37  1  0.60474300  0.00000000  0.36507200  1
  Ge  Ge38  1  0.65216000  0.00000000  0.76303800  1
  Ge  Ge39  1  0.70909300  0.00000000  0.35985000  1
  Ge  Ge40  1  0.29090700  0.00000000  0.64015000  1
  Ge  Ge41  1  0.47625900  0.50000000  0.39492800  1
  Ge  Ge42  1  0.34784000  0.00000000  0.23696200  1
  Ge  Ge43  1  0.27480600  0.50000000  0.97283900  1
  Ge  Ge44  1  0.05190000  0.00000000  0.03498700  1
  Ge  Ge45  1  0.39525700  0.00000000  0.63492800  1
  Ge  Ge46  1  0.02374100  0.00000000  0.60507200  1
  Ge  Ge47  1  0.44810000  0.50000000  0.96501300  1
  Ge  Ge48  1  0.22519400  0.00000000  0.02716100  1
  Ge  Ge49  1  0.10474300  0.50000000  0.36507200  1
  Ge  Ge50  1  0.15216000  0.50000000  0.76303800  1
  Ge  Ge51  1  0.20909300  0.50000000  0.35985000  1
