# generated using pymatgen
data_Zr(MoO4)2
_symmetry_space_group_name_H-M   'P 1'
_cell_length_a   11.63452600
_cell_length_b   8.07592800
_cell_length_c   7.61500836
_cell_angle_alpha   90.00000000
_cell_angle_beta   122.43698479
_cell_angle_gamma   90.00000000
_symmetry_Int_Tables_number   1
_chemical_formula_structural   Zr(MoO4)2
_chemical_formula_sum   'Zr4 Mo8 O32'
_cell_volume   603.87164137
_cell_formula_units_Z   4
loop_
 _symmetry_equiv_pos_site_id
 _symmetry_equiv_pos_as_xyz
  1  'x, y, z'
loop_
 _atom_site_type_symbol
 _atom_site_label
 _atom_site_symmetry_multiplicity
 _atom_site_fract_x
 _atom_site_fract_y
 _atom_site_fract_z
 _atom_site_occupancy
  Zr  Zr0  1  0.00000000  0.02100500  0.25000000  1
  Zr  Zr1  1  0.00000000  0.97899500  0.75000000  1
  Zr  Zr2  1  0.50000000  0.52100500  0.25000000  1
  Zr  Zr3  1  0.50000000  0.47899500  0.75000000  1
  Mo  Mo4  1  0.21563600  0.72089200  0.25929700  1
  Mo  Mo5  1  0.78436400  0.72089200  0.24070300  1
  Mo  Mo6  1  0.78436400  0.27910800  0.74070300  1
  Mo  Mo7  1  0.21563600  0.27910800  0.75929700  1
  Mo  Mo8  1  0.71563600  0.22089200  0.25929700  1
  Mo  Mo9  1  0.28436400  0.22089200  0.24070300  1
  Mo  Mo10  1  0.28436400  0.77910800  0.74070300  1
  Mo  Mo11  1  0.71563600  0.77910800  0.75929700  1
  O  O12  1  0.12884750  0.46195150  0.66785500  1
  O  O13  1  0.85131850  0.19920650  0.21118400  1
  O  O14  1  0.90730700  0.11463300  0.92195300  1
  O  O15  1  0.85131850  0.80079350  0.71118400  1
  O  O16  1  0.15369900  0.83690400  0.43761600  1
  O  O17  1  0.90730700  0.88536700  0.42195300  1
  O  O18  1  0.87115250  0.46195150  0.83214500  1
  O  O19  1  0.84630100  0.83690400  0.06238400  1
  O  O20  1  0.09269300  0.11463300  0.57804700  1
  O  O21  1  0.15369900  0.16309600  0.93761600  1
  O  O22  1  0.14868150  0.80079350  0.78881600  1
  O  O23  1  0.09269300  0.88536700  0.07804700  1
  O  O24  1  0.14868150  0.19920650  0.28881600  1
  O  O25  1  0.12884750  0.53804850  0.16785500  1
  O  O26  1  0.84630100  0.16309600  0.56238400  1
  O  O27  1  0.87115250  0.53804850  0.33214500  1
  O  O28  1  0.62884750  0.96195150  0.66785500  1
  O  O29  1  0.35131850  0.69920650  0.21118400  1
  O  O30  1  0.40730700  0.61463300  0.92195300  1
  O  O31  1  0.35131850  0.30079350  0.71118400  1
  O  O32  1  0.65369900  0.33690400  0.43761600  1
  O  O33  1  0.40730700  0.38536700  0.42195300  1
  O  O34  1  0.37115250  0.96195150  0.83214500  1
  O  O35  1  0.34630100  0.33690400  0.06238400  1
  O  O36  1  0.59269300  0.61463300  0.57804700  1
  O  O37  1  0.65369900  0.66309600  0.93761600  1
  O  O38  1  0.64868150  0.30079350  0.78881600  1
  O  O39  1  0.59269300  0.38536700  0.07804700  1
  O  O40  1  0.64868150  0.69920650  0.28881600  1
  O  O41  1  0.62884750  0.03804850  0.16785500  1
  O  O42  1  0.34630100  0.66309600  0.56238400  1
  O  O43  1  0.37115250  0.03804850  0.33214500  1
