# generated using pymatgen
data_Ce3Si11Pt23
_symmetry_space_group_name_H-M   'P 1'
_cell_length_a   17.05956800
_cell_length_b   17.05956800
_cell_length_c   17.05956800
_cell_angle_alpha   90.00000000
_cell_angle_beta   90.00000000
_cell_angle_gamma   90.00000000
_symmetry_Int_Tables_number   1
_chemical_formula_structural   Ce3Si11Pt23
_chemical_formula_sum   'Ce24 Si88 Pt184'
_cell_volume   4964.82663305
_cell_formula_units_Z   8
loop_
 _symmetry_equiv_pos_site_id
 _symmetry_equiv_pos_as_xyz
  1  'x, y, z'
loop_
 _atom_site_type_symbol
 _atom_site_label
 _atom_site_symmetry_multiplicity
 _atom_site_fract_x
 _atom_site_fract_y
 _atom_site_fract_z
 _atom_site_occupancy
  Ce  Ce0  1  0.75000000  0.00000000  0.75000000  1
  Ce  Ce1  1  0.25000000  0.75000000  0.00000000  1
  Ce  Ce2  1  0.00000000  0.75000000  0.75000000  1
  Ce  Ce3  1  0.25000000  0.25000000  0.00000000  1
  Ce  Ce4  1  0.00000000  0.25000000  0.75000000  1
  Ce  Ce5  1  0.25000000  0.00000000  0.75000000  1
  Ce  Ce6  1  0.75000000  0.50000000  0.25000000  1
  Ce  Ce7  1  0.25000000  0.25000000  0.50000000  1
  Ce  Ce8  1  0.00000000  0.25000000  0.25000000  1
  Ce  Ce9  1  0.25000000  0.75000000  0.50000000  1
  Ce  Ce10  1  0.00000000  0.75000000  0.25000000  1
  Ce  Ce11  1  0.25000000  0.50000000  0.25000000  1
  Ce  Ce12  1  0.25000000  0.00000000  0.25000000  1
  Ce  Ce13  1  0.75000000  0.75000000  0.50000000  1
  Ce  Ce14  1  0.50000000  0.75000000  0.25000000  1
  Ce  Ce15  1  0.75000000  0.25000000  0.50000000  1
  Ce  Ce16  1  0.50000000  0.25000000  0.25000000  1
  Ce  Ce17  1  0.75000000  0.00000000  0.25000000  1
  Ce  Ce18  1  0.25000000  0.50000000  0.75000000  1
  Ce  Ce19  1  0.75000000  0.25000000  0.00000000  1
  Ce  Ce20  1  0.50000000  0.25000000  0.75000000  1
  Ce  Ce21  1  0.75000000  0.75000000  0.00000000  1
  Ce  Ce22  1  0.50000000  0.75000000  0.75000000  1
  Ce  Ce23  1  0.75000000  0.50000000  0.75000000  1
  Si  Si24  1  0.16563700  0.16563700  0.83436300  1
  Si  Si25  1  0.33436300  0.66563700  0.83436300  1
  Si  Si26  1  0.50000000  0.32945200  0.00000000  1
  Si  Si27  1  0.33436300  0.33436300  0.83436300  1
  Si  Si28  1  0.89368400  0.89368400  0.60631600  1
  Si  Si29  1  0.33436300  0.16563700  0.66563700  1
  Si  Si30  1  0.50000000  0.00000000  0.67054800  1
  Si  Si31  1  0.89368400  0.10631600  0.60631600  1
  Si  Si32  1  0.39368400  0.10631600  0.89368400  1
  Si  Si33  1  0.50000000  0.67054800  0.00000000  1
  Si  Si34  1  0.17054800  0.00000000  0.00000000  1
  Si  Si35  1  0.10631600  0.10631600  0.60631600  1
  Si  Si36  1  0.82945200  0.00000000  0.00000000  1
  Si  Si37  1  0.33436300  0.83436300  0.66563700  1
  Si  Si38  1  0.00000000  0.00000000  0.82945200  1
  Si  Si39  1  0.16563700  0.33436300  0.66563700  1
  Si  Si40  1  0.60631600  0.10631600  0.89368400  1
  Si  Si41  1  0.10631600  0.89368400  0.60631600  1
  Si  Si42  1  0.60631600  0.89368400  0.89368400  1
  Si  Si43  1  0.16563700  0.66563700  0.66563700  1
  Si  Si44  1  0.16563700  0.83436300  0.83436300  1
  Si  Si45  1  0.39368400  0.89368400  0.89368400  1
  Si  Si46  1  0.16563700  0.66563700  0.33436300  1
  Si  Si47  1  0.33436300  0.16563700  0.33436300  1
  Si  Si48  1  0.50000000  0.82945200  0.50000000  1
  Si  Si49  1  0.33436300  0.83436300  0.33436300  1
  Si  Si50  1  0.89368400  0.39368400  0.10631600  1
  Si  Si51  1  0.33436300  0.66563700  0.16563700  1
  Si  Si52  1  0.50000000  0.50000000  0.17054800  1
  Si  Si53  1  0.89368400  0.60631600  0.10631600  1
  Si  Si54  1  0.39368400  0.60631600  0.39368400  1
  Si  Si55  1  0.50000000  0.17054800  0.50000000  1
  Si  Si56  1  0.17054800  0.50000000  0.50000000  1
  Si  Si57  1  0.10631600  0.60631600  0.10631600  1
  Si  Si58  1  0.82945200  0.50000000  0.50000000  1
  Si  Si59  1  0.33436300  0.33436300  0.16563700  1
  Si  Si60  1  0.00000000  0.50000000  0.32945200  1
  Si  Si61  1  0.16563700  0.83436300  0.16563700  1
  Si  Si62  1  0.60631600  0.60631600  0.39368400  1
  Si  Si63  1  0.10631600  0.39368400  0.10631600  1
  Si  Si64  1  0.60631600  0.39368400  0.39368400  1
  Si  Si65  1  0.16563700  0.16563700  0.16563700  1
  Si  Si66  1  0.16563700  0.33436300  0.33436300  1
  Si  Si67  1  0.39368400  0.39368400  0.39368400  1
  Si  Si68  1  0.66563700  0.16563700  0.33436300  1
  Si  Si69  1  0.83436300  0.66563700  0.33436300  1
  Si  Si70  1  0.00000000  0.32945200  0.50000000  1
  Si  Si71  1  0.83436300  0.33436300  0.33436300  1
  Si  Si72  1  0.39368400  0.89368400  0.10631600  1
  Si  Si73  1  0.83436300  0.16563700  0.16563700  1
  Si  Si74  1  0.00000000  0.00000000  0.17054800  1
  Si  Si75  1  0.39368400  0.10631600  0.10631600  1
  Si  Si76  1  0.89368400  0.10631600  0.39368400  1
  Si  Si77  1  0.00000000  0.67054800  0.50000000  1
  Si  Si78  1  0.67054800  0.00000000  0.50000000  1
  Si  Si79  1  0.60631600  0.10631600  0.10631600  1
  Si  Si80  1  0.32945200  0.00000000  0.50000000  1
  Si  Si81  1  0.83436300  0.83436300  0.16563700  1
  Si  Si82  1  0.50000000  0.00000000  0.32945200  1
  Si  Si83  1  0.66563700  0.33436300  0.16563700  1
  Si  Si84  1  0.10631600  0.10631600  0.39368400  1
  Si  Si85  1  0.60631600  0.89368400  0.10631600  1
  Si  Si86  1  0.10631600  0.89368400  0.39368400  1
  Si  Si87  1  0.66563700  0.66563700  0.16563700  1
  Si  Si88  1  0.66563700  0.83436300  0.33436300  1
  Si  Si89  1  0.89368400  0.89368400  0.39368400  1
  Si  Si90  1  0.66563700  0.66563700  0.83436300  1
  Si  Si91  1  0.83436300  0.16563700  0.83436300  1
  Si  Si92  1  0.00000000  0.82945200  0.00000000  1
  Si  Si93  1  0.83436300  0.83436300  0.83436300  1
  Si  Si94  1  0.39368400  0.39368400  0.60631600  1
  Si  Si95  1  0.83436300  0.66563700  0.66563700  1
  Si  Si96  1  0.00000000  0.50000000  0.67054800  1
  Si  Si97  1  0.39368400  0.60631600  0.60631600  1
  Si  Si98  1  0.89368400  0.60631600  0.89368400  1
  Si  Si99  1  0.00000000  0.17054800  0.00000000  1
  Si  Si100  1  0.67054800  0.50000000  0.00000000  1
  Si  Si101  1  0.60631600  0.60631600  0.60631600  1
  Si  Si102  1  0.32945200  0.50000000  0.00000000  1
  Si  Si103  1  0.83436300  0.33436300  0.66563700  1
  Si  Si104  1  0.50000000  0.50000000  0.82945200  1
  Si  Si105  1  0.66563700  0.83436300  0.66563700  1
  Si  Si106  1  0.10631600  0.60631600  0.89368400  1
  Si  Si107  1  0.60631600  0.39368400  0.60631600  1
  Si  Si108  1  0.10631600  0.39368400  0.89368400  1
  Si  Si109  1  0.66563700  0.16563700  0.66563700  1
  Si  Si110  1  0.66563700  0.33436300  0.83436300  1
  Si  Si111  1  0.89368400  0.39368400  0.89368400  1
  Pt  Pt112  1  0.50000000  0.87426700  0.00000000  1
  Pt  Pt113  1  0.41559875  0.08440125  0.75193550  1
  Pt  Pt114  1  0.91559875  0.08440125  0.74806450  1
  Pt  Pt115  1  0.58440125  0.08440125  0.75193550  1
  Pt  Pt116  1  0.08307600  0.41692400  0.58307600  1
  Pt  Pt117  1  0.25193550  0.08440125  0.91559875  1
  Pt  Pt118  1  0.50000000  0.00000000  0.87426700  1
  Pt  Pt119  1  0.91559875  0.91559875  0.74806450  1
  Pt  Pt120  1  0.08440125  0.91559875  0.74806450  1
  Pt  Pt121  1  0.41559875  0.75193550  0.91559875  1
  Pt  Pt122  1  0.58440125  0.75193550  0.91559875  1
  Pt  Pt123  1  0.41559875  0.24806450  0.91559875  1
  Pt  Pt124  1  0.58440125  0.24806450  0.91559875  1
  Pt  Pt125  1  0.74806450  0.08440125  0.91559875  1
  Pt  Pt126  1  0.41692400  0.58307600  0.91692400  1
  Pt  Pt127  1  0.41692400  0.41692400  0.91692400  1
  Pt  Pt128  1  0.62573300  0.00000000  0.00000000  1
  Pt  Pt129  1  0.19140667  0.80859333  0.69140667  1
  Pt  Pt130  1  0.30859333  0.80859333  0.80859333  1
  Pt  Pt131  1  0.08440125  0.75193550  0.58440125  1
  Pt  Pt132  1  0.08307600  0.08307600  0.91692400  1
  Pt  Pt133  1  0.25193550  0.91559875  0.91559875  1
  Pt  Pt134  1  0.41692400  0.91692400  0.58307600  1
  Pt  Pt135  1  0.24806450  0.91559875  0.58440125  1
  Pt  Pt136  1  0.19140667  0.19140667  0.69140667  1
  Pt  Pt137  1  0.19140667  0.69140667  0.80859333  1
  Pt  Pt138  1  0.08440125  0.08440125  0.74806450  1
  Pt  Pt139  1  0.41559875  0.91559875  0.75193550  1
  Pt  Pt140  1  0.30859333  0.19140667  0.80859333  1
  Pt  Pt141  1  0.41692400  0.08307600  0.58307600  1
  Pt  Pt142  1  0.91559875  0.24806450  0.58440125  1
  Pt  Pt143  1  0.91559875  0.75193550  0.58440125  1
  Pt  Pt144  1  0.08307600  0.58307600  0.58307600  1
  Pt  Pt145  1  0.08307600  0.91692400  0.91692400  1
  Pt  Pt146  1  0.24806450  0.08440125  0.58440125  1
  Pt  Pt147  1  0.37426700  0.00000000  0.00000000  1
  Pt  Pt148  1  0.08440125  0.24806450  0.58440125  1
  Pt  Pt149  1  0.75193550  0.91559875  0.58440125  1
  Pt  Pt150  1  0.50000000  0.12573300  0.00000000  1
  Pt  Pt151  1  0.30859333  0.69140667  0.69140667  1
  Pt  Pt152  1  0.19140667  0.30859333  0.80859333  1
  Pt  Pt153  1  0.75193550  0.08440125  0.58440125  1
  Pt  Pt154  1  0.30859333  0.30859333  0.69140667  1
  Pt  Pt155  1  0.00000000  0.00000000  0.62573300  1
  Pt  Pt156  1  0.58440125  0.91559875  0.75193550  1
  Pt  Pt157  1  0.74806450  0.91559875  0.91559875  1
  Pt  Pt158  1  0.50000000  0.37426700  0.50000000  1
  Pt  Pt159  1  0.41559875  0.58440125  0.25193550  1
  Pt  Pt160  1  0.91559875  0.58440125  0.24806450  1
  Pt  Pt161  1  0.58440125  0.58440125  0.25193550  1
  Pt  Pt162  1  0.08307600  0.91692400  0.08307600  1
  Pt  Pt163  1  0.25193550  0.58440125  0.41559875  1
  Pt  Pt164  1  0.50000000  0.50000000  0.37426700  1
  Pt  Pt165  1  0.91559875  0.41559875  0.24806450  1
  Pt  Pt166  1  0.08440125  0.41559875  0.24806450  1
  Pt  Pt167  1  0.41559875  0.25193550  0.41559875  1
  Pt  Pt168  1  0.58440125  0.25193550  0.41559875  1
  Pt  Pt169  1  0.41559875  0.74806450  0.41559875  1
  Pt  Pt170  1  0.58440125  0.74806450  0.41559875  1
  Pt  Pt171  1  0.74806450  0.58440125  0.41559875  1
  Pt  Pt172  1  0.41692400  0.08307600  0.41692400  1
  Pt  Pt173  1  0.41692400  0.91692400  0.41692400  1
  Pt  Pt174  1  0.62573300  0.50000000  0.50000000  1
  Pt  Pt175  1  0.19140667  0.30859333  0.19140667  1
  Pt  Pt176  1  0.30859333  0.30859333  0.30859333  1
  Pt  Pt177  1  0.08440125  0.25193550  0.08440125  1
  Pt  Pt178  1  0.08307600  0.58307600  0.41692400  1
  Pt  Pt179  1  0.25193550  0.41559875  0.41559875  1
  Pt  Pt180  1  0.41692400  0.41692400  0.08307600  1
  Pt  Pt181  1  0.24806450  0.41559875  0.08440125  1
  Pt  Pt182  1  0.19140667  0.69140667  0.19140667  1
  Pt  Pt183  1  0.19140667  0.19140667  0.30859333  1
  Pt  Pt184  1  0.08440125  0.58440125  0.24806450  1
  Pt  Pt185  1  0.41559875  0.41559875  0.25193550  1
  Pt  Pt186  1  0.30859333  0.69140667  0.30859333  1
  Pt  Pt187  1  0.41692400  0.58307600  0.08307600  1
  Pt  Pt188  1  0.91559875  0.74806450  0.08440125  1
  Pt  Pt189  1  0.91559875  0.25193550  0.08440125  1
  Pt  Pt190  1  0.08307600  0.08307600  0.08307600  1
  Pt  Pt191  1  0.08307600  0.41692400  0.41692400  1
  Pt  Pt192  1  0.24806450  0.58440125  0.08440125  1
  Pt  Pt193  1  0.37426700  0.50000000  0.50000000  1
  Pt  Pt194  1  0.08440125  0.74806450  0.08440125  1
  Pt  Pt195  1  0.75193550  0.41559875  0.08440125  1
  Pt  Pt196  1  0.50000000  0.62573300  0.50000000  1
  Pt  Pt197  1  0.30859333  0.19140667  0.19140667  1
  Pt  Pt198  1  0.19140667  0.80859333  0.30859333  1
  Pt  Pt199  1  0.75193550  0.58440125  0.08440125  1
  Pt  Pt200  1  0.30859333  0.80859333  0.19140667  1
  Pt  Pt201  1  0.00000000  0.50000000  0.12573300  1
  Pt  Pt202  1  0.58440125  0.41559875  0.25193550  1
  Pt  Pt203  1  0.74806450  0.41559875  0.41559875  1
  Pt  Pt204  1  0.00000000  0.87426700  0.50000000  1
  Pt  Pt205  1  0.91559875  0.08440125  0.25193550  1
  Pt  Pt206  1  0.41559875  0.08440125  0.24806450  1
  Pt  Pt207  1  0.08440125  0.08440125  0.25193550  1
  Pt  Pt208  1  0.58307600  0.41692400  0.08307600  1
  Pt  Pt209  1  0.75193550  0.08440125  0.41559875  1
  Pt  Pt210  1  0.00000000  0.00000000  0.37426700  1
  Pt  Pt211  1  0.41559875  0.91559875  0.24806450  1
  Pt  Pt212  1  0.58440125  0.91559875  0.24806450  1
  Pt  Pt213  1  0.91559875  0.75193550  0.41559875  1
  Pt  Pt214  1  0.08440125  0.75193550  0.41559875  1
  Pt  Pt215  1  0.91559875  0.24806450  0.41559875  1
  Pt  Pt216  1  0.08440125  0.24806450  0.41559875  1
  Pt  Pt217  1  0.24806450  0.08440125  0.41559875  1
  Pt  Pt218  1  0.91692400  0.58307600  0.41692400  1
  Pt  Pt219  1  0.91692400  0.41692400  0.41692400  1
  Pt  Pt220  1  0.12573300  0.00000000  0.50000000  1
  Pt  Pt221  1  0.69140667  0.80859333  0.19140667  1
  Pt  Pt222  1  0.80859333  0.80859333  0.30859333  1
  Pt  Pt223  1  0.58440125  0.75193550  0.08440125  1
  Pt  Pt224  1  0.58307600  0.08307600  0.41692400  1
  Pt  Pt225  1  0.75193550  0.91559875  0.41559875  1
  Pt  Pt226  1  0.91692400  0.91692400  0.08307600  1
  Pt  Pt227  1  0.74806450  0.91559875  0.08440125  1
  Pt  Pt228  1  0.69140667  0.19140667  0.19140667  1
  Pt  Pt229  1  0.69140667  0.69140667  0.30859333  1
  Pt  Pt230  1  0.58440125  0.08440125  0.24806450  1
  Pt  Pt231  1  0.91559875  0.91559875  0.25193550  1
  Pt  Pt232  1  0.80859333  0.19140667  0.30859333  1
  Pt  Pt233  1  0.91692400  0.08307600  0.08307600  1
  Pt  Pt234  1  0.41559875  0.24806450  0.08440125  1
  Pt  Pt235  1  0.41559875  0.75193550  0.08440125  1
  Pt  Pt236  1  0.58307600  0.58307600  0.08307600  1
  Pt  Pt237  1  0.58307600  0.91692400  0.41692400  1
  Pt  Pt238  1  0.74806450  0.08440125  0.08440125  1
  Pt  Pt239  1  0.87426700  0.00000000  0.50000000  1
  Pt  Pt240  1  0.58440125  0.24806450  0.08440125  1
  Pt  Pt241  1  0.25193550  0.91559875  0.08440125  1
  Pt  Pt242  1  0.00000000  0.12573300  0.50000000  1
  Pt  Pt243  1  0.80859333  0.69140667  0.19140667  1
  Pt  Pt244  1  0.69140667  0.30859333  0.30859333  1
  Pt  Pt245  1  0.25193550  0.08440125  0.08440125  1
  Pt  Pt246  1  0.80859333  0.30859333  0.19140667  1
  Pt  Pt247  1  0.50000000  0.00000000  0.12573300  1
  Pt  Pt248  1  0.08440125  0.91559875  0.25193550  1
  Pt  Pt249  1  0.24806450  0.91559875  0.41559875  1
  Pt  Pt250  1  0.00000000  0.37426700  0.00000000  1
  Pt  Pt251  1  0.91559875  0.58440125  0.75193550  1
  Pt  Pt252  1  0.41559875  0.58440125  0.74806450  1
  Pt  Pt253  1  0.08440125  0.58440125  0.75193550  1
  Pt  Pt254  1  0.58307600  0.91692400  0.58307600  1
  Pt  Pt255  1  0.75193550  0.58440125  0.91559875  1
  Pt  Pt256  1  0.00000000  0.50000000  0.87426700  1
  Pt  Pt257  1  0.41559875  0.41559875  0.74806450  1
  Pt  Pt258  1  0.58440125  0.41559875  0.74806450  1
  Pt  Pt259  1  0.91559875  0.25193550  0.91559875  1
  Pt  Pt260  1  0.08440125  0.25193550  0.91559875  1
  Pt  Pt261  1  0.91559875  0.74806450  0.91559875  1
  Pt  Pt262  1  0.08440125  0.74806450  0.91559875  1
  Pt  Pt263  1  0.24806450  0.58440125  0.91559875  1
  Pt  Pt264  1  0.91692400  0.08307600  0.91692400  1
  Pt  Pt265  1  0.91692400  0.91692400  0.91692400  1
  Pt  Pt266  1  0.12573300  0.50000000  0.00000000  1
  Pt  Pt267  1  0.69140667  0.30859333  0.69140667  1
  Pt  Pt268  1  0.80859333  0.30859333  0.80859333  1
  Pt  Pt269  1  0.58440125  0.25193550  0.58440125  1
  Pt  Pt270  1  0.58307600  0.58307600  0.91692400  1
  Pt  Pt271  1  0.75193550  0.41559875  0.91559875  1
  Pt  Pt272  1  0.91692400  0.41692400  0.58307600  1
  Pt  Pt273  1  0.74806450  0.41559875  0.58440125  1
  Pt  Pt274  1  0.69140667  0.69140667  0.69140667  1
  Pt  Pt275  1  0.69140667  0.19140667  0.80859333  1
  Pt  Pt276  1  0.58440125  0.58440125  0.74806450  1
  Pt  Pt277  1  0.91559875  0.41559875  0.75193550  1
  Pt  Pt278  1  0.80859333  0.69140667  0.80859333  1
  Pt  Pt279  1  0.91692400  0.58307600  0.58307600  1
  Pt  Pt280  1  0.41559875  0.74806450  0.58440125  1
  Pt  Pt281  1  0.41559875  0.25193550  0.58440125  1
  Pt  Pt282  1  0.58307600  0.08307600  0.58307600  1
  Pt  Pt283  1  0.58307600  0.41692400  0.91692400  1
  Pt  Pt284  1  0.74806450  0.58440125  0.58440125  1
  Pt  Pt285  1  0.87426700  0.50000000  0.00000000  1
  Pt  Pt286  1  0.58440125  0.74806450  0.58440125  1
  Pt  Pt287  1  0.25193550  0.41559875  0.58440125  1
  Pt  Pt288  1  0.00000000  0.62573300  0.00000000  1
  Pt  Pt289  1  0.80859333  0.19140667  0.69140667  1
  Pt  Pt290  1  0.69140667  0.80859333  0.80859333  1
  Pt  Pt291  1  0.25193550  0.58440125  0.58440125  1
  Pt  Pt292  1  0.80859333  0.80859333  0.69140667  1
  Pt  Pt293  1  0.50000000  0.50000000  0.62573300  1
  Pt  Pt294  1  0.08440125  0.41559875  0.75193550  1
  Pt  Pt295  1  0.24806450  0.41559875  0.91559875  1
