# generated using pymatgen
data_Sr2TbGaCu2O7
_symmetry_space_group_name_H-M   'P 1'
_cell_length_a   5.41626400
_cell_length_b   5.53625000
_cell_length_c   23.19967400
_cell_angle_alpha   90.00000000
_cell_angle_beta   90.00000000
_cell_angle_gamma   90.00000000
_symmetry_Int_Tables_number   1
_chemical_formula_structural   Sr2TbGaCu2O7
_chemical_formula_sum   'Sr8 Tb4 Ga4 Cu8 O28'
_cell_volume   695.66058906
_cell_formula_units_Z   4
loop_
 _symmetry_equiv_pos_site_id
 _symmetry_equiv_pos_as_xyz
  1  'x, y, z'
loop_
 _atom_site_type_symbol
 _atom_site_label
 _atom_site_symmetry_multiplicity
 _atom_site_fract_x
 _atom_site_fract_y
 _atom_site_fract_z
 _atom_site_occupancy
  Sr  Sr0  1  0.99847900  0.98172700  0.65151500  1
  Sr  Sr1  1  0.49847900  0.51827300  0.84848500  1
  Sr  Sr2  1  0.49847900  0.51827300  0.65151500  1
  Sr  Sr3  1  0.99847900  0.98172700  0.84848500  1
  Sr  Sr4  1  0.49847900  0.48172700  0.15151500  1
  Sr  Sr5  1  0.99847900  0.01827300  0.34848500  1
  Sr  Sr6  1  0.99847900  0.01827300  0.15151500  1
  Sr  Sr7  1  0.49847900  0.48172700  0.34848500  1
  Tb  Tb8  1  0.50049400  0.50000000  0.00000000  1
  Tb  Tb9  1  0.00049400  0.00000000  0.00000000  1
  Tb  Tb10  1  0.00049400  0.00000000  0.50000000  1
  Tb  Tb11  1  0.50049400  0.50000000  0.50000000  1
  Ga  Ga12  1  0.46198100  0.06914300  0.75000000  1
  Ga  Ga13  1  0.96198100  0.43085700  0.75000000  1
  Ga  Ga14  1  0.96198100  0.56914300  0.25000000  1
  Ga  Ga15  1  0.46198100  0.93085700  0.25000000  1
  Cu  Cu16  1  0.50083950  0.00104450  0.57158150  1
  Cu  Cu17  1  0.00083950  0.49895550  0.92841850  1
  Cu  Cu18  1  0.00083950  0.49895550  0.57158150  1
  Cu  Cu19  1  0.50083950  0.00104450  0.92841850  1
  Cu  Cu20  1  0.00083950  0.50104450  0.07158150  1
  Cu  Cu21  1  0.50083950  0.99895550  0.42841850  1
  Cu  Cu22  1  0.50083950  0.99895550  0.07158150  1
  Cu  Cu23  1  0.00083950  0.50104450  0.42841850  1
  O  O24  1  0.60966700  0.38349100  0.75000000  1
  O  O25  1  0.10966700  0.11650900  0.75000000  1
  O  O26  1  0.75094300  0.25006300  0.56402300  1
  O  O27  1  0.25094300  0.24993700  0.93597700  1
  O  O28  1  0.25094300  0.24993700  0.56402300  1
  O  O29  1  0.75094300  0.25006300  0.93597700  1
  O  O30  1  0.24969850  0.75143750  0.56184550  1
  O  O31  1  0.74969850  0.74856250  0.93815450  1
  O  O32  1  0.74969850  0.74856250  0.56184550  1
  O  O33  1  0.24969850  0.75143750  0.93815450  1
  O  O34  1  0.02917450  0.54680850  0.67694550  1
  O  O35  1  0.52917450  0.95319150  0.82305450  1
  O  O36  1  0.52917450  0.95319150  0.67694550  1
  O  O37  1  0.02917450  0.54680850  0.82305450  1
  O  O38  1  0.10966700  0.88349100  0.25000000  1
  O  O39  1  0.60966700  0.61650900  0.25000000  1
  O  O40  1  0.25094300  0.75006300  0.06402300  1
  O  O41  1  0.75094300  0.74993700  0.43597700  1
  O  O42  1  0.75094300  0.74993700  0.06402300  1
  O  O43  1  0.25094300  0.75006300  0.43597700  1
  O  O44  1  0.74969850  0.25143750  0.06184550  1
  O  O45  1  0.24969850  0.24856250  0.43815450  1
  O  O46  1  0.24969850  0.24856250  0.06184550  1
  O  O47  1  0.74969850  0.25143750  0.43815450  1
  O  O48  1  0.52917450  0.04680850  0.17694550  1
  O  O49  1  0.02917450  0.45319150  0.32305450  1
  O  O50  1  0.02917450  0.45319150  0.17694550  1
  O  O51  1  0.52917450  0.04680850  0.32305450  1
