# generated using pymatgen
data_MnF4
_symmetry_space_group_name_H-M   'P 1'
_cell_length_a   12.86900800
_cell_length_b   12.86900800
_cell_length_c   6.29574000
_cell_angle_alpha   90.00000000
_cell_angle_beta   90.00000000
_cell_angle_gamma   90.00000000
_symmetry_Int_Tables_number   1
_chemical_formula_structural   MnF4
_chemical_formula_sum   'Mn16 F64'
_cell_volume   1042.64610707
_cell_formula_units_Z   16
loop_
 _symmetry_equiv_pos_site_id
 _symmetry_equiv_pos_as_xyz
  1  'x, y, z'
loop_
 _atom_site_type_symbol
 _atom_site_label
 _atom_site_symmetry_multiplicity
 _atom_site_fract_x
 _atom_site_fract_y
 _atom_site_fract_z
 _atom_site_occupancy
  Mn  Mn0  1  0.61981000  0.63049900  0.13701100  1
  Mn  Mn1  1  0.63049900  0.88019000  0.88701100  1
  Mn  Mn2  1  0.36950100  0.11981000  0.88701100  1
  Mn  Mn3  1  0.38019000  0.36950100  0.13701100  1
  Mn  Mn4  1  0.38019000  0.86950100  0.61298900  1
  Mn  Mn5  1  0.86950100  0.11981000  0.36298900  1
  Mn  Mn6  1  0.13049900  0.88019000  0.36298900  1
  Mn  Mn7  1  0.61981000  0.13049900  0.61298900  1
  Mn  Mn8  1  0.11981000  0.13049900  0.63701100  1
  Mn  Mn9  1  0.13049900  0.38019000  0.38701100  1
  Mn  Mn10  1  0.86950100  0.61981000  0.38701100  1
  Mn  Mn11  1  0.88019000  0.86950100  0.63701100  1
  Mn  Mn12  1  0.88019000  0.36950100  0.11298900  1
  Mn  Mn13  1  0.36950100  0.61981000  0.86298900  1
  Mn  Mn14  1  0.63049900  0.38019000  0.86298900  1
  Mn  Mn15  1  0.11981000  0.63049900  0.11298900  1
  F  F16  1  0.47406900  0.63302700  0.09106500  1
  F  F17  1  0.63302700  0.02593100  0.84106500  1
  F  F18  1  0.36697300  0.97406900  0.84106500  1
  F  F19  1  0.52593100  0.36697300  0.09106500  1
  F  F20  1  0.52593100  0.86697300  0.65893500  1
  F  F21  1  0.86697300  0.97406900  0.40893500  1
  F  F22  1  0.13302700  0.02593100  0.40893500  1
  F  F23  1  0.47406900  0.13302700  0.65893500  1
  F  F24  1  0.76647350  0.13155650  0.59604050  1
  F  F25  1  0.63155650  0.23352650  0.84604050  1
  F  F26  1  0.36844350  0.76647350  0.84604050  1
  F  F27  1  0.23352650  0.86844350  0.59604050  1
  F  F28  1  0.73352650  0.86844350  0.65395950  1
  F  F29  1  0.36844350  0.26647350  0.90395950  1
  F  F30  1  0.63155650  0.73352650  0.90395950  1
  F  F31  1  0.26647350  0.13155650  0.65395950  1
  F  F32  1  0.10956550  0.03006350  0.82151350  1
  F  F33  1  0.53006350  0.89043450  0.07151350  1
  F  F34  1  0.46993650  0.10956550  0.07151350  1
  F  F35  1  0.89043450  0.96993650  0.82151350  1
  F  F36  1  0.39043450  0.96993650  0.42848650  1
  F  F37  1  0.46993650  0.60956550  0.67848650  1
  F  F38  1  0.53006350  0.39043450  0.67848650  1
  F  F39  1  0.60956550  0.03006350  0.42848650  1
  F  F40  1  0.61116900  0.73021500  0.32367600  1
  F  F41  1  0.73021500  0.88883100  0.07367600  1
  F  F42  1  0.26978500  0.11116900  0.07367600  1
  F  F43  1  0.38883100  0.26978500  0.32367600  1
  F  F44  1  0.38883100  0.76978500  0.42632400  1
  F  F45  1  0.76978500  0.11116900  0.17632400  1
  F  F46  1  0.23021500  0.88883100  0.17632400  1
  F  F47  1  0.61116900  0.23021500  0.42632400  1
  F  F48  1  0.97406900  0.13302700  0.59106500  1
  F  F49  1  0.13302700  0.52593100  0.34106500  1
  F  F50  1  0.86697300  0.47406900  0.34106500  1
  F  F51  1  0.02593100  0.86697300  0.59106500  1
  F  F52  1  0.02593100  0.36697300  0.15893500  1
  F  F53  1  0.36697300  0.47406900  0.90893500  1
  F  F54  1  0.63302700  0.52593100  0.90893500  1
  F  F55  1  0.97406900  0.63302700  0.15893500  1
  F  F56  1  0.26647350  0.63155650  0.09604050  1
  F  F57  1  0.13155650  0.73352650  0.34604050  1
  F  F58  1  0.86844350  0.26647350  0.34604050  1
  F  F59  1  0.73352650  0.36844350  0.09604050  1
  F  F60  1  0.23352650  0.36844350  0.15395950  1
  F  F61  1  0.86844350  0.76647350  0.40395950  1
  F  F62  1  0.13155650  0.23352650  0.40395950  1
  F  F63  1  0.76647350  0.63155650  0.15395950  1
  F  F64  1  0.60956550  0.53006350  0.32151350  1
  F  F65  1  0.03006350  0.39043450  0.57151350  1
  F  F66  1  0.96993650  0.60956550  0.57151350  1
  F  F67  1  0.39043450  0.46993650  0.32151350  1
  F  F68  1  0.89043450  0.46993650  0.92848650  1
  F  F69  1  0.96993650  0.10956550  0.17848650  1
  F  F70  1  0.03006350  0.89043450  0.17848650  1
  F  F71  1  0.10956550  0.53006350  0.92848650  1
  F  F72  1  0.11116900  0.23021500  0.82367600  1
  F  F73  1  0.23021500  0.38883100  0.57367600  1
  F  F74  1  0.76978500  0.61116900  0.57367600  1
  F  F75  1  0.88883100  0.76978500  0.82367600  1
  F  F76  1  0.88883100  0.26978500  0.92632400  1
  F  F77  1  0.26978500  0.61116900  0.67632400  1
  F  F78  1  0.73021500  0.38883100  0.67632400  1
  F  F79  1  0.11116900  0.73021500  0.92632400  1
