# generated using pymatgen
data_Zr3O
_symmetry_space_group_name_H-M   'P 1'
_cell_length_a   5.66737801
_cell_length_b   5.66737801
_cell_length_c   31.44545494
_cell_angle_alpha   90.00000000
_cell_angle_beta   90.00000000
_cell_angle_gamma   120.00000000
_symmetry_Int_Tables_number   1
_chemical_formula_structural   Zr3O
_chemical_formula_sum   'Zr36 O12'
_cell_volume   874.68741109
_cell_formula_units_Z   12
loop_
 _symmetry_equiv_pos_site_id
 _symmetry_equiv_pos_as_xyz
  1  'x, y, z'
loop_
 _atom_site_type_symbol
 _atom_site_label
 _atom_site_symmetry_multiplicity
 _atom_site_fract_x
 _atom_site_fract_y
 _atom_site_fract_z
 _atom_site_occupancy
  Zr  Zr0  1  0.67228533  0.00561867  0.16666667  1
  Zr  Zr1  1  0.99438133  0.66666667  0.16666667  1
  Zr  Zr2  1  0.99286433  0.32749367  0.25029867  1
  Zr  Zr3  1  0.34108000  0.34108000  0.00000000  1
  Zr  Zr4  1  0.00000000  0.65892000  0.00000000  1
  Zr  Zr5  1  0.33203733  0.00583967  0.08303467  1
  Zr  Zr6  1  0.65892000  0.00000000  0.00000000  1
  Zr  Zr7  1  0.67380233  0.66796267  0.08303467  1
  Zr  Zr8  1  0.67250633  0.66537067  0.25029867  1
  Zr  Zr9  1  0.33333333  0.32771467  0.16666667  1
  Zr  Zr10  1  0.99416033  0.32619767  0.08303467  1
  Zr  Zr11  1  0.33462933  0.00713567  0.25029867  1
  Zr  Zr12  1  0.33895200  0.33895200  0.50000000  1
  Zr  Zr13  1  0.66104800  0.00000000  0.50000000  1
  Zr  Zr14  1  0.65953100  0.66082700  0.58363200  1
  Zr  Zr15  1  0.00774667  0.67441333  0.33333333  1
  Zr  Zr16  1  0.66666667  0.99225333  0.33333333  1
  Zr  Zr17  1  0.99870400  0.33917300  0.41636800  1
  Zr  Zr18  1  0.32558667  0.33333333  0.33333333  1
  Zr  Zr19  1  0.34046900  0.00129600  0.41636800  1
  Zr  Zr20  1  0.33917300  0.99870400  0.58363200  1
  Zr  Zr21  1  1.00000000  0.66104800  0.50000000  1
  Zr  Zr22  1  0.66082700  0.65953100  0.41636800  1
  Zr  Zr23  1  0.00129600  0.34046900  0.58363200  1
  Zr  Zr24  1  0.00561867  0.67228533  0.83333333  1
  Zr  Zr25  1  0.32771467  0.33333333  0.83333333  1
  Zr  Zr26  1  0.32619767  0.99416033  0.91696533  1
  Zr  Zr27  1  0.67441333  0.00774667  0.66666667  1
  Zr  Zr28  1  0.33333333  0.32558667  0.66666667  1
  Zr  Zr29  1  0.66537067  0.67250633  0.74970133  1
  Zr  Zr30  1  0.99225333  0.66666667  0.66666667  1
  Zr  Zr31  1  0.00713567  0.33462933  0.74970133  1
  Zr  Zr32  1  0.00583967  0.33203733  0.91696533  1
  Zr  Zr33  1  0.66666667  0.99438133  0.83333333  1
  Zr  Zr34  1  0.32749367  0.99286433  0.74970133  1
  Zr  Zr35  1  0.66796267  0.67380233  0.91696533  1
  O  O36  1  0.66666667  0.33333333  0.04180533  1
  O  O37  1  0.66666667  0.33333333  0.20813533  1
  O  O38  1  0.00000000  0.00000000  0.29152800  1
  O  O39  1  0.00000000  0.00000000  0.12519800  1
  O  O40  1  0.33333333  0.66666667  0.37513867  1
  O  O41  1  0.33333333  0.66666667  0.54146867  1
  O  O42  1  0.66666667  0.33333333  0.62486133  1
  O  O43  1  0.66666667  0.33333333  0.45853133  1
  O  O44  1  0.00000000  0.00000000  0.70847200  1
  O  O45  1  0.00000000  0.00000000  0.87480200  1
  O  O46  1  0.33333333  0.66666667  0.95819467  1
  O  O47  1  0.33333333  0.66666667  0.79186467  1
