# generated using pymatgen
data_FeSO3
_symmetry_space_group_name_H-M   'P 1'
_cell_length_a   12.95747139
_cell_length_b   12.95747139
_cell_length_c   7.93668290
_cell_angle_alpha   90.00000000
_cell_angle_beta   90.00000000
_cell_angle_gamma   120.00000000
_symmetry_Int_Tables_number   1
_chemical_formula_structural   FeSO3
_chemical_formula_sum   'Fe18 S18 O54'
_cell_volume   1154.01160966
_cell_formula_units_Z   18
loop_
 _symmetry_equiv_pos_site_id
 _symmetry_equiv_pos_as_xyz
  1  'x, y, z'
loop_
 _atom_site_type_symbol
 _atom_site_label
 _atom_site_symmetry_multiplicity
 _atom_site_fract_x
 _atom_site_fract_y
 _atom_site_fract_z
 _atom_site_occupancy
  Fe  Fe0  1  0.71524167  0.10844333  0.41727733  1
  Fe  Fe1  1  0.10844333  0.39320167  0.58272267  1
  Fe  Fe2  1  0.94013167  0.38190833  0.24938933  1
  Fe  Fe3  1  0.55822333  0.94013167  0.75061067  1
  Fe  Fe4  1  0.72653500  0.95142500  0.08394400  1
  Fe  Fe5  1  0.95142500  0.22489000  0.91605600  1
  Fe  Fe6  1  0.38190833  0.44177667  0.75061067  1
  Fe  Fe7  1  0.77511000  0.72653500  0.91605600  1
  Fe  Fe8  1  0.60679833  0.71524167  0.58272267  1
  Fe  Fe9  1  0.22489000  0.27346500  0.08394400  1
  Fe  Fe10  1  0.39320167  0.28475833  0.41727733  1
  Fe  Fe11  1  0.61809167  0.55822333  0.24938933  1
  Fe  Fe12  1  0.04857500  0.77511000  0.08394400  1
  Fe  Fe13  1  0.44177667  0.05986833  0.24938933  1
  Fe  Fe14  1  0.27346500  0.04857500  0.91605600  1
  Fe  Fe15  1  0.89155667  0.60679833  0.41727733  1
  Fe  Fe16  1  0.05986833  0.61809167  0.75061067  1
  Fe  Fe17  1  0.28475833  0.89155667  0.58272267  1
  S  S18  1  0.83695867  0.34582333  0.63654833  1
  S  S19  1  0.98751000  0.15780200  0.30321500  1
  S  S20  1  0.17553133  0.49637467  0.96988167  1
  S  S21  1  0.82970800  0.98751000  0.69678500  1
  S  S22  1  0.67915667  0.17553133  0.03011833  1
  S  S23  1  0.49113533  0.83695867  0.36345167  1
  S  S24  1  0.50362533  0.67915667  0.96988167  1
  S  S25  1  0.65417667  0.49113533  0.63654833  1
  S  S26  1  0.84219800  0.82970800  0.30321500  1
  S  S27  1  0.49637467  0.32084333  0.03011833  1
  S  S28  1  0.34582333  0.50886467  0.36345167  1
  S  S29  1  0.15780200  0.17029200  0.69678500  1
  S  S30  1  0.17029200  0.01249000  0.30321500  1
  S  S31  1  0.32084333  0.82446867  0.96988167  1
  S  S32  1  0.50886467  0.16304133  0.63654833  1
  S  S33  1  0.16304133  0.65417667  0.36345167  1
  S  S34  1  0.01249000  0.84219800  0.69678500  1
  S  S35  1  0.82446867  0.50362533  0.03011833  1
  O  O36  1  0.93340167  0.31709233  0.70207733  1
  O  O37  1  0.01624100  0.28297600  0.36874400  1
  O  O38  1  0.05035733  0.39993167  0.03541067  1
  O  O39  1  0.73326500  0.01624100  0.63125600  1
  O  O40  1  0.65042567  0.05035733  0.96458933  1
  O  O41  1  0.61630933  0.93340167  0.29792267  1
  O  O42  1  0.57308233  0.81603067  0.94195367  1
  O  O43  1  0.85063600  0.09038500  0.27528700  1
  O  O44  1  0.57628167  0.09358433  0.60862033  1
  O  O45  1  0.09358433  0.51730267  0.39137967  1
  O  O46  1  0.81603067  0.24294833  0.05804633  1
  O  O47  1  0.09038500  0.23974900  0.72471300  1
  O  O48  1  0.81311000  0.29651500  0.45273700  1
  O  O49  1  0.03681833  0.18326167  0.11940367  1
  O  O50  1  0.15007167  0.52022333  0.78607033  1
  O  O51  1  0.85355667  0.03681833  0.88059633  1
  O  O52  1  0.62984833  0.15007167  0.21392967  1
  O  O53  1  0.51659500  0.81311000  0.54726300  1
  O  O54  1  0.60006833  0.65042567  0.03541067  1
  O  O55  1  0.68290767  0.61630933  0.70207733  1
  O  O56  1  0.71702400  0.73326500  0.36874400  1
  O  O57  1  0.39993167  0.34957433  0.96458933  1
  O  O58  1  0.31709233  0.38369067  0.29792267  1
  O  O59  1  0.28297600  0.26673500  0.63125600  1
  O  O60  1  0.23974900  0.14936400  0.27528700  1
  O  O61  1  0.51730267  0.42371833  0.60862033  1
  O  O62  1  0.24294833  0.42691767  0.94195367  1
  O  O63  1  0.76025100  0.85063600  0.72471300  1
  O  O64  1  0.48269733  0.57628167  0.39137967  1
  O  O65  1  0.75705167  0.57308233  0.05804633  1
  O  O66  1  0.47977667  0.62984833  0.78607033  1
  O  O67  1  0.70348500  0.51659500  0.45273700  1
  O  O68  1  0.81673833  0.85355667  0.11940367  1
  O  O69  1  0.52022333  0.37015167  0.21392967  1
  O  O70  1  0.29651500  0.48340500  0.54726300  1
  O  O71  1  0.18326167  0.14644333  0.88059633  1
  O  O72  1  0.26673500  0.98375900  0.36874400  1
  O  O73  1  0.34957433  0.94964267  0.03541067  1
  O  O74  1  0.38369067  0.06659833  0.70207733  1
  O  O75  1  0.06659833  0.68290767  0.29792267  1
  O  O76  1  0.98375900  0.71702400  0.63125600  1
  O  O77  1  0.94964267  0.60006833  0.96458933  1
  O  O78  1  0.90641567  0.48269733  0.60862033  1
  O  O79  1  0.18396933  0.75705167  0.94195367  1
  O  O80  1  0.90961500  0.76025100  0.27528700  1
  O  O81  1  0.42691767  0.18396933  0.05804633  1
  O  O82  1  0.14936400  0.90961500  0.72471300  1
  O  O83  1  0.42371833  0.90641567  0.39137967  1
  O  O84  1  0.14644333  0.96318167  0.11940367  1
  O  O85  1  0.37015167  0.84992833  0.78607033  1
  O  O86  1  0.48340500  0.18689000  0.45273700  1
  O  O87  1  0.18689000  0.70348500  0.54726300  1
  O  O88  1  0.96318167  0.81673833  0.88059633  1
  O  O89  1  0.84992833  0.47977667  0.21392967  1
