# generated using pymatgen
data_CsFeS2
_symmetry_space_group_name_H-M   'P 1'
_cell_length_a   5.42348800
_cell_length_b   7.10822800
_cell_length_c   11.99642000
_cell_angle_alpha   90.00000000
_cell_angle_beta   90.00000000
_cell_angle_gamma   90.00000000
_symmetry_Int_Tables_number   1
_chemical_formula_structural   CsFeS2
_chemical_formula_sum   'Cs4 Fe4 S8'
_cell_volume   462.47865714
_cell_formula_units_Z   4
loop_
 _symmetry_equiv_pos_site_id
 _symmetry_equiv_pos_as_xyz
  1  'x, y, z'
loop_
 _atom_site_type_symbol
 _atom_site_label
 _atom_site_symmetry_multiplicity
 _atom_site_fract_x
 _atom_site_fract_y
 _atom_site_fract_z
 _atom_site_occupancy
  Cs  Cs0  1  0.00000000  0.50000000  0.82777700  1
  Cs  Cs1  1  0.50000000  0.00000000  0.67222300  1
  Cs  Cs2  1  0.50000000  0.00000000  0.32777700  1
  Cs  Cs3  1  0.00000000  0.50000000  0.17222300  1
  Fe  Fe4  1  0.74664800  0.00000000  0.00000000  1
  Fe  Fe5  1  0.25335200  0.00000000  0.00000000  1
  Fe  Fe6  1  0.24664800  0.50000000  0.50000000  1
  Fe  Fe7  1  0.75335200  0.50000000  0.50000000  1
  S  S8  1  0.50000000  0.24287200  0.00000000  1
  S  S9  1  0.50000000  0.75712800  0.00000000  1
  S  S10  1  0.50000000  0.50000000  0.64193700  1
  S  S11  1  0.00000000  0.00000000  0.85806300  1
  S  S12  1  0.00000000  0.74287200  0.50000000  1
  S  S13  1  0.00000000  0.25712800  0.50000000  1
  S  S14  1  0.00000000  0.00000000  0.14193700  1
  S  S15  1  0.50000000  0.50000000  0.35806300  1
