# generated using pymatgen
data_Ba2CuWO6
_symmetry_space_group_name_H-M   'P 1'
_cell_length_a   5.61308600
_cell_length_b   5.61308600
_cell_length_c   9.00275600
_cell_angle_alpha   90.00000000
_cell_angle_beta   90.00000000
_cell_angle_gamma   90.00000000
_symmetry_Int_Tables_number   1
_chemical_formula_structural   Ba2CuWO6
_chemical_formula_sum   'Ba4 Cu2 W2 O12'
_cell_volume   283.64744255
_cell_formula_units_Z   2
loop_
 _symmetry_equiv_pos_site_id
 _symmetry_equiv_pos_as_xyz
  1  'x, y, z'
loop_
 _atom_site_type_symbol
 _atom_site_label
 _atom_site_symmetry_multiplicity
 _atom_site_fract_x
 _atom_site_fract_y
 _atom_site_fract_z
 _atom_site_occupancy
  Ba  Ba0  1  0.00000000  0.50000000  0.25000000  1
  Ba  Ba1  1  0.50000000  0.00000000  0.25000000  1
  Ba  Ba2  1  0.50000000  0.00000000  0.75000000  1
  Ba  Ba3  1  0.00000000  0.50000000  0.75000000  1
  Cu  Cu4  1  0.00000000  0.00000000  0.00000000  1
  Cu  Cu5  1  0.50000000  0.50000000  0.50000000  1
  W  W6  1  0.50000000  0.50000000  0.00000000  1
  W  W7  1  0.00000000  0.00000000  0.50000000  1
  O  O8  1  0.73653850  0.75802250  0.00000000  1
  O  O9  1  0.24197750  0.73653850  0.00000000  1
  O  O10  1  0.75802250  0.26346150  0.00000000  1
  O  O11  1  0.76346150  0.74197750  0.50000000  1
  O  O12  1  0.00000000  0.00000000  0.28353100  1
  O  O13  1  0.50000000  0.50000000  0.21646900  1
  O  O14  1  0.23653850  0.25802250  0.50000000  1
  O  O15  1  0.74197750  0.23653850  0.50000000  1
  O  O16  1  0.25802250  0.76346150  0.50000000  1
  O  O17  1  0.26346150  0.24197750  0.00000000  1
  O  O18  1  0.50000000  0.50000000  0.78353100  1
  O  O19  1  0.00000000  0.00000000  0.71646900  1
