# generated using pymatgen
data_CrBiO3
_symmetry_space_group_name_H-M   'P 1'
_cell_length_a   5.46763900
_cell_length_b   5.67657300
_cell_length_c   7.84075600
_cell_angle_alpha   90.00000000
_cell_angle_beta   90.00000000
_cell_angle_gamma   90.00000000
_symmetry_Int_Tables_number   1
_chemical_formula_structural   CrBiO3
_chemical_formula_sum   'Cr4 Bi4 O12'
_cell_volume   243.35708739
_cell_formula_units_Z   4
loop_
 _symmetry_equiv_pos_site_id
 _symmetry_equiv_pos_as_xyz
  1  'x, y, z'
loop_
 _atom_site_type_symbol
 _atom_site_label
 _atom_site_symmetry_multiplicity
 _atom_site_fract_x
 _atom_site_fract_y
 _atom_site_fract_z
 _atom_site_occupancy
  Cr  Cr0  1  0.00000000  0.50000000  0.00000000  1
  Cr  Cr1  1  0.50000000  0.00000000  0.50000000  1
  Cr  Cr2  1  0.00000000  0.50000000  0.50000000  1
  Cr  Cr3  1  0.50000000  0.00000000  0.00000000  1
  Bi  Bi4  1  0.00934800  0.94763250  0.75000000  1
  Bi  Bi5  1  0.99065200  0.05236750  0.25000000  1
  Bi  Bi6  1  0.50934800  0.55236750  0.25000000  1
  Bi  Bi7  1  0.49065200  0.44763250  0.75000000  1
  O  O8  1  0.90702600  0.52747250  0.75000000  1
  O  O9  1  0.40702600  0.97252750  0.25000000  1
  O  O10  1  0.09297400  0.47252750  0.25000000  1
  O  O11  1  0.59297400  0.02747250  0.75000000  1
  O  O12  1  0.80246800  0.79895750  0.45467550  1
  O  O13  1  0.69753200  0.29895750  0.04532450  1
  O  O14  1  0.69753200  0.29895750  0.45467550  1
  O  O15  1  0.30246800  0.70104250  0.54532450  1
  O  O16  1  0.80246800  0.79895750  0.04532450  1
  O  O17  1  0.19753200  0.20104250  0.54532450  1
  O  O18  1  0.19753200  0.20104250  0.95467550  1
  O  O19  1  0.30246800  0.70104250  0.95467550  1
