# generated using pymatgen
data_Fe(PO3)4
_symmetry_space_group_name_H-M   'P 1'
_cell_length_a   12.28221200
_cell_length_b   8.52362400
_cell_length_c   9.77254884
_cell_angle_alpha   90.00000000
_cell_angle_beta   115.77156411
_cell_angle_gamma   90.00000000
_symmetry_Int_Tables_number   1
_chemical_formula_structural   Fe(PO3)4
_chemical_formula_sum   'Fe4 P16 O48'
_cell_volume   921.31715496
_cell_formula_units_Z   4
loop_
 _symmetry_equiv_pos_site_id
 _symmetry_equiv_pos_as_xyz
  1  'x, y, z'
loop_
 _atom_site_type_symbol
 _atom_site_label
 _atom_site_symmetry_multiplicity
 _atom_site_fract_x
 _atom_site_fract_y
 _atom_site_fract_z
 _atom_site_occupancy
  Fe  Fe0  1  0.25000000  0.75000000  0.00000000  1
  Fe  Fe1  1  0.75000000  0.75000000  0.50000000  1
  Fe  Fe2  1  0.75000000  0.25000000  0.00000000  1
  Fe  Fe3  1  0.25000000  0.25000000  0.50000000  1
  P  P4  1  0.00105150  0.27350950  0.53700600  1
  P  P5  1  0.99894850  0.27350950  0.96299400  1
  P  P6  1  0.18107300  0.48260000  0.18758900  1
  P  P7  1  0.00105150  0.72649050  0.03700600  1
  P  P8  1  0.99894850  0.72649050  0.46299400  1
  P  P9  1  0.81892700  0.48260000  0.31241100  1
  P  P10  1  0.18107300  0.51740000  0.68758900  1
  P  P11  1  0.81892700  0.51740000  0.81241100  1
  P  P12  1  0.50105150  0.77350950  0.53700600  1
  P  P13  1  0.49894850  0.77350950  0.96299400  1
  P  P14  1  0.68107300  0.98260000  0.18758900  1
  P  P15  1  0.50105150  0.22649050  0.03700600  1
  P  P16  1  0.49894850  0.22649050  0.46299400  1
  P  P17  1  0.31892700  0.98260000  0.31241100  1
  P  P18  1  0.68107300  0.01740000  0.68758900  1
  P  P19  1  0.31892700  0.01740000  0.81241100  1
  O  O20  1  0.00825200  0.13211100  0.87558700  1
  O  O21  1  0.77468450  0.58220150  0.65556400  1
  O  O22  1  0.22531550  0.41779850  0.34443600  1
  O  O23  1  0.06871400  0.25007200  0.44090300  1
  O  O24  1  0.06871400  0.74992800  0.94090300  1
  O  O25  1  0.05965750  0.58159450  0.15316800  1
  O  O26  1  0.73277850  0.41867450  0.84707900  1
  O  O27  1  0.86763050  0.65960050  0.93410500  1
  O  O28  1  0.86763050  0.34039950  0.43410500  1
  O  O29  1  0.94034250  0.58159450  0.34683200  1
  O  O30  1  0.99174800  0.86788900  0.12441300  1
  O  O31  1  0.77468450  0.41779850  0.15556400  1
  O  O32  1  0.26722150  0.41867450  0.65292100  1
  O  O33  1  0.00825200  0.86788900  0.37558700  1
  O  O34  1  0.99174800  0.13211100  0.62441300  1
  O  O35  1  0.93128600  0.25007200  0.05909700  1
  O  O36  1  0.22531550  0.58220150  0.84443600  1
  O  O37  1  0.93128600  0.74992800  0.55909700  1
  O  O38  1  0.05965750  0.41840550  0.65316800  1
  O  O39  1  0.13236950  0.65960050  0.56589500  1
  O  O40  1  0.13236950  0.34039950  0.06589500  1
  O  O41  1  0.26722150  0.58132550  0.15292100  1
  O  O42  1  0.94034250  0.41840550  0.84683200  1
  O  O43  1  0.73277850  0.58132550  0.34707900  1
  O  O44  1  0.50825200  0.63211100  0.87558700  1
  O  O45  1  0.27468450  0.08220150  0.65556400  1
  O  O46  1  0.72531550  0.91779850  0.34443600  1
  O  O47  1  0.56871400  0.75007200  0.44090300  1
  O  O48  1  0.56871400  0.24992800  0.94090300  1
  O  O49  1  0.55965750  0.08159450  0.15316800  1
  O  O50  1  0.23277850  0.91867450  0.84707900  1
  O  O51  1  0.36763050  0.15960050  0.93410500  1
  O  O52  1  0.36763050  0.84039950  0.43410500  1
  O  O53  1  0.44034250  0.08159450  0.34683200  1
  O  O54  1  0.49174800  0.36788900  0.12441300  1
  O  O55  1  0.27468450  0.91779850  0.15556400  1
  O  O56  1  0.76722150  0.91867450  0.65292100  1
  O  O57  1  0.50825200  0.36788900  0.37558700  1
  O  O58  1  0.49174800  0.63211100  0.62441300  1
  O  O59  1  0.43128600  0.75007200  0.05909700  1
  O  O60  1  0.72531550  0.08220150  0.84443600  1
  O  O61  1  0.43128600  0.24992800  0.55909700  1
  O  O62  1  0.55965750  0.91840550  0.65316800  1
  O  O63  1  0.63236950  0.15960050  0.56589500  1
  O  O64  1  0.63236950  0.84039950  0.06589500  1
  O  O65  1  0.76722150  0.08132550  0.15292100  1
  O  O66  1  0.44034250  0.91840550  0.84683200  1
  O  O67  1  0.23277850  0.08132550  0.34707900  1
