# generated using pymatgen
data_Ce4Al23Ni6
_symmetry_space_group_name_H-M   'P 1'
_cell_length_a   15.99875400
_cell_length_b   4.11502400
_cell_length_c   18.31018825
_cell_angle_alpha   90.00000000
_cell_angle_beta   113.24626625
_cell_angle_gamma   90.00000000
_symmetry_Int_Tables_number   1
_chemical_formula_structural   Ce4Al23Ni6
_chemical_formula_sum   'Ce8 Al46 Ni12'
_cell_volume   1107.59333200
_cell_formula_units_Z   2
loop_
 _symmetry_equiv_pos_site_id
 _symmetry_equiv_pos_as_xyz
  1  'x, y, z'
loop_
 _atom_site_type_symbol
 _atom_site_label
 _atom_site_symmetry_multiplicity
 _atom_site_fract_x
 _atom_site_fract_y
 _atom_site_fract_z
 _atom_site_occupancy
  Ce  Ce0  1  0.73487300  0.00000000  0.28225100  1
  Ce  Ce1  1  0.07023500  0.50000000  0.90730200  1
  Ce  Ce2  1  0.92976500  0.50000000  0.09269800  1
  Ce  Ce3  1  0.26512700  0.00000000  0.71774900  1
  Ce  Ce4  1  0.23487300  0.50000000  0.28225100  1
  Ce  Ce5  1  0.57023500  0.00000000  0.90730200  1
  Ce  Ce6  1  0.42976500  0.00000000  0.09269800  1
  Ce  Ce7  1  0.76512700  0.50000000  0.71774900  1
  Al  Al8  1  0.85728400  0.00000000  0.64242800  1
  Al  Al9  1  0.93152200  0.50000000  0.56062300  1
  Al  Al10  1  0.91785100  0.00000000  0.81320100  1
  Al  Al11  1  0.96813200  0.50000000  0.71917400  1
  Al  Al12  1  0.74414700  0.00000000  0.45391900  1
  Al  Al13  1  0.70289500  0.50000000  0.02155500  1
  Al  Al14  1  0.91099400  0.00000000  0.22174900  1
  Al  Al15  1  0.08214900  0.00000000  0.18679900  1
  Al  Al16  1  0.37685800  0.00000000  0.90405900  1
  Al  Al17  1  0.89166700  0.50000000  0.33924600  1
  Al  Al18  1  0.06847800  0.50000000  0.43937700  1
  Al  Al19  1  0.22322900  0.50000000  0.82258700  1
  Al  Al20  1  0.25585300  0.00000000  0.54608100  1
  Al  Al21  1  0.03186800  0.50000000  0.28082600  1
  Al  Al22  1  0.00000000  0.00000000  0.00000000  1
  Al  Al23  1  0.08900600  0.00000000  0.77825100  1
  Al  Al24  1  0.62314200  0.00000000  0.09594100  1
  Al  Al25  1  0.77677100  0.50000000  0.17741300  1
  Al  Al26  1  0.29710500  0.50000000  0.97844500  1
  Al  Al27  1  0.09015200  0.00000000  0.54769300  1
  Al  Al28  1  0.90984800  0.00000000  0.45230700  1
  Al  Al29  1  0.14271600  0.00000000  0.35757200  1
  Al  Al30  1  0.10833300  0.50000000  0.66075400  1
  Al  Al31  1  0.35728400  0.50000000  0.64242800  1
  Al  Al32  1  0.43152200  0.00000000  0.56062300  1
  Al  Al33  1  0.41785100  0.50000000  0.81320100  1
  Al  Al34  1  0.46813200  0.00000000  0.71917400  1
  Al  Al35  1  0.24414700  0.50000000  0.45391900  1
  Al  Al36  1  0.20289500  0.00000000  0.02155500  1
  Al  Al37  1  0.41099400  0.50000000  0.22174900  1
  Al  Al38  1  0.58214900  0.50000000  0.18679900  1
  Al  Al39  1  0.87685800  0.50000000  0.90405900  1
  Al  Al40  1  0.39166700  0.00000000  0.33924600  1
  Al  Al41  1  0.56847800  0.00000000  0.43937700  1
  Al  Al42  1  0.72322900  0.00000000  0.82258700  1
  Al  Al43  1  0.75585300  0.50000000  0.54608100  1
  Al  Al44  1  0.53186800  0.00000000  0.28082600  1
  Al  Al45  1  0.50000000  0.50000000  0.00000000  1
  Al  Al46  1  0.58900600  0.50000000  0.77825100  1
  Al  Al47  1  0.12314200  0.50000000  0.09594100  1
  Al  Al48  1  0.27677100  0.00000000  0.17741300  1
  Al  Al49  1  0.79710500  0.00000000  0.97844500  1
  Al  Al50  1  0.59015200  0.50000000  0.54769300  1
  Al  Al51  1  0.40984800  0.50000000  0.45230700  1
  Al  Al52  1  0.64271600  0.50000000  0.35757200  1
  Al  Al53  1  0.60833300  0.00000000  0.66075400  1
  Ni  Ni54  1  0.99237100  0.00000000  0.36667100  1
  Ni  Ni55  1  0.22600900  0.00000000  0.89750600  1
  Ni  Ni56  1  0.19045500  0.50000000  0.56766100  1
  Ni  Ni57  1  0.77399100  0.00000000  0.10249400  1
  Ni  Ni58  1  0.80954500  0.50000000  0.43233900  1
  Ni  Ni59  1  0.00762900  0.00000000  0.63332900  1
  Ni  Ni60  1  0.49237100  0.50000000  0.36667100  1
  Ni  Ni61  1  0.72600900  0.50000000  0.89750600  1
  Ni  Ni62  1  0.69045500  0.00000000  0.56766100  1
  Ni  Ni63  1  0.27399100  0.50000000  0.10249400  1
  Ni  Ni64  1  0.30954500  0.00000000  0.43233900  1
  Ni  Ni65  1  0.50762900  0.50000000  0.63332900  1
