# generated using pymatgen
data_Yb2Zn17
_symmetry_space_group_name_H-M   'P 1'
_cell_length_a   9.07015614
_cell_length_b   9.07015614
_cell_length_c   13.14083259
_cell_angle_alpha   90.00000000
_cell_angle_beta   90.00000000
_cell_angle_gamma   120.00000000
_symmetry_Int_Tables_number   1
_chemical_formula_structural   Yb2Zn17
_chemical_formula_sum   'Yb6 Zn51'
_cell_volume   936.23105081
_cell_formula_units_Z   3
loop_
 _symmetry_equiv_pos_site_id
 _symmetry_equiv_pos_as_xyz
  1  'x, y, z'
loop_
 _atom_site_type_symbol
 _atom_site_label
 _atom_site_symmetry_multiplicity
 _atom_site_fract_x
 _atom_site_fract_y
 _atom_site_fract_z
 _atom_site_occupancy
  Yb  Yb0  1  0.33333333  0.66666667  0.32968367  1
  Yb  Yb1  1  0.33333333  0.66666667  0.00364967  1
  Yb  Yb2  1  0.00000000  0.00000000  0.66301700  1
  Yb  Yb3  1  0.00000000  0.00000000  0.33698300  1
  Yb  Yb4  1  0.66666667  0.33333333  0.99635033  1
  Yb  Yb5  1  0.66666667  0.33333333  0.67031633  1
  Zn  Zn6  1  0.16666667  0.83333333  0.83333333  1
  Zn  Zn7  1  0.83333333  0.66666667  0.16666667  1
  Zn  Zn8  1  0.33333333  0.16666667  0.16666667  1
  Zn  Zn9  1  0.96584367  0.63251033  0.33333333  1
  Zn  Zn10  1  0.70082300  1.00000000  0.00000000  1
  Zn  Zn11  1  0.00000000  0.70082300  0.00000000  1
  Zn  Zn12  1  0.29917700  1.00000000  0.00000000  1
  Zn  Zn13  1  0.00000000  0.29917700  0.00000000  1
  Zn  Zn14  1  0.36748967  0.03415633  0.33333333  1
  Zn  Zn15  1  0.17076933  0.82923067  0.17972767  1
  Zn  Zn16  1  0.17076933  0.34153867  0.17972767  1
  Zn  Zn17  1  0.65846133  0.82923067  0.17972767  1
  Zn  Zn18  1  0.49589733  0.50410267  0.15360567  1
  Zn  Zn19  1  0.49589733  0.99179467  0.15360567  1
  Zn  Zn20  1  0.00820533  0.50410267  0.15360567  1
  Zn  Zn21  1  0.33333333  0.66666667  0.56278767  1
  Zn  Zn22  1  0.33333333  0.66666667  0.77054567  1
  Zn  Zn23  1  0.83333333  0.16666667  0.16666667  1
  Zn  Zn24  1  0.50000000  0.00000000  0.50000000  1
  Zn  Zn25  1  0.00000000  0.50000000  0.50000000  1
  Zn  Zn26  1  0.63251033  0.96584367  0.66666667  1
  Zn  Zn27  1  0.36748967  0.33333333  0.33333333  1
  Zn  Zn28  1  0.66666667  0.03415633  0.33333333  1
  Zn  Zn29  1  0.96584367  0.33333333  0.33333333  1
  Zn  Zn30  1  0.66666667  0.63251033  0.33333333  1
  Zn  Zn31  1  0.03415633  0.36748967  0.66666667  1
  Zn  Zn32  1  0.83743600  0.16256400  0.51306100  1
  Zn  Zn33  1  0.83743600  0.67487200  0.51306100  1
  Zn  Zn34  1  0.32512800  0.16256400  0.51306100  1
  Zn  Zn35  1  0.16256400  0.83743600  0.48693900  1
  Zn  Zn36  1  0.16256400  0.32512800  0.48693900  1
  Zn  Zn37  1  0.67487200  0.83743600  0.48693900  1
  Zn  Zn38  1  0.00000000  0.00000000  0.89612100  1
  Zn  Zn39  1  0.00000000  0.00000000  0.10387900  1
  Zn  Zn40  1  0.50000000  0.50000000  0.50000000  1
  Zn  Zn41  1  0.16666667  0.33333333  0.83333333  1
  Zn  Zn42  1  0.66666667  0.83333333  0.83333333  1
  Zn  Zn43  1  0.29917700  0.29917700  0.00000000  1
  Zn  Zn44  1  0.03415633  0.66666667  0.66666667  1
  Zn  Zn45  1  0.33333333  0.36748967  0.66666667  1
  Zn  Zn46  1  0.63251033  0.66666667  0.66666667  1
  Zn  Zn47  1  0.33333333  0.96584367  0.66666667  1
  Zn  Zn48  1  0.70082300  0.70082300  0.00000000  1
  Zn  Zn49  1  0.50410267  0.49589733  0.84639433  1
  Zn  Zn50  1  0.50410267  0.00820533  0.84639433  1
  Zn  Zn51  1  0.99179467  0.49589733  0.84639433  1
  Zn  Zn52  1  0.82923067  0.17076933  0.82027233  1
  Zn  Zn53  1  0.82923067  0.65846133  0.82027233  1
  Zn  Zn54  1  0.34153867  0.17076933  0.82027233  1
  Zn  Zn55  1  0.66666667  0.33333333  0.22945433  1
  Zn  Zn56  1  0.66666667  0.33333333  0.43721233  1
