# generated using pymatgen
data_VAg2PO6
_symmetry_space_group_name_H-M   'P 1'
_cell_length_a   12.60590400
_cell_length_b   6.34926200
_cell_length_c   6.43455209
_cell_angle_alpha   90.00000000
_cell_angle_beta   90.03329353
_cell_angle_gamma   90.00000000
_symmetry_Int_Tables_number   1
_chemical_formula_structural   VAg2PO6
_chemical_formula_sum   'V4 Ag8 P4 O24'
_cell_volume   515.00979776
_cell_formula_units_Z   4
loop_
 _symmetry_equiv_pos_site_id
 _symmetry_equiv_pos_as_xyz
  1  'x, y, z'
loop_
 _atom_site_type_symbol
 _atom_site_label
 _atom_site_symmetry_multiplicity
 _atom_site_fract_x
 _atom_site_fract_y
 _atom_site_fract_z
 _atom_site_occupancy
  V  V0  1  0.88515300  0.50000000  0.08645800  1
  V  V1  1  0.61484700  0.00000000  0.91354200  1
  V  V2  1  0.38515300  0.00000000  0.08645800  1
  V  V3  1  0.11484700  0.50000000  0.91354200  1
  Ag  Ag4  1  0.88008000  0.75584300  0.61866000  1
  Ag  Ag5  1  0.88008000  0.24415700  0.61866000  1
  Ag  Ag6  1  0.61992000  0.74415700  0.38134000  1
  Ag  Ag7  1  0.61992000  0.25584300  0.38134000  1
  Ag  Ag8  1  0.38008000  0.25584300  0.61866000  1
  Ag  Ag9  1  0.38008000  0.74415700  0.61866000  1
  Ag  Ag10  1  0.11992000  0.24415700  0.38134000  1
  Ag  Ag11  1  0.11992000  0.75584300  0.38134000  1
  P  P12  1  0.65340900  0.50000000  0.84930800  1
  P  P13  1  0.84659100  0.00000000  0.15069200  1
  P  P14  1  0.15340900  0.00000000  0.84930800  1
  P  P15  1  0.34659100  0.50000000  0.15069200  1
  O  O16  1  0.98992600  0.50000000  0.79686800  1
  O  O17  1  0.90145800  0.00000000  0.36501300  1
  O  O18  1  0.88126900  0.80347000  0.02347600  1
  O  O19  1  0.69894700  0.00000000  0.71416100  1
  O  O20  1  0.61873100  0.69653000  0.97652400  1
  O  O21  1  0.72312700  0.00000000  0.17378600  1
  O  O22  1  0.88126900  0.19653000  0.02347600  1
  O  O23  1  0.59854200  0.50000000  0.63498700  1
  O  O24  1  0.80105300  0.50000000  0.28583900  1
  O  O25  1  0.51007400  0.00000000  0.20313200  1
  O  O26  1  0.61873100  0.30347000  0.97652400  1
  O  O27  1  0.77687300  0.50000000  0.82621400  1
  O  O28  1  0.48992600  0.00000000  0.79686800  1
  O  O29  1  0.40145800  0.50000000  0.36501300  1
  O  O30  1  0.38126900  0.30347000  0.02347600  1
  O  O31  1  0.19894700  0.50000000  0.71416100  1
  O  O32  1  0.11873100  0.19653000  0.97652400  1
  O  O33  1  0.22312700  0.50000000  0.17378600  1
  O  O34  1  0.38126900  0.69653000  0.02347600  1
  O  O35  1  0.09854200  0.00000000  0.63498700  1
  O  O36  1  0.30105300  0.00000000  0.28583900  1
  O  O37  1  0.01007400  0.50000000  0.20313200  1
  O  O38  1  0.11873100  0.80347000  0.97652400  1
  O  O39  1  0.27687300  0.00000000  0.82621400  1
