# generated using pymatgen
data_Cs2VF6
_symmetry_space_group_name_H-M   'P 1'
_cell_length_a   6.29687400
_cell_length_b   15.14074400
_cell_length_c   7.41198000
_cell_angle_alpha   90.00000000
_cell_angle_beta   90.00000000
_cell_angle_gamma   90.00000000
_symmetry_Int_Tables_number   1
_chemical_formula_structural   Cs2VF6
_chemical_formula_sum   'Cs8 V4 F24'
_cell_volume   706.65340903
_cell_formula_units_Z   4
loop_
 _symmetry_equiv_pos_site_id
 _symmetry_equiv_pos_as_xyz
  1  'x, y, z'
loop_
 _atom_site_type_symbol
 _atom_site_label
 _atom_site_symmetry_multiplicity
 _atom_site_fract_x
 _atom_site_fract_y
 _atom_site_fract_z
 _atom_site_occupancy
  Cs  Cs0  1  0.00000000  0.95106800  0.25000000  1
  Cs  Cs1  1  0.50000000  0.54893200  0.75000000  1
  Cs  Cs2  1  0.50000000  0.76876700  0.25000000  1
  Cs  Cs3  1  0.00000000  0.73123300  0.75000000  1
  Cs  Cs4  1  0.50000000  0.45106800  0.25000000  1
  Cs  Cs5  1  0.00000000  0.04893200  0.75000000  1
  Cs  Cs6  1  0.00000000  0.26876700  0.25000000  1
  Cs  Cs7  1  0.50000000  0.23123300  0.75000000  1
  V  V8  1  0.00000000  0.61519100  0.25000000  1
  V  V9  1  0.50000000  0.88480900  0.75000000  1
  V  V10  1  0.50000000  0.11519100  0.25000000  1
  V  V11  1  0.00000000  0.38480900  0.75000000  1
  F  F12  1  0.00000000  0.73913700  0.25000000  1
  F  F13  1  0.50000000  0.76086300  0.75000000  1
  F  F14  1  0.50000000  0.99492200  0.25000000  1
  F  F15  1  0.00000000  0.50507800  0.75000000  1
  F  F16  1  0.21817650  0.61838450  0.42942400  1
  F  F17  1  0.71817650  0.88161550  0.57057600  1
  F  F18  1  0.71817650  0.88161550  0.92942400  1
  F  F19  1  0.21817650  0.61838450  0.07057600  1
  F  F20  1  0.78182350  0.61838450  0.42942400  1
  F  F21  1  0.28182350  0.88161550  0.57057600  1
  F  F22  1  0.78182350  0.61838450  0.07057600  1
  F  F23  1  0.28182350  0.88161550  0.92942400  1
  F  F24  1  0.50000000  0.23913700  0.25000000  1
  F  F25  1  0.00000000  0.26086300  0.75000000  1
  F  F26  1  0.00000000  0.49492200  0.25000000  1
  F  F27  1  0.50000000  0.00507800  0.75000000  1
  F  F28  1  0.71817650  0.11838450  0.42942400  1
  F  F29  1  0.21817650  0.38161550  0.57057600  1
  F  F30  1  0.21817650  0.38161550  0.92942400  1
  F  F31  1  0.71817650  0.11838450  0.07057600  1
  F  F32  1  0.28182350  0.11838450  0.42942400  1
  F  F33  1  0.78182350  0.38161550  0.57057600  1
  F  F34  1  0.28182350  0.11838450  0.07057600  1
  F  F35  1  0.78182350  0.38161550  0.92942400  1
