# generated using pymatgen
data_KMnP3HO10
_symmetry_space_group_name_H-M   'P 1'
_cell_length_a   12.34747741
_cell_length_b   8.34822909
_cell_length_c   9.39471624
_cell_angle_alpha   90.00000000
_cell_angle_beta   110.29869560
_cell_angle_gamma   90.00000000
_symmetry_Int_Tables_number   1
_chemical_formula_structural   KMnP3HO10
_chemical_formula_sum   'K4 Mn4 P12 H4 O40'
_cell_volume   908.26239891
_cell_formula_units_Z   4
loop_
 _symmetry_equiv_pos_site_id
 _symmetry_equiv_pos_as_xyz
  1  'x, y, z'
loop_
 _atom_site_type_symbol
 _atom_site_label
 _atom_site_symmetry_multiplicity
 _atom_site_fract_x
 _atom_site_fract_y
 _atom_site_fract_z
 _atom_site_occupancy
  K  K0  1  0.00000000  0.44275450  0.75000000  1
  K  K1  1  0.00000000  0.55724550  0.25000000  1
  K  K2  1  0.50000000  0.94275450  0.75000000  1
  K  K3  1  0.50000000  0.05724550  0.25000000  1
  Mn  Mn4  1  0.75000000  0.75000000  0.50000000  1
  Mn  Mn5  1  0.25000000  0.75000000  0.00000000  1
  Mn  Mn6  1  0.25000000  0.25000000  0.50000000  1
  Mn  Mn7  1  0.75000000  0.25000000  0.00000000  1
  P  P8  1  0.00000000  0.87093350  0.75000000  1
  P  P9  1  0.00000000  0.12906650  0.25000000  1
  P  P10  1  0.29258600  0.56615450  0.70508950  1
  P  P11  1  0.70741400  0.56615450  0.79491050  1
  P  P12  1  0.70741400  0.43384550  0.29491050  1
  P  P13  1  0.29258600  0.43384550  0.20508950  1
  P  P14  1  0.50000000  0.37093350  0.75000000  1
  P  P15  1  0.50000000  0.62906650  0.25000000  1
  P  P16  1  0.79258600  0.06615450  0.70508950  1
  P  P17  1  0.20741400  0.06615450  0.79491050  1
  P  P18  1  0.20741400  0.93384550  0.29491050  1
  P  P19  1  0.79258600  0.93384550  0.20508950  1
  H  H20  1  0.25000000  0.75000000  0.50000000  1
  H  H21  1  0.25000000  0.25000000  0.00000000  1
  H  H22  1  0.75000000  0.25000000  0.50000000  1
  H  H23  1  0.75000000  0.75000000  0.00000000  1
  O  O24  1  0.23774250  0.38990800  0.32148400  1
  O  O25  1  0.76225750  0.38990800  0.17851600  1
  O  O26  1  0.76225750  0.61009200  0.67851600  1
  O  O27  1  0.23774250  0.61009200  0.82148400  1
  O  O28  1  0.21581300  0.43740850  0.59957150  1
  O  O29  1  0.78418700  0.43740850  0.90042850  1
  O  O30  1  0.78418700  0.56259150  0.40042850  1
  O  O31  1  0.21581300  0.56259150  0.09957150  1
  O  O32  1  0.93267900  0.77818200  0.60986400  1
  O  O33  1  0.06732100  0.77818200  0.89013600  1
  O  O34  1  0.06732100  0.22181800  0.39013600  1
  O  O35  1  0.93267900  0.22181800  0.10986400  1
  O  O36  1  0.58304650  0.48894150  0.69929200  1
  O  O37  1  0.41695350  0.48894150  0.80070800  1
  O  O38  1  0.41695350  0.51105850  0.30070800  1
  O  O39  1  0.58304650  0.51105850  0.19929200  1
  O  O40  1  0.82031300  0.20780350  0.61920750  1
  O  O41  1  0.17968700  0.20780350  0.88079250  1
  O  O42  1  0.17968700  0.79219650  0.38079250  1
  O  O43  1  0.82031300  0.79219650  0.11920750  1
  O  O44  1  0.73774250  0.88990800  0.32148400  1
  O  O45  1  0.26225750  0.88990800  0.17851600  1
  O  O46  1  0.26225750  0.11009200  0.67851600  1
  O  O47  1  0.73774250  0.11009200  0.82148400  1
  O  O48  1  0.71581300  0.93740850  0.59957150  1
  O  O49  1  0.28418700  0.93740850  0.90042850  1
  O  O50  1  0.28418700  0.06259150  0.40042850  1
  O  O51  1  0.71581300  0.06259150  0.09957150  1
  O  O52  1  0.43267900  0.27818200  0.60986400  1
  O  O53  1  0.56732100  0.27818200  0.89013600  1
  O  O54  1  0.56732100  0.72181800  0.39013600  1
  O  O55  1  0.43267900  0.72181800  0.10986400  1
  O  O56  1  0.08304650  0.98894150  0.69929200  1
  O  O57  1  0.91695350  0.98894150  0.80070800  1
  O  O58  1  0.91695350  0.01105850  0.30070800  1
  O  O59  1  0.08304650  0.01105850  0.19929200  1
  O  O60  1  0.32031300  0.70780350  0.61920750  1
  O  O61  1  0.67968700  0.70780350  0.88079250  1
  O  O62  1  0.67968700  0.29219650  0.38079250  1
  O  O63  1  0.32031300  0.29219650  0.11920750  1
