# generated using pymatgen
data_FeSnH12(OF)6
_symmetry_space_group_name_H-M   'P 1'
_cell_length_a   10.01716141
_cell_length_b   10.01716141
_cell_length_c   10.18805485
_cell_angle_alpha   90.00000000
_cell_angle_beta   90.00000000
_cell_angle_gamma   120.00000000
_symmetry_Int_Tables_number   1
_chemical_formula_structural   FeSnH12(OF)6
_chemical_formula_sum   'Fe3 Sn3 H36 O18 F18'
_cell_volume   885.34237096
_cell_formula_units_Z   3
loop_
 _symmetry_equiv_pos_site_id
 _symmetry_equiv_pos_as_xyz
  1  'x, y, z'
loop_
 _atom_site_type_symbol
 _atom_site_label
 _atom_site_symmetry_multiplicity
 _atom_site_fract_x
 _atom_site_fract_y
 _atom_site_fract_z
 _atom_site_occupancy
  Fe  Fe0  1  0.00000000  0.00000000  0.50000000  1
  Fe  Fe1  1  0.66666667  0.33333333  0.83333333  1
  Fe  Fe2  1  0.33333333  0.66666667  0.16666667  1
  Sn  Sn3  1  0.33333333  0.66666667  0.66666667  1
  Sn  Sn4  1  1.00000000  0.00000000  0.00000000  1
  Sn  Sn5  1  0.66666667  0.33333333  0.33333333  1
  H  H6  1  0.29412167  0.21290483  0.40455383  1
  H  H7  1  0.78709517  0.08121683  0.40455383  1
  H  H8  1  0.91878317  0.70587833  0.40455383  1
  H  H9  1  0.70587833  0.78709517  0.59544617  1
  H  H10  1  0.21290483  0.91878317  0.59544617  1
  H  H11  1  0.08121683  0.29412167  0.59544617  1
  H  H12  1  0.17703017  0.17412808  0.28609533  1
  H  H13  1  0.82587192  0.00290208  0.28609533  1
  H  H14  1  0.99709792  0.82296983  0.28609533  1
  H  H15  1  0.82296983  0.82587192  0.71390467  1
  H  H16  1  0.17412808  0.99709792  0.71390467  1
  H  H17  1  0.00290208  0.17703017  0.71390467  1
  H  H18  1  0.96078833  0.54623817  0.73788717  1
  H  H19  1  0.45376183  0.41455017  0.73788717  1
  H  H20  1  0.58544983  0.03921167  0.73788717  1
  H  H21  1  0.37254500  0.12042850  0.92877950  1
  H  H22  1  0.87957150  0.25211650  0.92877950  1
  H  H23  1  0.74788350  0.62745500  0.92877950  1
  H  H24  1  0.84369683  0.50746142  0.61942867  1
  H  H25  1  0.49253858  0.33623542  0.61942867  1
  H  H26  1  0.66376458  0.15630317  0.61942867  1
  H  H27  1  0.48963650  0.15920525  0.04723800  1
  H  H28  1  0.84079475  0.33043125  0.04723800  1
  H  H29  1  0.66956875  0.51036350  0.04723800  1
  H  H30  1  0.62745500  0.87957150  0.07122050  1
  H  H31  1  0.12042850  0.74788350  0.07122050  1
  H  H32  1  0.25211650  0.37254500  0.07122050  1
  H  H33  1  0.03921167  0.45376183  0.26211283  1
  H  H34  1  0.54623817  0.58544983  0.26211283  1
  H  H35  1  0.41455017  0.96078833  0.26211283  1
  H  H36  1  0.51036350  0.84079475  0.95276200  1
  H  H37  1  0.15920525  0.66956875  0.95276200  1
  H  H38  1  0.33043125  0.48963650  0.95276200  1
  H  H39  1  0.15630317  0.49253858  0.38057133  1
  H  H40  1  0.50746142  0.66376458  0.38057133  1
  H  H41  1  0.33623542  0.84369683  0.38057133  1
  O  O42  1  0.18458967  0.16763533  0.38177158  1
  O  O43  1  0.83236467  0.01695433  0.38177158  1
  O  O44  1  0.98304567  0.81541033  0.38177158  1
  O  O45  1  0.81541033  0.83236467  0.61822842  1
  O  O46  1  0.16763533  0.98304567  0.61822842  1
  O  O47  1  0.01695433  0.18458967  0.61822842  1
  O  O48  1  0.85125633  0.50096867  0.71510492  1
  O  O49  1  0.49903133  0.35028767  0.71510492  1
  O  O50  1  0.64971233  0.14874367  0.71510492  1
  O  O51  1  0.48207700  0.16569800  0.95156175  1
  O  O52  1  0.83430200  0.31637900  0.95156175  1
  O  O53  1  0.68362100  0.51792300  0.95156175  1
  O  O54  1  0.51792300  0.83430200  0.04843825  1
  O  O55  1  0.16569800  0.68362100  0.04843825  1
  O  O56  1  0.31637900  0.48207700  0.04843825  1
  O  O57  1  0.14874367  0.49903133  0.28489508  1
  O  O58  1  0.50096867  0.64971233  0.28489508  1
  O  O59  1  0.35028767  0.85125633  0.28489508  1
  F  F60  1  0.81734717  0.50787508  0.44737383  1
  F  F61  1  0.49212492  0.30947208  0.44737383  1
  F  F62  1  0.69052792  0.18265283  0.44737383  1
  F  F63  1  0.18265283  0.49212492  0.55262617  1
  F  F64  1  0.50787508  0.69052792  0.55262617  1
  F  F65  1  0.30947208  0.81734717  0.55262617  1
  F  F66  1  0.48401383  0.84120842  0.78070717  1
  F  F67  1  0.15879158  0.64280542  0.78070717  1
  F  F68  1  0.35719458  0.51598617  0.78070717  1
  F  F69  1  0.84931950  0.82545825  0.88595950  1
  F  F70  1  0.17454175  0.02386125  0.88595950  1
  F  F71  1  0.97613875  0.15068050  0.88595950  1
  F  F72  1  0.15068050  0.17454175  0.11404050  1
  F  F73  1  0.82545825  0.97613875  0.11404050  1
  F  F74  1  0.02386125  0.84931950  0.11404050  1
  F  F75  1  0.51598617  0.15879158  0.21929283  1
  F  F76  1  0.84120842  0.35719458  0.21929283  1
  F  F77  1  0.64280542  0.48401383  0.21929283  1
