# generated using pymatgen
data_Mg10B16Ir19
_symmetry_space_group_name_H-M   'P 1'
_cell_length_a   10.64335800
_cell_length_b   10.64335800
_cell_length_c   10.64335800
_cell_angle_alpha   90.00000000
_cell_angle_beta   90.00000000
_cell_angle_gamma   90.00000000
_symmetry_Int_Tables_number   1
_chemical_formula_structural   Mg10B16Ir19
_chemical_formula_sum   'Mg20 B32 Ir38'
_cell_volume   1205.69097748
_cell_formula_units_Z   2
loop_
 _symmetry_equiv_pos_site_id
 _symmetry_equiv_pos_as_xyz
  1  'x, y, z'
loop_
 _atom_site_type_symbol
 _atom_site_label
 _atom_site_symmetry_multiplicity
 _atom_site_fract_x
 _atom_site_fract_y
 _atom_site_fract_z
 _atom_site_occupancy
  Mg  Mg0  1  0.00000000  0.00000000  0.34737300  1
  Mg  Mg1  1  0.16687450  0.16687450  0.83312550  1
  Mg  Mg2  1  0.34737300  0.00000000  0.00000000  1
  Mg  Mg3  1  0.00000000  0.00000000  0.65262700  1
  Mg  Mg4  1  0.33312550  0.33312550  0.33312550  1
  Mg  Mg5  1  0.16687450  0.83312550  0.16687450  1
  Mg  Mg6  1  0.65262700  0.00000000  0.00000000  1
  Mg  Mg7  1  0.83312550  0.16687450  0.16687450  1
  Mg  Mg8  1  0.00000000  0.65262700  0.00000000  1
  Mg  Mg9  1  0.00000000  0.34737300  0.00000000  1
  Mg  Mg10  1  0.50000000  0.50000000  0.84737300  1
  Mg  Mg11  1  0.66687450  0.66687450  0.33312550  1
  Mg  Mg12  1  0.84737300  0.50000000  0.50000000  1
  Mg  Mg13  1  0.50000000  0.50000000  0.15262700  1
  Mg  Mg14  1  0.83312550  0.83312550  0.83312550  1
  Mg  Mg15  1  0.66687450  0.33312550  0.66687450  1
  Mg  Mg16  1  0.15262700  0.50000000  0.50000000  1
  Mg  Mg17  1  0.33312550  0.66687450  0.66687450  1
  Mg  Mg18  1  0.50000000  0.15262700  0.50000000  1
  Mg  Mg19  1  0.50000000  0.84737300  0.50000000  1
  B  B20  1  0.58793550  0.83634550  0.16365450  1
  B  B21  1  0.41206450  0.16365450  0.16365450  1
  B  B22  1  0.58793550  0.16365450  0.83634550  1
  B  B23  1  0.38840350  0.61159650  0.38840350  1
  B  B24  1  0.11159650  0.11159650  0.11159650  1
  B  B25  1  0.33634550  0.91206450  0.33634550  1
  B  B26  1  0.16365450  0.58793550  0.83634550  1
  B  B27  1  0.16365450  0.83634550  0.58793550  1
  B  B28  1  0.61159650  0.38840350  0.38840350  1
  B  B29  1  0.33634550  0.33634550  0.91206450  1
  B  B30  1  0.16365450  0.41206450  0.16365450  1
  B  B31  1  0.38840350  0.38840350  0.61159650  1
  B  B32  1  0.83634550  0.58793550  0.16365450  1
  B  B33  1  0.16365450  0.16365450  0.41206450  1
  B  B34  1  0.91206450  0.33634550  0.33634550  1
  B  B35  1  0.83634550  0.16365450  0.58793550  1
  B  B36  1  0.08793550  0.33634550  0.66365450  1
  B  B37  1  0.91206450  0.66365450  0.66365450  1
  B  B38  1  0.08793550  0.66365450  0.33634550  1
  B  B39  1  0.88840350  0.11159650  0.88840350  1
  B  B40  1  0.61159650  0.61159650  0.61159650  1
  B  B41  1  0.83634550  0.41206450  0.83634550  1
  B  B42  1  0.66365450  0.08793550  0.33634550  1
  B  B43  1  0.66365450  0.33634550  0.08793550  1
  B  B44  1  0.11159650  0.88840350  0.88840350  1
  B  B45  1  0.83634550  0.83634550  0.41206450  1
  B  B46  1  0.66365450  0.91206450  0.66365450  1
  B  B47  1  0.88840350  0.88840350  0.11159650  1
  B  B48  1  0.33634550  0.08793550  0.66365450  1
  B  B49  1  0.66365450  0.66365450  0.91206450  1
  B  B50  1  0.41206450  0.83634550  0.83634550  1
  B  B51  1  0.33634550  0.66365450  0.08793550  1
  Ir  Ir52  1  0.75220250  0.42986650  0.24779750  1
  Ir  Ir53  1  0.42986650  0.24779750  0.75220250  1
  Ir  Ir54  1  0.25000000  0.50000000  0.00000000  1
  Ir  Ir55  1  0.07013350  0.25220250  0.25220250  1
  Ir  Ir56  1  0.75220250  0.24779750  0.42986650  1
  Ir  Ir57  1  0.24779750  0.24779750  0.57013350  1
  Ir  Ir58  1  0.42986650  0.75220250  0.24779750  1
  Ir  Ir59  1  0.57013350  0.24779750  0.24779750  1
  Ir  Ir60  1  0.24779750  0.75220250  0.42986650  1
  Ir  Ir61  1  0.25220250  0.07013350  0.25220250  1
  Ir  Ir62  1  0.25000000  0.00000000  0.50000000  1
  Ir  Ir63  1  0.24779750  0.42986650  0.75220250  1
  Ir  Ir64  1  0.00000000  0.25000000  0.50000000  1
  Ir  Ir65  1  0.25220250  0.25220250  0.07013350  1
  Ir  Ir66  1  0.50000000  0.00000000  0.25000000  1
  Ir  Ir67  1  0.24779750  0.57013350  0.24779750  1
  Ir  Ir68  1  0.00000000  0.50000000  0.25000000  1
  Ir  Ir69  1  0.00000000  0.00000000  0.00000000  1
  Ir  Ir70  1  0.50000000  0.25000000  0.00000000  1
  Ir  Ir71  1  0.25220250  0.92986650  0.74779750  1
  Ir  Ir72  1  0.92986650  0.74779750  0.25220250  1
  Ir  Ir73  1  0.75000000  0.00000000  0.50000000  1
  Ir  Ir74  1  0.57013350  0.75220250  0.75220250  1
  Ir  Ir75  1  0.25220250  0.74779750  0.92986650  1
  Ir  Ir76  1  0.74779750  0.74779750  0.07013350  1
  Ir  Ir77  1  0.92986650  0.25220250  0.74779750  1
  Ir  Ir78  1  0.07013350  0.74779750  0.74779750  1
  Ir  Ir79  1  0.74779750  0.25220250  0.92986650  1
  Ir  Ir80  1  0.75220250  0.57013350  0.75220250  1
  Ir  Ir81  1  0.75000000  0.50000000  0.00000000  1
  Ir  Ir82  1  0.74779750  0.92986650  0.25220250  1
  Ir  Ir83  1  0.50000000  0.75000000  0.00000000  1
  Ir  Ir84  1  0.75220250  0.75220250  0.57013350  1
  Ir  Ir85  1  0.00000000  0.50000000  0.75000000  1
  Ir  Ir86  1  0.74779750  0.07013350  0.74779750  1
  Ir  Ir87  1  0.50000000  0.00000000  0.75000000  1
  Ir  Ir88  1  0.50000000  0.50000000  0.50000000  1
  Ir  Ir89  1  0.00000000  0.75000000  0.50000000  1
