# generated using pymatgen
data_Fe2(PO4)3
_symmetry_space_group_name_H-M   'P 1'
_cell_length_a   8.75717188
_cell_length_b   8.75717188
_cell_length_c   22.13843701
_cell_angle_alpha   90.00000000
_cell_angle_beta   90.00000000
_cell_angle_gamma   120.00000000
_symmetry_Int_Tables_number   1
_chemical_formula_structural   Fe2(PO4)3
_chemical_formula_sum   'Fe12 P18 O72'
_cell_volume   1470.29789533
_cell_formula_units_Z   6
loop_
 _symmetry_equiv_pos_site_id
 _symmetry_equiv_pos_as_xyz
  1  'x, y, z'
loop_
 _atom_site_type_symbol
 _atom_site_label
 _atom_site_symmetry_multiplicity
 _atom_site_fract_x
 _atom_site_fract_y
 _atom_site_fract_z
 _atom_site_occupancy
  Fe  Fe0  1  0.33333333  0.66666667  0.02456767  1
  Fe  Fe1  1  0.66666667  0.33333333  0.19123433  1
  Fe  Fe2  1  0.00000000  0.00000000  0.14209900  1
  Fe  Fe3  1  0.33333333  0.66666667  0.30876567  1
  Fe  Fe4  1  0.00000000  0.00000000  0.35790100  1
  Fe  Fe5  1  0.33333333  0.66666667  0.52456767  1
  Fe  Fe6  1  0.66666667  0.33333333  0.47543233  1
  Fe  Fe7  1  0.00000000  0.00000000  0.64209900  1
  Fe  Fe8  1  0.66666667  0.33333333  0.69123433  1
  Fe  Fe9  1  0.00000000  0.00000000  0.85790100  1
  Fe  Fe10  1  0.33333333  0.66666667  0.80876567  1
  Fe  Fe11  1  0.66666667  0.33333333  0.97543233  1
  P  P12  1  0.71610400  0.71610400  0.25000000  1
  P  P13  1  0.28389600  0.00000000  0.25000000  1
  P  P14  1  0.38277067  0.33333333  0.08333333  1
  P  P15  1  0.95056267  0.61722933  0.08333333  1
  P  P16  1  0.00000000  0.28389600  0.25000000  1
  P  P17  1  0.66666667  0.04943733  0.08333333  1
  P  P18  1  0.38277067  0.04943733  0.58333333  1
  P  P19  1  0.95056267  0.33333333  0.58333333  1
  P  P20  1  0.04943733  0.66666667  0.41666667  1
  P  P21  1  0.61722933  0.95056267  0.41666667  1
  P  P22  1  0.66666667  0.61722933  0.58333333  1
  P  P23  1  0.33333333  0.38277067  0.41666667  1
  P  P24  1  0.04943733  0.38277067  0.91666667  1
  P  P25  1  0.61722933  0.66666667  0.91666667  1
  P  P26  1  0.71610400  0.00000000  0.75000000  1
  P  P27  1  0.28389600  0.28389600  0.75000000  1
  P  P28  1  0.33333333  0.95056267  0.91666667  1
  P  P29  1  0.00000000  0.71610400  0.75000000  1
  O  O30  1  0.46695567  0.16496633  0.24307933  1
  O  O31  1  0.83659367  0.53335233  0.02685233  1
  O  O32  1  0.46664767  0.30324133  0.02685233  1
  O  O33  1  0.69675867  0.16340633  0.02685233  1
  O  O34  1  0.83007300  0.79998100  0.30648100  1
  O  O35  1  0.20001900  0.03009200  0.30648100  1
  O  O36  1  0.96990800  0.16992700  0.30648100  1
  O  O37  1  0.83503367  0.30198933  0.24307933  1
  O  O38  1  0.03009200  0.20001900  0.19351900  1
  O  O39  1  0.16496633  0.46695567  0.25692067  1
  O  O40  1  0.69801067  0.53304433  0.24307933  1
  O  O41  1  0.53304433  0.69801067  0.25692067  1
  O  O42  1  0.49673967  0.36342533  0.13981433  1
  O  O43  1  0.30198933  0.83503367  0.25692067  1
  O  O44  1  0.63657467  0.13331433  0.13981433  1
  O  O45  1  0.86668567  0.50326033  0.13981433  1
  O  O46  1  0.79998100  0.83007300  0.19351900  1
  O  O47  1  0.83163300  0.03134400  0.09025400  1
  O  O48  1  0.36467733  0.49829967  0.07641267  1
  O  O49  1  0.16992700  0.96990800  0.19351900  1
  O  O50  1  0.13362233  0.63532267  0.07641267  1
  O  O51  1  0.96865600  0.80028900  0.09025400  1
  O  O52  1  0.50170033  0.86637767  0.07641267  1
  O  O53  1  0.19971100  0.16836700  0.09025400  1
  O  O54  1  0.13362233  0.49829967  0.57641267  1
  O  O55  1  0.50326033  0.86668567  0.36018567  1
  O  O56  1  0.13331433  0.63657467  0.36018567  1
  O  O57  1  0.36342533  0.49673967  0.36018567  1
  O  O58  1  0.49673967  0.13331433  0.63981433  1
  O  O59  1  0.86668567  0.36342533  0.63981433  1
  O  O60  1  0.63657467  0.50326033  0.63981433  1
  O  O61  1  0.50170033  0.63532267  0.57641267  1
  O  O62  1  0.69675867  0.53335233  0.52685233  1
  O  O63  1  0.83163300  0.80028900  0.59025400  1
  O  O64  1  0.36467733  0.86637767  0.57641267  1
  O  O65  1  0.19971100  0.03134400  0.59025400  1
  O  O66  1  0.16340633  0.69675867  0.47314767  1
  O  O67  1  0.96865600  0.16836700  0.59025400  1
  O  O68  1  0.30324133  0.46664767  0.47314767  1
  O  O69  1  0.53335233  0.83659367  0.47314767  1
  O  O70  1  0.46664767  0.16340633  0.52685233  1
  O  O71  1  0.49829967  0.36467733  0.42358733  1
  O  O72  1  0.03134400  0.83163300  0.40974600  1
  O  O73  1  0.83659367  0.30324133  0.52685233  1
  O  O74  1  0.80028900  0.96865600  0.40974600  1
  O  O75  1  0.63532267  0.13362233  0.42358733  1
  O  O76  1  0.16836700  0.19971100  0.40974600  1
  O  O77  1  0.86637767  0.50170033  0.42358733  1
  O  O78  1  0.80028900  0.83163300  0.90974600  1
  O  O79  1  0.16992700  0.20001900  0.69351900  1
  O  O80  1  0.79998100  0.96990800  0.69351900  1
  O  O81  1  0.03009200  0.83007300  0.69351900  1
  O  O82  1  0.16340633  0.46664767  0.97314767  1
  O  O83  1  0.53335233  0.69675867  0.97314767  1
  O  O84  1  0.30324133  0.83659367  0.97314767  1
  O  O85  1  0.16836700  0.96865600  0.90974600  1
  O  O86  1  0.36342533  0.86668567  0.86018567  1
  O  O87  1  0.49829967  0.13362233  0.92358733  1
  O  O88  1  0.03134400  0.19971100  0.90974600  1
  O  O89  1  0.86637767  0.36467733  0.92358733  1
  O  O90  1  0.83007300  0.03009200  0.80648100  1
  O  O91  1  0.63532267  0.50170033  0.92358733  1
  O  O92  1  0.96990800  0.79998100  0.80648100  1
  O  O93  1  0.20001900  0.16992700  0.80648100  1
  O  O94  1  0.13331433  0.49673967  0.86018567  1
  O  O95  1  0.16496633  0.69801067  0.75692067  1
  O  O96  1  0.69801067  0.16496633  0.74307933  1
  O  O97  1  0.50326033  0.63657467  0.86018567  1
  O  O98  1  0.46695567  0.30198933  0.74307933  1
  O  O99  1  0.30198933  0.46695567  0.75692067  1
  O  O100  1  0.83503367  0.53304433  0.74307933  1
  O  O101  1  0.53304433  0.83503367  0.75692067  1
