# generated using pymatgen
data_Zn4Cu5(TeO6)3
_symmetry_space_group_name_H-M   'P 1'
_cell_length_a   15.07543600
_cell_length_b   8.89963000
_cell_length_c   10.52292373
_cell_angle_alpha   90.00000000
_cell_angle_beta   96.24920128
_cell_angle_gamma   90.00000000
_symmetry_Int_Tables_number   1
_chemical_formula_structural   Zn4Cu5(TeO6)3
_chemical_formula_sum   'Zn16 Cu20 Te12 O72'
_cell_volume   1403.42728952
_cell_formula_units_Z   4
loop_
 _symmetry_equiv_pos_site_id
 _symmetry_equiv_pos_as_xyz
  1  'x, y, z'
loop_
 _atom_site_type_symbol
 _atom_site_label
 _atom_site_symmetry_multiplicity
 _atom_site_fract_x
 _atom_site_fract_y
 _atom_site_fract_z
 _atom_site_occupancy
  Zn  Zn0  1  0.79795250  0.86262850  0.08164400  1
  Zn  Zn1  1  0.48058000  0.15739800  0.96140400  1
  Zn  Zn2  1  0.20204750  0.86262850  0.41835600  1
  Zn  Zn3  1  0.51942000  0.15739800  0.53859600  1
  Zn  Zn4  1  0.48058000  0.84260200  0.46140400  1
  Zn  Zn5  1  0.79795250  0.13737150  0.58164400  1
  Zn  Zn6  1  0.20204750  0.13737150  0.91835600  1
  Zn  Zn7  1  0.51942000  0.84260200  0.03859600  1
  Zn  Zn8  1  0.29795250  0.36262850  0.08164400  1
  Zn  Zn9  1  0.98058000  0.65739800  0.96140400  1
  Zn  Zn10  1  0.70204750  0.36262850  0.41835600  1
  Zn  Zn11  1  0.01942000  0.65739800  0.53859600  1
  Zn  Zn12  1  0.98058000  0.34260200  0.46140400  1
  Zn  Zn13  1  0.29795250  0.63737150  0.58164400  1
  Zn  Zn14  1  0.70204750  0.63737150  0.91835600  1
  Zn  Zn15  1  0.01942000  0.34260200  0.03859600  1
  Cu  Cu16  1  0.34976850  0.33601050  0.73580400  1
  Cu  Cu17  1  0.34976850  0.66398950  0.23580400  1
  Cu  Cu18  1  0.66345850  0.19310050  0.05309300  1
  Cu  Cu19  1  0.66345850  0.80689950  0.55309300  1
  Cu  Cu20  1  0.33654150  0.19310050  0.44690700  1
  Cu  Cu21  1  0.50000000  0.66959700  0.75000000  1
  Cu  Cu22  1  0.50000000  0.33040300  0.25000000  1
  Cu  Cu23  1  0.33654150  0.80689950  0.94690700  1
  Cu  Cu24  1  0.65023150  0.66398950  0.26419600  1
  Cu  Cu25  1  0.65023150  0.33601050  0.76419600  1
  Cu  Cu26  1  0.84976850  0.83601050  0.73580400  1
  Cu  Cu27  1  0.84976850  0.16398950  0.23580400  1
  Cu  Cu28  1  0.16345850  0.69310050  0.05309300  1
  Cu  Cu29  1  0.16345850  0.30689950  0.55309300  1
  Cu  Cu30  1  0.83654150  0.69310050  0.44690700  1
  Cu  Cu31  1  0.00000000  0.16959700  0.75000000  1
  Cu  Cu32  1  0.00000000  0.83040300  0.25000000  1
  Cu  Cu33  1  0.83654150  0.30689950  0.94690700  1
  Cu  Cu34  1  0.15023150  0.16398950  0.26419600  1
  Cu  Cu35  1  0.15023150  0.83601050  0.76419600  1
  Te  Te36  1  0.34202300  0.99209800  0.69828500  1
  Te  Te37  1  0.00000000  0.00000000  0.00000000  1
  Te  Te38  1  0.00000000  0.00000000  0.50000000  1
  Te  Te39  1  0.34202300  0.00790200  0.19828500  1
  Te  Te40  1  0.65797700  0.00790200  0.30171500  1
  Te  Te41  1  0.65797700  0.99209800  0.80171500  1
  Te  Te42  1  0.84202300  0.49209800  0.69828500  1
  Te  Te43  1  0.50000000  0.50000000  0.00000000  1
  Te  Te44  1  0.50000000  0.50000000  0.50000000  1
  Te  Te45  1  0.84202300  0.50790200  0.19828500  1
  Te  Te46  1  0.15797700  0.50790200  0.30171500  1
  Te  Te47  1  0.15797700  0.49209800  0.80171500  1
  O  O48  1  0.26193850  0.85193350  0.59898900  1
  O  O49  1  0.42836600  0.32853300  0.55075100  1
  O  O50  1  0.40207000  0.16989600  0.29884600  1
  O  O51  1  0.07289550  0.00706350  0.16549600  1
  O  O52  1  0.57163400  0.32853300  0.94924900  1
  O  O53  1  0.92710450  0.00706350  0.33450400  1
  O  O54  1  0.42452300  0.00406400  0.06865500  1
  O  O55  1  0.42787100  0.65568800  0.57549800  1
  O  O56  1  0.57212900  0.34431200  0.42450200  1
  O  O57  1  0.74871050  0.02805250  0.17084000  1
  O  O58  1  0.40242250  0.15195550  0.80186900  1
  O  O59  1  0.25128950  0.97194750  0.82916000  1
  O  O60  1  0.57163400  0.67146700  0.44924900  1
  O  O61  1  0.28273700  0.17111200  0.61246100  1
  O  O62  1  0.59757750  0.15195550  0.69813100  1
  O  O63  1  0.57547700  0.99593600  0.93134500  1
  O  O64  1  0.59757750  0.84804450  0.19813100  1
  O  O65  1  0.71726300  0.17111200  0.88753900  1
  O  O66  1  0.59793000  0.16989600  0.20115400  1
  O  O67  1  0.40242250  0.84804450  0.30186900  1
  O  O68  1  0.26193850  0.14806650  0.09898900  1
  O  O69  1  0.71726300  0.82888800  0.38753900  1
  O  O70  1  0.57212900  0.65568800  0.92450200  1
  O  O71  1  0.42452300  0.99593600  0.56865500  1
  O  O72  1  0.59793000  0.83010400  0.70115400  1
  O  O73  1  0.07289550  0.99293650  0.66549600  1
  O  O74  1  0.74871050  0.97194750  0.67084000  1
  O  O75  1  0.57547700  0.00406400  0.43134500  1
  O  O76  1  0.42836600  0.67146700  0.05075100  1
  O  O77  1  0.28273700  0.82888800  0.11246100  1
  O  O78  1  0.73806150  0.14806650  0.40101100  1
  O  O79  1  0.92710450  0.99293650  0.83450400  1
  O  O80  1  0.42787100  0.34431200  0.07549800  1
  O  O81  1  0.25128950  0.02805250  0.32916000  1
  O  O82  1  0.40207000  0.83010400  0.79884600  1
  O  O83  1  0.73806150  0.85193350  0.90101100  1
  O  O84  1  0.76193850  0.35193350  0.59898900  1
  O  O85  1  0.92836600  0.82853300  0.55075100  1
  O  O86  1  0.90207000  0.66989600  0.29884600  1
  O  O87  1  0.57289550  0.50706350  0.16549600  1
  O  O88  1  0.07163400  0.82853300  0.94924900  1
  O  O89  1  0.42710450  0.50706350  0.33450400  1
  O  O90  1  0.92452300  0.50406400  0.06865500  1
  O  O91  1  0.92787100  0.15568800  0.57549800  1
  O  O92  1  0.07212900  0.84431200  0.42450200  1
  O  O93  1  0.24871050  0.52805250  0.17084000  1
  O  O94  1  0.90242250  0.65195550  0.80186900  1
  O  O95  1  0.75128950  0.47194750  0.82916000  1
  O  O96  1  0.07163400  0.17146700  0.44924900  1
  O  O97  1  0.78273700  0.67111200  0.61246100  1
  O  O98  1  0.09757750  0.65195550  0.69813100  1
  O  O99  1  0.07547700  0.49593600  0.93134500  1
  O  O100  1  0.09757750  0.34804450  0.19813100  1
  O  O101  1  0.21726300  0.67111200  0.88753900  1
  O  O102  1  0.09793000  0.66989600  0.20115400  1
  O  O103  1  0.90242250  0.34804450  0.30186900  1
  O  O104  1  0.76193850  0.64806650  0.09898900  1
  O  O105  1  0.21726300  0.32888800  0.38753900  1
  O  O106  1  0.07212900  0.15568800  0.92450200  1
  O  O107  1  0.92452300  0.49593600  0.56865500  1
  O  O108  1  0.09793000  0.33010400  0.70115400  1
  O  O109  1  0.57289550  0.49293650  0.66549600  1
  O  O110  1  0.24871050  0.47194750  0.67084000  1
  O  O111  1  0.07547700  0.50406400  0.43134500  1
  O  O112  1  0.92836600  0.17146700  0.05075100  1
  O  O113  1  0.78273700  0.32888800  0.11246100  1
  O  O114  1  0.23806150  0.64806650  0.40101100  1
  O  O115  1  0.42710450  0.49293650  0.83450400  1
  O  O116  1  0.92787100  0.84431200  0.07549800  1
  O  O117  1  0.75128950  0.52805250  0.32916000  1
  O  O118  1  0.90207000  0.33010400  0.79884600  1
  O  O119  1  0.23806150  0.35193350  0.90101100  1
