# generated using pymatgen
data_NiPO4
_symmetry_space_group_name_H-M   'P 1'
_cell_length_a   14.05655591
_cell_length_b   14.05655591
_cell_length_c   9.11298605
_cell_angle_alpha   90.00000000
_cell_angle_beta   90.00000000
_cell_angle_gamma   120.00000000
_symmetry_Int_Tables_number   1
_chemical_formula_structural   NiPO4
_chemical_formula_sum   'Ni18 P18 O72'
_cell_volume   1559.37003902
_cell_formula_units_Z   18
loop_
 _symmetry_equiv_pos_site_id
 _symmetry_equiv_pos_as_xyz
  1  'x, y, z'
loop_
 _atom_site_type_symbol
 _atom_site_label
 _atom_site_symmetry_multiplicity
 _atom_site_fract_x
 _atom_site_fract_y
 _atom_site_fract_z
 _atom_site_occupancy
  Ni  Ni0  1  0.79758867  0.80164833  0.24874733  1
  Ni  Ni1  1  0.78426833  0.97902567  0.74952567  1
  Ni  Ni2  1  0.00405967  0.20241133  0.24874733  1
  Ni  Ni3  1  0.02097433  0.80524267  0.74952567  1
  Ni  Ni4  1  0.19835167  0.99594033  0.24874733  1
  Ni  Ni5  1  0.19475733  0.21573167  0.74952567  1
  Ni  Ni6  1  0.46425533  0.13498167  0.58208067  1
  Ni  Ni7  1  0.45093500  0.31235900  0.08285900  1
  Ni  Ni8  1  0.67072633  0.53574467  0.58208067  1
  Ni  Ni9  1  0.68764100  0.13857600  0.08285900  1
  Ni  Ni10  1  0.86501833  0.32927367  0.58208067  1
  Ni  Ni11  1  0.86142400  0.54906500  0.08285900  1
  Ni  Ni12  1  0.13092200  0.46831500  0.91541400  1
  Ni  Ni13  1  0.11760167  0.64569233  0.41619233  1
  Ni  Ni14  1  0.33739300  0.86907800  0.91541400  1
  Ni  Ni15  1  0.35430767  0.47190933  0.41619233  1
  Ni  Ni16  1  0.53168500  0.66260700  0.91541400  1
  Ni  Ni17  1  0.52809067  0.88239833  0.41619233  1
  P  P18  1  0.66232800  0.13211800  0.41834800  1
  P  P19  1  0.80785833  0.78742967  0.58322367  1
  P  P20  1  0.86788200  0.53021000  0.41834800  1
  P  P21  1  0.97957133  0.19214167  0.58322367  1
  P  P22  1  0.21257033  0.02042867  0.58322367  1
  P  P23  1  0.46979000  0.33767200  0.41834800  1
  P  P24  1  0.32899467  0.46545133  0.75168133  1
  P  P25  1  0.47452500  0.12076300  0.91655700  1
  P  P26  1  0.53454867  0.86354333  0.75168133  1
  P  P27  1  0.64623800  0.52547500  0.91655700  1
  P  P28  1  0.87923700  0.35376200  0.91655700  1
  P  P29  1  0.13645667  0.67100533  0.75168133  1
  P  P30  1  0.99566133  0.79878467  0.08501467  1
  P  P31  1  0.14119167  0.45409633  0.24989033  1
  P  P32  1  0.20121533  0.19687667  0.08501467  1
  P  P33  1  0.31290467  0.85880833  0.24989033  1
  P  P34  1  0.54590367  0.68709533  0.24989033  1
  P  P35  1  0.80312333  0.00433867  0.08501467  1
  O  O36  1  0.47243133  0.85376567  0.60624367  1
  O  O37  1  0.88674167  0.43192433  0.43847633  1
  O  O38  1  0.65551167  0.01789833  0.41226433  1
  O  O39  1  0.79774433  0.93101467  0.21443567  1
  O  O40  1  0.69538567  0.67805133  0.58545733  1
  O  O41  1  0.78613167  0.88238033  0.61331133  1
  O  O42  1  0.86107067  0.80463633  0.42853933  1
  O  O43  1  0.94356567  0.13892933  0.42853933  1
  O  O44  1  0.88365133  0.78196067  0.70066567  1
  O  O45  1  0.98210167  0.63761333  0.41226433  1
  O  O46  1  0.89830933  0.11634867  0.70066567  1
  O  O47  1  0.06898533  0.86672967  0.21443567  1
  O  O48  1  0.98266567  0.30461433  0.58545733  1
  O  O49  1  0.13327033  0.20225567  0.21443567  1
  O  O50  1  0.09624867  0.21386833  0.61331133  1
  O  O51  1  0.11761967  0.90375133  0.61331133  1
  O  O52  1  0.14623433  0.61866567  0.60624367  1
  O  O53  1  0.19536367  0.05643433  0.42853933  1
  O  O54  1  0.21803933  0.10169067  0.70066567  1
  O  O55  1  0.54518267  0.11325833  0.43847633  1
  O  O56  1  0.56807567  0.45481733  0.43847633  1
  O  O57  1  0.36238667  0.34448833  0.41226433  1
  O  O58  1  0.32194867  0.01733433  0.58545733  1
  O  O59  1  0.38133433  0.52756867  0.60624367  1
  O  O60  1  0.13909800  0.18709900  0.93957700  1
  O  O61  1  0.55340833  0.76525767  0.77180967  1
  O  O62  1  0.32217833  0.35123167  0.74559767  1
  O  O63  1  0.46441100  0.26434800  0.54776900  1
  O  O64  1  0.36205233  0.01138467  0.91879067  1
  O  O65  1  0.45279833  0.21571367  0.94664467  1
  O  O66  1  0.52773733  0.13796967  0.76187267  1
  O  O67  1  0.61023233  0.47226267  0.76187267  1
  O  O68  1  0.55031800  0.11529400  0.03399900  1
  O  O69  1  0.64876833  0.97094667  0.74559767  1
  O  O70  1  0.56497600  0.44968200  0.03399900  1
  O  O71  1  0.73565200  0.20006300  0.54776900  1
  O  O72  1  0.64933233  0.63794767  0.91879067  1
  O  O73  1  0.79993700  0.53558900  0.54776900  1
  O  O74  1  0.76291533  0.54720167  0.94664467  1
  O  O75  1  0.78428633  0.23708467  0.94664467  1
  O  O76  1  0.81290100  0.95199900  0.93957700  1
  O  O77  1  0.86203033  0.38976767  0.76187267  1
  O  O78  1  0.88470600  0.43502400  0.03399900  1
  O  O79  1  0.21184933  0.44659167  0.77180967  1
  O  O80  1  0.23474233  0.78815067  0.77180967  1
  O  O81  1  0.02905333  0.67782167  0.74559767  1
  O  O82  1  0.98861533  0.35066767  0.91879067  1
  O  O83  1  0.04800100  0.86090200  0.93957700  1
  O  O84  1  0.80576467  0.52043233  0.27291033  1
  O  O85  1  0.22007500  0.09859100  0.10514300  1
  O  O86  1  0.98884500  0.68456500  0.07893100  1
  O  O87  1  0.13107767  0.59768133  0.88110233  1
  O  O88  1  0.02871900  0.34471800  0.25212400  1
  O  O89  1  0.11946500  0.54904700  0.27997800  1
  O  O90  1  0.19440400  0.47130300  0.09520600  1
  O  O91  1  0.27689900  0.80559600  0.09520600  1
  O  O92  1  0.21698467  0.44862733  0.36733233  1
  O  O93  1  0.31543500  0.30428000  0.07893100  1
  O  O94  1  0.23164267  0.78301533  0.36733233  1
  O  O95  1  0.40231867  0.53339633  0.88110233  1
  O  O96  1  0.31599900  0.97128100  0.25212400  1
  O  O97  1  0.46660367  0.86892233  0.88110233  1
  O  O98  1  0.42958200  0.88053500  0.27997800  1
  O  O99  1  0.45095300  0.57041800  0.27997800  1
  O  O100  1  0.47956767  0.28533233  0.27291033  1
  O  O101  1  0.52869700  0.72310100  0.09520600  1
  O  O102  1  0.55137267  0.76835733  0.36733233  1
  O  O103  1  0.87851600  0.77992500  0.10514300  1
  O  O104  1  0.90140900  0.12148400  0.10514300  1
  O  O105  1  0.69572000  0.01115500  0.07893100  1
  O  O106  1  0.65528200  0.68400100  0.25212400  1
  O  O107  1  0.71466767  0.19423533  0.27291033  1
