# generated using pymatgen
data_SrMnO3
_symmetry_space_group_name_H-M   'P 1'
_cell_length_a   5.55125600
_cell_length_b   9.57293800
_cell_length_c   9.28911500
_cell_angle_alpha   90.00000000
_cell_angle_beta   90.00000000
_cell_angle_gamma   90.00000000
_symmetry_Int_Tables_number   1
_chemical_formula_structural   SrMnO3
_chemical_formula_sum   'Sr8 Mn8 O24'
_cell_volume   493.64056563
_cell_formula_units_Z   8
loop_
 _symmetry_equiv_pos_site_id
 _symmetry_equiv_pos_as_xyz
  1  'x, y, z'
loop_
 _atom_site_type_symbol
 _atom_site_label
 _atom_site_symmetry_multiplicity
 _atom_site_fract_x
 _atom_site_fract_y
 _atom_site_fract_z
 _atom_site_occupancy
  Sr  Sr0  1  0.50000000  0.83864800  0.25000000  1
  Sr  Sr1  1  0.01992100  0.00000000  0.00000000  1
  Sr  Sr2  1  0.50000000  0.16135200  0.75000000  1
  Sr  Sr3  1  0.98007900  0.00000000  0.50000000  1
  Sr  Sr4  1  0.00000000  0.33864800  0.25000000  1
  Sr  Sr5  1  0.51992100  0.50000000  0.00000000  1
  Sr  Sr6  1  0.00000000  0.66135200  0.75000000  1
  Sr  Sr7  1  0.48007900  0.50000000  0.50000000  1
  Mn  Mn8  1  0.51846950  0.83236650  0.88784200  1
  Mn  Mn9  1  0.48153050  0.83236650  0.61215800  1
  Mn  Mn10  1  0.48153050  0.16763350  0.38784200  1
  Mn  Mn11  1  0.51846950  0.16763350  0.11215800  1
  Mn  Mn12  1  0.01846950  0.33236650  0.88784200  1
  Mn  Mn13  1  0.98153050  0.33236650  0.61215800  1
  Mn  Mn14  1  0.98153050  0.66763350  0.38784200  1
  Mn  Mn15  1  0.01846950  0.66763350  0.11215800  1
  O  O16  1  0.72612600  0.09150200  0.26733000  1
  O  O17  1  0.50000000  0.67992600  0.75000000  1
  O  O18  1  0.27387400  0.09150200  0.23267000  1
  O  O19  1  0.50000000  0.32007400  0.25000000  1
  O  O20  1  0.27387400  0.90849800  0.76733000  1
  O  O21  1  0.69704800  0.74915200  0.47867100  1
  O  O22  1  0.30295200  0.25084800  0.97867100  1
  O  O23  1  0.44584900  0.00000000  0.50000000  1
  O  O24  1  0.55415100  0.00000000  0.00000000  1
  O  O25  1  0.72612600  0.90849800  0.73267000  1
  O  O26  1  0.69704800  0.25084800  0.52132900  1
  O  O27  1  0.30295200  0.74915200  0.02132900  1
  O  O28  1  0.22612600  0.59150200  0.26733000  1
  O  O29  1  0.00000000  0.17992600  0.75000000  1
  O  O30  1  0.77387400  0.59150200  0.23267000  1
  O  O31  1  0.00000000  0.82007400  0.25000000  1
  O  O32  1  0.77387400  0.40849800  0.76733000  1
  O  O33  1  0.19704800  0.24915200  0.47867100  1
  O  O34  1  0.80295200  0.75084800  0.97867100  1
  O  O35  1  0.94584900  0.50000000  0.50000000  1
  O  O36  1  0.05415100  0.50000000  0.00000000  1
  O  O37  1  0.22612600  0.40849800  0.73267000  1
  O  O38  1  0.19704800  0.75084800  0.52132900  1
  O  O39  1  0.80295200  0.24915200  0.02132900  1
