# generated using pymatgen
data_Ho4InRh
_symmetry_space_group_name_H-M   'P 1'
_cell_length_a   13.60253200
_cell_length_b   13.60253200
_cell_length_c   13.60253200
_cell_angle_alpha   90.00000000
_cell_angle_beta   90.00000000
_cell_angle_gamma   90.00000000
_symmetry_Int_Tables_number   1
_chemical_formula_structural   Ho4InRh
_chemical_formula_sum   'Ho64 In16 Rh16'
_cell_volume   2516.86121775
_cell_formula_units_Z   16
loop_
 _symmetry_equiv_pos_site_id
 _symmetry_equiv_pos_as_xyz
  1  'x, y, z'
loop_
 _atom_site_type_symbol
 _atom_site_label
 _atom_site_symmetry_multiplicity
 _atom_site_fract_x
 _atom_site_fract_y
 _atom_site_fract_z
 _atom_site_occupancy
  Ho  Ho0  1  0.00000000  0.31210425  0.50000000  1
  Ho  Ho1  1  0.40043792  0.40043792  0.40043792  1
  Ho  Ho2  1  0.75000000  0.25000000  0.43942975  1
  Ho  Ho3  1  0.75000000  0.06057025  0.25000000  1
  Ho  Ho4  1  0.00000000  0.00000000  0.81210425  1
  Ho  Ho5  1  0.00000000  0.00000000  0.18789575  1
  Ho  Ho6  1  0.56057025  0.25000000  0.25000000  1
  Ho  Ho7  1  0.31210425  0.00000000  0.50000000  1
  Ho  Ho8  1  0.75000000  0.25000000  0.06057025  1
  Ho  Ho9  1  0.50000000  0.18789575  0.50000000  1
  Ho  Ho10  1  0.09956208  0.09956208  0.40043792  1
  Ho  Ho11  1  0.93942975  0.25000000  0.25000000  1
  Ho  Ho12  1  0.75000000  0.43942975  0.25000000  1
  Ho  Ho13  1  0.68789575  0.00000000  0.50000000  1
  Ho  Ho14  1  0.90043792  0.09956208  0.59956208  1
  Ho  Ho15  1  0.59956208  0.40043792  0.59956208  1
  Ho  Ho16  1  0.00000000  0.81210425  0.00000000  1
  Ho  Ho17  1  0.40043792  0.90043792  0.90043792  1
  Ho  Ho18  1  0.75000000  0.75000000  0.93942975  1
  Ho  Ho19  1  0.75000000  0.56057025  0.75000000  1
  Ho  Ho20  1  0.00000000  0.50000000  0.31210425  1
  Ho  Ho21  1  0.00000000  0.50000000  0.68789575  1
  Ho  Ho22  1  0.56057025  0.75000000  0.75000000  1
  Ho  Ho23  1  0.31210425  0.50000000  0.00000000  1
  Ho  Ho24  1  0.75000000  0.75000000  0.56057025  1
  Ho  Ho25  1  0.50000000  0.68789575  0.00000000  1
  Ho  Ho26  1  0.09956208  0.59956208  0.90043792  1
  Ho  Ho27  1  0.93942975  0.75000000  0.75000000  1
  Ho  Ho28  1  0.75000000  0.93942975  0.75000000  1
  Ho  Ho29  1  0.68789575  0.50000000  0.00000000  1
  Ho  Ho30  1  0.90043792  0.59956208  0.09956208  1
  Ho  Ho31  1  0.59956208  0.90043792  0.09956208  1
  Ho  Ho32  1  0.50000000  0.31210425  0.00000000  1
  Ho  Ho33  1  0.90043792  0.40043792  0.90043792  1
  Ho  Ho34  1  0.25000000  0.25000000  0.93942975  1
  Ho  Ho35  1  0.25000000  0.06057025  0.75000000  1
  Ho  Ho36  1  0.50000000  0.00000000  0.31210425  1
  Ho  Ho37  1  0.50000000  0.00000000  0.68789575  1
  Ho  Ho38  1  0.06057025  0.25000000  0.75000000  1
  Ho  Ho39  1  0.81210425  0.00000000  0.00000000  1
  Ho  Ho40  1  0.25000000  0.25000000  0.56057025  1
  Ho  Ho41  1  0.00000000  0.18789575  0.00000000  1
  Ho  Ho42  1  0.59956208  0.09956208  0.90043792  1
  Ho  Ho43  1  0.43942975  0.25000000  0.75000000  1
  Ho  Ho44  1  0.25000000  0.43942975  0.75000000  1
  Ho  Ho45  1  0.18789575  0.00000000  0.00000000  1
  Ho  Ho46  1  0.40043792  0.09956208  0.09956208  1
  Ho  Ho47  1  0.09956208  0.40043792  0.09956208  1
  Ho  Ho48  1  0.50000000  0.81210425  0.50000000  1
  Ho  Ho49  1  0.90043792  0.90043792  0.40043792  1
  Ho  Ho50  1  0.25000000  0.75000000  0.43942975  1
  Ho  Ho51  1  0.25000000  0.56057025  0.25000000  1
  Ho  Ho52  1  0.50000000  0.50000000  0.81210425  1
  Ho  Ho53  1  0.50000000  0.50000000  0.18789575  1
  Ho  Ho54  1  0.06057025  0.75000000  0.25000000  1
  Ho  Ho55  1  0.81210425  0.50000000  0.50000000  1
  Ho  Ho56  1  0.25000000  0.75000000  0.06057025  1
  Ho  Ho57  1  0.00000000  0.68789575  0.50000000  1
  Ho  Ho58  1  0.59956208  0.59956208  0.40043792  1
  Ho  Ho59  1  0.43942975  0.75000000  0.25000000  1
  Ho  Ho60  1  0.25000000  0.93942975  0.25000000  1
  Ho  Ho61  1  0.18789575  0.50000000  0.50000000  1
  Ho  Ho62  1  0.40043792  0.59956208  0.59956208  1
  Ho  Ho63  1  0.09956208  0.90043792  0.59956208  1
  In  In64  1  0.83275375  0.16724625  0.83275375  1
  In  In65  1  0.66724625  0.16724625  0.66724625  1
  In  In66  1  0.83275375  0.33275375  0.66724625  1
  In  In67  1  0.66724625  0.33275375  0.83275375  1
  In  In68  1  0.83275375  0.66724625  0.33275375  1
  In  In69  1  0.66724625  0.66724625  0.16724625  1
  In  In70  1  0.83275375  0.83275375  0.16724625  1
  In  In71  1  0.66724625  0.83275375  0.33275375  1
  In  In72  1  0.33275375  0.16724625  0.33275375  1
  In  In73  1  0.16724625  0.16724625  0.16724625  1
  In  In74  1  0.33275375  0.33275375  0.16724625  1
  In  In75  1  0.16724625  0.33275375  0.33275375  1
  In  In76  1  0.33275375  0.66724625  0.83275375  1
  In  In77  1  0.16724625  0.66724625  0.66724625  1
  In  In78  1  0.33275375  0.83275375  0.66724625  1
  In  In79  1  0.16724625  0.83275375  0.83275375  1
  Rh  Rh80  1  0.60771592  0.39228408  0.39228408  1
  Rh  Rh81  1  0.89228408  0.10771592  0.39228408  1
  Rh  Rh82  1  0.39228408  0.39228408  0.60771592  1
  Rh  Rh83  1  0.10771592  0.10771592  0.60771592  1
  Rh  Rh84  1  0.60771592  0.89228408  0.89228408  1
  Rh  Rh85  1  0.89228408  0.60771592  0.89228408  1
  Rh  Rh86  1  0.39228408  0.89228408  0.10771592  1
  Rh  Rh87  1  0.10771592  0.60771592  0.10771592  1
  Rh  Rh88  1  0.10771592  0.39228408  0.89228408  1
  Rh  Rh89  1  0.39228408  0.10771592  0.89228408  1
  Rh  Rh90  1  0.89228408  0.39228408  0.10771592  1
  Rh  Rh91  1  0.60771592  0.10771592  0.10771592  1
  Rh  Rh92  1  0.10771592  0.89228408  0.39228408  1
  Rh  Rh93  1  0.39228408  0.60771592  0.39228408  1
  Rh  Rh94  1  0.89228408  0.89228408  0.60771592  1
  Rh  Rh95  1  0.60771592  0.60771592  0.60771592  1
