# generated using pymatgen
data_Fe2SiO4
_symmetry_space_group_name_H-M   'P 1'
_cell_length_a   4.88187461
_cell_length_b   6.17174339
_cell_length_c   10.59971801
_cell_angle_alpha   90.00000000
_cell_angle_beta   90.00000000
_cell_angle_gamma   90.00000000
_symmetry_Int_Tables_number   1
_chemical_formula_structural   Fe2SiO4
_chemical_formula_sum   'Fe8 Si4 O16'
_cell_volume   319.36608379
_cell_formula_units_Z   4
loop_
 _symmetry_equiv_pos_site_id
 _symmetry_equiv_pos_as_xyz
  1  'x, y, z'
loop_
 _atom_site_type_symbol
 _atom_site_label
 _atom_site_symmetry_multiplicity
 _atom_site_fract_x
 _atom_site_fract_y
 _atom_site_fract_z
 _atom_site_occupancy
  Fe  Fe0  1  0.48692350  0.75000000  0.72040950  1
  Fe  Fe1  1  0.51307650  0.25000000  0.27959050  1
  Fe  Fe2  1  0.50000000  0.00000000  0.00000000  1
  Fe  Fe3  1  0.50000000  0.50000000  0.00000000  1
  Fe  Fe4  1  0.98692350  0.25000000  0.77959050  1
  Fe  Fe5  1  0.01307650  0.75000000  0.22040950  1
  Fe  Fe6  1  0.00000000  0.00000000  0.50000000  1
  Fe  Fe7  1  0.00000000  0.50000000  0.50000000  1
  Si  Si8  1  0.42884650  0.25000000  0.59643650  1
  Si  Si9  1  0.92884650  0.75000000  0.90356350  1
  Si  Si10  1  0.57115350  0.75000000  0.40356350  1
  Si  Si11  1  0.07115350  0.25000000  0.09643650  1
  O  O12  1  0.28938850  0.25000000  0.45232550  1
  O  O13  1  0.78938850  0.75000000  0.04767450  1
  O  O14  1  0.71061150  0.75000000  0.54767450  1
  O  O15  1  0.21061150  0.25000000  0.95232550  1
  O  O16  1  0.73443650  0.25000000  0.09225550  1
  O  O17  1  0.23443650  0.75000000  0.40774450  1
  O  O18  1  0.26556350  0.75000000  0.90774450  1
  O  O19  1  0.76556350  0.25000000  0.59225550  1
  O  O20  1  0.71273250  0.96377600  0.33469150  1
  O  O21  1  0.21273250  0.03622400  0.16530850  1
  O  O22  1  0.28726750  0.46377600  0.66530850  1
  O  O23  1  0.78726750  0.53622400  0.83469150  1
  O  O24  1  0.28726750  0.03622400  0.66530850  1
  O  O25  1  0.78726750  0.96377600  0.83469150  1
  O  O26  1  0.71273250  0.53622400  0.33469150  1
  O  O27  1  0.21273250  0.46377600  0.16530850  1
