# generated using pymatgen
data_NaAl(MoO4)2
_symmetry_space_group_name_H-M   'P 1'
_cell_length_a   9.76620800
_cell_length_b   5.40896000
_cell_length_c   13.53109950
_cell_angle_alpha   90.00000000
_cell_angle_beta   90.20723087
_cell_angle_gamma   90.00000000
_symmetry_Int_Tables_number   1
_chemical_formula_structural   NaAl(MoO4)2
_chemical_formula_sum   'Na4 Al4 Mo8 O32'
_cell_volume   714.77604068
_cell_formula_units_Z   4
loop_
 _symmetry_equiv_pos_site_id
 _symmetry_equiv_pos_as_xyz
  1  'x, y, z'
loop_
 _atom_site_type_symbol
 _atom_site_label
 _atom_site_symmetry_multiplicity
 _atom_site_fract_x
 _atom_site_fract_y
 _atom_site_fract_z
 _atom_site_occupancy
  Na  Na0  1  0.00000000  0.92895200  0.75000000  1
  Na  Na1  1  0.00000000  0.07104800  0.25000000  1
  Na  Na2  1  0.50000000  0.42895200  0.75000000  1
  Na  Na3  1  0.50000000  0.57104800  0.25000000  1
  Al  Al4  1  0.00000000  0.00000000  0.50000000  1
  Al  Al5  1  0.00000000  0.00000000  0.00000000  1
  Al  Al6  1  0.50000000  0.50000000  0.50000000  1
  Al  Al7  1  0.50000000  0.50000000  0.00000000  1
  Mo  Mo8  1  0.66869450  0.97061150  0.87996700  1
  Mo  Mo9  1  0.83130550  0.52938850  0.12003300  1
  Mo  Mo10  1  0.66869450  0.02938850  0.37996700  1
  Mo  Mo11  1  0.83130550  0.47061150  0.62003300  1
  Mo  Mo12  1  0.16869450  0.47061150  0.87996700  1
  Mo  Mo13  1  0.33130550  0.02938850  0.12003300  1
  Mo  Mo14  1  0.16869450  0.52938850  0.37996700  1
  Mo  Mo15  1  0.33130550  0.97061150  0.62003300  1
  O  O16  1  0.66500450  0.06979050  0.75692600  1
  O  O17  1  0.58686750  0.20810950  0.95076700  1
  O  O18  1  0.58686750  0.79189050  0.45076700  1
  O  O19  1  0.65489200  0.43082300  0.58043700  1
  O  O20  1  0.91313250  0.29189050  0.04923300  1
  O  O21  1  0.92677650  0.18114850  0.60945100  1
  O  O22  1  0.66500450  0.93020950  0.25692600  1
  O  O23  1  0.92677650  0.81885150  0.10945100  1
  O  O24  1  0.83499550  0.56979050  0.74307400  1
  O  O25  1  0.65489200  0.56917700  0.08043700  1
  O  O26  1  0.83499550  0.43020950  0.24307400  1
  O  O27  1  0.84510800  0.06917700  0.41956300  1
  O  O28  1  0.91313250  0.70810950  0.54923300  1
  O  O29  1  0.57322350  0.68114850  0.89054900  1
  O  O30  1  0.57322350  0.31885150  0.39054900  1
  O  O31  1  0.84510800  0.93082300  0.91956300  1
  O  O32  1  0.16500450  0.56979050  0.75692600  1
  O  O33  1  0.08686750  0.70810950  0.95076700  1
  O  O34  1  0.08686750  0.29189050  0.45076700  1
  O  O35  1  0.15489200  0.93082300  0.58043700  1
  O  O36  1  0.41313250  0.79189050  0.04923300  1
  O  O37  1  0.42677650  0.68114850  0.60945100  1
  O  O38  1  0.16500450  0.43020950  0.25692600  1
  O  O39  1  0.42677650  0.31885150  0.10945100  1
  O  O40  1  0.33499550  0.06979050  0.74307400  1
  O  O41  1  0.15489200  0.06917700  0.08043700  1
  O  O42  1  0.33499550  0.93020950  0.24307400  1
  O  O43  1  0.34510800  0.56917700  0.41956300  1
  O  O44  1  0.41313250  0.20810950  0.54923300  1
  O  O45  1  0.07322350  0.18114850  0.89054900  1
  O  O46  1  0.07322350  0.81885150  0.39054900  1
  O  O47  1  0.34510800  0.43082300  0.91956300  1
