# generated using pymatgen
data_Ce2Fe17N3
_symmetry_space_group_name_H-M   'P 1'
_cell_length_a   8.67947838
_cell_length_b   8.67947838
_cell_length_c   12.55670638
_cell_angle_alpha   90.00000000
_cell_angle_beta   90.00000000
_cell_angle_gamma   120.00000000
_symmetry_Int_Tables_number   1
_chemical_formula_structural   Ce2Fe17N3
_chemical_formula_sum   'Ce6 Fe51 N9'
_cell_volume   819.20693792
_cell_formula_units_Z   3
loop_
 _symmetry_equiv_pos_site_id
 _symmetry_equiv_pos_as_xyz
  1  'x, y, z'
loop_
 _atom_site_type_symbol
 _atom_site_label
 _atom_site_symmetry_multiplicity
 _atom_site_fract_x
 _atom_site_fract_y
 _atom_site_fract_z
 _atom_site_occupancy
  Ce  Ce0  1  0.33333333  0.66666667  0.32364167  1
  Ce  Ce1  1  0.33333333  0.66666667  0.00969167  1
  Ce  Ce2  1  0.00000000  0.00000000  0.65697500  1
  Ce  Ce3  1  0.00000000  0.00000000  0.34302500  1
  Ce  Ce4  1  0.66666667  0.33333333  0.99030833  1
  Ce  Ce5  1  0.66666667  0.33333333  0.67635833  1
  Fe  Fe6  1  0.33333333  0.66666667  0.57173067  1
  Fe  Fe7  1  0.16666667  0.33333333  0.83333333  1
  Fe  Fe8  1  0.33333333  0.16666667  0.16666667  1
  Fe  Fe9  1  0.83333333  0.16666667  0.16666667  1
  Fe  Fe10  1  0.94803467  0.33333333  0.33333333  1
  Fe  Fe11  1  0.00000000  0.28136800  0.00000000  1
  Fe  Fe12  1  0.71863200  0.71863200  0.00000000  1
  Fe  Fe13  1  0.38529867  0.33333333  0.33333333  1
  Fe  Fe14  1  0.00000000  0.71863200  0.00000000  1
  Fe  Fe15  1  0.28136800  0.28136800  0.00000000  1
  Fe  Fe16  1  0.50507867  0.49492133  0.15278433  1
  Fe  Fe17  1  0.50507867  0.01015733  0.15278433  1
  Fe  Fe18  1  0.98984267  0.49492133  0.15278433  1
  Fe  Fe19  1  0.67682400  0.83841200  0.18054900  1
  Fe  Fe20  1  0.16158800  0.83841200  0.18054900  1
  Fe  Fe21  1  0.16158800  0.32317600  0.18054900  1
  Fe  Fe22  1  0.33333333  0.66666667  0.76160267  1
  Fe  Fe23  1  0.00000000  0.00000000  0.90506400  1
  Fe  Fe24  1  0.83333333  0.66666667  0.16666667  1
  Fe  Fe25  1  0.00000000  0.50000000  0.50000000  1
  Fe  Fe26  1  0.50000000  0.50000000  0.50000000  1
  Fe  Fe27  1  0.61470133  0.66666667  0.66666667  1
  Fe  Fe28  1  0.66666667  0.61470133  0.33333333  1
  Fe  Fe29  1  0.38529867  0.05196533  0.33333333  1
  Fe  Fe30  1  0.05196533  0.66666667  0.66666667  1
  Fe  Fe31  1  0.66666667  0.05196533  0.33333333  1
  Fe  Fe32  1  0.94803467  0.61470133  0.33333333  1
  Fe  Fe33  1  0.17174533  0.82825467  0.48611767  1
  Fe  Fe34  1  0.17174533  0.34349067  0.48611767  1
  Fe  Fe35  1  0.65650933  0.82825467  0.48611767  1
  Fe  Fe36  1  0.34349067  0.17174533  0.51388233  1
  Fe  Fe37  1  0.82825467  0.17174533  0.51388233  1
  Fe  Fe38  1  0.82825467  0.65650933  0.51388233  1
  Fe  Fe39  1  0.00000000  0.00000000  0.09493600  1
  Fe  Fe40  1  0.66666667  0.33333333  0.23839733  1
  Fe  Fe41  1  0.50000000  0.00000000  0.50000000  1
  Fe  Fe42  1  0.66666667  0.83333333  0.83333333  1
  Fe  Fe43  1  0.16666667  0.83333333  0.83333333  1
  Fe  Fe44  1  0.28136800  0.00000000  0.00000000  1
  Fe  Fe45  1  0.33333333  0.94803467  0.66666667  1
  Fe  Fe46  1  0.05196533  0.38529867  0.66666667  1
  Fe  Fe47  1  0.71863200  0.00000000  0.00000000  1
  Fe  Fe48  1  0.33333333  0.38529867  0.66666667  1
  Fe  Fe49  1  0.61470133  0.94803467  0.66666667  1
  Fe  Fe50  1  0.83841200  0.16158800  0.81945100  1
  Fe  Fe51  1  0.83841200  0.67682400  0.81945100  1
  Fe  Fe52  1  0.32317600  0.16158800  0.81945100  1
  Fe  Fe53  1  0.01015733  0.50507867  0.84721567  1
  Fe  Fe54  1  0.49492133  0.50507867  0.84721567  1
  Fe  Fe55  1  0.49492133  0.98984267  0.84721567  1
  Fe  Fe56  1  0.66666667  0.33333333  0.42826933  1
  N  N57  1  0.50000000  0.50000000  0.00000000  1
  N  N58  1  0.00000000  0.50000000  0.00000000  1
  N  N59  1  0.16666667  0.33333333  0.33333333  1
  N  N60  1  0.16666667  0.83333333  0.33333333  1
  N  N61  1  0.66666667  0.83333333  0.33333333  1
  N  N62  1  0.83333333  0.66666667  0.66666667  1
  N  N63  1  0.83333333  0.16666667  0.66666667  1
  N  N64  1  0.33333333  0.16666667  0.66666667  1
  N  N65  1  0.50000000  0.00000000  0.00000000  1
