# generated using pymatgen
data_V3ZnO8
_symmetry_space_group_name_H-M   'P 1'
_cell_length_a   8.61748000
_cell_length_b   9.98283400
_cell_length_c   14.53079200
_cell_angle_alpha   90.00000000
_cell_angle_beta   90.00000000
_cell_angle_gamma   90.00000000
_symmetry_Int_Tables_number   1
_chemical_formula_structural   V3ZnO8
_chemical_formula_sum   'V24 Zn8 O64'
_cell_volume   1250.03858836
_cell_formula_units_Z   8
loop_
 _symmetry_equiv_pos_site_id
 _symmetry_equiv_pos_as_xyz
  1  'x, y, z'
loop_
 _atom_site_type_symbol
 _atom_site_label
 _atom_site_symmetry_multiplicity
 _atom_site_fract_x
 _atom_site_fract_y
 _atom_site_fract_z
 _atom_site_occupancy
  V  V0  1  0.47814950  0.55800050  0.70181250  1
  V  V1  1  0.47814950  0.44199950  0.29818750  1
  V  V2  1  0.97814950  0.44199950  0.70181250  1
  V  V3  1  0.97814950  0.55800050  0.29818750  1
  V  V4  1  0.78925500  0.66122700  0.84878400  1
  V  V5  1  0.78925500  0.33877300  0.15121600  1
  V  V6  1  0.28925500  0.33877300  0.84878400  1
  V  V7  1  0.28925500  0.66122700  0.15121600  1
  V  V8  1  0.48428700  0.16713900  0.02190500  1
  V  V9  1  0.48428700  0.83286100  0.97809500  1
  V  V10  1  0.98428700  0.83286100  0.02190500  1
  V  V11  1  0.98428700  0.16713900  0.97809500  1
  V  V12  1  0.97814950  0.05800050  0.20181250  1
  V  V13  1  0.97814950  0.94199950  0.79818750  1
  V  V14  1  0.47814950  0.94199950  0.20181250  1
  V  V15  1  0.47814950  0.05800050  0.79818750  1
  V  V16  1  0.28925500  0.16122700  0.34878400  1
  V  V17  1  0.28925500  0.83877300  0.65121600  1
  V  V18  1  0.78925500  0.83877300  0.34878400  1
  V  V19  1  0.78925500  0.16122700  0.65121600  1
  V  V20  1  0.98428700  0.66713900  0.52190500  1
  V  V21  1  0.98428700  0.33286100  0.47809500  1
  V  V22  1  0.48428700  0.33286100  0.52190500  1
  V  V23  1  0.48428700  0.66713900  0.47809500  1
  Zn  Zn24  1  0.17344400  0.67123100  0.84530200  1
  Zn  Zn25  1  0.17344400  0.32876900  0.15469800  1
  Zn  Zn26  1  0.67344400  0.32876900  0.84530200  1
  Zn  Zn27  1  0.67344400  0.67123100  0.15469800  1
  Zn  Zn28  1  0.67344400  0.17123100  0.34530200  1
  Zn  Zn29  1  0.67344400  0.82876900  0.65469800  1
  Zn  Zn30  1  0.17344400  0.82876900  0.34530200  1
  Zn  Zn31  1  0.17344400  0.17123100  0.65469800  1
  O  O32  1  0.97355450  0.72499350  0.91795850  1
  O  O33  1  0.97355450  0.27500650  0.08204150  1
  O  O34  1  0.47355450  0.27500650  0.91795850  1
  O  O35  1  0.47355450  0.72499350  0.08204150  1
  O  O36  1  0.96697850  0.58543850  0.76691550  1
  O  O37  1  0.96697850  0.41456150  0.23308450  1
  O  O38  1  0.46697850  0.41456150  0.76691550  1
  O  O39  1  0.46697850  0.58543850  0.23308450  1
  O  O40  1  0.73623050  0.51055950  0.88915350  1
  O  O41  1  0.73623050  0.48944050  0.11084650  1
  O  O42  1  0.23623050  0.48944050  0.88915350  1
  O  O43  1  0.23623050  0.51055950  0.11084650  1
  O  O44  1  0.32901300  0.21822700  0.08024400  1
  O  O45  1  0.32901300  0.78177300  0.91975600  1
  O  O46  1  0.82901300  0.78177300  0.08024400  1
  O  O47  1  0.82901300  0.21822700  0.91975600  1
  O  O48  1  0.14494800  0.22713300  0.92405300  1
  O  O49  1  0.14494800  0.77286700  0.07594700  1
  O  O50  1  0.64494800  0.77286700  0.92405300  1
  O  O51  1  0.64494800  0.22713300  0.07594700  1
  O  O52  1  0.81576250  0.65352950  0.27357450  1
  O  O53  1  0.81576250  0.34647050  0.72642550  1
  O  O54  1  0.31576250  0.34647050  0.27357450  1
  O  O55  1  0.31576250  0.65352950  0.72642550  1
  O  O56  1  0.98876650  0.51773950  0.42052050  1
  O  O57  1  0.98876650  0.48226050  0.57947950  1
  O  O58  1  0.48876650  0.48226050  0.42052050  1
  O  O59  1  0.48876650  0.51773950  0.57947950  1
  O  O60  1  0.14050850  0.64666550  0.26253550  1
  O  O61  1  0.14050850  0.35333450  0.73746450  1
  O  O62  1  0.64050850  0.35333450  0.26253550  1
  O  O63  1  0.64050850  0.64666550  0.73746450  1
  O  O64  1  0.47355450  0.22499350  0.41795850  1
  O  O65  1  0.47355450  0.77500650  0.58204150  1
  O  O66  1  0.97355450  0.77500650  0.41795850  1
  O  O67  1  0.97355450  0.22499350  0.58204150  1
  O  O68  1  0.46697850  0.08543850  0.26691550  1
  O  O69  1  0.46697850  0.91456150  0.73308450  1
  O  O70  1  0.96697850  0.91456150  0.26691550  1
  O  O71  1  0.96697850  0.08543850  0.73308450  1
  O  O72  1  0.23623050  0.01055950  0.38915350  1
  O  O73  1  0.23623050  0.98944050  0.61084650  1
  O  O74  1  0.73623050  0.98944050  0.38915350  1
  O  O75  1  0.73623050  0.01055950  0.61084650  1
  O  O76  1  0.82901300  0.71822700  0.58024400  1
  O  O77  1  0.82901300  0.28177300  0.41975600  1
  O  O78  1  0.32901300  0.28177300  0.58024400  1
  O  O79  1  0.32901300  0.71822700  0.41975600  1
  O  O80  1  0.64494800  0.72713300  0.42405300  1
  O  O81  1  0.64494800  0.27286700  0.57594700  1
  O  O82  1  0.14494800  0.27286700  0.42405300  1
  O  O83  1  0.14494800  0.72713300  0.57594700  1
  O  O84  1  0.31576250  0.15352950  0.77357450  1
  O  O85  1  0.31576250  0.84647050  0.22642550  1
  O  O86  1  0.81576250  0.84647050  0.77357450  1
  O  O87  1  0.81576250  0.15352950  0.22642550  1
  O  O88  1  0.48876650  0.01773950  0.92052050  1
  O  O89  1  0.48876650  0.98226050  0.07947950  1
  O  O90  1  0.98876650  0.98226050  0.92052050  1
  O  O91  1  0.98876650  0.01773950  0.07947950  1
  O  O92  1  0.64050850  0.14666550  0.76253550  1
  O  O93  1  0.64050850  0.85333450  0.23746450  1
  O  O94  1  0.14050850  0.85333450  0.76253550  1
  O  O95  1  0.14050850  0.14666550  0.23746450  1
