# generated using pymatgen
data_Cr2(PO4)3
_symmetry_space_group_name_H-M   'P 1'
_cell_length_a   8.57037985
_cell_length_b   8.57037985
_cell_length_c   21.46087136
_cell_angle_alpha   90.00000000
_cell_angle_beta   90.00000000
_cell_angle_gamma   120.00000000
_symmetry_Int_Tables_number   1
_chemical_formula_structural   Cr2(PO4)3
_chemical_formula_sum   'Cr12 P18 O72'
_cell_volume   1365.14293134
_cell_formula_units_Z   6
loop_
 _symmetry_equiv_pos_site_id
 _symmetry_equiv_pos_as_xyz
  1  'x, y, z'
loop_
 _atom_site_type_symbol
 _atom_site_label
 _atom_site_symmetry_multiplicity
 _atom_site_fract_x
 _atom_site_fract_y
 _atom_site_fract_z
 _atom_site_occupancy
  Cr  Cr0  1  0.33333333  0.66666667  0.30599267  1
  Cr  Cr1  1  0.00000000  0.00000000  0.13932600  1
  Cr  Cr2  1  0.33333333  0.66666667  0.02734067  1
  Cr  Cr3  1  0.66666667  0.33333333  0.19400733  1
  Cr  Cr4  1  0.00000000  0.00000000  0.63932600  1
  Cr  Cr5  1  0.66666667  0.33333333  0.47265933  1
  Cr  Cr6  1  0.00000000  0.00000000  0.36067400  1
  Cr  Cr7  1  0.33333333  0.66666667  0.52734067  1
  Cr  Cr8  1  0.66666667  0.33333333  0.97265933  1
  Cr  Cr9  1  0.33333333  0.66666667  0.80599267  1
  Cr  Cr10  1  0.66666667  0.33333333  0.69400733  1
  Cr  Cr11  1  0.00000000  0.00000000  0.86067400  1
  P  P12  1  0.00000000  0.71477000  0.25000000  1
  P  P13  1  0.38143667  0.04810333  0.08333333  1
  P  P14  1  0.71477000  0.00000000  0.25000000  1
  P  P15  1  0.28523000  0.28523000  0.25000000  1
  P  P16  1  0.95189667  0.33333333  0.08333333  1
  P  P17  1  0.66666667  0.61856333  0.08333333  1
  P  P18  1  0.66666667  0.04810333  0.58333333  1
  P  P19  1  0.04810333  0.38143667  0.41666667  1
  P  P20  1  0.38143667  0.33333333  0.58333333  1
  P  P21  1  0.95189667  0.61856333  0.58333333  1
  P  P22  1  0.61856333  0.66666667  0.41666667  1
  P  P23  1  0.33333333  0.95189667  0.41666667  1
  P  P24  1  0.33333333  0.38143667  0.91666667  1
  P  P25  1  0.71477000  0.71477000  0.75000000  1
  P  P26  1  0.04810333  0.66666667  0.91666667  1
  P  P27  1  0.61856333  0.95189667  0.91666667  1
  P  P28  1  0.28523000  0.00000000  0.75000000  1
  P  P29  1  0.00000000  0.28523000  0.75000000  1
  O  O30  1  0.84199200  0.31345300  0.02353400  1
  O  O31  1  0.17532533  0.19520567  0.19020067  1
  O  O32  1  0.50207500  0.64425500  0.07948700  1
  O  O33  1  0.83540833  0.52448667  0.24615367  1
  O  O34  1  0.68654700  0.52853900  0.02353400  1
  O  O35  1  0.01988033  0.82467467  0.19020067  1
  O  O36  1  0.35574500  0.85782000  0.07948700  1
  O  O37  1  0.68907833  0.16459167  0.24615367  1
  O  O38  1  0.47146100  0.15800800  0.02353400  1
  O  O39  1  0.47551333  0.31092167  0.24615367  1
  O  O40  1  0.19115333  0.02241167  0.08717967  1
  O  O41  1  0.80479433  0.98011967  0.19020067  1
  O  O42  1  0.14218000  0.49792500  0.07948700  1
  O  O43  1  0.52448667  0.83540833  0.25384633  1
  O  O44  1  0.19520567  0.17532533  0.30979933  1
  O  O45  1  0.86187233  0.35321367  0.14313267  1
  O  O46  1  0.31092167  0.47551333  0.25384633  1
  O  O47  1  0.97758833  0.16874167  0.08717967  1
  O  O48  1  0.98011967  0.80479433  0.30979933  1
  O  O49  1  0.64678633  0.50865867  0.14313267  1
  O  O50  1  0.16459167  0.68907833  0.25384633  1
  O  O51  1  0.83125833  0.80884667  0.08717967  1
  O  O52  1  0.82467467  0.01988033  0.30979933  1
  O  O53  1  0.49134133  0.13812767  0.14313267  1
  O  O54  1  0.50865867  0.64678633  0.35686733  1
  O  O55  1  0.84199200  0.52853900  0.52353400  1
  O  O56  1  0.16874167  0.97758833  0.41282033  1
  O  O57  1  0.50207500  0.85782000  0.57948700  1
  O  O58  1  0.35321367  0.86187233  0.35686733  1
  O  O59  1  0.68654700  0.15800800  0.52353400  1
  O  O60  1  0.02241167  0.19115333  0.41282033  1
  O  O61  1  0.35574500  0.49792500  0.57948700  1
  O  O62  1  0.13812767  0.49134133  0.35686733  1
  O  O63  1  0.14218000  0.64425500  0.57948700  1
  O  O64  1  0.85782000  0.35574500  0.42051300  1
  O  O65  1  0.47146100  0.31345300  0.52353400  1
  O  O66  1  0.80884667  0.83125833  0.41282033  1
  O  O67  1  0.19115333  0.16874167  0.58717967  1
  O  O68  1  0.86187233  0.50865867  0.64313267  1
  O  O69  1  0.52853900  0.68654700  0.47646600  1
  O  O70  1  0.97758833  0.80884667  0.58717967  1
  O  O71  1  0.64425500  0.50207500  0.42051300  1
  O  O72  1  0.64678633  0.13812767  0.64313267  1
  O  O73  1  0.31345300  0.84199200  0.47646600  1
  O  O74  1  0.83125833  0.02241167  0.58717967  1
  O  O75  1  0.49792500  0.14218000  0.42051300  1
  O  O76  1  0.49134133  0.35321367  0.64313267  1
  O  O77  1  0.15800800  0.47146100  0.47646600  1
  O  O78  1  0.17532533  0.98011967  0.69020067  1
  O  O79  1  0.50865867  0.86187233  0.85686733  1
  O  O80  1  0.83540833  0.31092167  0.74615367  1
  O  O81  1  0.16874167  0.19115333  0.91282033  1
  O  O82  1  0.01988033  0.19520567  0.69020067  1
  O  O83  1  0.35321367  0.49134133  0.85686733  1
  O  O84  1  0.68907833  0.52448667  0.74615367  1
  O  O85  1  0.02241167  0.83125833  0.91282033  1
  O  O86  1  0.80479433  0.82467467  0.69020067  1
  O  O87  1  0.80884667  0.97758833  0.91282033  1
  O  O88  1  0.52448667  0.68907833  0.75384633  1
  O  O89  1  0.13812767  0.64678633  0.85686733  1
  O  O90  1  0.47551333  0.16459167  0.74615367  1
  O  O91  1  0.85782000  0.50207500  0.92051300  1
  O  O92  1  0.52853900  0.84199200  0.97646600  1
  O  O93  1  0.19520567  0.01988033  0.80979933  1
  O  O94  1  0.64425500  0.14218000  0.92051300  1
  O  O95  1  0.31092167  0.83540833  0.75384633  1
  O  O96  1  0.31345300  0.47146100  0.97646600  1
  O  O97  1  0.98011967  0.17532533  0.80979933  1
  O  O98  1  0.49792500  0.35574500  0.92051300  1
  O  O99  1  0.16459167  0.47551333  0.75384633  1
  O  O100  1  0.15800800  0.68654700  0.97646600  1
  O  O101  1  0.82467467  0.80479433  0.80979933  1
