# generated using pymatgen
data_Ti4NiBi2
_symmetry_space_group_name_H-M   'P 1'
_cell_length_a   10.65474000
_cell_length_b   10.65474000
_cell_length_c   4.80245200
_cell_angle_alpha   90.00000000
_cell_angle_beta   90.00000000
_cell_angle_gamma   90.00000000
_symmetry_Int_Tables_number   1
_chemical_formula_structural   Ti4NiBi2
_chemical_formula_sum   'Ti16 Ni4 Bi8'
_cell_volume   545.19108503
_cell_formula_units_Z   4
loop_
 _symmetry_equiv_pos_site_id
 _symmetry_equiv_pos_as_xyz
  1  'x, y, z'
loop_
 _atom_site_type_symbol
 _atom_site_label
 _atom_site_symmetry_multiplicity
 _atom_site_fract_x
 _atom_site_fract_y
 _atom_site_fract_z
 _atom_site_occupancy
  Ti  Ti0  1  0.80333800  0.91862600  0.50000000  1
  Ti  Ti1  1  0.41862600  0.69666200  0.00000000  1
  Ti  Ti2  1  0.58137400  0.69666200  0.50000000  1
  Ti  Ti3  1  0.19666200  0.91862600  0.00000000  1
  Ti  Ti4  1  0.58137400  0.30333800  0.00000000  1
  Ti  Ti5  1  0.19666200  0.08137400  0.50000000  1
  Ti  Ti6  1  0.80333800  0.08137400  0.00000000  1
  Ti  Ti7  1  0.41862600  0.30333800  0.50000000  1
  Ti  Ti8  1  0.30333800  0.41862600  0.00000000  1
  Ti  Ti9  1  0.91862600  0.19666200  0.50000000  1
  Ti  Ti10  1  0.08137400  0.19666200  0.00000000  1
  Ti  Ti11  1  0.69666200  0.41862600  0.50000000  1
  Ti  Ti12  1  0.08137400  0.80333800  0.50000000  1
  Ti  Ti13  1  0.69666200  0.58137400  0.00000000  1
  Ti  Ti14  1  0.30333800  0.58137400  0.50000000  1
  Ti  Ti15  1  0.91862600  0.80333800  0.00000000  1
  Ni  Ni16  1  0.00000000  0.00000000  0.75000000  1
  Ni  Ni17  1  0.00000000  0.00000000  0.25000000  1
  Ni  Ni18  1  0.50000000  0.50000000  0.25000000  1
  Ni  Ni19  1  0.50000000  0.50000000  0.75000000  1
  Bi  Bi20  1  0.36049000  0.13951000  0.00000000  1
  Bi  Bi21  1  0.63951000  0.86049000  0.00000000  1
  Bi  Bi22  1  0.36049000  0.86049000  0.50000000  1
  Bi  Bi23  1  0.63951000  0.13951000  0.50000000  1
  Bi  Bi24  1  0.86049000  0.63951000  0.50000000  1
  Bi  Bi25  1  0.13951000  0.36049000  0.50000000  1
  Bi  Bi26  1  0.86049000  0.36049000  0.00000000  1
  Bi  Bi27  1  0.13951000  0.63951000  0.00000000  1
