# generated using pymatgen
data_Ba3Tl2Cl2O5
_symmetry_space_group_name_H-M   'P 1'
_cell_length_a   4.41510400
_cell_length_b   4.41510400
_cell_length_c   25.90026200
_cell_angle_alpha   90.00000000
_cell_angle_beta   90.00000000
_cell_angle_gamma   90.00000000
_symmetry_Int_Tables_number   1
_chemical_formula_structural   Ba3Tl2Cl2O5
_chemical_formula_sum   'Ba6 Tl4 Cl4 O10'
_cell_volume   504.87751947
_cell_formula_units_Z   2
loop_
 _symmetry_equiv_pos_site_id
 _symmetry_equiv_pos_as_xyz
  1  'x, y, z'
loop_
 _atom_site_type_symbol
 _atom_site_label
 _atom_site_symmetry_multiplicity
 _atom_site_fract_x
 _atom_site_fract_y
 _atom_site_fract_z
 _atom_site_occupancy
  Ba  Ba0  1  0.00000000  0.00000000  0.16198100  1
  Ba  Ba1  1  0.50000000  0.50000000  0.33801900  1
  Ba  Ba2  1  0.00000000  0.00000000  0.00000000  1
  Ba  Ba3  1  0.50000000  0.50000000  0.66198100  1
  Ba  Ba4  1  0.00000000  0.00000000  0.83801900  1
  Ba  Ba5  1  0.50000000  0.50000000  0.50000000  1
  Tl  Tl6  1  0.00000000  0.00000000  0.41544600  1
  Tl  Tl7  1  0.50000000  0.50000000  0.08455400  1
  Tl  Tl8  1  0.50000000  0.50000000  0.91544600  1
  Tl  Tl9  1  0.00000000  0.00000000  0.58455400  1
  Cl  Cl10  1  0.50000000  0.50000000  0.20553600  1
  Cl  Cl11  1  0.00000000  0.00000000  0.29446400  1
  Cl  Cl12  1  0.00000000  0.00000000  0.70553600  1
  Cl  Cl13  1  0.50000000  0.50000000  0.79446400  1
  O  O14  1  0.00000000  0.50000000  0.09685500  1
  O  O15  1  0.50000000  0.00000000  0.40314500  1
  O  O16  1  0.50000000  0.00000000  0.09685500  1
  O  O17  1  0.00000000  0.50000000  0.40314500  1
  O  O18  1  0.50000000  0.50000000  0.00000000  1
  O  O19  1  0.50000000  0.00000000  0.59685500  1
  O  O20  1  0.00000000  0.50000000  0.90314500  1
  O  O21  1  0.00000000  0.50000000  0.59685500  1
  O  O22  1  0.50000000  0.00000000  0.90314500  1
  O  O23  1  0.00000000  0.00000000  0.50000000  1
