# generated using pymatgen
data_Pr6Fe13Pb
_symmetry_space_group_name_H-M   'P 1'
_cell_length_a   8.09128738
_cell_length_b   8.09128738
_cell_length_c   23.92149660
_cell_angle_alpha   90.00000000
_cell_angle_beta   90.00000000
_cell_angle_gamma   90.00000000
_symmetry_Int_Tables_number   1
_chemical_formula_structural   Pr6Fe13Pb
_chemical_formula_sum   'Pr24 Fe52 Pb4'
_cell_volume   1566.11482256
_cell_formula_units_Z   4
loop_
 _symmetry_equiv_pos_site_id
 _symmetry_equiv_pos_as_xyz
  1  'x, y, z'
loop_
 _atom_site_type_symbol
 _atom_site_label
 _atom_site_symmetry_multiplicity
 _atom_site_fract_x
 _atom_site_fract_y
 _atom_site_fract_z
 _atom_site_occupancy
  Pr  Pr0  1  0.83706800  0.33706800  0.18281100  1
  Pr  Pr1  1  0.66293200  0.16293200  0.31718900  1
  Pr  Pr2  1  0.50000000  0.50000000  0.39699450  1
  Pr  Pr3  1  0.33706800  0.83706800  0.31718900  1
  Pr  Pr4  1  0.50000000  0.50000000  0.10300550  1
  Pr  Pr5  1  0.00000000  0.00000000  0.10300550  1
  Pr  Pr6  1  0.16293200  0.33706800  0.31718900  1
  Pr  Pr7  1  0.66293200  0.83706800  0.18281100  1
  Pr  Pr8  1  0.00000000  0.00000000  0.39699450  1
  Pr  Pr9  1  0.83706800  0.66293200  0.31718900  1
  Pr  Pr10  1  0.33706800  0.16293200  0.18281100  1
  Pr  Pr11  1  0.16293200  0.66293200  0.18281100  1
  Pr  Pr12  1  0.33706800  0.83706800  0.68281100  1
  Pr  Pr13  1  0.16293200  0.66293200  0.81718900  1
  Pr  Pr14  1  0.00000000  0.00000000  0.89699450  1
  Pr  Pr15  1  0.83706800  0.33706800  0.81718900  1
  Pr  Pr16  1  0.00000000  0.00000000  0.60300550  1
  Pr  Pr17  1  0.50000000  0.50000000  0.60300550  1
  Pr  Pr18  1  0.66293200  0.83706800  0.81718900  1
  Pr  Pr19  1  0.16293200  0.33706800  0.68281100  1
  Pr  Pr20  1  0.50000000  0.50000000  0.89699450  1
  Pr  Pr21  1  0.33706800  0.16293200  0.81718900  1
  Pr  Pr22  1  0.83706800  0.66293200  0.68281100  1
  Pr  Pr23  1  0.66293200  0.16293200  0.68281100  1
  Fe  Fe24  1  0.17870950  0.67870950  0.05714450  1
  Fe  Fe25  1  0.93352000  0.79021700  0.00000000  1
  Fe  Fe26  1  0.38686800  0.11313200  0.40874000  1
  Fe  Fe27  1  0.88686800  0.61313200  0.09126000  1
  Fe  Fe28  1  0.82129050  0.32129050  0.05714450  1
  Fe  Fe29  1  0.67870950  0.82129050  0.05714450  1
  Fe  Fe30  1  0.17870950  0.32129050  0.44285550  1
  Fe  Fe31  1  0.06648000  0.20978300  0.00000000  1
  Fe  Fe32  1  0.82129050  0.67870950  0.44285550  1
  Fe  Fe33  1  0.20978300  0.93352000  0.00000000  1
  Fe  Fe34  1  0.32129050  0.82129050  0.44285550  1
  Fe  Fe35  1  0.56648000  0.29021700  0.00000000  1
  Fe  Fe36  1  0.11313200  0.61313200  0.40874000  1
  Fe  Fe37  1  0.32129050  0.17870950  0.05714450  1
  Fe  Fe38  1  0.11313200  0.38686800  0.09126000  1
  Fe  Fe39  1  0.50000000  0.00000000  0.00000000  1
  Fe  Fe40  1  0.70978300  0.56648000  0.00000000  1
  Fe  Fe41  1  0.88686800  0.38686800  0.40874000  1
  Fe  Fe42  1  0.38686800  0.88686800  0.09126000  1
  Fe  Fe43  1  0.61313200  0.11313200  0.09126000  1
  Fe  Fe44  1  0.79021700  0.06648000  0.00000000  1
  Fe  Fe45  1  0.29021700  0.43352000  0.00000000  1
  Fe  Fe46  1  0.00000000  0.50000000  0.00000000  1
  Fe  Fe47  1  0.67870950  0.17870950  0.44285550  1
  Fe  Fe48  1  0.61313200  0.88686800  0.40874000  1
  Fe  Fe49  1  0.43352000  0.70978300  0.00000000  1
  Fe  Fe50  1  0.67870950  0.17870950  0.55714450  1
  Fe  Fe51  1  0.43352000  0.29021700  0.50000000  1
  Fe  Fe52  1  0.88686800  0.61313200  0.90874000  1
  Fe  Fe53  1  0.38686800  0.11313200  0.59126000  1
  Fe  Fe54  1  0.32129050  0.82129050  0.55714450  1
  Fe  Fe55  1  0.17870950  0.32129050  0.55714450  1
  Fe  Fe56  1  0.67870950  0.82129050  0.94285550  1
  Fe  Fe57  1  0.56648000  0.70978300  0.50000000  1
  Fe  Fe58  1  0.32129050  0.17870950  0.94285550  1
  Fe  Fe59  1  0.70978300  0.43352000  0.50000000  1
  Fe  Fe60  1  0.82129050  0.32129050  0.94285550  1
  Fe  Fe61  1  0.06648000  0.79021700  0.50000000  1
  Fe  Fe62  1  0.61313200  0.11313200  0.90874000  1
  Fe  Fe63  1  0.82129050  0.67870950  0.55714450  1
  Fe  Fe64  1  0.61313200  0.88686800  0.59126000  1
  Fe  Fe65  1  0.00000000  0.50000000  0.50000000  1
  Fe  Fe66  1  0.20978300  0.06648000  0.50000000  1
  Fe  Fe67  1  0.38686800  0.88686800  0.90874000  1
  Fe  Fe68  1  0.88686800  0.38686800  0.59126000  1
  Fe  Fe69  1  0.11313200  0.61313200  0.59126000  1
  Fe  Fe70  1  0.29021700  0.56648000  0.50000000  1
  Fe  Fe71  1  0.79021700  0.93352000  0.50000000  1
  Fe  Fe72  1  0.50000000  0.00000000  0.50000000  1
  Fe  Fe73  1  0.17870950  0.67870950  0.94285550  1
  Fe  Fe74  1  0.11313200  0.38686800  0.90874000  1
  Fe  Fe75  1  0.93352000  0.20978300  0.50000000  1
  Pb  Pb76  1  0.50000000  0.50000000  0.25000000  1
  Pb  Pb77  1  0.00000000  0.00000000  0.25000000  1
  Pb  Pb78  1  0.00000000  0.00000000  0.75000000  1
  Pb  Pb79  1  0.50000000  0.50000000  0.75000000  1
