# generated using pymatgen
data_Pr5Sn3
_symmetry_space_group_name_H-M   'P 1'
_cell_length_a   12.68825600
_cell_length_b   12.68825600
_cell_length_c   6.28740200
_cell_angle_alpha   90.00000000
_cell_angle_beta   90.00000000
_cell_angle_gamma   90.00000000
_symmetry_Int_Tables_number   1
_chemical_formula_structural   Pr5Sn3
_chemical_formula_sum   'Pr20 Sn12'
_cell_volume   1012.22041882
_cell_formula_units_Z   4
loop_
 _symmetry_equiv_pos_site_id
 _symmetry_equiv_pos_as_xyz
  1  'x, y, z'
loop_
 _atom_site_type_symbol
 _atom_site_label
 _atom_site_symmetry_multiplicity
 _atom_site_fract_x
 _atom_site_fract_y
 _atom_site_fract_z
 _atom_site_occupancy
  Pr  Pr0  1  0.58388700  0.28339600  0.50000000  1
  Pr  Pr1  1  0.41611300  0.71660400  0.50000000  1
  Pr  Pr2  1  0.78339600  0.91611300  0.00000000  1
  Pr  Pr3  1  0.41611300  0.28339600  0.00000000  1
  Pr  Pr4  1  0.78339600  0.08388700  0.50000000  1
  Pr  Pr5  1  0.50000000  0.00000000  0.25000000  1
  Pr  Pr6  1  0.50000000  0.00000000  0.75000000  1
  Pr  Pr7  1  0.58388700  0.71660400  0.00000000  1
  Pr  Pr8  1  0.21660400  0.08388700  0.00000000  1
  Pr  Pr9  1  0.21660400  0.91611300  0.50000000  1
  Pr  Pr10  1  0.08388700  0.78339600  0.00000000  1
  Pr  Pr11  1  0.91611300  0.21660400  0.00000000  1
  Pr  Pr12  1  0.28339600  0.41611300  0.50000000  1
  Pr  Pr13  1  0.91611300  0.78339600  0.50000000  1
  Pr  Pr14  1  0.28339600  0.58388700  0.00000000  1
  Pr  Pr15  1  0.00000000  0.50000000  0.75000000  1
  Pr  Pr16  1  0.00000000  0.50000000  0.25000000  1
  Pr  Pr17  1  0.08388700  0.21660400  0.50000000  1
  Pr  Pr18  1  0.71660400  0.58388700  0.50000000  1
  Pr  Pr19  1  0.71660400  0.41611300  0.00000000  1
  Sn  Sn20  1  0.33975100  0.16024900  0.50000000  1
  Sn  Sn21  1  0.66024900  0.16024900  0.00000000  1
  Sn  Sn22  1  0.00000000  0.00000000  0.25000000  1
  Sn  Sn23  1  0.33975100  0.83975100  0.00000000  1
  Sn  Sn24  1  0.66024900  0.83975100  0.50000000  1
  Sn  Sn25  1  0.00000000  0.00000000  0.75000000  1
  Sn  Sn26  1  0.83975100  0.66024900  0.00000000  1
  Sn  Sn27  1  0.16024900  0.66024900  0.50000000  1
  Sn  Sn28  1  0.50000000  0.50000000  0.75000000  1
  Sn  Sn29  1  0.83975100  0.33975100  0.50000000  1
  Sn  Sn30  1  0.16024900  0.33975100  0.00000000  1
  Sn  Sn31  1  0.50000000  0.50000000  0.25000000  1
