# generated using pymatgen
data_Li2Cr(PO4)2
_symmetry_space_group_name_H-M   'P 1'
_cell_length_a   4.91972700
_cell_length_b   8.61197500
_cell_length_c   6.61727782
_cell_angle_alpha   90.00000000
_cell_angle_beta   95.38074617
_cell_angle_gamma   90.00000000
_symmetry_Int_Tables_number   1
_chemical_formula_structural   Li2Cr(PO4)2
_chemical_formula_sum   'Li4 Cr2 P4 O16'
_cell_volume   279.12915421
_cell_formula_units_Z   2
loop_
 _symmetry_equiv_pos_site_id
 _symmetry_equiv_pos_as_xyz
  1  'x, y, z'
loop_
 _atom_site_type_symbol
 _atom_site_label
 _atom_site_symmetry_multiplicity
 _atom_site_fract_x
 _atom_site_fract_y
 _atom_site_fract_z
 _atom_site_occupancy
  Li  Li0  1  0.25846100  0.35836200  0.94036200  1
  Li  Li1  1  0.74153900  0.85836200  0.05963800  1
  Li  Li2  1  0.24823400  0.00124000  0.25827900  1
  Li  Li3  1  0.75176600  0.50124000  0.74172100  1
  Cr  Cr4  1  0.24460700  0.00195500  0.74266600  1
  Cr  Cr5  1  0.75539300  0.50195500  0.25733400  1
  P  P6  1  0.28200700  0.32010800  0.47588900  1
  P  P7  1  0.21881000  0.67908900  0.02014200  1
  P  P8  1  0.78119000  0.17908900  0.97985800  1
  P  P9  1  0.71799300  0.82010800  0.52411100  1
  O  O10  1  0.57663500  0.86899000  0.71432800  1
  O  O11  1  0.41487100  0.39095600  0.67409200  1
  O  O12  1  0.93603600  0.14303300  0.79220200  1
  O  O13  1  0.18329100  0.85815100  0.98235400  1
  O  O14  1  0.69871100  0.64043800  0.49699600  1
  O  O15  1  0.06396400  0.64303300  0.20779800  1
  O  O16  1  0.02239400  0.86965400  0.55279300  1
  O  O17  1  0.30128900  0.14043800  0.50300400  1
  O  O18  1  0.89663100  0.08435300  0.16220100  1
  O  O19  1  0.42336500  0.36899000  0.28567200  1
  O  O20  1  0.10336900  0.58435300  0.83779900  1
  O  O21  1  0.81670900  0.35815100  0.01764600  1
  O  O22  1  0.52990200  0.64077100  0.06312600  1
  O  O23  1  0.58512900  0.89095600  0.32590800  1
  O  O24  1  0.47009800  0.14077100  0.93687400  1
  O  O25  1  0.97760600  0.36965400  0.44720700  1
