# generated using pymatgen
data_YCrO4
_symmetry_space_group_name_H-M   'P 1'
_cell_length_a   5.06809067
_cell_length_b   5.06809067
_cell_length_c   11.41154632
_cell_angle_alpha   90.00000000
_cell_angle_beta   90.00000000
_cell_angle_gamma   90.00000000
_symmetry_Int_Tables_number   1
_chemical_formula_structural   YCrO4
_chemical_formula_sum   'Y4 Cr4 O16'
_cell_volume   293.11176430
_cell_formula_units_Z   4
loop_
 _symmetry_equiv_pos_site_id
 _symmetry_equiv_pos_as_xyz
  1  'x, y, z'
loop_
 _atom_site_type_symbol
 _atom_site_label
 _atom_site_symmetry_multiplicity
 _atom_site_fract_x
 _atom_site_fract_y
 _atom_site_fract_z
 _atom_site_occupancy
  Y  Y0  1  0.00000000  0.00000000  0.50000000  1
  Y  Y1  1  0.00000000  0.50000000  0.75000000  1
  Y  Y2  1  0.50000000  0.50000000  0.00000000  1
  Y  Y3  1  0.50000000  0.00000000  0.25000000  1
  Cr  Cr4  1  0.50000000  0.00000000  0.75000000  1
  Cr  Cr5  1  0.50000000  0.50000000  0.50000000  1
  Cr  Cr6  1  0.00000000  0.50000000  0.25000000  1
  Cr  Cr7  1  0.00000000  0.00000000  0.00000000  1
  O  O8  1  0.24235850  0.85564150  0.67249950  1
  O  O9  1  0.64435850  0.24235850  0.42249950  1
  O  O10  1  0.75764150  0.14435850  0.67249950  1
  O  O11  1  0.35564150  0.75764150  0.42249950  1
  O  O12  1  0.64435850  0.74235850  0.82750050  1
  O  O13  1  0.35564150  0.25764150  0.82750050  1
  O  O14  1  0.75764150  0.64435850  0.57750050  1
  O  O15  1  0.24235850  0.35564150  0.57750050  1
  O  O16  1  0.74235850  0.35564150  0.17249950  1
  O  O17  1  0.14435850  0.74235850  0.92249950  1
  O  O18  1  0.25764150  0.64435850  0.17249950  1
  O  O19  1  0.85564150  0.25764150  0.92249950  1
  O  O20  1  0.14435850  0.24235850  0.32750050  1
  O  O21  1  0.85564150  0.75764150  0.32750050  1
  O  O22  1  0.25764150  0.14435850  0.07750050  1
  O  O23  1  0.74235850  0.85564150  0.07750050  1
