# generated using pymatgen
data_ThFe2SiC
_symmetry_space_group_name_H-M   'P 1'
_cell_length_a   3.89455200
_cell_length_b   10.69323200
_cell_length_c   6.79010100
_cell_angle_alpha   90.00000000
_cell_angle_beta   90.00000000
_cell_angle_gamma   90.00000000
_symmetry_Int_Tables_number   1
_chemical_formula_structural   ThFe2SiC
_chemical_formula_sum   'Th4 Fe8 Si4 C4'
_cell_volume   282.77611959
_cell_formula_units_Z   4
loop_
 _symmetry_equiv_pos_site_id
 _symmetry_equiv_pos_as_xyz
  1  'x, y, z'
loop_
 _atom_site_type_symbol
 _atom_site_label
 _atom_site_symmetry_multiplicity
 _atom_site_fract_x
 _atom_site_fract_y
 _atom_site_fract_z
 _atom_site_occupancy
  Th  Th0  1  0.50000000  0.44146200  0.75000000  1
  Th  Th1  1  0.00000000  0.05853800  0.25000000  1
  Th  Th2  1  0.00000000  0.94146200  0.75000000  1
  Th  Th3  1  0.50000000  0.55853800  0.25000000  1
  Fe  Fe4  1  0.50000000  0.16376500  0.56056900  1
  Fe  Fe5  1  0.50000000  0.16376500  0.93943100  1
  Fe  Fe6  1  0.00000000  0.33623500  0.43943100  1
  Fe  Fe7  1  0.00000000  0.33623500  0.06056900  1
  Fe  Fe8  1  0.00000000  0.66376500  0.56056900  1
  Fe  Fe9  1  0.00000000  0.66376500  0.93943100  1
  Fe  Fe10  1  0.50000000  0.83623500  0.43943100  1
  Fe  Fe11  1  0.50000000  0.83623500  0.06056900  1
  Si  Si12  1  0.00000000  0.22465100  0.75000000  1
  Si  Si13  1  0.50000000  0.27534900  0.25000000  1
  Si  Si14  1  0.50000000  0.72465100  0.75000000  1
  Si  Si15  1  0.00000000  0.77534900  0.25000000  1
  C  C16  1  0.50000000  0.00000000  0.00000000  1
  C  C17  1  0.50000000  0.00000000  0.50000000  1
  C  C18  1  0.00000000  0.50000000  0.00000000  1
  C  C19  1  0.00000000  0.50000000  0.50000000  1
