# generated using pymatgen
data_Ba3Ti20O40
_symmetry_space_group_name_H-M   'P 1'
_cell_length_a   14.33310600
_cell_length_b   14.91284600
_cell_length_c   10.13502755
_cell_angle_alpha   90.00000000
_cell_angle_beta   133.88039178
_cell_angle_gamma   90.00000000
_symmetry_Int_Tables_number   1
_chemical_formula_structural   Ba3Ti20O40
_chemical_formula_sum   'Ba6 Ti40 O80'
_cell_volume   1561.46966207
_cell_formula_units_Z   2
loop_
 _symmetry_equiv_pos_site_id
 _symmetry_equiv_pos_as_xyz
  1  'x, y, z'
loop_
 _atom_site_type_symbol
 _atom_site_label
 _atom_site_symmetry_multiplicity
 _atom_site_fract_x
 _atom_site_fract_y
 _atom_site_fract_z
 _atom_site_occupancy
  Ba  Ba0  1  0.50000000  0.13395900  0.00000000  1
  Ba  Ba1  1  0.00000000  0.36604100  0.00000000  1
  Ba  Ba2  1  0.00000000  0.00000000  0.00000000  1
  Ba  Ba3  1  0.00000000  0.63395900  0.00000000  1
  Ba  Ba4  1  0.50000000  0.86604100  0.00000000  1
  Ba  Ba5  1  0.50000000  0.50000000  0.00000000  1
  Ti  Ti6  1  0.33581400  0.40154000  0.18269500  1
  Ti  Ti7  1  0.83581400  0.09846000  0.18269500  1
  Ti  Ti8  1  0.84689200  0.00000000  0.50873600  1
  Ti  Ti9  1  0.14352550  0.20117350  0.46903000  1
  Ti  Ti10  1  0.64352550  0.29882650  0.46903000  1
  Ti  Ti11  1  0.34082300  0.00000000  0.18199200  1
  Ti  Ti12  1  0.14910950  0.40147050  0.48333200  1
  Ti  Ti13  1  0.64910950  0.09852950  0.48333200  1
  Ti  Ti14  1  0.82781900  0.29908500  0.18076400  1
  Ti  Ti15  1  0.32781900  0.20091500  0.18076400  1
  Ti  Ti16  1  0.17218100  0.29908500  0.81923600  1
  Ti  Ti17  1  0.67218100  0.20091500  0.81923600  1
  Ti  Ti18  1  0.85089050  0.40147050  0.51666800  1
  Ti  Ti19  1  0.35089050  0.09852950  0.51666800  1
  Ti  Ti20  1  0.65917700  0.00000000  0.81800800  1
  Ti  Ti21  1  0.85647450  0.20117350  0.53097000  1
  Ti  Ti22  1  0.35647450  0.29882650  0.53097000  1
  Ti  Ti23  1  0.15310800  0.00000000  0.49126400  1
  Ti  Ti24  1  0.66418600  0.40154000  0.81730500  1
  Ti  Ti25  1  0.16418600  0.09846000  0.81730500  1
  Ti  Ti26  1  0.83581400  0.90154000  0.18269500  1
  Ti  Ti27  1  0.33581400  0.59846000  0.18269500  1
  Ti  Ti28  1  0.34689200  0.50000000  0.50873600  1
  Ti  Ti29  1  0.64352550  0.70117350  0.46903000  1
  Ti  Ti30  1  0.14352550  0.79882650  0.46903000  1
  Ti  Ti31  1  0.84082300  0.50000000  0.18199200  1
  Ti  Ti32  1  0.64910950  0.90147050  0.48333200  1
  Ti  Ti33  1  0.14910950  0.59852950  0.48333200  1
  Ti  Ti34  1  0.32781900  0.79908500  0.18076400  1
  Ti  Ti35  1  0.82781900  0.70091500  0.18076400  1
  Ti  Ti36  1  0.67218100  0.79908500  0.81923600  1
  Ti  Ti37  1  0.17218100  0.70091500  0.81923600  1
  Ti  Ti38  1  0.35089050  0.90147050  0.51666800  1
  Ti  Ti39  1  0.85089050  0.59852950  0.51666800  1
  Ti  Ti40  1  0.15917700  0.50000000  0.81800800  1
  Ti  Ti41  1  0.35647450  0.70117350  0.53097000  1
  Ti  Ti42  1  0.85647450  0.79882650  0.53097000  1
  Ti  Ti43  1  0.65310800  0.50000000  0.49126400  1
  Ti  Ti44  1  0.16418600  0.90154000  0.81730500  1
  Ti  Ti45  1  0.66418600  0.59846000  0.81730500  1
  O  O46  1  0.96183800  0.00000000  0.28232800  1
  O  O47  1  0.70240400  0.20025900  0.05101500  1
  O  O48  1  0.20240400  0.29974100  0.05101500  1
  O  O49  1  0.69758100  0.00000000  0.05128100  1
  O  O50  1  0.84102100  0.10102600  0.38077300  1
  O  O51  1  0.34102100  0.39897400  0.38077300  1
  O  O52  1  0.65473500  0.00000000  0.34845600  1
  O  O53  1  0.15876250  0.29993350  0.35596700  1
  O  O54  1  0.65876250  0.20006650  0.35596700  1
  O  O55  1  0.84112700  0.09836100  0.64285300  1
  O  O56  1  0.34112700  0.40163900  0.64285300  1
  O  O57  1  0.45913600  0.10192500  0.27983400  1
  O  O58  1  0.95913600  0.39807500  0.27983400  1
  O  O59  1  0.95797850  0.20072850  0.28501000  1
  O  O60  1  0.45797850  0.29927150  0.28501000  1
  O  O61  1  0.70385350  0.40202950  0.05197100  1
  O  O62  1  0.20385350  0.09797050  0.05197100  1
  O  O63  1  0.65615950  0.20064550  0.61543200  1
  O  O64  1  0.15615950  0.29935450  0.61543200  1
  O  O65  1  0.65725000  0.00000000  0.62074000  1
  O  O66  1  0.34275000  0.00000000  0.37926000  1
  O  O67  1  0.34384050  0.20064550  0.38456800  1
  O  O68  1  0.84384050  0.29935450  0.38456800  1
  O  O69  1  0.29614650  0.40202950  0.94802900  1
  O  O70  1  0.79614650  0.09797050  0.94802900  1
  O  O71  1  0.04202150  0.20072850  0.71499000  1
  O  O72  1  0.54202150  0.29927150  0.71499000  1
  O  O73  1  0.04086400  0.39807500  0.72016600  1
  O  O74  1  0.54086400  0.10192500  0.72016600  1
  O  O75  1  0.15887300  0.09836100  0.35714700  1
  O  O76  1  0.65887300  0.40163900  0.35714700  1
  O  O77  1  0.84123750  0.29993350  0.64403300  1
  O  O78  1  0.34123750  0.20006650  0.64403300  1
  O  O79  1  0.34526500  0.00000000  0.65154400  1
  O  O80  1  0.15897900  0.10102600  0.61922700  1
  O  O81  1  0.65897900  0.39897400  0.61922700  1
  O  O82  1  0.30241900  0.00000000  0.94871900  1
  O  O83  1  0.29759600  0.20025900  0.94898500  1
  O  O84  1  0.79759600  0.29974100  0.94898500  1
  O  O85  1  0.03816200  0.00000000  0.71767200  1
  O  O86  1  0.46183800  0.50000000  0.28232800  1
  O  O87  1  0.20240400  0.70025900  0.05101500  1
  O  O88  1  0.70240400  0.79974100  0.05101500  1
  O  O89  1  0.19758100  0.50000000  0.05128100  1
  O  O90  1  0.34102100  0.60102600  0.38077300  1
  O  O91  1  0.84102100  0.89897400  0.38077300  1
  O  O92  1  0.15473500  0.50000000  0.34845600  1
  O  O93  1  0.65876250  0.79993350  0.35596700  1
  O  O94  1  0.15876250  0.70006650  0.35596700  1
  O  O95  1  0.34112700  0.59836100  0.64285300  1
  O  O96  1  0.84112700  0.90163900  0.64285300  1
  O  O97  1  0.95913600  0.60192500  0.27983400  1
  O  O98  1  0.45913600  0.89807500  0.27983400  1
  O  O99  1  0.45797850  0.70072850  0.28501000  1
  O  O100  1  0.95797850  0.79927150  0.28501000  1
  O  O101  1  0.20385350  0.90202950  0.05197100  1
  O  O102  1  0.70385350  0.59797050  0.05197100  1
  O  O103  1  0.15615950  0.70064550  0.61543200  1
  O  O104  1  0.65615950  0.79935450  0.61543200  1
  O  O105  1  0.15725000  0.50000000  0.62074000  1
  O  O106  1  0.84275000  0.50000000  0.37926000  1
  O  O107  1  0.84384050  0.70064550  0.38456800  1
  O  O108  1  0.34384050  0.79935450  0.38456800  1
  O  O109  1  0.79614650  0.90202950  0.94802900  1
  O  O110  1  0.29614650  0.59797050  0.94802900  1
  O  O111  1  0.54202150  0.70072850  0.71499000  1
  O  O112  1  0.04202150  0.79927150  0.71499000  1
  O  O113  1  0.54086400  0.89807500  0.72016600  1
  O  O114  1  0.04086400  0.60192500  0.72016600  1
  O  O115  1  0.65887300  0.59836100  0.35714700  1
  O  O116  1  0.15887300  0.90163900  0.35714700  1
  O  O117  1  0.34123750  0.79993350  0.64403300  1
  O  O118  1  0.84123750  0.70006650  0.64403300  1
  O  O119  1  0.84526500  0.50000000  0.65154400  1
  O  O120  1  0.65897900  0.60102600  0.61922700  1
  O  O121  1  0.15897900  0.89897400  0.61922700  1
  O  O122  1  0.80241900  0.50000000  0.94871900  1
  O  O123  1  0.79759600  0.70025900  0.94898500  1
  O  O124  1  0.29759600  0.79974100  0.94898500  1
  O  O125  1  0.53816200  0.50000000  0.71767200  1
