# generated using pymatgen
data_Ba2(IrO3)3
_symmetry_space_group_name_H-M   'P 1'
_cell_length_a   9.56730400
_cell_length_b   9.56730400
_cell_length_c   9.56730400
_cell_angle_alpha   90.00000000
_cell_angle_beta   90.00000000
_cell_angle_gamma   90.00000000
_symmetry_Int_Tables_number   1
_chemical_formula_structural   Ba2(IrO3)3
_chemical_formula_sum   'Ba8 Ir12 O36'
_cell_volume   875.72696299
_cell_formula_units_Z   4
loop_
 _symmetry_equiv_pos_site_id
 _symmetry_equiv_pos_as_xyz
  1  'x, y, z'
loop_
 _atom_site_type_symbol
 _atom_site_label
 _atom_site_symmetry_multiplicity
 _atom_site_fract_x
 _atom_site_fract_y
 _atom_site_fract_z
 _atom_site_occupancy
  Ba  Ba0  1  0.18991150  0.18991150  0.81008850  1
  Ba  Ba1  1  0.18991150  0.81008850  0.18991150  1
  Ba  Ba2  1  0.31008850  0.31008850  0.31008850  1
  Ba  Ba3  1  0.81008850  0.18991150  0.18991150  1
  Ba  Ba4  1  0.68991150  0.68991150  0.31008850  1
  Ba  Ba5  1  0.68991150  0.31008850  0.68991150  1
  Ba  Ba6  1  0.81008850  0.81008850  0.81008850  1
  Ba  Ba7  1  0.31008850  0.68991150  0.68991150  1
  Ir  Ir8  1  0.50000000  0.34386300  0.00000000  1
  Ir  Ir9  1  0.00000000  0.50000000  0.34386300  1
  Ir  Ir10  1  0.15613700  0.50000000  0.00000000  1
  Ir  Ir11  1  0.50000000  0.00000000  0.15613700  1
  Ir  Ir12  1  0.34386300  0.00000000  0.50000000  1
  Ir  Ir13  1  0.00000000  0.15613700  0.50000000  1
  Ir  Ir14  1  0.00000000  0.84386300  0.50000000  1
  Ir  Ir15  1  0.50000000  0.00000000  0.84386300  1
  Ir  Ir16  1  0.65613700  0.00000000  0.50000000  1
  Ir  Ir17  1  0.00000000  0.50000000  0.65613700  1
  Ir  Ir18  1  0.84386300  0.50000000  0.00000000  1
  Ir  Ir19  1  0.50000000  0.65613700  0.00000000  1
  O  O20  1  0.00000000  0.35887000  0.00000000  1
  O  O21  1  0.00000000  0.00000000  0.35887000  1
  O  O22  1  0.64113000  0.00000000  0.00000000  1
  O  O23  1  0.00000000  0.00000000  0.64113000  1
  O  O24  1  0.35887000  0.00000000  0.00000000  1
  O  O25  1  0.00000000  0.64113000  0.00000000  1
  O  O26  1  0.29412450  0.34386550  0.01562350  1
  O  O27  1  0.48437650  0.20587550  0.84386550  1
  O  O28  1  0.15613450  0.51562350  0.20587550  1
  O  O29  1  0.51562350  0.20587550  0.15613450  1
  O  O30  1  0.65613450  0.98437650  0.29412450  1
  O  O31  1  0.01562350  0.29412450  0.34386550  1
  O  O32  1  0.34386550  0.01562350  0.29412450  1
  O  O33  1  0.84386550  0.48437650  0.20587550  1
  O  O34  1  0.98437650  0.29412450  0.65613450  1
  O  O35  1  0.20587550  0.15613450  0.51562350  1
  O  O36  1  0.29412450  0.65613450  0.98437650  1
  O  O37  1  0.20587550  0.84386550  0.48437650  1
  O  O38  1  0.50000000  0.85887000  0.50000000  1
  O  O39  1  0.50000000  0.50000000  0.85887000  1
  O  O40  1  0.14113000  0.50000000  0.50000000  1
  O  O41  1  0.50000000  0.50000000  0.14113000  1
  O  O42  1  0.85887000  0.50000000  0.50000000  1
  O  O43  1  0.50000000  0.14113000  0.50000000  1
  O  O44  1  0.79412450  0.84386550  0.51562350  1
  O  O45  1  0.98437650  0.70587550  0.34386550  1
  O  O46  1  0.65613450  0.01562350  0.70587550  1
  O  O47  1  0.01562350  0.70587550  0.65613450  1
  O  O48  1  0.15613450  0.48437650  0.79412450  1
  O  O49  1  0.51562350  0.79412450  0.84386550  1
  O  O50  1  0.84386550  0.51562350  0.79412450  1
  O  O51  1  0.34386550  0.98437650  0.70587550  1
  O  O52  1  0.48437650  0.79412450  0.15613450  1
  O  O53  1  0.70587550  0.65613450  0.01562350  1
  O  O54  1  0.79412450  0.15613450  0.48437650  1
  O  O55  1  0.70587550  0.34386550  0.98437650  1
