# generated using pymatgen
data_Na2LuMoPO8
_symmetry_space_group_name_H-M   'P 1'
_cell_length_a   6.82351200
_cell_length_b   12.05630000
_cell_length_c   18.17077600
_cell_angle_alpha   90.00000000
_cell_angle_beta   90.00000000
_cell_angle_gamma   90.00000000
_symmetry_Int_Tables_number   1
_chemical_formula_structural   Na2LuMoPO8
_chemical_formula_sum   'Na16 Lu8 Mo8 P8 O64'
_cell_volume   1494.84265003
_cell_formula_units_Z   8
loop_
 _symmetry_equiv_pos_site_id
 _symmetry_equiv_pos_as_xyz
  1  'x, y, z'
loop_
 _atom_site_type_symbol
 _atom_site_label
 _atom_site_symmetry_multiplicity
 _atom_site_fract_x
 _atom_site_fract_y
 _atom_site_fract_z
 _atom_site_occupancy
  Na  Na0  1  0.01076150  0.55755950  0.34628150  1
  Na  Na1  1  0.98923850  0.55755950  0.84628150  1
  Na  Na2  1  0.51076150  0.55755950  0.15371850  1
  Na  Na3  1  0.51076150  0.44244050  0.34628150  1
  Na  Na4  1  0.48923850  0.44244050  0.84628150  1
  Na  Na5  1  0.01076150  0.44244050  0.15371850  1
  Na  Na6  1  0.48923850  0.55755950  0.65371850  1
  Na  Na7  1  0.98923850  0.44244050  0.65371850  1
  Na  Na8  1  0.51076150  0.05755950  0.84628150  1
  Na  Na9  1  0.48923850  0.05755950  0.34628150  1
  Na  Na10  1  0.01076150  0.05755950  0.65371850  1
  Na  Na11  1  0.01076150  0.94244050  0.84628150  1
  Na  Na12  1  0.98923850  0.94244050  0.34628150  1
  Na  Na13  1  0.51076150  0.94244050  0.65371850  1
  Na  Na14  1  0.98923850  0.05755950  0.15371850  1
  Na  Na15  1  0.48923850  0.94244050  0.15371850  1
  Lu  Lu16  1  0.25000000  0.17845500  0.00000000  1
  Lu  Lu17  1  0.75000000  0.82154500  0.00000000  1
  Lu  Lu18  1  0.25000000  0.67845500  0.00000000  1
  Lu  Lu19  1  0.75000000  0.32154500  0.00000000  1
  Lu  Lu20  1  0.75000000  0.67845500  0.50000000  1
  Lu  Lu21  1  0.25000000  0.32154500  0.50000000  1
  Lu  Lu22  1  0.75000000  0.17845500  0.50000000  1
  Lu  Lu23  1  0.25000000  0.82154500  0.50000000  1
  Mo  Mo24  1  0.00000000  0.75000000  0.17569400  1
  Mo  Mo25  1  0.50000000  0.75000000  0.82430600  1
  Mo  Mo26  1  0.00000000  0.25000000  0.82430600  1
  Mo  Mo27  1  0.50000000  0.25000000  0.17569400  1
  Mo  Mo28  1  0.50000000  0.25000000  0.67569400  1
  Mo  Mo29  1  0.00000000  0.25000000  0.32430600  1
  Mo  Mo30  1  0.50000000  0.75000000  0.32430600  1
  Mo  Mo31  1  0.00000000  0.75000000  0.67569400  1
  P  P32  1  0.75000000  0.06839800  0.00000000  1
  P  P33  1  0.25000000  0.43160200  0.00000000  1
  P  P34  1  0.75000000  0.56839800  0.00000000  1
  P  P35  1  0.25000000  0.93160200  0.00000000  1
  P  P36  1  0.25000000  0.56839800  0.50000000  1
  P  P37  1  0.75000000  0.93160200  0.50000000  1
  P  P38  1  0.25000000  0.06839800  0.50000000  1
  P  P39  1  0.75000000  0.43160200  0.50000000  1
  O  O40  1  0.73919100  0.49117400  0.93213800  1
  O  O41  1  0.54214050  0.62900250  0.77004850  1
  O  O42  1  0.26080900  0.49117400  0.43213800  1
  O  O43  1  0.57286800  0.64935600  0.00708200  1
  O  O44  1  0.23919100  0.49117400  0.56786200  1
  O  O45  1  0.92713200  0.14935600  0.00708200  1
  O  O46  1  0.07286800  0.85064400  0.99291800  1
  O  O47  1  0.95785950  0.62900250  0.22995150  1
  O  O48  1  0.78578850  0.27434350  0.88124150  1
  O  O49  1  0.71421150  0.77434350  0.88124150  1
  O  O50  1  0.45785950  0.37099750  0.22995150  1
  O  O51  1  0.42713200  0.35064400  0.99291800  1
  O  O52  1  0.73919100  0.50882600  0.56786200  1
  O  O53  1  0.21421150  0.22565650  0.88124150  1
  O  O54  1  0.21421150  0.72565650  0.11875850  1
  O  O55  1  0.42713200  0.85064400  0.00708200  1
  O  O56  1  0.28578850  0.72565650  0.88124150  1
  O  O57  1  0.76080900  0.49117400  0.06786200  1
  O  O58  1  0.04214050  0.37099750  0.77004850  1
  O  O59  1  0.45785950  0.62900250  0.27004850  1
  O  O60  1  0.57286800  0.14935600  0.99291800  1
  O  O61  1  0.76080900  0.50882600  0.43213800  1
  O  O62  1  0.95785950  0.37099750  0.27004850  1
  O  O63  1  0.92713200  0.64935600  0.99291800  1
  O  O64  1  0.78578850  0.77434350  0.11875850  1
  O  O65  1  0.23919100  0.50882600  0.93213800  1
  O  O66  1  0.26080900  0.50882600  0.06786200  1
  O  O67  1  0.54214050  0.37099750  0.72995150  1
  O  O68  1  0.07286800  0.35064400  0.00708200  1
  O  O69  1  0.28578850  0.22565650  0.11875850  1
  O  O70  1  0.71421150  0.27434350  0.11875850  1
  O  O71  1  0.04214050  0.62900250  0.72995150  1
  O  O72  1  0.23919100  0.99117400  0.43213800  1
  O  O73  1  0.04214050  0.12900250  0.27004850  1
  O  O74  1  0.76080900  0.99117400  0.93213800  1
  O  O75  1  0.07286800  0.14935600  0.50708200  1
  O  O76  1  0.73919100  0.99117400  0.06786200  1
  O  O77  1  0.42713200  0.64935600  0.50708200  1
  O  O78  1  0.57286800  0.35064400  0.49291800  1
  O  O79  1  0.45785950  0.12900250  0.72995150  1
  O  O80  1  0.28578850  0.77434350  0.38124150  1
  O  O81  1  0.21421150  0.27434350  0.38124150  1
  O  O82  1  0.95785950  0.87099750  0.72995150  1
  O  O83  1  0.92713200  0.85064400  0.49291800  1
  O  O84  1  0.23919100  0.00882600  0.06786200  1
  O  O85  1  0.71421150  0.72565650  0.38124150  1
  O  O86  1  0.71421150  0.22565650  0.61875850  1
  O  O87  1  0.92713200  0.35064400  0.50708200  1
  O  O88  1  0.78578850  0.22565650  0.38124150  1
  O  O89  1  0.26080900  0.99117400  0.56786200  1
  O  O90  1  0.54214050  0.87099750  0.27004850  1
  O  O91  1  0.95785950  0.12900250  0.77004850  1
  O  O92  1  0.07286800  0.64935600  0.49291800  1
  O  O93  1  0.26080900  0.00882600  0.93213800  1
  O  O94  1  0.45785950  0.87099750  0.77004850  1
  O  O95  1  0.42713200  0.14935600  0.49291800  1
  O  O96  1  0.28578850  0.27434350  0.61875850  1
  O  O97  1  0.73919100  0.00882600  0.43213800  1
  O  O98  1  0.76080900  0.00882600  0.56786200  1
  O  O99  1  0.04214050  0.87099750  0.22995150  1
  O  O100  1  0.57286800  0.85064400  0.50708200  1
  O  O101  1  0.78578850  0.72565650  0.61875850  1
  O  O102  1  0.21421150  0.77434350  0.61875850  1
  O  O103  1  0.54214050  0.12900250  0.22995150  1
