# generated using pymatgen
data_Cr5(PO4)4
_symmetry_space_group_name_H-M   'P 1'
_cell_length_a   5.19625208
_cell_length_b   8.08849480
_cell_length_c   8.36405459
_cell_angle_alpha   113.64435133
_cell_angle_beta   91.66659082
_cell_angle_gamma   99.12974004
_symmetry_Int_Tables_number   1
_chemical_formula_structural   Cr5(PO4)4
_chemical_formula_sum   'Cr5 P4 O16'
_cell_volume   316.27440505
_cell_formula_units_Z   1
loop_
 _symmetry_equiv_pos_site_id
 _symmetry_equiv_pos_as_xyz
  1  'x, y, z'
loop_
 _atom_site_type_symbol
 _atom_site_label
 _atom_site_symmetry_multiplicity
 _atom_site_fract_x
 _atom_site_fract_y
 _atom_site_fract_z
 _atom_site_occupancy
  Cr  Cr0  1  0.00000000  0.00000000  0.00000000  1
  Cr  Cr1  1  0.11616800  0.24859900  0.76539450  1
  Cr  Cr2  1  0.88383200  0.75140100  0.23460550  1
  Cr  Cr3  1  0.64549000  0.41563600  0.66519550  1
  Cr  Cr4  1  0.35451000  0.58436400  0.33480450  1
  P  P5  1  0.14138800  0.19799650  0.42657750  1
  P  P6  1  0.85861200  0.80200350  0.57342250  1
  P  P7  1  0.64061100  0.30563200  0.02414750  1
  P  P8  1  0.35938900  0.69436800  0.97585250  1
  O  O9  1  0.34495900  0.23669950  0.95562650  1
  O  O10  1  0.65504100  0.76330050  0.04437350  1
  O  O11  1  0.80102900  0.33995350  0.88130050  1
  O  O12  1  0.19897100  0.66004650  0.11869950  1
  O  O13  1  0.33743400  0.17139200  0.55941150  1
  O  O14  1  0.66256600  0.82860800  0.44058850  1
  O  O15  1  0.04838100  0.01164850  0.26616750  1
  O  O16  1  0.95161900  0.98835150  0.73383250  1
  O  O17  1  0.91830500  0.25487450  0.55034650  1
  O  O18  1  0.08169500  0.74512550  0.44965350  1
  O  O19  1  0.75061300  0.17760800  0.08691950  1
  O  O20  1  0.24938700  0.82239200  0.91308050  1
  O  O21  1  0.33770800  0.50026650  0.81555250  1
  O  O22  1  0.66229200  0.49973350  0.18444750  1
  O  O23  1  0.26009300  0.34358950  0.36702100  1
  O  O24  1  0.73990700  0.65641050  0.63297900  1
