# generated using pymatgen
data_Ce2Sn5
_symmetry_space_group_name_H-M   'P 1'
_cell_length_a   4.63623600
_cell_length_b   34.75355000
_cell_length_c   4.66437700
_cell_angle_alpha   90.00000000
_cell_angle_beta   90.00000000
_cell_angle_gamma   90.00000000
_symmetry_Int_Tables_number   1
_chemical_formula_structural   Ce2Sn5
_chemical_formula_sum   'Ce8 Sn20'
_cell_volume   751.55082092
_cell_formula_units_Z   4
loop_
 _symmetry_equiv_pos_site_id
 _symmetry_equiv_pos_as_xyz
  1  'x, y, z'
loop_
 _atom_site_type_symbol
 _atom_site_label
 _atom_site_symmetry_multiplicity
 _atom_site_fract_x
 _atom_site_fract_y
 _atom_site_fract_z
 _atom_site_occupancy
  Ce  Ce0  1  0.00000000  0.56837800  0.00000000  1
  Ce  Ce1  1  0.50000000  0.93162200  0.00000000  1
  Ce  Ce2  1  0.00000000  0.70278100  0.00000000  1
  Ce  Ce3  1  0.50000000  0.79721900  0.00000000  1
  Ce  Ce4  1  0.50000000  0.06837800  0.00000000  1
  Ce  Ce5  1  0.00000000  0.43162200  0.00000000  1
  Ce  Ce6  1  0.50000000  0.20278100  0.00000000  1
  Ce  Ce7  1  0.00000000  0.29721900  0.00000000  1
  Sn  Sn8  1  0.00000000  0.00000000  0.00000000  1
  Sn  Sn9  1  0.50000000  0.00000000  0.50000000  1
  Sn  Sn10  1  0.00000000  0.86252700  0.00000000  1
  Sn  Sn11  1  0.50000000  0.63747300  0.00000000  1
  Sn  Sn12  1  0.00000000  0.63786000  0.50000000  1
  Sn  Sn13  1  0.50000000  0.86214000  0.50000000  1
  Sn  Sn14  1  0.00000000  0.92957300  0.50000000  1
  Sn  Sn15  1  0.50000000  0.57042700  0.50000000  1
  Sn  Sn16  1  0.00000000  0.78014800  0.50000000  1
  Sn  Sn17  1  0.50000000  0.71985200  0.50000000  1
  Sn  Sn18  1  0.50000000  0.50000000  0.00000000  1
  Sn  Sn19  1  0.00000000  0.50000000  0.50000000  1
  Sn  Sn20  1  0.50000000  0.36252700  0.00000000  1
  Sn  Sn21  1  0.00000000  0.13747300  0.00000000  1
  Sn  Sn22  1  0.50000000  0.13786000  0.50000000  1
  Sn  Sn23  1  0.00000000  0.36214000  0.50000000  1
  Sn  Sn24  1  0.50000000  0.42957300  0.50000000  1
  Sn  Sn25  1  0.00000000  0.07042700  0.50000000  1
  Sn  Sn26  1  0.50000000  0.28014800  0.50000000  1
  Sn  Sn27  1  0.00000000  0.21985200  0.50000000  1
