# generated using pymatgen
data_Cs2K4Fe2O5
_symmetry_space_group_name_H-M   'P 1'
_cell_length_a   7.10002020
_cell_length_b   11.59135799
_cell_length_c   7.04300681
_cell_angle_alpha   90.00000000
_cell_angle_beta   90.21435512
_cell_angle_gamma   90.00000000
_symmetry_Int_Tables_number   1
_chemical_formula_structural   Cs2K4Fe2O5
_chemical_formula_sum   'Cs4 K8 Fe4 O10'
_cell_volume   579.62748662
_cell_formula_units_Z   2
loop_
 _symmetry_equiv_pos_site_id
 _symmetry_equiv_pos_as_xyz
  1  'x, y, z'
loop_
 _atom_site_type_symbol
 _atom_site_label
 _atom_site_symmetry_multiplicity
 _atom_site_fract_x
 _atom_site_fract_y
 _atom_site_fract_z
 _atom_site_occupancy
  Cs  Cs0  1  0.32956650  0.00000000  0.69885700  1
  Cs  Cs1  1  0.67043350  0.00000000  0.30114300  1
  Cs  Cs2  1  0.82956650  0.50000000  0.69885700  1
  Cs  Cs3  1  0.17043350  0.50000000  0.30114300  1
  K  K4  1  0.50000000  0.26149500  0.00000000  1
  K  K5  1  0.50000000  0.73850500  0.00000000  1
  K  K6  1  0.50000000  0.72254250  0.50000000  1
  K  K7  1  0.50000000  0.27745750  0.50000000  1
  K  K8  1  0.00000000  0.76149500  0.00000000  1
  K  K9  1  0.00000000  0.23850500  0.00000000  1
  K  K10  1  0.00000000  0.22254250  0.50000000  1
  K  K11  1  0.00000000  0.77745750  0.50000000  1
  Fe  Fe12  1  0.80246950  0.00000000  0.80915100  1
  Fe  Fe13  1  0.19753050  0.00000000  0.19084900  1
  Fe  Fe14  1  0.30246950  0.50000000  0.80915100  1
  Fe  Fe15  1  0.69753050  0.50000000  0.19084900  1
  O  O16  1  0.00000000  0.00000000  0.00000000  1
  O  O17  1  0.70855400  0.14520500  0.72818100  1
  O  O18  1  0.29144600  0.14520500  0.27181900  1
  O  O19  1  0.29144600  0.85479500  0.27181900  1
  O  O20  1  0.70855400  0.85479500  0.72818100  1
  O  O21  1  0.50000000  0.50000000  0.00000000  1
  O  O22  1  0.20855400  0.64520500  0.72818100  1
  O  O23  1  0.79144600  0.64520500  0.27181900  1
  O  O24  1  0.79144600  0.35479500  0.27181900  1
  O  O25  1  0.20855400  0.35479500  0.72818100  1
