# generated using pymatgen
data_Tb2Zn17
_symmetry_space_group_name_H-M   'P 1'
_cell_length_a   8.97553865
_cell_length_b   8.97553865
_cell_length_c   13.22159618
_cell_angle_alpha   90.00000000
_cell_angle_beta   90.00000000
_cell_angle_gamma   120.00000000
_symmetry_Int_Tables_number   1
_chemical_formula_structural   Tb2Zn17
_chemical_formula_sum   'Tb6 Zn51'
_cell_volume   922.43455406
_cell_formula_units_Z   3
loop_
 _symmetry_equiv_pos_site_id
 _symmetry_equiv_pos_as_xyz
  1  'x, y, z'
loop_
 _atom_site_type_symbol
 _atom_site_label
 _atom_site_symmetry_multiplicity
 _atom_site_fract_x
 _atom_site_fract_y
 _atom_site_fract_z
 _atom_site_occupancy
  Tb  Tb0  1  0.33333333  0.66666667  0.00152367  1
  Tb  Tb1  1  0.33333333  0.66666667  0.33180967  1
  Tb  Tb2  1  0.00000000  0.00000000  0.33485700  1
  Tb  Tb3  1  0.00000000  0.00000000  0.66514300  1
  Tb  Tb4  1  0.66666667  0.33333333  0.66819033  1
  Tb  Tb5  1  0.66666667  0.33333333  0.99847633  1
  Zn  Zn6  1  0.17109233  0.34218467  0.18058967  1
  Zn  Zn7  1  0.29683400  0.00000000  0.00000000  1
  Zn  Zn8  1  0.36983267  0.03649933  0.33333333  1
  Zn  Zn9  1  0.00000000  0.70316600  0.00000000  1
  Zn  Zn10  1  0.70316600  0.00000000  0.00000000  1
  Zn  Zn11  1  0.49557433  0.50442567  0.15274367  1
  Zn  Zn12  1  0.33333333  0.66666667  0.56657067  1
  Zn  Zn13  1  0.00000000  0.29683400  0.00000000  1
  Zn  Zn14  1  0.16666667  0.83333333  0.83333333  1
  Zn  Zn15  1  0.00885133  0.50442567  0.15274367  1
  Zn  Zn16  1  0.49557433  0.99114867  0.15274367  1
  Zn  Zn17  1  0.33333333  0.66666667  0.76676267  1
  Zn  Zn18  1  0.65781533  0.82890767  0.18058967  1
  Zn  Zn19  1  0.17109233  0.82890767  0.18058967  1
  Zn  Zn20  1  0.96350067  0.63016733  0.33333333  1
  Zn  Zn21  1  0.83333333  0.66666667  0.16666667  1
  Zn  Zn22  1  0.33333333  0.16666667  0.16666667  1
  Zn  Zn23  1  0.83775900  0.67551800  0.51392300  1
  Zn  Zn24  1  0.96350067  0.33333333  0.33333333  1
  Zn  Zn25  1  0.03649933  0.36983267  0.66666667  1
  Zn  Zn26  1  0.66666667  0.03649933  0.33333333  1
  Zn  Zn27  1  0.36983267  0.33333333  0.33333333  1
  Zn  Zn28  1  0.16224100  0.83775900  0.48607700  1
  Zn  Zn29  1  0.00000000  0.00000000  0.89990400  1
  Zn  Zn30  1  0.66666667  0.63016733  0.33333333  1
  Zn  Zn31  1  0.83333333  0.16666667  0.16666667  1
  Zn  Zn32  1  0.67551800  0.83775900  0.48607700  1
  Zn  Zn33  1  0.16224100  0.32448200  0.48607700  1
  Zn  Zn34  1  0.00000000  0.00000000  0.10009600  1
  Zn  Zn35  1  0.32448200  0.16224100  0.51392300  1
  Zn  Zn36  1  0.83775900  0.16224100  0.51392300  1
  Zn  Zn37  1  0.63016733  0.96350067  0.66666667  1
  Zn  Zn38  1  0.50000000  0.00000000  0.50000000  1
  Zn  Zn39  1  0.00000000  0.50000000  0.50000000  1
  Zn  Zn40  1  0.50442567  0.00885133  0.84725633  1
  Zn  Zn41  1  0.63016733  0.66666667  0.66666667  1
  Zn  Zn42  1  0.70316600  0.70316600  0.00000000  1
  Zn  Zn43  1  0.33333333  0.36983267  0.66666667  1
  Zn  Zn44  1  0.03649933  0.66666667  0.66666667  1
  Zn  Zn45  1  0.82890767  0.17109233  0.81941033  1
  Zn  Zn46  1  0.66666667  0.33333333  0.23323733  1
  Zn  Zn47  1  0.33333333  0.96350067  0.66666667  1
  Zn  Zn48  1  0.50000000  0.50000000  0.50000000  1
  Zn  Zn49  1  0.34218467  0.17109233  0.81941033  1
  Zn  Zn50  1  0.82890767  0.65781533  0.81941033  1
  Zn  Zn51  1  0.66666667  0.33333333  0.43342933  1
  Zn  Zn52  1  0.99114867  0.49557433  0.84725633  1
  Zn  Zn53  1  0.50442567  0.49557433  0.84725633  1
  Zn  Zn54  1  0.29683400  0.29683400  0.00000000  1
  Zn  Zn55  1  0.16666667  0.33333333  0.83333333  1
  Zn  Zn56  1  0.66666667  0.83333333  0.83333333  1
