# generated using pymatgen
data_Dy5Ga3
_symmetry_space_group_name_H-M   'P 1'
_cell_length_a   7.63496200
_cell_length_b   7.63496200
_cell_length_c   14.20609600
_cell_angle_alpha   90.00000000
_cell_angle_beta   90.00000000
_cell_angle_gamma   90.00000000
_symmetry_Int_Tables_number   1
_chemical_formula_structural   Dy5Ga3
_chemical_formula_sum   'Dy20 Ga12'
_cell_volume   828.11090729
_cell_formula_units_Z   4
loop_
 _symmetry_equiv_pos_site_id
 _symmetry_equiv_pos_as_xyz
  1  'x, y, z'
loop_
 _atom_site_type_symbol
 _atom_site_label
 _atom_site_symmetry_multiplicity
 _atom_site_fract_x
 _atom_site_fract_y
 _atom_site_fract_z
 _atom_site_occupancy
  Dy  Dy0  1  0.50000000  0.50000000  0.00000000  1
  Dy  Dy1  1  0.00000000  0.00000000  0.00000000  1
  Dy  Dy2  1  0.67007900  0.17007900  0.14723800  1
  Dy  Dy3  1  0.82992100  0.67007900  0.14723800  1
  Dy  Dy4  1  0.17007900  0.32992100  0.14723800  1
  Dy  Dy5  1  0.67007900  0.82992100  0.35276200  1
  Dy  Dy6  1  0.32992100  0.17007900  0.35276200  1
  Dy  Dy7  1  0.17007900  0.67007900  0.35276200  1
  Dy  Dy8  1  0.82992100  0.32992100  0.35276200  1
  Dy  Dy9  1  0.32992100  0.82992100  0.14723800  1
  Dy  Dy10  1  0.00000000  0.00000000  0.50000000  1
  Dy  Dy11  1  0.50000000  0.50000000  0.50000000  1
  Dy  Dy12  1  0.17007900  0.67007900  0.64723800  1
  Dy  Dy13  1  0.32992100  0.17007900  0.64723800  1
  Dy  Dy14  1  0.67007900  0.82992100  0.64723800  1
  Dy  Dy15  1  0.17007900  0.32992100  0.85276200  1
  Dy  Dy16  1  0.82992100  0.67007900  0.85276200  1
  Dy  Dy17  1  0.67007900  0.17007900  0.85276200  1
  Dy  Dy18  1  0.32992100  0.82992100  0.85276200  1
  Dy  Dy19  1  0.82992100  0.32992100  0.64723800  1
  Ga  Ga20  1  0.50000000  0.50000000  0.25000000  1
  Ga  Ga21  1  0.00000000  0.00000000  0.25000000  1
  Ga  Ga22  1  0.87782900  0.37782900  0.00000000  1
  Ga  Ga23  1  0.62217100  0.87782900  0.00000000  1
  Ga  Ga24  1  0.37782900  0.12217100  0.00000000  1
  Ga  Ga25  1  0.12217100  0.62217100  0.00000000  1
  Ga  Ga26  1  0.00000000  0.00000000  0.75000000  1
  Ga  Ga27  1  0.50000000  0.50000000  0.75000000  1
  Ga  Ga28  1  0.37782900  0.87782900  0.50000000  1
  Ga  Ga29  1  0.12217100  0.37782900  0.50000000  1
  Ga  Ga30  1  0.87782900  0.62217100  0.50000000  1
  Ga  Ga31  1  0.62217100  0.12217100  0.50000000  1
