# generated using pymatgen
data_LiMo(PO4)2
_symmetry_space_group_name_H-M   'P 1'
_cell_length_a   5.07662500
_cell_length_b   8.39042400
_cell_length_c   8.10008339
_cell_angle_alpha   90.00000000
_cell_angle_beta   119.67828811
_cell_angle_gamma   90.00000000
_symmetry_Int_Tables_number   1
_chemical_formula_structural   LiMo(PO4)2
_chemical_formula_sum   'Li2 Mo2 P4 O16'
_cell_volume   299.76290829
_cell_formula_units_Z   2
loop_
 _symmetry_equiv_pos_site_id
 _symmetry_equiv_pos_as_xyz
  1  'x, y, z'
loop_
 _atom_site_type_symbol
 _atom_site_label
 _atom_site_symmetry_multiplicity
 _atom_site_fract_x
 _atom_site_fract_y
 _atom_site_fract_z
 _atom_site_occupancy
  Li  Li0  1  0.00000000  0.50000000  0.00000000  1
  Li  Li1  1  0.00000000  0.00000000  0.50000000  1
  Mo  Mo2  1  0.50000000  0.50000000  0.50000000  1
  Mo  Mo3  1  0.50000000  0.00000000  0.00000000  1
  P  P4  1  0.82974700  0.17997500  0.76391700  1
  P  P5  1  0.17025300  0.67997500  0.73608300  1
  P  P6  1  0.17025300  0.82002500  0.23608300  1
  P  P7  1  0.82974700  0.32002500  0.26391700  1
  O  O8  1  0.77009700  0.36396500  0.73308100  1
  O  O9  1  0.76334600  0.09655800  0.58631700  1
  O  O10  1  0.22990300  0.63603500  0.26691900  1
  O  O11  1  0.23665400  0.90344200  0.41368300  1
  O  O12  1  0.62208100  0.11603300  0.84705200  1
  O  O13  1  0.37791900  0.61603300  0.65294800  1
  O  O14  1  0.83947900  0.84214300  0.06619400  1
  O  O15  1  0.16052100  0.34214300  0.43380600  1
  O  O16  1  0.76334600  0.40344200  0.08631700  1
  O  O17  1  0.77009700  0.13603500  0.23308100  1
  O  O18  1  0.22990300  0.86396500  0.76691900  1
  O  O19  1  0.23665400  0.59655800  0.91368300  1
  O  O20  1  0.83947900  0.65785700  0.56619400  1
  O  O21  1  0.16052100  0.15785700  0.93380600  1
  O  O22  1  0.62208100  0.38396700  0.34705200  1
  O  O23  1  0.37791900  0.88396700  0.15294800  1
