# generated using pymatgen
data_K4Ni(NO2)6
_symmetry_space_group_name_H-M   'P 1'
_cell_length_a   7.63577435
_cell_length_b   7.63577435
_cell_length_c   23.07026618
_cell_angle_alpha   90.00000000
_cell_angle_beta   90.00000000
_cell_angle_gamma   120.00000000
_symmetry_Int_Tables_number   1
_chemical_formula_structural   K4Ni(NO2)6
_chemical_formula_sum   'K12 Ni3 N18 O36'
_cell_volume   1164.90204848
_cell_formula_units_Z   3
loop_
 _symmetry_equiv_pos_site_id
 _symmetry_equiv_pos_as_xyz
  1  'x, y, z'
loop_
 _atom_site_type_symbol
 _atom_site_label
 _atom_site_symmetry_multiplicity
 _atom_site_fract_x
 _atom_site_fract_y
 _atom_site_fract_z
 _atom_site_occupancy
  K  K0  1  0.00000000  0.00000000  0.19089775  1
  K  K1  1  0.66666667  0.33333333  0.14243558  1
  K  K2  1  0.33333333  0.66666667  0.28925192  1
  K  K3  1  0.33333333  0.66666667  0.04408142  1
  K  K4  1  0.66666667  0.33333333  0.52423108  1
  K  K5  1  0.33333333  0.66666667  0.47576892  1
  K  K6  1  0.00000000  0.00000000  0.62258525  1
  K  K7  1  0.00000000  0.00000000  0.37741475  1
  K  K8  1  0.33333333  0.66666667  0.85756442  1
  K  K9  1  0.00000000  1.00000000  0.80910225  1
  K  K10  1  0.66666667  0.33333333  0.95591858  1
  K  K11  1  0.66666667  0.33333333  0.71074808  1
  Ni  Ni12  1  0.66666667  0.33333333  0.33333333  1
  Ni  Ni13  1  0.33333333  0.66666667  0.66666667  1
  Ni  Ni14  1  0.00000000  1.00000000  0.00000000  1
  N  N15  1  0.40723283  0.20732917  0.27797492  1
  N  N16  1  0.86657033  0.74056617  0.05535842  1
  N  N17  1  0.79267083  0.19990367  0.27797492  1
  N  N18  1  0.87399583  0.13342967  0.05535842  1
  N  N19  1  0.80009633  0.59276717  0.27797492  1
  N  N20  1  0.25943383  0.12600417  0.05535842  1
  N  N21  1  0.07389950  0.54066250  0.61130825  1
  N  N22  1  0.53323700  0.07389950  0.38869175  1
  N  N23  1  0.45933750  0.53323700  0.61130825  1
  N  N24  1  0.54066250  0.46676300  0.38869175  1
  N  N25  1  0.46676300  0.92610050  0.61130825  1
  N  N26  1  0.92610050  0.45933750  0.38869175  1
  N  N27  1  0.74056617  0.87399583  0.94464158  1
  N  N28  1  0.19990367  0.40723283  0.72202508  1
  N  N29  1  0.12600417  0.86657033  0.94464158  1
  N  N30  1  0.20732917  0.80009633  0.72202508  1
  N  N31  1  0.13342967  0.25943383  0.94464158  1
  N  N32  1  0.59276717  0.79267083  0.72202508  1
  O  O33  1  0.39302158  0.30194117  0.23496592  1
  O  O34  1  0.96860783  0.24225292  0.09836742  1
  O  O35  1  0.75774708  0.72635492  0.09836742  1
  O  O36  1  0.27364508  0.03139217  0.09836742  1
  O  O37  1  0.69805883  0.09108042  0.23496592  1
  O  O38  1  0.90891958  0.60697842  0.23496592  1
  O  O39  1  0.90473400  0.59915900  0.04756475  1
  O  O40  1  0.97224167  0.23806733  0.28576858  1
  O  O41  1  0.26582567  0.02775833  0.28576858  1
  O  O42  1  0.76193267  0.73417433  0.28576858  1
  O  O43  1  0.40084100  0.30557500  0.04756475  1
  O  O44  1  0.69442500  0.09526600  0.04756475  1
  O  O45  1  0.05968825  0.63527450  0.56829925  1
  O  O46  1  0.63527450  0.57558625  0.43170075  1
  O  O47  1  0.42441375  0.05968825  0.43170075  1
  O  O48  1  0.94031175  0.36472550  0.43170075  1
  O  O49  1  0.36472550  0.42441375  0.56829925  1
  O  O50  1  0.57558625  0.94031175  0.56829925  1
  O  O51  1  0.57140067  0.93249233  0.38089808  1
  O  O52  1  0.63890833  0.57140067  0.61910192  1
  O  O53  1  0.93249233  0.36109167  0.61910192  1
  O  O54  1  0.42859933  0.06750767  0.61910192  1
  O  O55  1  0.06750767  0.63890833  0.38089808  1
  O  O56  1  0.36109167  0.42859933  0.38089808  1
  O  O57  1  0.72635492  0.96860783  0.90163258  1
  O  O58  1  0.30194117  0.90891958  0.76503408  1
  O  O59  1  0.09108042  0.39302158  0.76503408  1
  O  O60  1  0.60697842  0.69805883  0.76503408  1
  O  O61  1  0.03139217  0.75774708  0.90163258  1
  O  O62  1  0.24225292  0.27364508  0.90163258  1
  O  O63  1  0.23806733  0.26582567  0.71423142  1
  O  O64  1  0.30557500  0.90473400  0.95243525  1
  O  O65  1  0.59915900  0.69442500  0.95243525  1
  O  O66  1  0.09526600  0.40084100  0.95243525  1
  O  O67  1  0.73417433  0.97224167  0.71423142  1
  O  O68  1  0.02775833  0.76193267  0.71423142  1
