# generated using pymatgen
data_ErSnPd2
_symmetry_space_group_name_H-M   'P 1'
_cell_length_a   6.76304400
_cell_length_b   6.76304400
_cell_length_c   6.76304400
_cell_angle_alpha   90.00000000
_cell_angle_beta   90.00000000
_cell_angle_gamma   90.00000000
_symmetry_Int_Tables_number   1
_chemical_formula_structural   ErSnPd2
_chemical_formula_sum   'Er4 Sn4 Pd8'
_cell_volume   309.33327442
_cell_formula_units_Z   4
loop_
 _symmetry_equiv_pos_site_id
 _symmetry_equiv_pos_as_xyz
  1  'x, y, z'
loop_
 _atom_site_type_symbol
 _atom_site_label
 _atom_site_symmetry_multiplicity
 _atom_site_fract_x
 _atom_site_fract_y
 _atom_site_fract_z
 _atom_site_occupancy
  Er  Er0  1  0.50000000  0.00000000  0.00000000  1
  Er  Er1  1  0.50000000  0.50000000  0.50000000  1
  Er  Er2  1  0.00000000  0.00000000  0.50000000  1
  Er  Er3  1  0.00000000  0.50000000  0.00000000  1
  Sn  Sn4  1  0.00000000  0.00000000  0.00000000  1
  Sn  Sn5  1  0.00000000  0.50000000  0.50000000  1
  Sn  Sn6  1  0.50000000  0.00000000  0.50000000  1
  Sn  Sn7  1  0.50000000  0.50000000  0.00000000  1
  Pd  Pd8  1  0.25000000  0.25000000  0.75000000  1
  Pd  Pd9  1  0.25000000  0.75000000  0.75000000  1
  Pd  Pd10  1  0.25000000  0.75000000  0.25000000  1
  Pd  Pd11  1  0.25000000  0.25000000  0.25000000  1
  Pd  Pd12  1  0.75000000  0.25000000  0.25000000  1
  Pd  Pd13  1  0.75000000  0.75000000  0.25000000  1
  Pd  Pd14  1  0.75000000  0.75000000  0.75000000  1
  Pd  Pd15  1  0.75000000  0.25000000  0.75000000  1
