# generated using pymatgen
data_Co(NO3)2
_symmetry_space_group_name_H-M   'P 1'
_cell_length_a   10.68945309
_cell_length_b   10.68945309
_cell_length_c   13.01013045
_cell_angle_alpha   90.00000000
_cell_angle_beta   90.00000000
_cell_angle_gamma   120.00000000
_symmetry_Int_Tables_number   1
_chemical_formula_structural   Co(NO3)2
_chemical_formula_sum   'Co12 N24 O72'
_cell_volume   1287.42890052
_cell_formula_units_Z   12
loop_
 _symmetry_equiv_pos_site_id
 _symmetry_equiv_pos_as_xyz
  1  'x, y, z'
loop_
 _atom_site_type_symbol
 _atom_site_label
 _atom_site_symmetry_multiplicity
 _atom_site_fract_x
 _atom_site_fract_y
 _atom_site_fract_z
 _atom_site_occupancy
  Co  Co0  1  0.00000000  0.00000000  0.00000000  1
  Co  Co1  1  0.66666667  0.83333333  0.33333333  1
  Co  Co2  1  0.16666667  0.33333333  0.33333333  1
  Co  Co3  1  0.16666667  0.83333333  0.33333333  1
  Co  Co4  1  0.66666667  0.33333333  0.33333333  1
  Co  Co5  1  0.33333333  0.16666667  0.66666667  1
  Co  Co6  1  0.83333333  0.66666667  0.66666667  1
  Co  Co7  1  0.83333333  0.16666667  0.66666667  1
  Co  Co8  1  0.33333333  0.66666667  0.66666667  1
  Co  Co9  1  0.00000000  0.50000000  0.00000000  1
  Co  Co10  1  0.50000000  0.00000000  0.00000000  1
  Co  Co11  1  0.50000000  0.50000000  0.00000000  1
  N  N12  1  0.00000000  0.00000000  0.33657667  1
  N  N13  1  0.29124167  0.89938633  0.55070133  1
  N  N14  1  0.60814467  0.70875833  0.55070133  1
  N  N15  1  0.10061367  0.39185533  0.55070133  1
  N  N16  1  0.70875833  0.10061367  0.44929867  1
  N  N17  1  0.00000000  0.00000000  0.66342333  1
  N  N18  1  0.89938633  0.60814467  0.44929867  1
  N  N19  1  0.39185533  0.29124167  0.44929867  1
  N  N20  1  0.66666667  0.33333333  0.66991000  1
  N  N21  1  0.95790833  0.23271967  0.88403467  1
  N  N22  1  0.27481133  0.04209167  0.88403467  1
  N  N23  1  0.76728033  0.72518867  0.88403467  1
  N  N24  1  0.37542500  0.43394700  0.78263200  1
  N  N25  1  0.66666667  0.33333333  0.99675667  1
  N  N26  1  0.56605300  0.94147800  0.78263200  1
  N  N27  1  0.05852200  0.62457500  0.78263200  1
  N  N28  1  0.33333333  0.66666667  0.00324333  1
  N  N29  1  0.62457500  0.56605300  0.21736800  1
  N  N30  1  0.94147800  0.37542500  0.21736800  1
  N  N31  1  0.43394700  0.05852200  0.21736800  1
  N  N32  1  0.04209167  0.76728033  0.11596533  1
  N  N33  1  0.33333333  0.66666667  0.33009000  1
  N  N34  1  0.23271967  0.27481133  0.11596533  1
  N  N35  1  0.72518867  0.95790833  0.11596533  1
  O  O36  1  0.36456833  0.99103067  0.61937467  1
  O  O37  1  0.63543167  0.00896933  0.38062533  1
  O  O38  1  0.00896933  0.37353767  0.61937467  1
  O  O39  1  0.62646233  0.63543167  0.61937467  1
  O  O40  1  0.99669467  0.88022133  0.33696933  1
  O  O41  1  0.11977867  0.11647333  0.33696933  1
  O  O42  1  0.88352667  0.00330533  0.33696933  1
  O  O43  1  0.00330533  0.11977867  0.66303067  1
  O  O44  1  0.88022133  0.88352667  0.66303067  1
  O  O45  1  0.11647333  0.99669467  0.66303067  1
  O  O46  1  0.23930100  0.93599700  0.47670600  1
  O  O47  1  0.06400300  0.30330400  0.47670600  1
  O  O48  1  0.69669600  0.76069900  0.47670600  1
  O  O49  1  0.76069900  0.06400300  0.52329400  1
  O  O50  1  0.93599700  0.69669600  0.52329400  1
  O  O51  1  0.30330400  0.23930100  0.52329400  1
  O  O52  1  0.72887067  0.22772433  0.44507733  1
  O  O53  1  0.77227567  0.50114633  0.44507733  1
  O  O54  1  0.49885367  0.27112933  0.44507733  1
  O  O55  1  0.27112933  0.77227567  0.55492267  1
  O  O56  1  0.22772433  0.49885367  0.55492267  1
  O  O57  1  0.50114633  0.72887067  0.55492267  1
  O  O58  1  0.99103067  0.62646233  0.38062533  1
  O  O59  1  0.37353767  0.36456833  0.38062533  1
  O  O60  1  0.03123500  0.32436400  0.95270800  1
  O  O61  1  0.30209833  0.34230267  0.71395867  1
  O  O62  1  0.67563600  0.70687100  0.95270800  1
  O  O63  1  0.29312900  0.96876500  0.95270800  1
  O  O64  1  0.66336133  0.21355467  0.67030267  1
  O  O65  1  0.78644533  0.44980667  0.67030267  1
  O  O66  1  0.55019333  0.33663867  0.67030267  1
  O  O67  1  0.66997200  0.45311200  0.99636400  1
  O  O68  1  0.54688800  0.21686000  0.99636400  1
  O  O69  1  0.78314000  0.33002800  0.99636400  1
  O  O70  1  0.90596767  0.26933033  0.81003933  1
  O  O71  1  0.73066967  0.63663733  0.81003933  1
  O  O72  1  0.36336267  0.09403233  0.81003933  1
  O  O73  1  0.42736567  0.39733633  0.85662733  1
  O  O74  1  0.60266367  0.03002933  0.85662733  1
  O  O75  1  0.96997067  0.57263433  0.85662733  1
  O  O76  1  0.39553733  0.56105767  0.77841067  1
  O  O77  1  0.43894233  0.83447967  0.77841067  1
  O  O78  1  0.16552033  0.60446267  0.77841067  1
  O  O79  1  0.93779600  0.10560900  0.88825600  1
  O  O80  1  0.89439100  0.83218700  0.88825600  1
  O  O81  1  0.16781300  0.06220400  0.88825600  1
  O  O82  1  0.65769733  0.95979567  0.71395867  1
  O  O83  1  0.04020433  0.69790167  0.71395867  1
  O  O84  1  0.69790167  0.65769733  0.28604133  1
  O  O85  1  0.96876500  0.67563600  0.04729200  1
  O  O86  1  0.34230267  0.04020433  0.28604133  1
  O  O87  1  0.95979567  0.30209833  0.28604133  1
  O  O88  1  0.33002800  0.54688800  0.00363600  1
  O  O89  1  0.45311200  0.78314000  0.00363600  1
  O  O90  1  0.21686000  0.66997200  0.00363600  1
  O  O91  1  0.33663867  0.78644533  0.32969733  1
  O  O92  1  0.21355467  0.55019333  0.32969733  1
  O  O93  1  0.44980667  0.66336133  0.32969733  1
  O  O94  1  0.57263433  0.60266367  0.14337267  1
  O  O95  1  0.39733633  0.96997067  0.14337267  1
  O  O96  1  0.03002933  0.42736567  0.14337267  1
  O  O97  1  0.09403233  0.73066967  0.18996067  1
  O  O98  1  0.26933033  0.36336267  0.18996067  1
  O  O99  1  0.63663733  0.90596767  0.18996067  1
  O  O100  1  0.06220400  0.89439100  0.11174400  1
  O  O101  1  0.10560900  0.16781300  0.11174400  1
  O  O102  1  0.83218700  0.93779600  0.11174400  1
  O  O103  1  0.60446267  0.43894233  0.22158933  1
  O  O104  1  0.56105767  0.16552033  0.22158933  1
  O  O105  1  0.83447967  0.39553733  0.22158933  1
  O  O106  1  0.32436400  0.29312900  0.04729200  1
  O  O107  1  0.70687100  0.03123500  0.04729200  1
