# generated using pymatgen
data_NaCrF4
_symmetry_space_group_name_H-M   'P 1'
_cell_length_a   7.53301800
_cell_length_b   5.41546000
_cell_length_c   7.99402079
_cell_angle_alpha   90.00000000
_cell_angle_beta   101.31063810
_cell_angle_gamma   90.00000000
_symmetry_Int_Tables_number   1
_chemical_formula_structural   NaCrF4
_chemical_formula_sum   'Na4 Cr4 F16'
_cell_volume   319.78043693
_cell_formula_units_Z   4
loop_
 _symmetry_equiv_pos_site_id
 _symmetry_equiv_pos_as_xyz
  1  'x, y, z'
loop_
 _atom_site_type_symbol
 _atom_site_label
 _atom_site_symmetry_multiplicity
 _atom_site_fract_x
 _atom_site_fract_y
 _atom_site_fract_z
 _atom_site_occupancy
  Na  Na0  1  0.11043300  0.22001100  0.36385200  1
  Na  Na1  1  0.38956700  0.72001100  0.63614800  1
  Na  Na2  1  0.88956700  0.77998900  0.63614800  1
  Na  Na3  1  0.61043300  0.27998900  0.36385200  1
  Cr  Cr4  1  0.29793200  0.74237100  0.16879100  1
  Cr  Cr5  1  0.20206800  0.24237100  0.83120900  1
  Cr  Cr6  1  0.70206800  0.25762900  0.83120900  1
  Cr  Cr7  1  0.79793200  0.75762900  0.16879100  1
  F  F8  1  0.87411200  0.48114800  0.30959200  1
  F  F9  1  0.62588800  0.98114800  0.69040800  1
  F  F10  1  0.12588800  0.51885200  0.69040800  1
  F  F11  1  0.37411200  0.01885200  0.30959200  1
  F  F12  1  0.81301500  0.95575600  0.36969800  1
  F  F13  1  0.68698500  0.45575600  0.63030200  1
  F  F14  1  0.18698500  0.04424400  0.63030200  1
  F  F15  1  0.31301500  0.54424400  0.36969800  1
  F  F16  1  0.04880100  0.85923300  0.16795500  1
  F  F17  1  0.45119900  0.35923300  0.83204500  1
  F  F18  1  0.95119900  0.14076700  0.83204500  1
  F  F19  1  0.54880100  0.64076700  0.16795500  1
  F  F20  1  0.20519500  0.43926100  0.03986400  1
  F  F21  1  0.29480500  0.93926100  0.96013600  1
  F  F22  1  0.79480500  0.56073900  0.96013600  1
  F  F23  1  0.70519500  0.06073900  0.03986400  1
