# generated using pymatgen
data_Mn2PClO4
_symmetry_space_group_name_H-M   'P 1'
_cell_length_a   4.98438200
_cell_length_b   8.17942300
_cell_length_c   11.53503200
_cell_angle_alpha   90.00000000
_cell_angle_beta   90.00000000
_cell_angle_gamma   90.00000000
_symmetry_Int_Tables_number   1
_chemical_formula_structural   Mn2PClO4
_chemical_formula_sum   'Mn8 P4 Cl4 O16'
_cell_volume   470.27597341
_cell_formula_units_Z   4
loop_
 _symmetry_equiv_pos_site_id
 _symmetry_equiv_pos_as_xyz
  1  'x, y, z'
loop_
 _atom_site_type_symbol
 _atom_site_label
 _atom_site_symmetry_multiplicity
 _atom_site_fract_x
 _atom_site_fract_y
 _atom_site_fract_z
 _atom_site_occupancy
  Mn  Mn0  1  0.49898500  0.10409300  0.37967250  1
  Mn  Mn1  1  0.99898500  0.60409300  0.12032750  1
  Mn  Mn2  1  0.99575600  0.34554700  0.62425450  1
  Mn  Mn3  1  0.49575600  0.84554700  0.87574550  1
  Mn  Mn4  1  0.99898500  0.89590700  0.62032750  1
  Mn  Mn5  1  0.49898500  0.39590700  0.87967250  1
  Mn  Mn6  1  0.99575600  0.15445300  0.12425450  1
  Mn  Mn7  1  0.49575600  0.65445300  0.37574550  1
  P  P8  1  0.54609700  0.37816500  0.16375150  1
  P  P9  1  0.04609700  0.87816500  0.33624850  1
  P  P10  1  0.54609700  0.12183500  0.66375150  1
  P  P11  1  0.04609700  0.62183500  0.83624850  1
  Cl  Cl12  1  0.73930700  0.62039200  0.56451250  1
  Cl  Cl13  1  0.23930700  0.12039200  0.93548750  1
  Cl  Cl14  1  0.23930700  0.37960800  0.43548750  1
  Cl  Cl15  1  0.73930700  0.87960800  0.06451250  1
  O  O16  1  0.64597000  0.22329200  0.22899350  1
  O  O17  1  0.14597000  0.72329200  0.27100650  1
  O  O18  1  0.14597000  0.77670800  0.77100650  1
  O  O19  1  0.64597000  0.27670800  0.72899350  1
  O  O20  1  0.14523900  0.03612000  0.27454950  1
  O  O21  1  0.64523900  0.53612000  0.22545050  1
  O  O22  1  0.64523900  0.96388000  0.72545050  1
  O  O23  1  0.14523900  0.46388000  0.77454950  1
  O  O24  1  0.19857600  0.62483600  0.95550550  1
  O  O25  1  0.19857600  0.87516400  0.45550550  1
  O  O26  1  0.69857600  0.37516400  0.04449450  1
  O  O27  1  0.69857600  0.12483600  0.54449450  1
  O  O28  1  0.73735800  0.87860800  0.35045450  1
  O  O29  1  0.23735800  0.12139200  0.64954550  1
  O  O30  1  0.23735800  0.37860800  0.14954550  1
  O  O31  1  0.73735800  0.62139200  0.85045450  1
