# generated using pymatgen
data_Mn3(CoO4)2
_symmetry_space_group_name_H-M   'P 1'
_cell_length_a   5.02403700
_cell_length_b   5.87248200
_cell_length_c   9.39618700
_cell_angle_alpha   90.00000000
_cell_angle_beta   90.00000000
_cell_angle_gamma   90.00000000
_symmetry_Int_Tables_number   1
_chemical_formula_structural   Mn3(CoO4)2
_chemical_formula_sum   'Mn6 Co4 O16'
_cell_volume   277.22103129
_cell_formula_units_Z   2
loop_
 _symmetry_equiv_pos_site_id
 _symmetry_equiv_pos_as_xyz
  1  'x, y, z'
loop_
 _atom_site_type_symbol
 _atom_site_label
 _atom_site_symmetry_multiplicity
 _atom_site_fract_x
 _atom_site_fract_y
 _atom_site_fract_z
 _atom_site_occupancy
  Mn  Mn0  1  0.16271200  0.75874200  0.99946800  1
  Mn  Mn1  1  0.83728800  0.74125800  0.49946800  1
  Mn  Mn2  1  0.83728800  0.25874200  0.49946800  1
  Mn  Mn3  1  0.16271200  0.24125800  0.99946800  1
  Mn  Mn4  1  0.67241400  0.50000000  0.00123500  1
  Mn  Mn5  1  0.32758600  0.00000000  0.50123500  1
  Co  Co6  1  0.67227600  0.00000000  0.78606400  1
  Co  Co7  1  0.32772400  0.50000000  0.28606400  1
  Co  Co8  1  0.33642300  0.50000000  0.68024000  1
  Co  Co9  1  0.66357700  0.00000000  0.18024000  1
  O  O10  1  0.83892200  0.25936000  0.89513700  1
  O  O11  1  0.16107800  0.24064000  0.39513700  1
  O  O12  1  0.16107800  0.75936000  0.39513700  1
  O  O13  1  0.83892200  0.74064000  0.89513700  1
  O  O14  1  0.52122300  0.21994500  0.62230400  1
  O  O15  1  0.47877700  0.28005500  0.12230400  1
  O  O16  1  0.47877700  0.71994500  0.12230400  1
  O  O17  1  0.52122300  0.78005500  0.62230400  1
  O  O18  1  0.31692900  0.00000000  0.89426600  1
  O  O19  1  0.68307100  0.50000000  0.39426600  1
  O  O20  1  0.33766700  0.50000000  0.89205000  1
  O  O21  1  0.66233300  0.00000000  0.39205000  1
  O  O22  1  0.99552700  0.00000000  0.60680400  1
  O  O23  1  0.00447300  0.50000000  0.10680400  1
  O  O24  1  0.96771000  0.50000000  0.61362100  1
  O  O25  1  0.03229000  0.00000000  0.11362100  1
