# generated using pymatgen
data_KMnO2
_symmetry_space_group_name_H-M   'P 1'
_cell_length_a   6.31050300
_cell_length_b   11.55317900
_cell_length_c   10.37286351
_cell_angle_alpha   90.00000000
_cell_angle_beta   94.81334313
_cell_angle_gamma   90.00000000
_symmetry_Int_Tables_number   1
_chemical_formula_structural   KMnO2
_chemical_formula_sum   'K12 Mn12 O24'
_cell_volume   753.58080756
_cell_formula_units_Z   12
loop_
 _symmetry_equiv_pos_site_id
 _symmetry_equiv_pos_as_xyz
  1  'x, y, z'
loop_
 _atom_site_type_symbol
 _atom_site_label
 _atom_site_symmetry_multiplicity
 _atom_site_fract_x
 _atom_site_fract_y
 _atom_site_fract_z
 _atom_site_occupancy
  K  K0  1  0.16995200  0.25000000  0.42469200  1
  K  K1  1  0.18979700  0.54098200  0.41519500  1
  K  K2  1  0.81020300  0.45901800  0.58480500  1
  K  K3  1  0.92455000  0.25000000  0.82389400  1
  K  K4  1  0.93359300  0.89636900  0.88152900  1
  K  K5  1  0.06640700  0.39636900  0.11847100  1
  K  K6  1  0.07545000  0.75000000  0.17610600  1
  K  K7  1  0.81020300  0.04098200  0.58480500  1
  K  K8  1  0.93359300  0.60363100  0.88152900  1
  K  K9  1  0.06640700  0.10363100  0.11847100  1
  K  K10  1  0.18979700  0.95901800  0.41519500  1
  K  K11  1  0.83004800  0.75000000  0.57530800  1
  Mn  Mn12  1  0.63733600  0.49906300  0.26959100  1
  Mn  Mn13  1  0.64302600  0.25000000  0.28018800  1
  Mn  Mn14  1  0.62125400  0.75000000  0.27187700  1
  Mn  Mn15  1  0.51615800  0.12504800  0.98767400  1
  Mn  Mn16  1  0.35697400  0.75000000  0.71981200  1
  Mn  Mn17  1  0.37874600  0.25000000  0.72812300  1
  Mn  Mn18  1  0.36266400  0.99906300  0.73040900  1
  Mn  Mn19  1  0.48384200  0.62504800  0.01232600  1
  Mn  Mn20  1  0.36266400  0.50093700  0.73040900  1
  Mn  Mn21  1  0.51615800  0.37495200  0.98767400  1
  Mn  Mn22  1  0.63733600  0.00093700  0.26959100  1
  Mn  Mn23  1  0.48384200  0.87495200  0.01232600  1
  O  O24  1  0.68530400  0.75000000  0.05646500  1
  O  O25  1  0.57734000  0.37781200  0.77092100  1
  O  O26  1  0.42266000  0.87781200  0.22907900  1
  O  O27  1  0.80818200  0.62776400  0.34238000  1
  O  O28  1  0.83829400  0.37869300  0.33051400  1
  O  O29  1  0.16170600  0.62130700  0.66948600  1
  O  O30  1  0.31469600  0.25000000  0.94353500  1
  O  O31  1  0.43235500  0.12629800  0.26899500  1
  O  O32  1  0.29378600  0.75000000  0.94585300  1
  O  O33  1  0.56764500  0.87370200  0.73100500  1
  O  O34  1  0.16170600  0.87869300  0.66948600  1
  O  O35  1  0.70621400  0.25000000  0.05414700  1
  O  O36  1  0.69199700  0.99813100  0.05898100  1
  O  O37  1  0.57734000  0.12218800  0.77092100  1
  O  O38  1  0.69199700  0.50186900  0.05898100  1
  O  O39  1  0.30800300  0.00186900  0.94101900  1
  O  O40  1  0.80818200  0.87223600  0.34238000  1
  O  O41  1  0.19181800  0.37223600  0.65762000  1
  O  O42  1  0.43235500  0.37370200  0.26899500  1
  O  O43  1  0.83829400  0.12130700  0.33051400  1
  O  O44  1  0.42266000  0.62218800  0.22907900  1
  O  O45  1  0.30800300  0.49813100  0.94101900  1
  O  O46  1  0.19181800  0.12776400  0.65762000  1
  O  O47  1  0.56764500  0.62629800  0.73100500  1
