# generated using pymatgen
data_NaCo3As3(HO6)2
_symmetry_space_group_name_H-M   'P 1'
_cell_length_a   12.18364800
_cell_length_b   12.49553800
_cell_length_c   6.91107146
_cell_angle_alpha   90.00000000
_cell_angle_beta   113.15104319
_cell_angle_gamma   90.00000000
_symmetry_Int_Tables_number   1
_chemical_formula_structural   NaCo3As3(HO6)2
_chemical_formula_sum   'Na4 Co12 As12 H8 O48'
_cell_volume   967.42211394
_cell_formula_units_Z   4
loop_
 _symmetry_equiv_pos_site_id
 _symmetry_equiv_pos_as_xyz
  1  'x, y, z'
loop_
 _atom_site_type_symbol
 _atom_site_label
 _atom_site_symmetry_multiplicity
 _atom_site_fract_x
 _atom_site_fract_y
 _atom_site_fract_z
 _atom_site_occupancy
  Na  Na0  1  0.50000000  0.50442100  0.75000000  1
  Na  Na1  1  0.50000000  0.49557900  0.25000000  1
  Na  Na2  1  0.00000000  0.00442100  0.75000000  1
  Na  Na3  1  0.00000000  0.99557900  0.25000000  1
  Co  Co4  1  0.50000000  0.77780400  0.25000000  1
  Co  Co5  1  0.50000000  0.22219600  0.75000000  1
  Co  Co6  1  0.79290200  0.16227500  0.38522500  1
  Co  Co7  1  0.20709800  0.16227500  0.11477500  1
  Co  Co8  1  0.20709800  0.83772500  0.61477500  1
  Co  Co9  1  0.79290200  0.83772500  0.88522500  1
  Co  Co10  1  0.00000000  0.27780400  0.25000000  1
  Co  Co11  1  0.00000000  0.72219600  0.75000000  1
  Co  Co12  1  0.29290200  0.66227500  0.38522500  1
  Co  Co13  1  0.70709800  0.66227500  0.11477500  1
  Co  Co14  1  0.70709800  0.33772500  0.61477500  1
  Co  Co15  1  0.29290200  0.33772500  0.88522500  1
  As  As16  1  0.50000000  0.18544400  0.25000000  1
  As  As17  1  0.50000000  0.81455600  0.75000000  1
  As  As18  1  0.21850650  0.88573450  0.11155700  1
  As  As19  1  0.78149350  0.88573450  0.38844300  1
  As  As20  1  0.78149350  0.11426550  0.88844300  1
  As  As21  1  0.21850650  0.11426550  0.61155700  1
  As  As22  1  0.00000000  0.68544400  0.25000000  1
  As  As23  1  0.00000000  0.31455600  0.75000000  1
  As  As24  1  0.71850650  0.38573450  0.11155700  1
  As  As25  1  0.28149350  0.38573450  0.38844300  1
  As  As26  1  0.28149350  0.61426550  0.88844300  1
  As  As27  1  0.71850650  0.61426550  0.61155700  1
  H  H28  1  0.38666400  0.99553200  0.19602000  1
  H  H29  1  0.61333600  0.99553200  0.30398000  1
  H  H30  1  0.61333600  0.00446800  0.80398000  1
  H  H31  1  0.38666400  0.00446800  0.69602000  1
  H  H32  1  0.88666400  0.49553200  0.19602000  1
  H  H33  1  0.11333600  0.49553200  0.30398000  1
  H  H34  1  0.11333600  0.50446800  0.80398000  1
  H  H35  1  0.88666400  0.50446800  0.69602000  1
  O  O36  1  0.46486000  0.73702100  0.52486600  1
  O  O37  1  0.53514000  0.73702100  0.97513400  1
  O  O38  1  0.53514000  0.26297900  0.47513400  1
  O  O39  1  0.46486000  0.26297900  0.02486600  1
  O  O40  1  0.61747650  0.10155850  0.27257700  1
  O  O41  1  0.38252350  0.10155850  0.22742300  1
  O  O42  1  0.38252350  0.89844150  0.72742300  1
  O  O43  1  0.61747650  0.89844150  0.77257700  1
  O  O44  1  0.34735450  0.67796250  0.12801500  1
  O  O45  1  0.65264550  0.67796250  0.37198500  1
  O  O46  1  0.65264550  0.32203750  0.87198500  1
  O  O47  1  0.34735450  0.32203750  0.62801500  1
  O  O48  1  0.62920550  0.90829150  0.33455600  1
  O  O49  1  0.37079450  0.90829150  0.16544400  1
  O  O50  1  0.37079450  0.09170850  0.66544400  1
  O  O51  1  0.62920550  0.09170850  0.83455600  1
  O  O52  1  0.21027300  0.81163400  0.31386400  1
  O  O53  1  0.78972700  0.81163400  0.18613600  1
  O  O54  1  0.78972700  0.18836600  0.68613600  1
  O  O55  1  0.21027300  0.18836600  0.81386400  1
  O  O56  1  0.85402450  0.00512450  0.40696800  1
  O  O57  1  0.14597550  0.00512450  0.09303200  1
  O  O58  1  0.14597550  0.99487550  0.59303200  1
  O  O59  1  0.85402450  0.99487550  0.90696800  1
  O  O60  1  0.96486000  0.23702100  0.52486600  1
  O  O61  1  0.03514000  0.23702100  0.97513400  1
  O  O62  1  0.03514000  0.76297900  0.47513400  1
  O  O63  1  0.96486000  0.76297900  0.02486600  1
  O  O64  1  0.11747650  0.60155850  0.27257700  1
  O  O65  1  0.88252350  0.60155850  0.22742300  1
  O  O66  1  0.88252350  0.39844150  0.72742300  1
  O  O67  1  0.11747650  0.39844150  0.77257700  1
  O  O68  1  0.84735450  0.17796250  0.12801500  1
  O  O69  1  0.15264550  0.17796250  0.37198500  1
  O  O70  1  0.15264550  0.82203750  0.87198500  1
  O  O71  1  0.84735450  0.82203750  0.62801500  1
  O  O72  1  0.12920550  0.40829150  0.33455600  1
  O  O73  1  0.87079450  0.40829150  0.16544400  1
  O  O74  1  0.87079450  0.59170850  0.66544400  1
  O  O75  1  0.12920550  0.59170850  0.83455600  1
  O  O76  1  0.71027300  0.31163400  0.31386400  1
  O  O77  1  0.28972700  0.31163400  0.18613600  1
  O  O78  1  0.28972700  0.68836600  0.68613600  1
  O  O79  1  0.71027300  0.68836600  0.81386400  1
  O  O80  1  0.35402450  0.50512450  0.40696800  1
  O  O81  1  0.64597550  0.50512450  0.09303200  1
  O  O82  1  0.64597550  0.49487550  0.59303200  1
  O  O83  1  0.35402450  0.49487550  0.90696800  1
