# generated using pymatgen
data_Na5Er(MoO4)4
_symmetry_space_group_name_H-M   'P 1'
_cell_length_a   11.53760800
_cell_length_b   11.53760800
_cell_length_c   11.53824400
_cell_angle_alpha   90.00000000
_cell_angle_beta   90.00000000
_cell_angle_gamma   90.00000000
_symmetry_Int_Tables_number   1
_chemical_formula_structural   Na5Er(MoO4)4
_chemical_formula_sum   'Na20 Er4 Mo16 O64'
_cell_volume   1535.92948470
_cell_formula_units_Z   4
loop_
 _symmetry_equiv_pos_site_id
 _symmetry_equiv_pos_as_xyz
  1  'x, y, z'
loop_
 _atom_site_type_symbol
 _atom_site_label
 _atom_site_symmetry_multiplicity
 _atom_site_fract_x
 _atom_site_fract_y
 _atom_site_fract_z
 _atom_site_occupancy
  Na  Na0  1  0.61999650  0.29557250  0.28142650  1
  Na  Na1  1  0.38000350  0.20442750  0.96857350  1
  Na  Na2  1  0.11999650  0.29557250  0.46857350  1
  Na  Na3  1  0.29557250  0.88000350  0.53142650  1
  Na  Na4  1  0.20442750  0.61999650  0.03142650  1
  Na  Na5  1  0.88000350  0.20442750  0.78142650  1
  Na  Na6  1  0.20442750  0.11999650  0.21857350  1
  Na  Na7  1  0.50000000  0.00000000  0.25000000  1
  Na  Na8  1  0.29557250  0.38000350  0.71857350  1
  Na  Na9  1  0.00000000  0.00000000  0.50000000  1
  Na  Na10  1  0.11999650  0.79557250  0.78142650  1
  Na  Na11  1  0.88000350  0.70442750  0.46857350  1
  Na  Na12  1  0.61999650  0.79557250  0.96857350  1
  Na  Na13  1  0.79557250  0.38000350  0.03142650  1
  Na  Na14  1  0.70442750  0.11999650  0.53142650  1
  Na  Na15  1  0.38000350  0.70442750  0.28142650  1
  Na  Na16  1  0.70442750  0.61999650  0.71857350  1
  Na  Na17  1  0.00000000  0.50000000  0.75000000  1
  Na  Na18  1  0.79557250  0.88000350  0.21857350  1
  Na  Na19  1  0.50000000  0.50000000  0.00000000  1
  Er  Er20  1  0.00000000  0.50000000  0.25000000  1
  Er  Er21  1  0.00000000  0.00000000  0.00000000  1
  Er  Er22  1  0.50000000  0.00000000  0.75000000  1
  Er  Er23  1  0.50000000  0.50000000  0.50000000  1
  Mo  Mo24  1  0.18140550  0.09274250  0.73836650  1
  Mo  Mo25  1  0.40725750  0.18140550  0.48836650  1
  Mo  Mo26  1  0.68140550  0.09274250  0.01163350  1
  Mo  Mo27  1  0.90725750  0.18140550  0.26163350  1
  Mo  Mo28  1  0.81859450  0.40725750  0.51163350  1
  Mo  Mo29  1  0.59274250  0.31859450  0.76163350  1
  Mo  Mo30  1  0.31859450  0.40725750  0.23836650  1
  Mo  Mo31  1  0.09274250  0.31859450  0.98836650  1
  Mo  Mo32  1  0.68140550  0.59274250  0.23836650  1
  Mo  Mo33  1  0.90725750  0.68140550  0.98836650  1
  Mo  Mo34  1  0.18140550  0.59274250  0.51163350  1
  Mo  Mo35  1  0.40725750  0.68140550  0.76163350  1
  Mo  Mo36  1  0.31859450  0.90725750  0.01163350  1
  Mo  Mo37  1  0.09274250  0.81859450  0.26163350  1
  Mo  Mo38  1  0.81859450  0.90725750  0.73836650  1
  Mo  Mo39  1  0.59274250  0.81859450  0.48836650  1
  O  O40  1  0.17662850  0.21606950  0.64652750  1
  O  O41  1  0.10987100  0.93878900  0.16186100  1
  O  O42  1  0.91748800  0.32218100  0.18840500  1
  O  O43  1  0.46932000  0.85231600  0.39964100  1
  O  O44  1  0.08251200  0.17781900  0.06159500  1
  O  O45  1  0.14768400  0.96932000  0.64964100  1
  O  O46  1  0.08251200  0.67781900  0.18840500  1
  O  O47  1  0.53068000  0.14768400  0.39964100  1
  O  O48  1  0.39012900  0.06121100  0.58813900  1
  O  O49  1  0.17781900  0.41748800  0.31159500  1
  O  O50  1  0.56121100  0.10987100  0.91186100  1
  O  O51  1  0.82337150  0.28393050  0.60347250  1
  O  O52  1  0.28393050  0.67662850  0.85347250  1
  O  O53  1  0.35231600  0.53068000  0.14964100  1
  O  O54  1  0.46932000  0.35231600  0.85035900  1
  O  O55  1  0.67781900  0.41748800  0.43840500  1
  O  O56  1  0.06121100  0.10987100  0.83813900  1
  O  O57  1  0.82218100  0.58251200  0.31159500  1
  O  O58  1  0.21606950  0.82337150  0.35347250  1
  O  O59  1  0.10987100  0.43878900  0.08813900  1
  O  O60  1  0.43878900  0.39012900  0.33813900  1
  O  O61  1  0.35231600  0.03068000  0.10035900  1
  O  O62  1  0.39012900  0.56121100  0.66186100  1
  O  O63  1  0.03068000  0.14768400  0.35035900  1
  O  O64  1  0.32337150  0.28393050  0.14652750  1
  O  O65  1  0.67662850  0.21606950  0.10347250  1
  O  O66  1  0.64768400  0.96932000  0.10035900  1
  O  O67  1  0.82218100  0.08251200  0.93840500  1
  O  O68  1  0.41748800  0.32218100  0.56159500  1
  O  O69  1  0.28393050  0.17662850  0.39652750  1
  O  O70  1  0.21606950  0.32337150  0.89652750  1
  O  O71  1  0.93878900  0.39012900  0.41186100  1
  O  O72  1  0.67662850  0.71606950  0.14652750  1
  O  O73  1  0.60987100  0.43878900  0.66186100  1
  O  O74  1  0.41748800  0.82218100  0.68840500  1
  O  O75  1  0.96932000  0.35231600  0.89964100  1
  O  O76  1  0.58251200  0.67781900  0.56159500  1
  O  O77  1  0.64768400  0.46932000  0.14964100  1
  O  O78  1  0.58251200  0.17781900  0.68840500  1
  O  O79  1  0.03068000  0.64768400  0.89964100  1
  O  O80  1  0.89012900  0.56121100  0.08813900  1
  O  O81  1  0.67781900  0.91748800  0.81159500  1
  O  O82  1  0.06121100  0.60987100  0.41186100  1
  O  O83  1  0.32337150  0.78393050  0.10347250  1
  O  O84  1  0.78393050  0.17662850  0.35347250  1
  O  O85  1  0.85231600  0.03068000  0.64964100  1
  O  O86  1  0.96932000  0.85231600  0.35035900  1
  O  O87  1  0.17781900  0.91748800  0.93840500  1
  O  O88  1  0.56121100  0.60987100  0.33813900  1
  O  O89  1  0.32218100  0.08251200  0.81159500  1
  O  O90  1  0.71606950  0.32337150  0.85347250  1
  O  O91  1  0.60987100  0.93878900  0.58813900  1
  O  O92  1  0.93878900  0.89012900  0.83813900  1
  O  O93  1  0.85231600  0.53068000  0.60035900  1
  O  O94  1  0.89012900  0.06121100  0.16186100  1
  O  O95  1  0.53068000  0.64768400  0.85035900  1
  O  O96  1  0.82337150  0.78393050  0.64652750  1
  O  O97  1  0.17662850  0.71606950  0.60347250  1
  O  O98  1  0.14768400  0.46932000  0.60035900  1
  O  O99  1  0.32218100  0.58251200  0.43840500  1
  O  O100  1  0.91748800  0.82218100  0.06159500  1
  O  O101  1  0.78393050  0.67662850  0.89652750  1
  O  O102  1  0.71606950  0.82337150  0.39652750  1
  O  O103  1  0.43878900  0.89012900  0.91186100  1
