# generated using pymatgen
data_PrSi2Ni
_symmetry_space_group_name_H-M   'P 1'
_cell_length_a   4.16913600
_cell_length_b   16.46799200
_cell_length_c   4.06612100
_cell_angle_alpha   90.00000000
_cell_angle_beta   90.00000000
_cell_angle_gamma   90.00000000
_symmetry_Int_Tables_number   1
_chemical_formula_structural   PrSi2Ni
_chemical_formula_sum   'Pr4 Si8 Ni4'
_cell_volume   279.16888240
_cell_formula_units_Z   4
loop_
 _symmetry_equiv_pos_site_id
 _symmetry_equiv_pos_as_xyz
  1  'x, y, z'
loop_
 _atom_site_type_symbol
 _atom_site_label
 _atom_site_symmetry_multiplicity
 _atom_site_fract_x
 _atom_site_fract_y
 _atom_site_fract_z
 _atom_site_occupancy
  Pr  Pr0  1  0.50000000  0.39337900  0.75000000  1
  Pr  Pr1  1  0.00000000  0.10662100  0.25000000  1
  Pr  Pr2  1  0.00000000  0.89337900  0.75000000  1
  Pr  Pr3  1  0.50000000  0.60662100  0.25000000  1
  Si  Si4  1  0.00000000  0.25005000  0.75000000  1
  Si  Si5  1  0.50000000  0.24995000  0.25000000  1
  Si  Si6  1  0.00000000  0.45904700  0.25000000  1
  Si  Si7  1  0.50000000  0.04095300  0.75000000  1
  Si  Si8  1  0.50000000  0.75005000  0.75000000  1
  Si  Si9  1  0.00000000  0.74995000  0.25000000  1
  Si  Si10  1  0.50000000  0.95904700  0.25000000  1
  Si  Si11  1  0.00000000  0.54095300  0.75000000  1
  Ni  Ni12  1  0.00000000  0.31828500  0.25000000  1
  Ni  Ni13  1  0.50000000  0.18171500  0.75000000  1
  Ni  Ni14  1  0.50000000  0.81828500  0.25000000  1
  Ni  Ni15  1  0.00000000  0.68171500  0.75000000  1
