# generated using pymatgen
data_Zr6Al7Cu16H9
_symmetry_space_group_name_H-M   'P 1'
_cell_length_a   12.10339000
_cell_length_b   12.10339000
_cell_length_c   12.10339000
_cell_angle_alpha   90.00000000
_cell_angle_beta   90.00000000
_cell_angle_gamma   90.00000000
_symmetry_Int_Tables_number   1
_chemical_formula_structural   Zr6Al7Cu16H9
_chemical_formula_sum   'Zr24 Al28 Cu64 H36'
_cell_volume   1773.05040690
_cell_formula_units_Z   4
loop_
 _symmetry_equiv_pos_site_id
 _symmetry_equiv_pos_as_xyz
  1  'x, y, z'
loop_
 _atom_site_type_symbol
 _atom_site_label
 _atom_site_symmetry_multiplicity
 _atom_site_fract_x
 _atom_site_fract_y
 _atom_site_fract_z
 _atom_site_occupancy
  Zr  Zr0  1  0.50000000  0.70035500  0.00000000  1
  Zr  Zr1  1  0.79964500  0.00000000  0.00000000  1
  Zr  Zr2  1  0.20035500  0.00000000  0.00000000  1
  Zr  Zr3  1  0.00000000  0.00000000  0.79964500  1
  Zr  Zr4  1  0.50000000  0.00000000  0.70035500  1
  Zr  Zr5  1  0.50000000  0.29964500  0.00000000  1
  Zr  Zr6  1  0.50000000  0.20035500  0.50000000  1
  Zr  Zr7  1  0.79964500  0.50000000  0.50000000  1
  Zr  Zr8  1  0.20035500  0.50000000  0.50000000  1
  Zr  Zr9  1  0.00000000  0.50000000  0.29964500  1
  Zr  Zr10  1  0.50000000  0.50000000  0.20035500  1
  Zr  Zr11  1  0.50000000  0.79964500  0.50000000  1
  Zr  Zr12  1  0.00000000  0.70035500  0.50000000  1
  Zr  Zr13  1  0.29964500  0.00000000  0.50000000  1
  Zr  Zr14  1  0.70035500  0.00000000  0.50000000  1
  Zr  Zr15  1  0.50000000  0.00000000  0.29964500  1
  Zr  Zr16  1  0.00000000  0.00000000  0.20035500  1
  Zr  Zr17  1  0.00000000  0.29964500  0.50000000  1
  Zr  Zr18  1  0.00000000  0.20035500  0.00000000  1
  Zr  Zr19  1  0.29964500  0.50000000  0.00000000  1
  Zr  Zr20  1  0.70035500  0.50000000  0.00000000  1
  Zr  Zr21  1  0.50000000  0.50000000  0.79964500  1
  Zr  Zr22  1  0.00000000  0.50000000  0.70035500  1
  Zr  Zr23  1  0.00000000  0.79964500  0.00000000  1
  Al  Al24  1  0.75000000  0.00000000  0.75000000  1
  Al  Al25  1  0.00000000  0.75000000  0.75000000  1
  Al  Al26  1  0.00000000  0.25000000  0.75000000  1
  Al  Al27  1  0.25000000  0.00000000  0.75000000  1
  Al  Al28  1  0.25000000  0.25000000  0.00000000  1
  Al  Al29  1  0.25000000  0.75000000  0.00000000  1
  Al  Al30  1  0.50000000  0.00000000  0.00000000  1
  Al  Al31  1  0.75000000  0.50000000  0.25000000  1
  Al  Al32  1  0.00000000  0.25000000  0.25000000  1
  Al  Al33  1  0.00000000  0.75000000  0.25000000  1
  Al  Al34  1  0.25000000  0.50000000  0.25000000  1
  Al  Al35  1  0.25000000  0.75000000  0.50000000  1
  Al  Al36  1  0.25000000  0.25000000  0.50000000  1
  Al  Al37  1  0.50000000  0.50000000  0.50000000  1
  Al  Al38  1  0.25000000  0.00000000  0.25000000  1
  Al  Al39  1  0.50000000  0.75000000  0.25000000  1
  Al  Al40  1  0.50000000  0.25000000  0.25000000  1
  Al  Al41  1  0.75000000  0.00000000  0.25000000  1
  Al  Al42  1  0.75000000  0.25000000  0.50000000  1
  Al  Al43  1  0.75000000  0.75000000  0.50000000  1
  Al  Al44  1  0.00000000  0.00000000  0.50000000  1
  Al  Al45  1  0.25000000  0.50000000  0.75000000  1
  Al  Al46  1  0.50000000  0.25000000  0.75000000  1
  Al  Al47  1  0.50000000  0.75000000  0.75000000  1
  Al  Al48  1  0.75000000  0.50000000  0.75000000  1
  Al  Al49  1  0.75000000  0.75000000  0.00000000  1
  Al  Al50  1  0.75000000  0.25000000  0.00000000  1
  Al  Al51  1  0.00000000  0.50000000  0.00000000  1
  Cu  Cu52  1  0.17531600  0.67531600  0.67531600  1
  Cu  Cu53  1  0.32468400  0.17531600  0.67531600  1
  Cu  Cu54  1  0.17531600  0.32468400  0.67531600  1
  Cu  Cu55  1  0.17531600  0.17531600  0.82468400  1
  Cu  Cu56  1  0.32468400  0.67531600  0.82468400  1
  Cu  Cu57  1  0.32468400  0.82468400  0.67531600  1
  Cu  Cu58  1  0.17531600  0.82468400  0.82468400  1
  Cu  Cu59  1  0.32468400  0.32468400  0.82468400  1
  Cu  Cu60  1  0.38071200  0.88071200  0.88071200  1
  Cu  Cu61  1  0.61928800  0.88071200  0.88071200  1
  Cu  Cu62  1  0.38071200  0.11928800  0.88071200  1
  Cu  Cu63  1  0.88071200  0.88071200  0.61928800  1
  Cu  Cu64  1  0.11928800  0.88071200  0.61928800  1
  Cu  Cu65  1  0.61928800  0.11928800  0.88071200  1
  Cu  Cu66  1  0.88071200  0.11928800  0.61928800  1
  Cu  Cu67  1  0.11928800  0.11928800  0.61928800  1
  Cu  Cu68  1  0.17531600  0.17531600  0.17531600  1
  Cu  Cu69  1  0.32468400  0.67531600  0.17531600  1
  Cu  Cu70  1  0.17531600  0.82468400  0.17531600  1
  Cu  Cu71  1  0.17531600  0.67531600  0.32468400  1
  Cu  Cu72  1  0.32468400  0.17531600  0.32468400  1
  Cu  Cu73  1  0.32468400  0.32468400  0.17531600  1
  Cu  Cu74  1  0.17531600  0.32468400  0.32468400  1
  Cu  Cu75  1  0.32468400  0.82468400  0.32468400  1
  Cu  Cu76  1  0.38071200  0.38071200  0.38071200  1
  Cu  Cu77  1  0.61928800  0.38071200  0.38071200  1
  Cu  Cu78  1  0.38071200  0.61928800  0.38071200  1
  Cu  Cu79  1  0.88071200  0.38071200  0.11928800  1
  Cu  Cu80  1  0.11928800  0.38071200  0.11928800  1
  Cu  Cu81  1  0.61928800  0.61928800  0.38071200  1
  Cu  Cu82  1  0.88071200  0.61928800  0.11928800  1
  Cu  Cu83  1  0.11928800  0.61928800  0.11928800  1
  Cu  Cu84  1  0.67531600  0.67531600  0.17531600  1
  Cu  Cu85  1  0.82468400  0.17531600  0.17531600  1
  Cu  Cu86  1  0.67531600  0.32468400  0.17531600  1
  Cu  Cu87  1  0.67531600  0.17531600  0.32468400  1
  Cu  Cu88  1  0.82468400  0.67531600  0.32468400  1
  Cu  Cu89  1  0.82468400  0.82468400  0.17531600  1
  Cu  Cu90  1  0.67531600  0.82468400  0.32468400  1
  Cu  Cu91  1  0.82468400  0.32468400  0.32468400  1
  Cu  Cu92  1  0.88071200  0.88071200  0.38071200  1
  Cu  Cu93  1  0.11928800  0.88071200  0.38071200  1
  Cu  Cu94  1  0.88071200  0.11928800  0.38071200  1
  Cu  Cu95  1  0.38071200  0.88071200  0.11928800  1
  Cu  Cu96  1  0.61928800  0.88071200  0.11928800  1
  Cu  Cu97  1  0.11928800  0.11928800  0.38071200  1
  Cu  Cu98  1  0.38071200  0.11928800  0.11928800  1
  Cu  Cu99  1  0.61928800  0.11928800  0.11928800  1
  Cu  Cu100  1  0.67531600  0.17531600  0.67531600  1
  Cu  Cu101  1  0.82468400  0.67531600  0.67531600  1
  Cu  Cu102  1  0.67531600  0.82468400  0.67531600  1
  Cu  Cu103  1  0.67531600  0.67531600  0.82468400  1
  Cu  Cu104  1  0.82468400  0.17531600  0.82468400  1
  Cu  Cu105  1  0.82468400  0.32468400  0.67531600  1
  Cu  Cu106  1  0.67531600  0.32468400  0.82468400  1
  Cu  Cu107  1  0.82468400  0.82468400  0.82468400  1
  Cu  Cu108  1  0.88071200  0.38071200  0.88071200  1
  Cu  Cu109  1  0.11928800  0.38071200  0.88071200  1
  Cu  Cu110  1  0.88071200  0.61928800  0.88071200  1
  Cu  Cu111  1  0.38071200  0.38071200  0.61928800  1
  Cu  Cu112  1  0.61928800  0.38071200  0.61928800  1
  Cu  Cu113  1  0.11928800  0.61928800  0.88071200  1
  Cu  Cu114  1  0.38071200  0.61928800  0.61928800  1
  Cu  Cu115  1  0.61928800  0.61928800  0.61928800  1
  H  H116  1  0.00000000  0.00000000  0.00000000  1
  H  H117  1  0.09367400  0.59367400  0.59367400  1
  H  H118  1  0.40632600  0.09367400  0.59367400  1
  H  H119  1  0.09367400  0.40632600  0.59367400  1
  H  H120  1  0.09367400  0.09367400  0.90632600  1
  H  H121  1  0.40632600  0.59367400  0.90632600  1
  H  H122  1  0.40632600  0.90632600  0.59367400  1
  H  H123  1  0.09367400  0.90632600  0.90632600  1
  H  H124  1  0.40632600  0.40632600  0.90632600  1
  H  H125  1  0.00000000  0.50000000  0.50000000  1
  H  H126  1  0.09367400  0.09367400  0.09367400  1
  H  H127  1  0.40632600  0.59367400  0.09367400  1
  H  H128  1  0.09367400  0.90632600  0.09367400  1
  H  H129  1  0.09367400  0.59367400  0.40632600  1
  H  H130  1  0.40632600  0.09367400  0.40632600  1
  H  H131  1  0.40632600  0.40632600  0.09367400  1
  H  H132  1  0.09367400  0.40632600  0.40632600  1
  H  H133  1  0.40632600  0.90632600  0.40632600  1
  H  H134  1  0.50000000  0.00000000  0.50000000  1
  H  H135  1  0.59367400  0.59367400  0.09367400  1
  H  H136  1  0.90632600  0.09367400  0.09367400  1
  H  H137  1  0.59367400  0.40632600  0.09367400  1
  H  H138  1  0.59367400  0.09367400  0.40632600  1
  H  H139  1  0.90632600  0.59367400  0.40632600  1
  H  H140  1  0.90632600  0.90632600  0.09367400  1
  H  H141  1  0.59367400  0.90632600  0.40632600  1
  H  H142  1  0.90632600  0.40632600  0.40632600  1
  H  H143  1  0.50000000  0.50000000  0.00000000  1
  H  H144  1  0.59367400  0.09367400  0.59367400  1
  H  H145  1  0.90632600  0.59367400  0.59367400  1
  H  H146  1  0.59367400  0.90632600  0.59367400  1
  H  H147  1  0.59367400  0.59367400  0.90632600  1
  H  H148  1  0.90632600  0.09367400  0.90632600  1
  H  H149  1  0.90632600  0.40632600  0.59367400  1
  H  H150  1  0.59367400  0.40632600  0.90632600  1
  H  H151  1  0.90632600  0.90632600  0.90632600  1
