# generated using pymatgen
data_Na4U(MoO4)4
_symmetry_space_group_name_H-M   'P 1'
_cell_length_a   11.45544400
_cell_length_b   11.45544400
_cell_length_c   12.06289200
_cell_angle_alpha   90.00000000
_cell_angle_beta   90.00000000
_cell_angle_gamma   90.00000000
_symmetry_Int_Tables_number   1
_chemical_formula_structural   Na4U(MoO4)4
_chemical_formula_sum   'Na16 U4 Mo16 O64'
_cell_volume   1582.97950773
_cell_formula_units_Z   4
loop_
 _symmetry_equiv_pos_site_id
 _symmetry_equiv_pos_as_xyz
  1  'x, y, z'
loop_
 _atom_site_type_symbol
 _atom_site_label
 _atom_site_symmetry_multiplicity
 _atom_site_fract_x
 _atom_site_fract_y
 _atom_site_fract_z
 _atom_site_occupancy
  Na  Na0  1  0.38420250  0.27693850  0.78046550  1
  Na  Na1  1  0.11579750  0.22306150  0.28046550  1
  Na  Na2  1  0.38420250  0.77693850  0.46953450  1
  Na  Na3  1  0.27693850  0.61579750  0.21953450  1
  Na  Na4  1  0.27693850  0.11579750  0.03046550  1
  Na  Na5  1  0.22306150  0.88420250  0.71953450  1
  Na  Na6  1  0.22306150  0.38420250  0.53046550  1
  Na  Na7  1  0.11579750  0.72306150  0.96953450  1
  Na  Na8  1  0.88420250  0.77693850  0.28046550  1
  Na  Na9  1  0.61579750  0.72306150  0.78046550  1
  Na  Na10  1  0.88420250  0.27693850  0.96953450  1
  Na  Na11  1  0.77693850  0.11579750  0.71953450  1
  Na  Na12  1  0.77693850  0.61579750  0.53046550  1
  Na  Na13  1  0.72306150  0.38420250  0.21953450  1
  Na  Na14  1  0.72306150  0.88420250  0.03046550  1
  Na  Na15  1  0.61579750  0.22306150  0.46953450  1
  U  U16  1  0.00000000  0.00000000  0.50000000  1
  U  U17  1  0.50000000  0.00000000  0.25000000  1
  U  U18  1  0.50000000  0.50000000  0.00000000  1
  U  U19  1  0.00000000  0.50000000  0.75000000  1
  Mo  Mo20  1  0.17976600  0.91012100  0.24495700  1
  Mo  Mo21  1  0.91012100  0.32023400  0.49495700  1
  Mo  Mo22  1  0.58987900  0.17976600  0.99495700  1
  Mo  Mo23  1  0.17976600  0.41012100  0.00504300  1
  Mo  Mo24  1  0.41012100  0.32023400  0.25504300  1
  Mo  Mo25  1  0.08987900  0.17976600  0.75504300  1
  Mo  Mo26  1  0.32023400  0.58987900  0.74495700  1
  Mo  Mo27  1  0.32023400  0.08987900  0.50504300  1
  Mo  Mo28  1  0.67976600  0.41012100  0.74495700  1
  Mo  Mo29  1  0.41012100  0.82023400  0.99495700  1
  Mo  Mo30  1  0.08987900  0.67976600  0.49495700  1
  Mo  Mo31  1  0.67976600  0.91012100  0.50504300  1
  Mo  Mo32  1  0.91012100  0.82023400  0.75504300  1
  Mo  Mo33  1  0.58987900  0.67976600  0.25504300  1
  Mo  Mo34  1  0.82023400  0.08987900  0.24495700  1
  Mo  Mo35  1  0.82023400  0.58987900  0.00504300  1
  O  O36  1  0.79234950  0.32774450  0.39987650  1
  O  O37  1  0.93949350  0.11214350  0.34375050  1
  O  O38  1  0.56050650  0.38785650  0.84375050  1
  O  O39  1  0.29234950  0.32774450  0.35012350  1
  O  O40  1  0.32577300  0.91427900  0.31236400  1
  O  O41  1  0.91427900  0.17422700  0.56236400  1
  O  O42  1  0.54214700  0.34648900  0.32589200  1
  O  O43  1  0.67422700  0.08572100  0.31236400  1
  O  O44  1  0.70765050  0.17225550  0.89987650  1
  O  O45  1  0.20765050  0.17225550  0.85012350  1
  O  O46  1  0.32774450  0.20765050  0.60012350  1
  O  O47  1  0.45785300  0.15351100  0.92410800  1
  O  O48  1  0.17225550  0.29234950  0.10012350  1
  O  O49  1  0.17422700  0.08572100  0.43763600  1
  O  O50  1  0.34648900  0.45785300  0.67410800  1
  O  O51  1  0.15351100  0.54214700  0.07589200  1
  O  O52  1  0.32774450  0.70765050  0.64987650  1
  O  O53  1  0.61214350  0.06050650  0.09375050  1
  O  O54  1  0.95785300  0.15351100  0.82589200  1
  O  O55  1  0.34648900  0.95785300  0.57589200  1
  O  O56  1  0.58572100  0.82577300  0.18763600  1
  O  O57  1  0.58572100  0.32577300  0.06236400  1
  O  O58  1  0.41427900  0.17422700  0.18763600  1
  O  O59  1  0.43949350  0.11214350  0.40624950  1
  O  O60  1  0.38785650  0.43949350  0.15624950  1
  O  O61  1  0.15351100  0.04214700  0.17410800  1
  O  O62  1  0.32577300  0.41427900  0.93763600  1
  O  O63  1  0.04214700  0.34648900  0.42410800  1
  O  O64  1  0.38785650  0.93949350  0.09375050  1
  O  O65  1  0.17225550  0.79234950  0.14987650  1
  O  O66  1  0.56050650  0.88785650  0.40624950  1
  O  O67  1  0.11214350  0.06050650  0.65624950  1
  O  O68  1  0.29234950  0.82774450  0.89987650  1
  O  O69  1  0.43949350  0.61214350  0.84375050  1
  O  O70  1  0.06050650  0.88785650  0.34375050  1
  O  O71  1  0.79234950  0.82774450  0.85012350  1
  O  O72  1  0.82577300  0.41427900  0.81236400  1
  O  O73  1  0.41427900  0.67422700  0.06236400  1
  O  O74  1  0.04214700  0.84648900  0.82589200  1
  O  O75  1  0.17422700  0.58572100  0.81236400  1
  O  O76  1  0.20765050  0.67225550  0.39987650  1
  O  O77  1  0.70765050  0.67225550  0.35012350  1
  O  O78  1  0.82774450  0.70765050  0.10012350  1
  O  O79  1  0.95785300  0.65351100  0.42410800  1
  O  O80  1  0.67225550  0.79234950  0.60012350  1
  O  O81  1  0.67422700  0.58572100  0.93763600  1
  O  O82  1  0.84648900  0.95785300  0.17410800  1
  O  O83  1  0.65351100  0.04214700  0.57589200  1
  O  O84  1  0.82774450  0.20765050  0.14987650  1
  O  O85  1  0.11214350  0.56050650  0.59375050  1
  O  O86  1  0.45785300  0.65351100  0.32589200  1
  O  O87  1  0.84648900  0.45785300  0.07589200  1
  O  O88  1  0.08572100  0.32577300  0.68763600  1
  O  O89  1  0.08572100  0.82577300  0.56236400  1
  O  O90  1  0.91427900  0.67422700  0.68763600  1
  O  O91  1  0.93949350  0.61214350  0.90624950  1
  O  O92  1  0.88785650  0.93949350  0.65624950  1
  O  O93  1  0.65351100  0.54214700  0.67410800  1
  O  O94  1  0.82577300  0.91427900  0.43763600  1
  O  O95  1  0.54214700  0.84648900  0.92410800  1
  O  O96  1  0.88785650  0.43949350  0.59375050  1
  O  O97  1  0.67225550  0.29234950  0.64987650  1
  O  O98  1  0.06050650  0.38785650  0.90624950  1
  O  O99  1  0.61214350  0.56050650  0.15624950  1
