# generated using pymatgen
data_Na2Mn2O3
_symmetry_space_group_name_H-M   'P 1'
_cell_length_a   6.48742373
_cell_length_b   6.48742373
_cell_length_c   9.46647901
_cell_angle_alpha   90.00000000
_cell_angle_beta   90.00000000
_cell_angle_gamma   90.00000000
_symmetry_Int_Tables_number   1
_chemical_formula_structural   Na2Mn2O3
_chemical_formula_sum   'Na8 Mn8 O12'
_cell_volume   398.41254689
_cell_formula_units_Z   4
loop_
 _symmetry_equiv_pos_site_id
 _symmetry_equiv_pos_as_xyz
  1  'x, y, z'
loop_
 _atom_site_type_symbol
 _atom_site_label
 _atom_site_symmetry_multiplicity
 _atom_site_fract_x
 _atom_site_fract_y
 _atom_site_fract_z
 _atom_site_occupancy
  Na  Na0  1  0.52060850  0.74157450  0.36269900  1
  Na  Na1  1  0.47939150  0.25842550  0.86269900  1
  Na  Na2  1  0.24157450  0.97939150  0.61269900  1
  Na  Na3  1  0.75842550  0.02060850  0.11269900  1
  Na  Na4  1  0.02060850  0.75842550  0.88730100  1
  Na  Na5  1  0.97939150  0.24157450  0.38730100  1
  Na  Na6  1  0.25842550  0.47939150  0.13730100  1
  Na  Na7  1  0.74157450  0.52060850  0.63730100  1
  Mn  Mn8  1  0.74694150  0.04099750  0.63558700  1
  Mn  Mn9  1  0.75305850  0.54099750  0.11441300  1
  Mn  Mn10  1  0.25305850  0.95900250  0.13558700  1
  Mn  Mn11  1  0.24694150  0.45900250  0.61441300  1
  Mn  Mn12  1  0.45900250  0.24694150  0.38558700  1
  Mn  Mn13  1  0.95900250  0.25305850  0.86441300  1
  Mn  Mn14  1  0.54099750  0.75305850  0.88558700  1
  Mn  Mn15  1  0.04099750  0.74694150  0.36441300  1
  O  O16  1  0.18989800  0.18989800  0.00000000  1
  O  O17  1  0.68989800  0.31010200  0.25000000  1
  O  O18  1  0.81010200  0.81010200  0.50000000  1
  O  O19  1  0.31010200  0.68989800  0.75000000  1
  O  O20  1  0.74469350  0.99975850  0.85535500  1
  O  O21  1  0.25530650  0.00024150  0.35535500  1
  O  O22  1  0.24469350  0.50024150  0.39464500  1
  O  O23  1  0.00024150  0.25530650  0.64464500  1
  O  O24  1  0.49975850  0.75530650  0.10535500  1
  O  O25  1  0.50024150  0.24469350  0.60535500  1
  O  O26  1  0.75530650  0.49975850  0.89464500  1
  O  O27  1  0.99975850  0.74469350  0.14464500  1
