# generated using pymatgen
data_Co(PO3)4
_symmetry_space_group_name_H-M   'P 1'
_cell_length_a   12.23782600
_cell_length_b   8.43503000
_cell_length_c   9.70211312
_cell_angle_alpha   90.00000000
_cell_angle_beta   115.42925735
_cell_angle_gamma   90.00000000
_symmetry_Int_Tables_number   1
_chemical_formula_structural   Co(PO3)4
_chemical_formula_sum   'Co4 P16 O48'
_cell_volume   904.48391036
_cell_formula_units_Z   4
loop_
 _symmetry_equiv_pos_site_id
 _symmetry_equiv_pos_as_xyz
  1  'x, y, z'
loop_
 _atom_site_type_symbol
 _atom_site_label
 _atom_site_symmetry_multiplicity
 _atom_site_fract_x
 _atom_site_fract_y
 _atom_site_fract_z
 _atom_site_occupancy
  Co  Co0  1  0.75000000  0.75000000  0.00000000  1
  Co  Co1  1  0.25000000  0.75000000  0.50000000  1
  Co  Co2  1  0.25000000  0.25000000  0.00000000  1
  Co  Co3  1  0.75000000  0.25000000  0.50000000  1
  P  P4  1  0.00237100  0.72904700  0.53585700  1
  P  P5  1  0.18178100  0.51729600  0.18566900  1
  P  P6  1  0.00237100  0.27095300  0.03585700  1
  P  P7  1  0.18178100  0.48270400  0.68566900  1
  P  P8  1  0.99762900  0.27095300  0.46414300  1
  P  P9  1  0.81821900  0.48270400  0.81433100  1
  P  P10  1  0.99762900  0.72904700  0.96414300  1
  P  P11  1  0.81821900  0.51729600  0.31433100  1
  P  P12  1  0.50237100  0.22904700  0.53585700  1
  P  P13  1  0.68178100  0.01729600  0.18566900  1
  P  P14  1  0.50237100  0.77095300  0.03585700  1
  P  P15  1  0.68178100  0.98270400  0.68566900  1
  P  P16  1  0.49762900  0.77095300  0.46414300  1
  P  P17  1  0.31821900  0.98270400  0.81433100  1
  P  P18  1  0.49762900  0.22904700  0.96414300  1
  P  P19  1  0.31821900  0.01729600  0.31433100  1
  O  O20  1  0.86801700  0.33920800  0.93630400  1
  O  O21  1  0.93817700  0.58404200  0.84529900  1
  O  O22  1  0.73346150  0.41683950  0.35437300  1
  O  O23  1  0.06182300  0.58404200  0.65470100  1
  O  O24  1  0.73346150  0.58316050  0.85437300  1
  O  O25  1  0.93817700  0.41595800  0.34529900  1
  O  O26  1  0.26653850  0.41683950  0.14562700  1
  O  O27  1  0.99493750  0.87338650  0.62266600  1
  O  O28  1  0.13198300  0.66079200  0.06369600  1
  O  O29  1  0.06182300  0.41595800  0.15470100  1
  O  O30  1  0.23181000  0.58026400  0.34396400  1
  O  O31  1  0.86801700  0.66079200  0.43630400  1
  O  O32  1  0.76819000  0.58026400  0.15603600  1
  O  O33  1  0.13198300  0.33920800  0.56369600  1
  O  O34  1  0.99493750  0.12661350  0.12266600  1
  O  O35  1  0.06822600  0.25447500  0.93529300  1
  O  O36  1  0.00506250  0.87338650  0.87733400  1
  O  O37  1  0.00506250  0.12661350  0.37733400  1
  O  O38  1  0.23181000  0.41973600  0.84396400  1
  O  O39  1  0.93177400  0.74552500  0.06470700  1
  O  O40  1  0.26653850  0.58316050  0.64562700  1
  O  O41  1  0.93177400  0.25447500  0.56470700  1
  O  O42  1  0.06822600  0.74552500  0.43529300  1
  O  O43  1  0.76819000  0.41973600  0.65603600  1
  O  O44  1  0.36801700  0.83920800  0.93630400  1
  O  O45  1  0.43817700  0.08404200  0.84529900  1
  O  O46  1  0.23346150  0.91683950  0.35437300  1
  O  O47  1  0.56182300  0.08404200  0.65470100  1
  O  O48  1  0.23346150  0.08316050  0.85437300  1
  O  O49  1  0.43817700  0.91595800  0.34529900  1
  O  O50  1  0.76653850  0.91683950  0.14562700  1
  O  O51  1  0.49493750  0.37338650  0.62266600  1
  O  O52  1  0.63198300  0.16079200  0.06369600  1
  O  O53  1  0.56182300  0.91595800  0.15470100  1
  O  O54  1  0.73181000  0.08026400  0.34396400  1
  O  O55  1  0.36801700  0.16079200  0.43630400  1
  O  O56  1  0.26819000  0.08026400  0.15603600  1
  O  O57  1  0.63198300  0.83920800  0.56369600  1
  O  O58  1  0.49493750  0.62661350  0.12266600  1
  O  O59  1  0.56822600  0.75447500  0.93529300  1
  O  O60  1  0.50506250  0.37338650  0.87733400  1
  O  O61  1  0.50506250  0.62661350  0.37733400  1
  O  O62  1  0.73181000  0.91973600  0.84396400  1
  O  O63  1  0.43177400  0.24552500  0.06470700  1
  O  O64  1  0.76653850  0.08316050  0.64562700  1
  O  O65  1  0.43177400  0.75447500  0.56470700  1
  O  O66  1  0.56822600  0.24552500  0.43529300  1
  O  O67  1  0.26819000  0.91973600  0.65603600  1
