# generated using pymatgen
data_Ba5P9
_symmetry_space_group_name_H-M   'P 1'
_cell_length_a   10.38217600
_cell_length_b   15.80210400
_cell_length_c   19.22758000
_cell_angle_alpha   90.00000000
_cell_angle_beta   90.00000000
_cell_angle_gamma   90.00000000
_symmetry_Int_Tables_number   1
_chemical_formula_structural   Ba5P9
_chemical_formula_sum   'Ba40 P72'
_cell_volume   3154.48109905
_cell_formula_units_Z   8
loop_
 _symmetry_equiv_pos_site_id
 _symmetry_equiv_pos_as_xyz
  1  'x, y, z'
loop_
 _atom_site_type_symbol
 _atom_site_label
 _atom_site_symmetry_multiplicity
 _atom_site_fract_x
 _atom_site_fract_y
 _atom_site_fract_z
 _atom_site_occupancy
  Ba  Ba0  1  0.18081450  0.98638950  0.81671200  1
  Ba  Ba1  1  0.16080300  0.25000000  0.75000000  1
  Ba  Ba2  1  0.43081450  0.73638950  0.93328800  1
  Ba  Ba3  1  0.18081450  0.51361050  0.68328800  1
  Ba  Ba4  1  0.77510950  0.98392950  0.89091700  1
  Ba  Ba5  1  0.91080300  0.00000000  0.50000000  1
  Ba  Ba6  1  0.52510950  0.23392950  0.85908300  1
  Ba  Ba7  1  0.02510950  0.76607050  0.64091700  1
  Ba  Ba8  1  0.27510950  0.01607050  0.60908300  1
  Ba  Ba9  1  0.93081450  0.26361050  0.56671200  1
  Ba  Ba10  1  0.68081450  0.98638950  0.31671200  1
  Ba  Ba11  1  0.66080300  0.25000000  0.25000000  1
  Ba  Ba12  1  0.93081450  0.73638950  0.43328800  1
  Ba  Ba13  1  0.68081450  0.51361050  0.18328800  1
  Ba  Ba14  1  0.27510950  0.98392950  0.39091700  1
  Ba  Ba15  1  0.41080300  0.00000000  0.00000000  1
  Ba  Ba16  1  0.02510950  0.23392950  0.35908300  1
  Ba  Ba17  1  0.52510950  0.76607050  0.14091700  1
  Ba  Ba18  1  0.77510950  0.01607050  0.10908300  1
  Ba  Ba19  1  0.43081450  0.26361050  0.06671200  1
  Ba  Ba20  1  0.68081450  0.48638950  0.81671200  1
  Ba  Ba21  1  0.66080300  0.75000000  0.75000000  1
  Ba  Ba22  1  0.93081450  0.23638950  0.93328800  1
  Ba  Ba23  1  0.68081450  0.01361050  0.68328800  1
  Ba  Ba24  1  0.27510950  0.48392950  0.89091700  1
  Ba  Ba25  1  0.41080300  0.50000000  0.50000000  1
  Ba  Ba26  1  0.02510950  0.73392950  0.85908300  1
  Ba  Ba27  1  0.52510950  0.26607050  0.64091700  1
  Ba  Ba28  1  0.77510950  0.51607050  0.60908300  1
  Ba  Ba29  1  0.43081450  0.76361050  0.56671200  1
  Ba  Ba30  1  0.18081450  0.48638950  0.31671200  1
  Ba  Ba31  1  0.16080300  0.75000000  0.25000000  1
  Ba  Ba32  1  0.43081450  0.23638950  0.43328800  1
  Ba  Ba33  1  0.18081450  0.01361050  0.18328800  1
  Ba  Ba34  1  0.77510950  0.48392950  0.39091700  1
  Ba  Ba35  1  0.91080300  0.50000000  0.00000000  1
  Ba  Ba36  1  0.52510950  0.73392950  0.35908300  1
  Ba  Ba37  1  0.02510950  0.26607050  0.14091700  1
  Ba  Ba38  1  0.27510950  0.51607050  0.10908300  1
  Ba  Ba39  1  0.93081450  0.76361050  0.06671200  1
  P  P40  1  0.25293250  0.21166650  0.57284500  1
  P  P41  1  0.38994850  0.63673400  0.77857650  1
  P  P42  1  0.90198050  0.89467100  0.76016950  1
  P  P43  1  0.52590200  0.00000000  0.50000000  1
  P  P44  1  0.13994850  0.88673400  0.97142350  1
  P  P45  1  0.27590200  0.75000000  0.75000000  1
  P  P46  1  0.40198050  0.10532900  0.73983050  1
  P  P47  1  0.13994850  0.61326600  0.52857650  1
  P  P48  1  0.38994850  0.86326600  0.72142350  1
  P  P49  1  0.46811200  0.90068950  0.82385050  1
  P  P50  1  0.50293250  0.03833350  0.82284500  1
  P  P51  1  0.15198050  0.85532900  0.51016950  1
  P  P52  1  0.25293250  0.28833350  0.92715500  1
  P  P53  1  0.00293250  0.96166650  0.67715500  1
  P  P54  1  0.65198050  0.14467100  0.98983050  1
  P  P55  1  0.21811200  0.34931050  0.57385050  1
  P  P56  1  0.96811200  0.09931050  0.67614950  1
  P  P57  1  0.21811200  0.15068950  0.92614950  1
  P  P58  1  0.75293250  0.21166650  0.07284500  1
  P  P59  1  0.88994850  0.63673400  0.27857650  1
  P  P60  1  0.40198050  0.89467100  0.26016950  1
  P  P61  1  0.02590200  0.00000000  0.00000000  1
  P  P62  1  0.63994850  0.88673400  0.47142350  1
  P  P63  1  0.77590200  0.75000000  0.25000000  1
  P  P64  1  0.90198050  0.10532900  0.23983050  1
  P  P65  1  0.63994850  0.61326600  0.02857650  1
  P  P66  1  0.88994850  0.86326600  0.22142350  1
  P  P67  1  0.96811200  0.90068950  0.32385050  1
  P  P68  1  0.00293250  0.03833350  0.32284500  1
  P  P69  1  0.65198050  0.85532900  0.01016950  1
  P  P70  1  0.75293250  0.28833350  0.42715500  1
  P  P71  1  0.50293250  0.96166650  0.17715500  1
  P  P72  1  0.15198050  0.14467100  0.48983050  1
  P  P73  1  0.71811200  0.34931050  0.07385050  1
  P  P74  1  0.46811200  0.09931050  0.17614950  1
  P  P75  1  0.71811200  0.15068950  0.42614950  1
  P  P76  1  0.75293250  0.71166650  0.57284500  1
  P  P77  1  0.88994850  0.13673400  0.77857650  1
  P  P78  1  0.40198050  0.39467100  0.76016950  1
  P  P79  1  0.02590200  0.50000000  0.50000000  1
  P  P80  1  0.63994850  0.38673400  0.97142350  1
  P  P81  1  0.77590200  0.25000000  0.75000000  1
  P  P82  1  0.90198050  0.60532900  0.73983050  1
  P  P83  1  0.63994850  0.11326600  0.52857650  1
  P  P84  1  0.88994850  0.36326600  0.72142350  1
  P  P85  1  0.96811200  0.40068950  0.82385050  1
  P  P86  1  0.00293250  0.53833350  0.82284500  1
  P  P87  1  0.65198050  0.35532900  0.51016950  1
  P  P88  1  0.75293250  0.78833350  0.92715500  1
  P  P89  1  0.50293250  0.46166650  0.67715500  1
  P  P90  1  0.15198050  0.64467100  0.98983050  1
  P  P91  1  0.71811200  0.84931050  0.57385050  1
  P  P92  1  0.46811200  0.59931050  0.67614950  1
  P  P93  1  0.71811200  0.65068950  0.92614950  1
  P  P94  1  0.25293250  0.71166650  0.07284500  1
  P  P95  1  0.38994850  0.13673400  0.27857650  1
  P  P96  1  0.90198050  0.39467100  0.26016950  1
  P  P97  1  0.52590200  0.50000000  0.00000000  1
  P  P98  1  0.13994850  0.38673400  0.47142350  1
  P  P99  1  0.27590200  0.25000000  0.25000000  1
  P  P100  1  0.40198050  0.60532900  0.23983050  1
  P  P101  1  0.13994850  0.11326600  0.02857650  1
  P  P102  1  0.38994850  0.36326600  0.22142350  1
  P  P103  1  0.46811200  0.40068950  0.32385050  1
  P  P104  1  0.50293250  0.53833350  0.32284500  1
  P  P105  1  0.15198050  0.35532900  0.01016950  1
  P  P106  1  0.25293250  0.78833350  0.42715500  1
  P  P107  1  0.00293250  0.46166650  0.17715500  1
  P  P108  1  0.65198050  0.64467100  0.48983050  1
  P  P109  1  0.21811200  0.84931050  0.07385050  1
  P  P110  1  0.96811200  0.59931050  0.17614950  1
  P  P111  1  0.21811200  0.65068950  0.42614950  1
