# generated using pymatgen
data_La4Ru6O19
_symmetry_space_group_name_H-M   'P 1'
_cell_length_a   9.09055600
_cell_length_b   9.09055600
_cell_length_c   9.09055600
_cell_angle_alpha   90.00000000
_cell_angle_beta   90.00000000
_cell_angle_gamma   90.00000000
_symmetry_Int_Tables_number   1
_chemical_formula_structural   La4Ru6O19
_chemical_formula_sum   'La8 Ru12 O38'
_cell_volume   751.22726110
_cell_formula_units_Z   2
loop_
 _symmetry_equiv_pos_site_id
 _symmetry_equiv_pos_as_xyz
  1  'x, y, z'
loop_
 _atom_site_type_symbol
 _atom_site_label
 _atom_site_symmetry_multiplicity
 _atom_site_fract_x
 _atom_site_fract_y
 _atom_site_fract_z
 _atom_site_occupancy
  La  La0  1  0.15950400  0.15950400  0.84049600  1
  La  La1  1  0.15950400  0.84049600  0.15950400  1
  La  La2  1  0.34049600  0.34049600  0.34049600  1
  La  La3  1  0.84049600  0.15950400  0.15950400  1
  La  La4  1  0.65950400  0.65950400  0.34049600  1
  La  La5  1  0.65950400  0.34049600  0.65950400  1
  La  La6  1  0.84049600  0.84049600  0.84049600  1
  La  La7  1  0.34049600  0.65950400  0.65950400  1
  Ru  Ru8  1  0.50000000  0.36213400  0.00000000  1
  Ru  Ru9  1  0.00000000  0.50000000  0.36213400  1
  Ru  Ru10  1  0.13786600  0.50000000  0.00000000  1
  Ru  Ru11  1  0.50000000  0.00000000  0.13786600  1
  Ru  Ru12  1  0.36213400  0.00000000  0.50000000  1
  Ru  Ru13  1  0.00000000  0.13786600  0.50000000  1
  Ru  Ru14  1  0.00000000  0.86213400  0.50000000  1
  Ru  Ru15  1  0.50000000  0.00000000  0.86213400  1
  Ru  Ru16  1  0.63786600  0.00000000  0.50000000  1
  Ru  Ru17  1  0.00000000  0.50000000  0.63786600  1
  Ru  Ru18  1  0.86213400  0.50000000  0.00000000  1
  Ru  Ru19  1  0.50000000  0.63786600  0.00000000  1
  O  O20  1  0.00000000  0.32633700  0.00000000  1
  O  O21  1  0.00000000  0.00000000  0.32633700  1
  O  O22  1  0.67366300  0.00000000  0.00000000  1
  O  O23  1  0.00000000  0.00000000  0.67366300  1
  O  O24  1  0.32633700  0.00000000  0.00000000  1
  O  O25  1  0.00000000  0.67366300  0.00000000  1
  O  O26  1  0.00000000  0.00000000  0.00000000  1
  O  O27  1  0.28417500  0.34265500  0.01571500  1
  O  O28  1  0.48428500  0.21582500  0.84265500  1
  O  O29  1  0.15734500  0.51571500  0.21582500  1
  O  O30  1  0.51571500  0.21582500  0.15734500  1
  O  O31  1  0.65734500  0.98428500  0.28417500  1
  O  O32  1  0.01571500  0.28417500  0.34265500  1
  O  O33  1  0.34265500  0.01571500  0.28417500  1
  O  O34  1  0.84265500  0.48428500  0.21582500  1
  O  O35  1  0.98428500  0.28417500  0.65734500  1
  O  O36  1  0.21582500  0.15734500  0.51571500  1
  O  O37  1  0.28417500  0.65734500  0.98428500  1
  O  O38  1  0.21582500  0.84265500  0.48428500  1
  O  O39  1  0.50000000  0.82633700  0.50000000  1
  O  O40  1  0.50000000  0.50000000  0.82633700  1
  O  O41  1  0.17366300  0.50000000  0.50000000  1
  O  O42  1  0.50000000  0.50000000  0.17366300  1
  O  O43  1  0.82633700  0.50000000  0.50000000  1
  O  O44  1  0.50000000  0.17366300  0.50000000  1
  O  O45  1  0.50000000  0.50000000  0.50000000  1
  O  O46  1  0.78417500  0.84265500  0.51571500  1
  O  O47  1  0.98428500  0.71582500  0.34265500  1
  O  O48  1  0.65734500  0.01571500  0.71582500  1
  O  O49  1  0.01571500  0.71582500  0.65734500  1
  O  O50  1  0.15734500  0.48428500  0.78417500  1
  O  O51  1  0.51571500  0.78417500  0.84265500  1
  O  O52  1  0.84265500  0.51571500  0.78417500  1
  O  O53  1  0.34265500  0.98428500  0.71582500  1
  O  O54  1  0.48428500  0.78417500  0.15734500  1
  O  O55  1  0.71582500  0.65734500  0.01571500  1
  O  O56  1  0.78417500  0.15734500  0.48428500  1
  O  O57  1  0.71582500  0.34265500  0.98428500  1
