# generated using pymatgen
data_HoAlB14
_symmetry_space_group_name_H-M   'P 1'
_cell_length_a   5.90799800
_cell_length_b   8.23644000
_cell_length_c   10.47934200
_cell_angle_alpha   90.00000000
_cell_angle_beta   90.00000000
_cell_angle_gamma   90.00000000
_symmetry_Int_Tables_number   1
_chemical_formula_structural   HoAlB14
_chemical_formula_sum   'Ho4 Al4 B56'
_cell_volume   509.93390972
_cell_formula_units_Z   4
loop_
 _symmetry_equiv_pos_site_id
 _symmetry_equiv_pos_as_xyz
  1  'x, y, z'
loop_
 _atom_site_type_symbol
 _atom_site_label
 _atom_site_symmetry_multiplicity
 _atom_site_fract_x
 _atom_site_fract_y
 _atom_site_fract_z
 _atom_site_occupancy
  Ho  Ho0  1  0.00000000  0.34952100  0.25000000  1
  Ho  Ho1  1  0.00000000  0.65047900  0.75000000  1
  Ho  Ho2  1  0.50000000  0.84952100  0.75000000  1
  Ho  Ho3  1  0.50000000  0.15047900  0.25000000  1
  Al  Al4  1  0.75000000  0.25000000  0.75000000  1
  Al  Al5  1  0.25000000  0.25000000  0.75000000  1
  Al  Al6  1  0.25000000  0.75000000  0.25000000  1
  Al  Al7  1  0.75000000  0.75000000  0.25000000  1
  B  B8  1  0.00000000  0.37371400  0.64260200  1
  B  B9  1  0.74771600  0.45183200  0.92028300  1
  B  B10  1  0.50000000  0.53443700  0.66711500  1
  B  B11  1  0.50000000  0.53443700  0.83288500  1
  B  B12  1  0.50000000  0.46556300  0.33288500  1
  B  B13  1  0.16270050  0.16223450  0.06098450  1
  B  B14  1  0.74771600  0.45183200  0.57971700  1
  B  B15  1  0.00000000  0.62628600  0.35739800  1
  B  B16  1  0.25228400  0.45183200  0.57971700  1
  B  B17  1  0.74771600  0.54816800  0.42028300  1
  B  B18  1  0.50000000  0.46556300  0.16711500  1
  B  B19  1  0.00000000  0.83332600  0.09014600  1
  B  B20  1  0.25228400  0.45183200  0.92028300  1
  B  B21  1  0.33729950  0.66223450  0.93901550  1
  B  B22  1  0.50000000  0.66667400  0.09014600  1
  B  B23  1  0.83729950  0.83776550  0.93901550  1
  B  B24  1  0.00000000  0.62628600  0.14260200  1
  B  B25  1  0.00000000  0.16667400  0.90985400  1
  B  B26  1  0.66270050  0.66223450  0.93901550  1
  B  B27  1  0.16270050  0.83776550  0.93901550  1
  B  B28  1  0.83729950  0.16223450  0.06098450  1
  B  B29  1  0.66270050  0.33776550  0.06098450  1
  B  B30  1  0.33729950  0.33776550  0.06098450  1
  B  B31  1  0.25228400  0.54816800  0.42028300  1
  B  B32  1  0.50000000  0.33332600  0.90985400  1
  B  B33  1  0.00000000  0.37371400  0.85739800  1
  B  B34  1  0.74771600  0.54816800  0.07971700  1
  B  B35  1  0.25228400  0.54816800  0.07971700  1
  B  B36  1  0.50000000  0.87371400  0.14260200  1
  B  B37  1  0.24771600  0.95183200  0.42028300  1
  B  B38  1  0.00000000  0.03443700  0.16711500  1
  B  B39  1  0.00000000  0.03443700  0.33288500  1
  B  B40  1  0.00000000  0.96556300  0.83288500  1
  B  B41  1  0.66270050  0.66223450  0.56098450  1
  B  B42  1  0.24771600  0.95183200  0.07971700  1
  B  B43  1  0.50000000  0.12628600  0.85739800  1
  B  B44  1  0.75228400  0.95183200  0.07971700  1
  B  B45  1  0.24771600  0.04816800  0.92028300  1
  B  B46  1  0.00000000  0.96556300  0.66711500  1
  B  B47  1  0.50000000  0.33332600  0.59014600  1
  B  B48  1  0.75228400  0.95183200  0.42028300  1
  B  B49  1  0.83729950  0.16223450  0.43901550  1
  B  B50  1  0.00000000  0.16667400  0.59014600  1
  B  B51  1  0.33729950  0.33776550  0.43901550  1
  B  B52  1  0.50000000  0.12628600  0.64260200  1
  B  B53  1  0.50000000  0.66667400  0.40985400  1
  B  B54  1  0.16270050  0.16223450  0.43901550  1
  B  B55  1  0.66270050  0.33776550  0.43901550  1
  B  B56  1  0.33729950  0.66223450  0.56098450  1
  B  B57  1  0.16270050  0.83776550  0.56098450  1
  B  B58  1  0.83729950  0.83776550  0.56098450  1
  B  B59  1  0.75228400  0.04816800  0.92028300  1
  B  B60  1  0.00000000  0.83332600  0.40985400  1
  B  B61  1  0.50000000  0.87371400  0.35739800  1
  B  B62  1  0.24771600  0.04816800  0.57971700  1
  B  B63  1  0.75228400  0.04816800  0.57971700  1
