# generated using pymatgen
data_KV3Cd4O12
_symmetry_space_group_name_H-M   'P 1'
_cell_length_a   13.17549800
_cell_length_b   13.75314800
_cell_length_c   7.20575116
_cell_angle_alpha   90.00000000
_cell_angle_beta   115.17415247
_cell_angle_gamma   90.00000000
_symmetry_Int_Tables_number   1
_chemical_formula_structural   KV3Cd4O12
_chemical_formula_sum   'K4 V12 Cd16 O48'
_cell_volume   1181.69699881
_cell_formula_units_Z   4
loop_
 _symmetry_equiv_pos_site_id
 _symmetry_equiv_pos_as_xyz
  1  'x, y, z'
loop_
 _atom_site_type_symbol
 _atom_site_label
 _atom_site_symmetry_multiplicity
 _atom_site_fract_x
 _atom_site_fract_y
 _atom_site_fract_z
 _atom_site_occupancy
  K  K0  1  0.49941750  0.46810450  0.24897000  1
  K  K1  1  0.49941750  0.53189550  0.74897000  1
  K  K2  1  0.99941750  0.96810450  0.24897000  1
  K  K3  1  0.99941750  0.03189550  0.74897000  1
  V  V4  1  0.76125450  0.10837950  0.86302100  1
  V  V5  1  0.23286100  0.11205500  0.63650100  1
  V  V6  1  0.49832450  0.79711250  0.74922800  1
  V  V7  1  0.23286100  0.88794500  0.13650100  1
  V  V8  1  0.49832450  0.20288750  0.24922800  1
  V  V9  1  0.76125450  0.89162050  0.36302100  1
  V  V10  1  0.26125450  0.60837950  0.86302100  1
  V  V11  1  0.73286100  0.61205500  0.63650100  1
  V  V12  1  0.99832450  0.29711250  0.74922800  1
  V  V13  1  0.73286100  0.38794500  0.13650100  1
  V  V14  1  0.99832450  0.70288750  0.24922800  1
  V  V15  1  0.26125450  0.39162050  0.36302100  1
  Cd  Cd16  1  0.49635800  0.23482900  0.74238800  1
  Cd  Cd17  1  0.51718500  0.00643200  0.96207400  1
  Cd  Cd18  1  0.49635800  0.76517100  0.24238800  1
  Cd  Cd19  1  0.21970650  0.84197450  0.64721600  1
  Cd  Cd20  1  0.51718500  0.99356800  0.46207400  1
  Cd  Cd21  1  0.77657600  0.83937700  0.85339000  1
  Cd  Cd22  1  0.77657600  0.16062300  0.35339000  1
  Cd  Cd23  1  0.21970650  0.15802550  0.14721600  1
  Cd  Cd24  1  0.99635800  0.73482900  0.74238800  1
  Cd  Cd25  1  0.01718500  0.50643200  0.96207400  1
  Cd  Cd26  1  0.99635800  0.26517100  0.24238800  1
  Cd  Cd27  1  0.71970650  0.34197450  0.64721600  1
  Cd  Cd28  1  0.01718500  0.49356800  0.46207400  1
  Cd  Cd29  1  0.27657600  0.33937700  0.85339000  1
  Cd  Cd30  1  0.27657600  0.66062300  0.35339000  1
  Cd  Cd31  1  0.71970650  0.65802550  0.14721600  1
  O  O32  1  0.16976700  0.00070900  0.62052700  1
  O  O33  1  0.37954900  0.89879700  0.21121100  1
  O  O34  1  0.61294650  0.90983850  0.29194600  1
  O  O35  1  0.82673950  0.00115050  0.37630400  1
  O  O36  1  0.54229800  0.27527400  0.46878800  1
  O  O37  1  0.33595550  0.33291750  0.59809000  1
  O  O38  1  0.59402650  0.88215250  0.72834200  1
  O  O39  1  0.61294650  0.09016150  0.79194600  1
  O  O40  1  0.21103750  0.82063750  0.32032700  1
  O  O41  1  0.54229800  0.72472600  0.96878800  1
  O  O42  1  0.33595550  0.66708250  0.09809000  1
  O  O43  1  0.59402650  0.11784750  0.22834200  1
  O  O44  1  0.65878550  0.67114350  0.39920600  1
  O  O45  1  0.16976700  0.99929100  0.12052700  1
  O  O46  1  0.40303350  0.12061250  0.27352800  1
  O  O47  1  0.77669450  0.17651450  0.67540200  1
  O  O48  1  0.45248250  0.27470050  0.03014200  1
  O  O49  1  0.77669450  0.82348550  0.17540200  1
  O  O50  1  0.82673950  0.99884950  0.87630400  1
  O  O51  1  0.40303350  0.87938750  0.77352800  1
  O  O52  1  0.21103750  0.17936250  0.82032700  1
  O  O53  1  0.65878550  0.32885650  0.89920600  1
  O  O54  1  0.45248250  0.72529950  0.53014200  1
  O  O55  1  0.37954900  0.10120300  0.71121100  1
  O  O56  1  0.66976700  0.50070900  0.62052700  1
  O  O57  1  0.87954900  0.39879700  0.21121100  1
  O  O58  1  0.11294650  0.40983850  0.29194600  1
  O  O59  1  0.32673950  0.50115050  0.37630400  1
  O  O60  1  0.04229800  0.77527400  0.46878800  1
  O  O61  1  0.83595550  0.83291750  0.59809000  1
  O  O62  1  0.09402650  0.38215250  0.72834200  1
  O  O63  1  0.11294650  0.59016150  0.79194600  1
  O  O64  1  0.71103750  0.32063750  0.32032700  1
  O  O65  1  0.04229800  0.22472600  0.96878800  1
  O  O66  1  0.83595550  0.16708250  0.09809000  1
  O  O67  1  0.09402650  0.61784750  0.22834200  1
  O  O68  1  0.15878550  0.17114350  0.39920600  1
  O  O69  1  0.66976700  0.49929100  0.12052700  1
  O  O70  1  0.90303350  0.62061250  0.27352800  1
  O  O71  1  0.27669450  0.67651450  0.67540200  1
  O  O72  1  0.95248250  0.77470050  0.03014200  1
  O  O73  1  0.27669450  0.32348550  0.17540200  1
  O  O74  1  0.32673950  0.49884950  0.87630400  1
  O  O75  1  0.90303350  0.37938750  0.77352800  1
  O  O76  1  0.71103750  0.67936250  0.82032700  1
  O  O77  1  0.15878550  0.82885650  0.89920600  1
  O  O78  1  0.95248250  0.22529950  0.53014200  1
  O  O79  1  0.87954900  0.60120300  0.71121100  1
