# generated using pymatgen
data_La5Al3Ni2
_symmetry_space_group_name_H-M   'P 1'
_cell_length_a   6.88967000
_cell_length_b   14.26221600
_cell_length_c   10.47881800
_cell_angle_alpha   90.00000000
_cell_angle_beta   90.00000000
_cell_angle_gamma   90.00000000
_symmetry_Int_Tables_number   1
_chemical_formula_structural   La5Al3Ni2
_chemical_formula_sum   'La20 Al12 Ni8'
_cell_volume   1029.66921307
_cell_formula_units_Z   4
loop_
 _symmetry_equiv_pos_site_id
 _symmetry_equiv_pos_as_xyz
  1  'x, y, z'
loop_
 _atom_site_type_symbol
 _atom_site_label
 _atom_site_symmetry_multiplicity
 _atom_site_fract_x
 _atom_site_fract_y
 _atom_site_fract_z
 _atom_site_occupancy
  La  La0  1  0.00000000  0.12516100  0.00000000  1
  La  La1  1  0.24183000  0.28249700  0.25000000  1
  La  La2  1  0.50000000  0.37483900  0.50000000  1
  La  La3  1  0.50000000  0.37483900  0.00000000  1
  La  La4  1  0.25817000  0.21750300  0.75000000  1
  La  La5  1  0.00000000  0.12516100  0.50000000  1
  La  La6  1  0.61024600  0.00000000  0.75000000  1
  La  La7  1  0.75817000  0.28249700  0.75000000  1
  La  La8  1  0.74183000  0.21750300  0.25000000  1
  La  La9  1  0.38975400  0.00000000  0.25000000  1
  La  La10  1  0.50000000  0.62516100  0.00000000  1
  La  La11  1  0.74183000  0.78249700  0.25000000  1
  La  La12  1  0.00000000  0.87483900  0.50000000  1
  La  La13  1  0.00000000  0.87483900  0.00000000  1
  La  La14  1  0.75817000  0.71750300  0.75000000  1
  La  La15  1  0.50000000  0.62516100  0.50000000  1
  La  La16  1  0.11024600  0.50000000  0.75000000  1
  La  La17  1  0.25817000  0.78249700  0.75000000  1
  La  La18  1  0.24183000  0.71750300  0.25000000  1
  La  La19  1  0.88975400  0.50000000  0.25000000  1
  Al  Al20  1  0.11779400  0.00000000  0.75000000  1
  Al  Al21  1  0.50000000  0.14738600  0.00000000  1
  Al  Al22  1  0.50000000  0.14738600  0.50000000  1
  Al  Al23  1  0.88220600  0.00000000  0.25000000  1
  Al  Al24  1  0.00000000  0.35261400  0.00000000  1
  Al  Al25  1  0.00000000  0.35261400  0.50000000  1
  Al  Al26  1  0.61779400  0.50000000  0.75000000  1
  Al  Al27  1  0.00000000  0.64738600  0.00000000  1
  Al  Al28  1  0.00000000  0.64738600  0.50000000  1
  Al  Al29  1  0.38220600  0.50000000  0.25000000  1
  Al  Al30  1  0.50000000  0.85261400  0.00000000  1
  Al  Al31  1  0.50000000  0.85261400  0.50000000  1
  Ni  Ni32  1  0.32972800  0.00000000  0.56118600  1
  Ni  Ni33  1  0.32972800  0.00000000  0.93881400  1
  Ni  Ni34  1  0.67027200  0.00000000  0.06118600  1
  Ni  Ni35  1  0.67027200  0.00000000  0.43881400  1
  Ni  Ni36  1  0.82972800  0.50000000  0.56118600  1
  Ni  Ni37  1  0.82972800  0.50000000  0.93881400  1
  Ni  Ni38  1  0.17027200  0.50000000  0.06118600  1
  Ni  Ni39  1  0.17027200  0.50000000  0.43881400  1
