# generated using pymatgen
data_Na2CrNiF7
_symmetry_space_group_name_H-M   'P 1'
_cell_length_a   7.28193600
_cell_length_b   7.53048200
_cell_length_c   10.40560800
_cell_angle_alpha   90.00000000
_cell_angle_beta   90.00000000
_cell_angle_gamma   90.00000000
_symmetry_Int_Tables_number   1
_chemical_formula_structural   Na2CrNiF7
_chemical_formula_sum   'Na8 Cr4 Ni4 F28'
_cell_volume   570.60699795
_cell_formula_units_Z   4
loop_
 _symmetry_equiv_pos_site_id
 _symmetry_equiv_pos_as_xyz
  1  'x, y, z'
loop_
 _atom_site_type_symbol
 _atom_site_label
 _atom_site_symmetry_multiplicity
 _atom_site_fract_x
 _atom_site_fract_y
 _atom_site_fract_z
 _atom_site_occupancy
  Na  Na0  1  0.00000000  0.00000000  0.50000000  1
  Na  Na1  1  0.00000000  0.00000000  0.00000000  1
  Na  Na2  1  0.25000000  0.75000000  0.25000000  1
  Na  Na3  1  0.75000000  0.75000000  0.25000000  1
  Na  Na4  1  0.50000000  0.50000000  0.00000000  1
  Na  Na5  1  0.50000000  0.50000000  0.50000000  1
  Na  Na6  1  0.75000000  0.25000000  0.75000000  1
  Na  Na7  1  0.25000000  0.25000000  0.75000000  1
  Cr  Cr8  1  0.50000000  0.00000000  0.00000000  1
  Cr  Cr9  1  0.50000000  0.00000000  0.50000000  1
  Cr  Cr10  1  0.00000000  0.50000000  0.50000000  1
  Cr  Cr11  1  0.00000000  0.50000000  0.00000000  1
  Ni  Ni12  1  0.25000000  0.25000000  0.25000000  1
  Ni  Ni13  1  0.75000000  0.25000000  0.25000000  1
  Ni  Ni14  1  0.75000000  0.75000000  0.75000000  1
  Ni  Ni15  1  0.25000000  0.75000000  0.75000000  1
  F  F16  1  0.50000000  0.22920600  0.59064200  1
  F  F17  1  0.00000000  0.85583900  0.75000000  1
  F  F18  1  0.69890850  0.06316450  0.38408650  1
  F  F19  1  0.30109150  0.93683550  0.61591350  1
  F  F20  1  0.30109150  0.06316450  0.11591350  1
  F  F21  1  0.69890850  0.93683550  0.88408650  1
  F  F22  1  0.00000000  0.72920600  0.40935800  1
  F  F23  1  0.50000000  0.77079400  0.40935800  1
  F  F24  1  0.00000000  0.14416100  0.25000000  1
  F  F25  1  0.69890850  0.06316450  0.11591350  1
  F  F26  1  0.30109150  0.93683550  0.88408650  1
  F  F27  1  0.30109150  0.06316450  0.38408650  1
  F  F28  1  0.00000000  0.27079400  0.59064200  1
  F  F29  1  0.69890850  0.93683550  0.61591350  1
  F  F30  1  0.00000000  0.72920600  0.09064200  1
  F  F31  1  0.50000000  0.35583900  0.25000000  1
  F  F32  1  0.19890850  0.56316450  0.88408650  1
  F  F33  1  0.80109150  0.43683550  0.11591350  1
  F  F34  1  0.80109150  0.56316450  0.61591350  1
  F  F35  1  0.19890850  0.43683550  0.38408650  1
  F  F36  1  0.50000000  0.22920600  0.90935800  1
  F  F37  1  0.00000000  0.27079400  0.90935800  1
  F  F38  1  0.50000000  0.64416100  0.75000000  1
  F  F39  1  0.19890850  0.56316450  0.61591350  1
  F  F40  1  0.80109150  0.43683550  0.38408650  1
  F  F41  1  0.80109150  0.56316450  0.88408650  1
  F  F42  1  0.50000000  0.77079400  0.09064200  1
  F  F43  1  0.19890850  0.43683550  0.11591350  1
