# generated using pymatgen
data_Nd5Si3
_symmetry_space_group_name_H-M   'P 1'
_cell_length_a   7.82317600
_cell_length_b   7.82317600
_cell_length_c   13.91761600
_cell_angle_alpha   90.00000000
_cell_angle_beta   90.00000000
_cell_angle_gamma   90.00000000
_symmetry_Int_Tables_number   1
_chemical_formula_structural   Nd5Si3
_chemical_formula_sum   'Nd20 Si12'
_cell_volume   851.78708579
_cell_formula_units_Z   4
loop_
 _symmetry_equiv_pos_site_id
 _symmetry_equiv_pos_as_xyz
  1  'x, y, z'
loop_
 _atom_site_type_symbol
 _atom_site_label
 _atom_site_symmetry_multiplicity
 _atom_site_fract_x
 _atom_site_fract_y
 _atom_site_fract_z
 _atom_site_occupancy
  Nd  Nd0  1  0.82218250  0.32218250  0.35413550  1
  Nd  Nd1  1  0.32218250  0.17781750  0.35413550  1
  Nd  Nd2  1  0.17781750  0.67781750  0.35413550  1
  Nd  Nd3  1  0.82218250  0.67781750  0.14586450  1
  Nd  Nd4  1  0.67781750  0.17781750  0.14586450  1
  Nd  Nd5  1  0.67781750  0.82218250  0.35413550  1
  Nd  Nd6  1  0.17781750  0.32218250  0.14586450  1
  Nd  Nd7  1  0.50000000  0.50000000  0.00000000  1
  Nd  Nd8  1  0.32218250  0.82218250  0.14586450  1
  Nd  Nd9  1  0.00000000  0.00000000  0.00000000  1
  Nd  Nd10  1  0.32218250  0.82218250  0.85413550  1
  Nd  Nd11  1  0.82218250  0.67781750  0.85413550  1
  Nd  Nd12  1  0.67781750  0.17781750  0.85413550  1
  Nd  Nd13  1  0.32218250  0.17781750  0.64586450  1
  Nd  Nd14  1  0.17781750  0.67781750  0.64586450  1
  Nd  Nd15  1  0.17781750  0.32218250  0.85413550  1
  Nd  Nd16  1  0.67781750  0.82218250  0.64586450  1
  Nd  Nd17  1  0.00000000  0.00000000  0.50000000  1
  Nd  Nd18  1  0.82218250  0.32218250  0.64586450  1
  Nd  Nd19  1  0.50000000  0.50000000  0.50000000  1
  Si  Si20  1  0.61506300  0.88493700  0.00000000  1
  Si  Si21  1  0.11506300  0.61506300  0.00000000  1
  Si  Si22  1  0.88493700  0.38493700  0.00000000  1
  Si  Si23  1  0.38493700  0.11506300  0.00000000  1
  Si  Si24  1  0.50000000  0.50000000  0.25000000  1
  Si  Si25  1  0.00000000  0.00000000  0.25000000  1
  Si  Si26  1  0.11506300  0.38493700  0.50000000  1
  Si  Si27  1  0.61506300  0.11506300  0.50000000  1
  Si  Si28  1  0.38493700  0.88493700  0.50000000  1
  Si  Si29  1  0.88493700  0.61506300  0.50000000  1
  Si  Si30  1  0.00000000  0.00000000  0.75000000  1
  Si  Si31  1  0.50000000  0.50000000  0.75000000  1
