# generated using pymatgen
data_Pr5Tl3
_symmetry_space_group_name_H-M   'P 1'
_cell_length_a   12.71085000
_cell_length_b   12.71085000
_cell_length_c   6.36471200
_cell_angle_alpha   90.00000000
_cell_angle_beta   90.00000000
_cell_angle_gamma   90.00000000
_symmetry_Int_Tables_number   1
_chemical_formula_structural   Pr5Tl3
_chemical_formula_sum   'Pr20 Tl12'
_cell_volume   1028.31919873
_cell_formula_units_Z   4
loop_
 _symmetry_equiv_pos_site_id
 _symmetry_equiv_pos_as_xyz
  1  'x, y, z'
loop_
 _atom_site_type_symbol
 _atom_site_label
 _atom_site_symmetry_multiplicity
 _atom_site_fract_x
 _atom_site_fract_y
 _atom_site_fract_z
 _atom_site_occupancy
  Pr  Pr0  1  0.58589850  0.28174750  0.50000000  1
  Pr  Pr1  1  0.41410150  0.71825250  0.50000000  1
  Pr  Pr2  1  0.78174750  0.91410150  0.00000000  1
  Pr  Pr3  1  0.41410150  0.28174750  0.00000000  1
  Pr  Pr4  1  0.78174750  0.08589850  0.50000000  1
  Pr  Pr5  1  0.50000000  0.00000000  0.25000000  1
  Pr  Pr6  1  0.50000000  0.00000000  0.75000000  1
  Pr  Pr7  1  0.58589850  0.71825250  0.00000000  1
  Pr  Pr8  1  0.21825250  0.08589850  0.00000000  1
  Pr  Pr9  1  0.21825250  0.91410150  0.50000000  1
  Pr  Pr10  1  0.08589850  0.78174750  0.00000000  1
  Pr  Pr11  1  0.91410150  0.21825250  0.00000000  1
  Pr  Pr12  1  0.28174750  0.41410150  0.50000000  1
  Pr  Pr13  1  0.91410150  0.78174750  0.50000000  1
  Pr  Pr14  1  0.28174750  0.58589850  0.00000000  1
  Pr  Pr15  1  0.00000000  0.50000000  0.75000000  1
  Pr  Pr16  1  0.00000000  0.50000000  0.25000000  1
  Pr  Pr17  1  0.08589850  0.21825250  0.50000000  1
  Pr  Pr18  1  0.71825250  0.58589850  0.50000000  1
  Pr  Pr19  1  0.71825250  0.41410150  0.00000000  1
  Tl  Tl20  1  0.33924600  0.16075400  0.50000000  1
  Tl  Tl21  1  0.66075400  0.16075400  0.00000000  1
  Tl  Tl22  1  0.00000000  0.00000000  0.25000000  1
  Tl  Tl23  1  0.33924600  0.83924600  0.00000000  1
  Tl  Tl24  1  0.66075400  0.83924600  0.50000000  1
  Tl  Tl25  1  0.00000000  0.00000000  0.75000000  1
  Tl  Tl26  1  0.83924600  0.66075400  0.00000000  1
  Tl  Tl27  1  0.16075400  0.66075400  0.50000000  1
  Tl  Tl28  1  0.50000000  0.50000000  0.75000000  1
  Tl  Tl29  1  0.83924600  0.33924600  0.50000000  1
  Tl  Tl30  1  0.16075400  0.33924600  0.00000000  1
  Tl  Tl31  1  0.50000000  0.50000000  0.25000000  1
