# generated using pymatgen
data_Cs2Co3S4
_symmetry_space_group_name_H-M   'P 1'
_cell_length_a   5.41374000
_cell_length_b   10.89216600
_cell_length_c   13.61412400
_cell_angle_alpha   90.00000000
_cell_angle_beta   90.00000000
_cell_angle_gamma   90.00000000
_symmetry_Int_Tables_number   1
_chemical_formula_structural   Cs2Co3S4
_chemical_formula_sum   'Cs8 Co12 S16'
_cell_volume   802.78887967
_cell_formula_units_Z   4
loop_
 _symmetry_equiv_pos_site_id
 _symmetry_equiv_pos_as_xyz
  1  'x, y, z'
loop_
 _atom_site_type_symbol
 _atom_site_label
 _atom_site_symmetry_multiplicity
 _atom_site_fract_x
 _atom_site_fract_y
 _atom_site_fract_z
 _atom_site_occupancy
  Cs  Cs0  1  0.24413400  0.12434300  0.50000000  1
  Cs  Cs1  1  0.25586600  0.62434300  0.50000000  1
  Cs  Cs2  1  0.74413400  0.37565700  0.50000000  1
  Cs  Cs3  1  0.75586600  0.87565700  0.50000000  1
  Cs  Cs4  1  0.74413400  0.62434300  0.00000000  1
  Cs  Cs5  1  0.75586600  0.12434300  0.00000000  1
  Cs  Cs6  1  0.24413400  0.87565700  0.00000000  1
  Cs  Cs7  1  0.25586600  0.37565700  0.00000000  1
  Co  Co8  1  0.00000000  0.74713850  0.75000000  1
  Co  Co9  1  0.00000000  0.25286150  0.75000000  1
  Co  Co10  1  0.00000000  0.74713850  0.25000000  1
  Co  Co11  1  0.00000000  0.50000000  0.25000000  1
  Co  Co12  1  0.00000000  0.25286150  0.25000000  1
  Co  Co13  1  0.00000000  0.50000000  0.75000000  1
  Co  Co14  1  0.50000000  0.24713850  0.25000000  1
  Co  Co15  1  0.50000000  0.75286150  0.25000000  1
  Co  Co16  1  0.50000000  0.24713850  0.75000000  1
  Co  Co17  1  0.50000000  0.00000000  0.75000000  1
  Co  Co18  1  0.50000000  0.75286150  0.75000000  1
  Co  Co19  1  0.50000000  0.00000000  0.25000000  1
  S  S20  1  0.75127100  0.62581100  0.32946150  1
  S  S21  1  0.75127100  0.37418900  0.82946150  1
  S  S22  1  0.75127100  0.37418900  0.17053850  1
  S  S23  1  0.24872900  0.37418900  0.67053850  1
  S  S24  1  0.24872900  0.62581100  0.17053850  1
  S  S25  1  0.24872900  0.62581100  0.82946150  1
  S  S26  1  0.75127100  0.62581100  0.67053850  1
  S  S27  1  0.24872900  0.37418900  0.32946150  1
  S  S28  1  0.25127100  0.12581100  0.82946150  1
  S  S29  1  0.25127100  0.87418900  0.32946150  1
  S  S30  1  0.25127100  0.87418900  0.67053850  1
  S  S31  1  0.74872900  0.87418900  0.17053850  1
  S  S32  1  0.74872900  0.12581100  0.67053850  1
  S  S33  1  0.74872900  0.12581100  0.32946150  1
  S  S34  1  0.25127100  0.12581100  0.17053850  1
  S  S35  1  0.74872900  0.87418900  0.82946150  1
