# generated using pymatgen
data_Ti4Fe(PO4)6
_symmetry_space_group_name_H-M   'P 1'
_cell_length_a   8.64266191
_cell_length_b   8.64266191
_cell_length_c   42.36268637
_cell_angle_alpha   90.00000000
_cell_angle_beta   90.00000000
_cell_angle_gamma   120.00000000
_symmetry_Int_Tables_number   1
_chemical_formula_structural   Ti4Fe(PO4)6
_chemical_formula_sum   'Ti24 Fe6 P36 O144'
_cell_volume   2740.36980067
_cell_formula_units_Z   6
loop_
 _symmetry_equiv_pos_site_id
 _symmetry_equiv_pos_as_xyz
  1  'x, y, z'
loop_
 _atom_site_type_symbol
 _atom_site_label
 _atom_site_symmetry_multiplicity
 _atom_site_fract_x
 _atom_site_fract_y
 _atom_site_fract_z
 _atom_site_occupancy
  Ti  Ti0  1  0.00000000  0.00000000  0.30369200  1
  Ti  Ti1  1  0.33333333  0.66666667  0.11072467  1
  Ti  Ti2  1  0.33333333  0.66666667  0.22260867  1
  Ti  Ti3  1  0.66666667  0.33333333  0.28049233  1
  Ti  Ti4  1  0.00000000  0.00000000  0.19464900  1
  Ti  Ti5  1  0.66666667  0.33333333  0.02964133  1
  Ti  Ti6  1  0.66666667  0.33333333  0.13868433  1
  Ti  Ti7  1  0.00000000  0.00000000  0.05284100  1
  Ti  Ti8  1  0.66666667  0.33333333  0.63702533  1
  Ti  Ti9  1  0.00000000  0.00000000  0.44405800  1
  Ti  Ti10  1  1.00000000  0.00000000  0.55594200  1
  Ti  Ti11  1  0.33333333  0.66666667  0.61382567  1
  Ti  Ti12  1  0.66666667  0.33333333  0.52798233  1
  Ti  Ti13  1  0.33333333  0.66666667  0.36297467  1
  Ti  Ti14  1  0.33333333  0.66666667  0.47201767  1
  Ti  Ti15  1  0.66666667  0.33333333  0.38617433  1
  Ti  Ti16  1  0.33333333  0.66666667  0.97035867  1
  Ti  Ti17  1  0.66666667  0.33333333  0.77739133  1
  Ti  Ti18  1  0.66666667  0.33333333  0.88927533  1
  Ti  Ti19  1  0.00000000  0.00000000  0.94715900  1
  Ti  Ti20  1  0.33333333  0.66666667  0.86131567  1
  Ti  Ti21  1  0.00000000  0.00000000  0.69630800  1
  Ti  Ti22  1  0.00000000  0.00000000  0.80535100  1
  Ti  Ti23  1  0.33333333  0.66666667  0.71950767  1
  Fe  Fe24  1  0.00000000  0.00000000  0.12453400  1
  Fe  Fe25  1  0.66666667  0.33333333  0.20879933  1
  Fe  Fe26  1  0.66666667  0.33333333  0.45786733  1
  Fe  Fe27  1  0.33333333  0.66666667  0.54213267  1
  Fe  Fe28  1  0.33333333  0.66666667  0.79120067  1
  Fe  Fe29  1  0.00000000  0.00000000  0.87546600  1
  P  P30  1  0.29208367  0.00773033  0.24773633  1
  P  P31  1  0.99226967  0.28435333  0.24773633  1
  P  P32  1  0.37458300  0.04898000  0.08559700  1
  P  P33  1  0.04652033  0.66666667  0.16666667  1
  P  P34  1  0.62014633  0.95347967  0.16666667  1
  P  P35  1  0.95102000  0.32560300  0.08559700  1
  P  P36  1  0.71096300  0.00000000  0.00000000  1
  P  P37  1  0.67439700  0.62541700  0.08559700  1
  P  P38  1  0.33333333  0.37985367  0.16666667  1
  P  P39  1  0.71564667  0.70791633  0.24773633  1
  P  P40  1  0.00000000  0.71096300  0.00000000  1
  P  P41  1  0.28903700  0.28903700  0.00000000  1
  P  P42  1  0.95875033  0.34106367  0.58106967  1
  P  P43  1  0.65893633  0.61768667  0.58106967  1
  P  P44  1  0.04124967  0.38231333  0.41893033  1
  P  P45  1  0.71318700  0.00000000  0.50000000  1
  P  P46  1  0.28681300  0.28681300  0.50000000  1
  P  P47  1  0.61768667  0.65893633  0.41893033  1
  P  P48  1  0.37762967  0.33333333  0.33333333  1
  P  P49  1  0.34106367  0.95875033  0.41893033  1
  P  P50  1  0.00000000  0.71318700  0.50000000  1
  P  P51  1  0.38231333  0.04124967  0.58106967  1
  P  P52  1  0.66666667  0.04429633  0.33333333  1
  P  P53  1  0.95570367  0.62237033  0.33333333  1
  P  P54  1  0.62541700  0.67439700  0.91440300  1
  P  P55  1  0.32560300  0.95102000  0.91440300  1
  P  P56  1  0.70791633  0.71564667  0.75226367  1
  P  P57  1  0.37985367  0.33333333  0.83333333  1
  P  P58  1  0.95347967  0.62014633  0.83333333  1
  P  P59  1  0.28435333  0.99226967  0.75226367  1
  P  P60  1  0.04429633  0.66666667  0.66666667  1
  P  P61  1  0.00773033  0.29208367  0.75226367  1
  P  P62  1  0.66666667  0.04652033  0.83333333  1
  P  P63  1  0.04898000  0.37458300  0.91440300  1
  P  P64  1  0.33333333  0.37762967  0.66666667  1
  P  P65  1  0.62237033  0.95570367  0.66666667  1
  O  O66  1  0.02286833  0.83440467  0.16215567  1
  O  O67  1  0.69369667  0.16620933  0.00337033  1
  O  O68  1  0.14240900  0.48427200  0.08569100  1
  O  O69  1  0.83287600  0.02703000  0.32996300  1
  O  O70  1  0.81581233  0.29251267  0.24653167  1
  O  O71  1  0.17061767  0.19616533  0.02947433  1
  O  O72  1  0.70748733  0.52329967  0.24653167  1
  O  O73  1  0.67925967  0.52576233  0.11587033  1
  O  O74  1  0.66607167  0.51908533  0.05636633  1
  O  O75  1  0.82016400  0.80757100  0.21746300  1
  O  O76  1  0.19415400  0.16712400  0.32996300  1
  O  O77  1  0.80383467  0.97445233  0.02947433  1
  O  O78  1  0.16559533  0.18846367  0.16215567  1
  O  O79  1  0.64111900  0.13716800  0.30385900  1
  O  O80  1  0.51331567  0.86216933  0.13702633  1
  O  O81  1  0.84650267  0.32074033  0.11587033  1
  O  O82  1  0.19242900  0.01259300  0.21746300  1
  O  O83  1  0.86283200  0.50395100  0.30385900  1
  O  O84  1  0.81153633  0.97713167  0.16215567  1
  O  O85  1  0.52425767  0.67519633  0.24764233  1
  O  O86  1  0.51572800  0.65813700  0.08569100  1
  O  O87  1  0.95917933  0.14914567  0.08680167  1
  O  O88  1  0.52883600  0.84664900  0.19630700  1
  O  O89  1  0.49604900  0.35888100  0.30385900  1
  O  O90  1  0.15335100  0.68218700  0.19630700  1
  O  O91  1  0.97297000  0.80584600  0.32996300  1
  O  O92  1  0.13783067  0.65114633  0.13702633  1
  O  O93  1  0.85085433  0.81003367  0.08680167  1
  O  O94  1  0.15093867  0.47574233  0.24764233  1
  O  O95  1  0.02554767  0.82938233  0.02947433  1
  O  O96  1  0.81365300  0.81424800  0.27696700  1
  O  O97  1  0.85301367  0.33392833  0.05636633  1
  O  O98  1  0.34885367  0.48668433  0.13702633  1
  O  O99  1  0.64379833  0.14486967  0.17117767  1
  O  O100  1  0.48091467  0.14698633  0.05636633  1
  O  O101  1  0.47423767  0.15349733  0.11587033  1
  O  O102  1  0.98740700  0.17983600  0.21746300  1
  O  O103  1  0.50107133  0.35620167  0.17117767  1
  O  O104  1  0.31781300  0.47116400  0.19630700  1
  O  O105  1  0.47251267  0.30630333  0.00337033  1
  O  O106  1  0.34186300  0.85759100  0.08569100  1
  O  O107  1  0.85513033  0.49892867  0.17117767  1
  O  O108  1  0.32480367  0.84906133  0.24764233  1
  O  O109  1  0.18575200  0.99940500  0.27696700  1
  O  O110  1  0.18996633  0.04082067  0.08680167  1
  O  O111  1  0.47670033  0.18418767  0.24653167  1
  O  O112  1  0.00059500  0.18634700  0.27696700  1
  O  O113  1  0.83379067  0.52748733  0.00337033  1
  O  O114  1  0.68953500  0.16773800  0.49548900  1
  O  O115  1  0.36036333  0.49954267  0.33670367  1
  O  O116  1  0.80907567  0.81760533  0.41902433  1
  O  O117  1  0.49954267  0.36036333  0.66329633  1
  O  O118  1  0.48247900  0.62584600  0.57986500  1
  O  O119  1  0.83728433  0.52949867  0.36280767  1
  O  O120  1  0.37415400  0.85663300  0.57986500  1
  O  O121  1  0.34592633  0.85909567  0.44920367  1
  O  O122  1  0.33273833  0.85241867  0.38969967  1
  O  O123  1  0.48683067  0.14090433  0.55079633  1
  O  O124  1  0.86082067  0.50045733  0.66329633  1
  O  O125  1  0.47050133  0.30778567  0.36280767  1
  O  O126  1  0.83226200  0.52179700  0.49548900  1
  O  O127  1  0.30778567  0.47050133  0.63719233  1
  O  O128  1  0.17998233  0.19550267  0.47035967  1
  O  O129  1  0.51316933  0.65407367  0.44920367  1
  O  O130  1  0.85909567  0.34592633  0.55079633  1
  O  O131  1  0.52949867  0.83728433  0.63719233  1
  O  O132  1  0.47820300  0.31046500  0.49548900  1
  O  O133  1  0.19092433  0.00852967  0.58097567  1
  O  O134  1  0.18239467  0.99147033  0.41902433  1
  O  O135  1  0.62584600  0.48247900  0.42013500  1
  O  O136  1  0.19550267  0.17998233  0.52964033  1
  O  O137  1  0.16271567  0.69221433  0.63719233  1
  O  O138  1  0.82001767  0.01552033  0.52964033  1
  O  O139  1  0.63963667  0.13917933  0.66329633  1
  O  O140  1  0.80449733  0.98447967  0.47035967  1
  O  O141  1  0.51752100  0.14336700  0.42013500  1
  O  O142  1  0.81760533  0.80907567  0.58097567  1
  O  O143  1  0.69221433  0.16271567  0.36280767  1
  O  O144  1  0.48031967  0.14758133  0.61030033  1
  O  O145  1  0.51968033  0.66726167  0.38969967  1
  O  O146  1  0.01552033  0.82001767  0.47035967  1
  O  O147  1  0.31046500  0.47820300  0.50451100  1
  O  O148  1  0.14758133  0.48031967  0.38969967  1
  O  O149  1  0.14090433  0.48683067  0.44920367  1
  O  O150  1  0.65407367  0.51316933  0.55079633  1
  O  O151  1  0.16773800  0.68953500  0.50451100  1
  O  O152  1  0.98447967  0.80449733  0.52964033  1
  O  O153  1  0.13917933  0.63963667  0.33670367  1
  O  O154  1  0.00852967  0.19092433  0.41902433  1
  O  O155  1  0.52179700  0.83226200  0.50451100  1
  O  O156  1  0.99147033  0.18239467  0.58097567  1
  O  O157  1  0.85241867  0.33273833  0.61030033  1
  O  O158  1  0.85663300  0.37415400  0.42013500  1
  O  O159  1  0.14336700  0.51752100  0.57986500  1
  O  O160  1  0.66726167  0.51968033  0.61030033  1
  O  O161  1  0.50045733  0.86082067  0.33670367  1
  O  O162  1  0.35620167  0.50107133  0.82882233  1
  O  O163  1  0.02703000  0.83287600  0.67003700  1
  O  O164  1  0.47574233  0.15093867  0.75235767  1
  O  O165  1  0.16620933  0.69369667  0.99662967  1
  O  O166  1  0.14914567  0.95917933  0.91319833  1
  O  O167  1  0.50395100  0.86283200  0.69614100  1
  O  O168  1  0.04082067  0.18996633  0.91319833  1
  O  O169  1  0.01259300  0.19242900  0.78253700  1
  O  O170  1  0.99940500  0.18575200  0.72303300  1
  O  O171  1  0.15349733  0.47423767  0.88412967  1
  O  O172  1  0.52748733  0.83379067  0.99662967  1
  O  O173  1  0.13716800  0.64111900  0.69614100  1
  O  O174  1  0.49892867  0.85513033  0.82882233  1
  O  O175  1  0.97445233  0.80383467  0.97052567  1
  O  O176  1  0.84664900  0.52883600  0.80369300  1
  O  O177  1  0.17983600  0.98740700  0.78253700  1
  O  O178  1  0.52576233  0.67925967  0.88412967  1
  O  O179  1  0.19616533  0.17061767  0.97052567  1
  O  O180  1  0.14486967  0.64379833  0.82882233  1
  O  O181  1  0.85759100  0.34186300  0.91430900  1
  O  O182  1  0.84906133  0.32480367  0.75235767  1
  O  O183  1  0.29251267  0.81581233  0.75346833  1
  O  O184  1  0.86216933  0.51331567  0.86297367  1
  O  O185  1  0.82938233  0.02554767  0.97052567  1
  O  O186  1  0.48668433  0.34885367  0.86297367  1
  O  O187  1  0.30630333  0.47251267  0.99662967  1
  O  O188  1  0.47116400  0.31781300  0.80369300  1
  O  O189  1  0.18418767  0.47670033  0.75346833  1
  O  O190  1  0.48427200  0.14240900  0.91430900  1
  O  O191  1  0.35888100  0.49604900  0.69614100  1
  O  O192  1  0.14698633  0.48091467  0.94363367  1
  O  O193  1  0.18634700  0.00059500  0.72303300  1
  O  O194  1  0.68218700  0.15335100  0.80369300  1
  O  O195  1  0.97713167  0.81153633  0.83784433  1
  O  O196  1  0.81424800  0.81365300  0.72303300  1
  O  O197  1  0.80757100  0.82016400  0.78253700  1
  O  O198  1  0.32074033  0.84650267  0.88412967  1
  O  O199  1  0.83440467  0.02286833  0.83784433  1
  O  O200  1  0.65114633  0.13783067  0.86297367  1
  O  O201  1  0.80584600  0.97297000  0.67003700  1
  O  O202  1  0.67519633  0.52425767  0.75235767  1
  O  O203  1  0.18846367  0.16559533  0.83784433  1
  O  O204  1  0.65813700  0.51572800  0.91430900  1
  O  O205  1  0.51908533  0.66607167  0.94363367  1
  O  O206  1  0.52329967  0.70748733  0.75346833  1
  O  O207  1  0.81003367  0.85085433  0.91319833  1
  O  O208  1  0.33392833  0.85301367  0.94363367  1
  O  O209  1  0.16712400  0.19415400  0.67003700  1
