# generated using pymatgen
data_NaFe(SeO4)2
_symmetry_space_group_name_H-M   'P 1'
_cell_length_a   8.39505928
_cell_length_b   5.52391157
_cell_length_c   7.31862973
_cell_angle_alpha   90.00000000
_cell_angle_beta   91.83677599
_cell_angle_gamma   90.00000000
_symmetry_Int_Tables_number   1
_chemical_formula_structural   NaFe(SeO4)2
_chemical_formula_sum   'Na2 Fe2 Se4 O16'
_cell_volume   339.21657077
_cell_formula_units_Z   2
loop_
 _symmetry_equiv_pos_site_id
 _symmetry_equiv_pos_as_xyz
  1  'x, y, z'
loop_
 _atom_site_type_symbol
 _atom_site_label
 _atom_site_symmetry_multiplicity
 _atom_site_fract_x
 _atom_site_fract_y
 _atom_site_fract_z
 _atom_site_occupancy
  Na  Na0  1  0.00000000  0.00000000  0.50000000  1
  Na  Na1  1  0.50000000  0.50000000  0.50000000  1
  Fe  Fe2  1  0.50000000  0.50000000  0.00000000  1
  Fe  Fe3  1  0.00000000  0.00000000  0.00000000  1
  Se  Se4  1  0.13765475  0.50000000  0.77694150  1
  Se  Se5  1  0.86234525  0.50000000  0.22305850  1
  Se  Se6  1  0.63765475  0.00000000  0.77694150  1
  Se  Se7  1  0.36234525  0.00000000  0.22305850  1
  O  O8  1  0.21616525  0.50000000  0.57571150  1
  O  O9  1  0.78383475  0.50000000  0.42428850  1
  O  O10  1  0.73537225  0.50000000  0.04101250  1
  O  O11  1  0.26462775  0.50000000  0.95898750  1
  O  O12  1  0.98050575  0.25227925  0.20495050  1
  O  O13  1  0.01949425  0.74772075  0.79504950  1
  O  O14  1  0.98050575  0.74772075  0.20495050  1
  O  O15  1  0.01949425  0.25227925  0.79504950  1
  O  O16  1  0.71616525  0.00000000  0.57571150  1
  O  O17  1  0.28383475  0.00000000  0.42428850  1
  O  O18  1  0.23537225  0.00000000  0.04101250  1
  O  O19  1  0.76462775  0.00000000  0.95898750  1
  O  O20  1  0.48050575  0.75227925  0.20495050  1
  O  O21  1  0.51949425  0.24772075  0.79504950  1
  O  O22  1  0.48050575  0.24772075  0.20495050  1
  O  O23  1  0.51949425  0.75227925  0.79504950  1
