# generated using pymatgen
data_TmMoClO4
_symmetry_space_group_name_H-M   'P 1'
_cell_length_a   10.21679600
_cell_length_b   7.24137200
_cell_length_c   6.87600926
_cell_angle_alpha   90.00000000
_cell_angle_beta   107.54252958
_cell_angle_gamma   90.00000000
_symmetry_Int_Tables_number   1
_chemical_formula_structural   TmMoClO4
_chemical_formula_sum   'Tm4 Mo4 Cl4 O16'
_cell_volume   485.05363213
_cell_formula_units_Z   4
loop_
 _symmetry_equiv_pos_site_id
 _symmetry_equiv_pos_as_xyz
  1  'x, y, z'
loop_
 _atom_site_type_symbol
 _atom_site_label
 _atom_site_symmetry_multiplicity
 _atom_site_fract_x
 _atom_site_fract_y
 _atom_site_fract_z
 _atom_site_occupancy
  Tm  Tm0  1  0.22168000  0.00000000  0.11274000  1
  Tm  Tm1  1  0.77832000  0.00000000  0.88726000  1
  Tm  Tm2  1  0.72168000  0.50000000  0.11274000  1
  Tm  Tm3  1  0.27832000  0.50000000  0.88726000  1
  Mo  Mo4  1  0.63777100  0.00000000  0.26905300  1
  Mo  Mo5  1  0.36222900  0.00000000  0.73094700  1
  Mo  Mo6  1  0.13777100  0.50000000  0.26905300  1
  Mo  Mo7  1  0.86222900  0.50000000  0.73094700  1
  Cl  Cl8  1  0.01035300  0.00000000  0.76839300  1
  Cl  Cl9  1  0.98964700  0.00000000  0.23160700  1
  Cl  Cl10  1  0.51035300  0.50000000  0.76839300  1
  Cl  Cl11  1  0.48964700  0.50000000  0.23160700  1
  O  O12  1  0.29350800  0.00000000  0.46204400  1
  O  O13  1  0.70649200  0.00000000  0.53795600  1
  O  O14  1  0.29920500  0.19295300  0.84629200  1
  O  O15  1  0.54503800  0.00000000  0.80036700  1
  O  O16  1  0.70079500  0.19295300  0.15370800  1
  O  O17  1  0.29920500  0.80704700  0.84629200  1
  O  O18  1  0.45496200  0.00000000  0.19963300  1
  O  O19  1  0.70079500  0.80704700  0.15370800  1
  O  O20  1  0.79350800  0.50000000  0.46204400  1
  O  O21  1  0.20649200  0.50000000  0.53795600  1
  O  O22  1  0.79920500  0.69295300  0.84629200  1
  O  O23  1  0.04503800  0.50000000  0.80036700  1
  O  O24  1  0.20079500  0.69295300  0.15370800  1
  O  O25  1  0.79920500  0.30704700  0.84629200  1
  O  O26  1  0.95496200  0.50000000  0.19963300  1
  O  O27  1  0.20079500  0.30704700  0.15370800  1
