# generated using pymatgen
data_Sm3Ge5
_symmetry_space_group_name_H-M   'P 1'
_cell_length_a   5.89745400
_cell_length_b   14.04537200
_cell_length_c   17.68320800
_cell_angle_alpha   90.00000000
_cell_angle_beta   90.00000000
_cell_angle_gamma   90.00000000
_symmetry_Int_Tables_number   1
_chemical_formula_structural   Sm3Ge5
_chemical_formula_sum   'Sm24 Ge40'
_cell_volume   1464.73434065
_cell_formula_units_Z   8
loop_
 _symmetry_equiv_pos_site_id
 _symmetry_equiv_pos_as_xyz
  1  'x, y, z'
loop_
 _atom_site_type_symbol
 _atom_site_label
 _atom_site_symmetry_multiplicity
 _atom_site_fract_x
 _atom_site_fract_y
 _atom_site_fract_z
 _atom_site_occupancy
  Sm  Sm0  1  0.50000000  0.75048600  0.00000000  1
  Sm  Sm1  1  0.24248800  0.99349250  0.08140350  1
  Sm  Sm2  1  0.75000000  0.50048600  0.75000000  1
  Sm  Sm3  1  0.99248800  0.74349250  0.16859650  1
  Sm  Sm4  1  0.75751200  0.99349250  0.91859650  1
  Sm  Sm5  1  0.00751200  0.74349250  0.83140350  1
  Sm  Sm6  1  0.50000000  0.25048600  0.50000000  1
  Sm  Sm7  1  0.24248800  0.49349250  0.58140350  1
  Sm  Sm8  1  0.75000000  0.00048600  0.25000000  1
  Sm  Sm9  1  0.99248800  0.24349250  0.66859650  1
  Sm  Sm10  1  0.75751200  0.49349250  0.41859650  1
  Sm  Sm11  1  0.00751200  0.24349250  0.33140350  1
  Sm  Sm12  1  0.00000000  0.25048600  0.00000000  1
  Sm  Sm13  1  0.74248800  0.49349250  0.08140350  1
  Sm  Sm14  1  0.25000000  0.00048600  0.75000000  1
  Sm  Sm15  1  0.49248800  0.24349250  0.16859650  1
  Sm  Sm16  1  0.25751200  0.49349250  0.91859650  1
  Sm  Sm17  1  0.50751200  0.24349250  0.83140350  1
  Sm  Sm18  1  0.00000000  0.75048600  0.50000000  1
  Sm  Sm19  1  0.74248800  0.99349250  0.58140350  1
  Sm  Sm20  1  0.25000000  0.50048600  0.25000000  1
  Sm  Sm21  1  0.49248800  0.74349250  0.66859650  1
  Sm  Sm22  1  0.25751200  0.99349250  0.41859650  1
  Sm  Sm23  1  0.50751200  0.74349250  0.33140350  1
  Ge  Ge24  1  0.54630450  0.84321850  0.81917400  1
  Ge  Ge25  1  0.45369550  0.84321850  0.18082600  1
  Ge  Ge26  1  0.24099850  0.91303800  0.91297650  1
  Ge  Ge27  1  0.20369550  0.59321850  0.06917400  1
  Ge  Ge28  1  0.49099850  0.66303800  0.83702350  1
  Ge  Ge29  1  0.25000000  0.55262000  0.75000000  1
  Ge  Ge30  1  0.75900150  0.91303800  0.08702350  1
  Ge  Ge31  1  0.79630450  0.59321850  0.93082600  1
  Ge  Ge32  1  0.50900150  0.66303800  0.16297650  1
  Ge  Ge33  1  0.00000000  0.80262000  0.00000000  1
  Ge  Ge34  1  0.54630450  0.34321850  0.31917400  1
  Ge  Ge35  1  0.45369550  0.34321850  0.68082600  1
  Ge  Ge36  1  0.24099850  0.41303800  0.41297650  1
  Ge  Ge37  1  0.20369550  0.09321850  0.56917400  1
  Ge  Ge38  1  0.49099850  0.16303800  0.33702350  1
  Ge  Ge39  1  0.25000000  0.05262000  0.25000000  1
  Ge  Ge40  1  0.75900150  0.41303800  0.58702350  1
  Ge  Ge41  1  0.79630450  0.09321850  0.43082600  1
  Ge  Ge42  1  0.50900150  0.16303800  0.66297650  1
  Ge  Ge43  1  0.00000000  0.30262000  0.50000000  1
  Ge  Ge44  1  0.04630450  0.34321850  0.81917400  1
  Ge  Ge45  1  0.95369550  0.34321850  0.18082600  1
  Ge  Ge46  1  0.74099850  0.41303800  0.91297650  1
  Ge  Ge47  1  0.70369550  0.09321850  0.06917400  1
  Ge  Ge48  1  0.99099850  0.16303800  0.83702350  1
  Ge  Ge49  1  0.75000000  0.05262000  0.75000000  1
  Ge  Ge50  1  0.25900150  0.41303800  0.08702350  1
  Ge  Ge51  1  0.29630450  0.09321850  0.93082600  1
  Ge  Ge52  1  0.00900150  0.16303800  0.16297650  1
  Ge  Ge53  1  0.50000000  0.30262000  0.00000000  1
  Ge  Ge54  1  0.04630450  0.84321850  0.31917400  1
  Ge  Ge55  1  0.95369550  0.84321850  0.68082600  1
  Ge  Ge56  1  0.74099850  0.91303800  0.41297650  1
  Ge  Ge57  1  0.70369550  0.59321850  0.56917400  1
  Ge  Ge58  1  0.99099850  0.66303800  0.33702350  1
  Ge  Ge59  1  0.75000000  0.55262000  0.25000000  1
  Ge  Ge60  1  0.25900150  0.91303800  0.58702350  1
  Ge  Ge61  1  0.29630450  0.59321850  0.43082600  1
  Ge  Ge62  1  0.00900150  0.66303800  0.66297650  1
  Ge  Ge63  1  0.50000000  0.80262000  0.50000000  1
