# generated using pymatgen
data_Pa3P4
_symmetry_space_group_name_H-M   'P 1'
_cell_length_a   8.28759200
_cell_length_b   8.28759200
_cell_length_c   8.28759200
_cell_angle_alpha   90.00000000
_cell_angle_beta   90.00000000
_cell_angle_gamma   90.00000000
_symmetry_Int_Tables_number   1
_chemical_formula_structural   Pa3P4
_chemical_formula_sum   'Pa12 P16'
_cell_volume   569.22647030
_cell_formula_units_Z   4
loop_
 _symmetry_equiv_pos_site_id
 _symmetry_equiv_pos_as_xyz
  1  'x, y, z'
loop_
 _atom_site_type_symbol
 _atom_site_label
 _atom_site_symmetry_multiplicity
 _atom_site_fract_x
 _atom_site_fract_y
 _atom_site_fract_z
 _atom_site_occupancy
  Pa  Pa0  1  0.12500000  0.00000000  0.75000000  1
  Pa  Pa1  1  0.25000000  0.37500000  0.00000000  1
  Pa  Pa2  1  0.37500000  0.00000000  0.25000000  1
  Pa  Pa3  1  0.00000000  0.75000000  0.12500000  1
  Pa  Pa4  1  0.00000000  0.25000000  0.37500000  1
  Pa  Pa5  1  0.75000000  0.12500000  0.00000000  1
  Pa  Pa6  1  0.62500000  0.50000000  0.25000000  1
  Pa  Pa7  1  0.75000000  0.87500000  0.50000000  1
  Pa  Pa8  1  0.87500000  0.50000000  0.75000000  1
  Pa  Pa9  1  0.50000000  0.25000000  0.62500000  1
  Pa  Pa10  1  0.50000000  0.75000000  0.87500000  1
  Pa  Pa11  1  0.25000000  0.62500000  0.50000000  1
  P  P12  1  0.33015200  0.33015200  0.33015200  1
  P  P13  1  0.83015200  0.16984800  0.66984800  1
  P  P14  1  0.16984800  0.66984800  0.83015200  1
  P  P15  1  0.08015200  0.91984800  0.41984800  1
  P  P16  1  0.66984800  0.83015200  0.16984800  1
  P  P17  1  0.41984800  0.08015200  0.91984800  1
  P  P18  1  0.91984800  0.41984800  0.08015200  1
  P  P19  1  0.08015200  0.08015200  0.08015200  1
  P  P20  1  0.83015200  0.83015200  0.83015200  1
  P  P21  1  0.33015200  0.66984800  0.16984800  1
  P  P22  1  0.66984800  0.16984800  0.33015200  1
  P  P23  1  0.58015200  0.41984800  0.91984800  1
  P  P24  1  0.16984800  0.33015200  0.66984800  1
  P  P25  1  0.91984800  0.58015200  0.41984800  1
  P  P26  1  0.41984800  0.91984800  0.58015200  1
  P  P27  1  0.58015200  0.58015200  0.58015200  1
