# generated using pymatgen
data_LiMnPO4
_symmetry_space_group_name_H-M   'P 1'
_cell_length_a   14.09038669
_cell_length_b   14.09038669
_cell_length_c   9.43505232
_cell_angle_alpha   90.00000000
_cell_angle_beta   90.00000000
_cell_angle_gamma   120.00000000
_symmetry_Int_Tables_number   1
_chemical_formula_structural   LiMnPO4
_chemical_formula_sum   'Li18 Mn18 P18 O72'
_cell_volume   1622.26115225
_cell_formula_units_Z   18
loop_
 _symmetry_equiv_pos_site_id
 _symmetry_equiv_pos_as_xyz
  1  'x, y, z'
loop_
 _atom_site_type_symbol
 _atom_site_label
 _atom_site_symmetry_multiplicity
 _atom_site_fract_x
 _atom_site_fract_y
 _atom_site_fract_z
 _atom_site_occupancy
  Li  Li0  1  0.54860933  0.68954767  0.58053167  1
  Li  Li1  1  0.79588033  0.98913467  0.41694467  1
  Li  Li2  1  0.01086533  0.80674567  0.41694467  1
  Li  Li3  1  0.14093833  0.45139067  0.58053167  1
  Li  Li4  1  0.19325433  0.20411967  0.41694467  1
  Li  Li5  1  0.31045233  0.85906167  0.58053167  1
  Li  Li6  1  0.21527600  0.02288100  0.91386500  1
  Li  Li7  1  0.46254700  0.32246800  0.75027800  1
  Li  Li8  1  0.67753200  0.14007900  0.75027800  1
  Li  Li9  1  0.80760500  0.78472400  0.91386500  1
  Li  Li10  1  0.85992100  0.53745300  0.75027800  1
  Li  Li11  1  0.97711900  0.19239500  0.91386500  1
  Li  Li12  1  0.88194267  0.35621433  0.24719833  1
  Li  Li13  1  0.12921367  0.65580133  0.08361133  1
  Li  Li14  1  0.34419867  0.47341233  0.08361133  1
  Li  Li15  1  0.47427167  0.11805733  0.24719833  1
  Li  Li16  1  0.52658767  0.87078633  0.08361133  1
  Li  Li17  1  0.64378567  0.52572833  0.24719833  1
  Mn  Mn18  1  0.80791200  0.79124600  0.24640900  1
  Mn  Mn19  1  0.78759300  0.98114100  0.75072200  1
  Mn  Mn20  1  0.98333400  0.19208800  0.24640900  1
  Mn  Mn21  1  0.01885900  0.80645200  0.75072200  1
  Mn  Mn22  1  0.20875400  0.01666600  0.24640900  1
  Mn  Mn23  1  0.19354800  0.21240700  0.75072200  1
  Mn  Mn24  1  0.47457867  0.12457933  0.57974233  1
  Mn  Mn25  1  0.45425967  0.31447433  0.08405533  1
  Mn  Mn26  1  0.65000067  0.52542133  0.57974233  1
  Mn  Mn27  1  0.68552567  0.13978533  0.08405533  1
  Mn  Mn28  1  0.87542067  0.34999933  0.57974233  1
  Mn  Mn29  1  0.86021467  0.54574033  0.08405533  1
  Mn  Mn30  1  0.14124533  0.45791267  0.91307567  1
  Mn  Mn31  1  0.12092633  0.64780767  0.41738867  1
  Mn  Mn32  1  0.31666733  0.85875467  0.91307567  1
  Mn  Mn33  1  0.35219233  0.47311867  0.41738867  1
  Mn  Mn34  1  0.54208733  0.68333267  0.91307567  1
  Mn  Mn35  1  0.52688133  0.87907367  0.41738867  1
  P  P36  1  0.68130633  0.13621967  0.41731867  1
  P  P37  1  0.80288367  0.79189433  0.58210033  1
  P  P38  1  0.86378033  0.54508667  0.41731867  1
  P  P39  1  0.98901067  0.19711633  0.58210033  1
  P  P40  1  0.20810567  0.01098933  0.58210033  1
  P  P41  1  0.45491333  0.31869367  0.41731867  1
  P  P42  1  0.34797300  0.46955300  0.75065200  1
  P  P43  1  0.46955033  0.12522767  0.91543367  1
  P  P44  1  0.53044700  0.87842000  0.75065200  1
  P  P45  1  0.65567733  0.53044967  0.91543367  1
  P  P46  1  0.87477233  0.34432267  0.91543367  1
  P  P47  1  0.12158000  0.65202700  0.75065200  1
  P  P48  1  0.01463967  0.80288633  0.08398533  1
  P  P49  1  0.13621700  0.45856100  0.24876700  1
  P  P50  1  0.19711367  0.21175333  0.08398533  1
  P  P51  1  0.32234400  0.86378300  0.24876700  1
  P  P52  1  0.54143900  0.67765600  0.24876700  1
  P  P53  1  0.78824667  0.98536033  0.08398533  1
  O  O54  1  0.55285667  0.78055733  0.74148833  1
  O  O55  1  0.67694800  0.02384100  0.41781700  1
  O  O56  1  0.74770100  0.20496600  0.28612100  1
  O  O57  1  0.68794467  0.68696333  0.58476833  1
  O  O58  1  0.79997133  0.93350467  0.22345667  1
  O  O59  1  0.79503400  0.54273500  0.28612100  1
  O  O60  1  0.78605367  0.89288433  0.57632933  1
  O  O61  1  0.86760967  0.79337333  0.44805333  1
  O  O62  1  0.92576367  0.13239033  0.44805333  1
  O  O63  1  0.86775967  0.79729633  0.71874533  1
  O  O64  1  0.97615900  0.65310700  0.41781700  1
  O  O65  1  0.06649533  0.86646667  0.22345667  1
  O  O66  1  0.92953667  0.13224033  0.71874533  1
  O  O67  1  0.99901867  0.31205533  0.58476833  1
  O  O68  1  0.13353333  0.20002867  0.22345667  1
  O  O69  1  0.10683067  0.21394633  0.57632933  1
  O  O70  1  0.10711567  0.89316933  0.57632933  1
  O  O71  1  0.20662667  0.07423633  0.44805333  1
  O  O72  1  0.20270367  0.07046333  0.71874533  1
  O  O73  1  0.21944267  0.77229933  0.74148833  1
  O  O74  1  0.22770067  0.44714333  0.74148833  1
  O  O75  1  0.34689300  0.32305200  0.41781700  1
  O  O76  1  0.31303667  0.00098133  0.58476833  1
  O  O77  1  0.45726500  0.25229900  0.28612100  1
  O  O78  1  0.21952333  0.11389067  0.07482167  1
  O  O79  1  0.34361467  0.35717433  0.75115033  1
  O  O80  1  0.41436767  0.53829933  0.61945433  1
  O  O81  1  0.35461133  0.02029667  0.91810167  1
  O  O82  1  0.46663800  0.26683800  0.55679000  1
  O  O83  1  0.46170067  0.87606833  0.61945433  1
  O  O84  1  0.45272033  0.22621767  0.90966267  1
  O  O85  1  0.53427633  0.12670667  0.78138667  1
  O  O86  1  0.59243033  0.46572367  0.78138667  1
  O  O87  1  0.53442633  0.13062967  0.05207867  1
  O  O88  1  0.64282567  0.98644033  0.75115033  1
  O  O89  1  0.73316200  0.19980000  0.55679000  1
  O  O90  1  0.59620333  0.46557367  0.05207867  1
  O  O91  1  0.66568533  0.64538867  0.91810167  1
  O  O92  1  0.80020000  0.53336200  0.55679000  1
  O  O93  1  0.77349733  0.54727967  0.90966267  1
  O  O94  1  0.77378233  0.22650267  0.90966267  1
  O  O95  1  0.87329333  0.40756967  0.78138667  1
  O  O96  1  0.86937033  0.40379667  0.05207867  1
  O  O97  1  0.88610933  0.10563267  0.07482167  1
  O  O98  1  0.89436733  0.78047667  0.07482167  1
  O  O99  1  0.01355967  0.65638533  0.75115033  1
  O  O100  1  0.97970333  0.33431467  0.91810167  1
  O  O101  1  0.12393167  0.58563233  0.61945433  1
  O  O102  1  0.88619000  0.44722400  0.40815500  1
  O  O103  1  0.01028133  0.69050767  0.08448367  1
  O  O104  1  0.08103433  0.87163267  0.95278767  1
  O  O105  1  0.02127800  0.35363000  0.25143500  1
  O  O106  1  0.13330467  0.60017133  0.89012333  1
  O  O107  1  0.12836733  0.20940167  0.95278767  1
  O  O108  1  0.11938700  0.55955100  0.24299600  1
  O  O109  1  0.20094300  0.46004000  0.11472000  1
  O  O110  1  0.25909700  0.79905700  0.11472000  1
  O  O111  1  0.20109300  0.46396300  0.38541200  1
  O  O112  1  0.30949233  0.31977367  0.08448367  1
  O  O113  1  0.39982867  0.53313333  0.89012333  1
  O  O114  1  0.26287000  0.79890700  0.38541200  1
  O  O115  1  0.33235200  0.97872200  0.25143500  1
  O  O116  1  0.46686667  0.86669533  0.89012333  1
  O  O117  1  0.44016400  0.88061300  0.24299600  1
  O  O118  1  0.44044900  0.55983600  0.24299600  1
  O  O119  1  0.53996000  0.74090300  0.11472000  1
  O  O120  1  0.53603700  0.73713000  0.38541200  1
  O  O121  1  0.55277600  0.43896600  0.40815500  1
  O  O122  1  0.56103400  0.11381000  0.40815500  1
  O  O123  1  0.68022633  0.98971867  0.08448367  1
  O  O124  1  0.64637000  0.66764800  0.25143500  1
  O  O125  1  0.79059833  0.91896567  0.95278767  1
