# generated using pymatgen
data_KTi3Si2P6O25
_symmetry_space_group_name_H-M   'P 1'
_cell_length_a   8.40856397
_cell_length_b   8.40856397
_cell_length_c   17.31416900
_cell_angle_alpha   90.00000000
_cell_angle_beta   90.00000000
_cell_angle_gamma   120.00000000
_symmetry_Int_Tables_number   1
_chemical_formula_structural   KTi3Si2P6O25
_chemical_formula_sum   'K2 Ti6 Si4 P12 O50'
_cell_volume   1060.17107027
_cell_formula_units_Z   2
loop_
 _symmetry_equiv_pos_site_id
 _symmetry_equiv_pos_as_xyz
  1  'x, y, z'
loop_
 _atom_site_type_symbol
 _atom_site_label
 _atom_site_symmetry_multiplicity
 _atom_site_fract_x
 _atom_site_fract_y
 _atom_site_fract_z
 _atom_site_occupancy
  K  K0  1  0.33333333  0.66666667  0.25000000  1
  K  K1  1  0.66666667  0.33333333  0.75000000  1
  Ti  Ti2  1  0.33333333  0.66666667  0.02425100  1
  Ti  Ti3  1  0.33333333  0.66666667  0.47574900  1
  Ti  Ti4  1  0.66666667  0.33333333  0.97574900  1
  Ti  Ti5  1  0.66666667  0.33333333  0.52425100  1
  Ti  Ti6  1  0.66666667  0.33333333  0.25000000  1
  Ti  Ti7  1  0.33333333  0.66666667  0.75000000  1
  Si  Si8  1  0.00000000  0.00000000  0.09228600  1
  Si  Si9  1  0.00000000  0.00000000  0.40771400  1
  Si  Si10  1  0.00000000  0.00000000  0.90771400  1
  Si  Si11  1  0.00000000  0.00000000  0.59228600  1
  P  P12  1  0.38270733  0.33242367  0.10975100  1
  P  P13  1  0.66757633  0.05028367  0.10975100  1
  P  P14  1  0.94971633  0.61729267  0.10975100  1
  P  P15  1  0.66757633  0.61729267  0.39024900  1
  P  P16  1  0.94971633  0.33242367  0.39024900  1
  P  P17  1  0.38270733  0.05028367  0.39024900  1
  P  P18  1  0.61729267  0.66757633  0.89024900  1
  P  P19  1  0.33242367  0.94971633  0.89024900  1
  P  P20  1  0.05028367  0.38270733  0.89024900  1
  P  P21  1  0.33242367  0.38270733  0.60975100  1
  P  P22  1  0.05028367  0.66757633  0.60975100  1
  P  P23  1  0.61729267  0.94971633  0.60975100  1
  O  O24  1  0.12208133  0.60435767  0.09396100  1
  O  O25  1  0.39564233  0.51772367  0.09396100  1
  O  O26  1  0.48227633  0.87791867  0.09396100  1
  O  O27  1  0.39564233  0.87791867  0.40603900  1
  O  O28  1  0.48227633  0.60435767  0.40603900  1
  O  O29  1  0.12208133  0.51772367  0.40603900  1
  O  O30  1  0.87791867  0.39564233  0.90603900  1
  O  O31  1  0.60435767  0.48227633  0.90603900  1
  O  O32  1  0.51772367  0.12208133  0.90603900  1
  O  O33  1  0.60435767  0.12208133  0.59396100  1
  O  O34  1  0.51772367  0.39564233  0.59396100  1
  O  O35  1  0.87791867  0.48227633  0.59396100  1
  O  O36  1  0.81495633  0.26111167  0.45822100  1
  O  O37  1  0.73888833  0.55384467  0.45822100  1
  O  O38  1  0.44615533  0.18504367  0.45822100  1
  O  O39  1  0.73888833  0.18504367  0.04177900  1
  O  O40  1  0.44615533  0.26111167  0.04177900  1
  O  O41  1  0.81495633  0.55384467  0.04177900  1
  O  O42  1  0.18504367  0.73888833  0.54177900  1
  O  O43  1  0.26111167  0.44615533  0.54177900  1
  O  O44  1  0.55384467  0.81495633  0.54177900  1
  O  O45  1  0.26111167  0.81495633  0.95822100  1
  O  O46  1  0.55384467  0.73888833  0.95822100  1
  O  O47  1  0.18504367  0.44615533  0.95822100  1
  O  O48  1  0.47828133  0.34186467  0.18574000  1
  O  O49  1  0.65813533  0.13641667  0.18574000  1
  O  O50  1  0.86358333  0.52171867  0.18574000  1
  O  O51  1  0.65813533  0.52171867  0.31426000  1
  O  O52  1  0.86358333  0.34186467  0.31426000  1
  O  O53  1  0.47828133  0.13641667  0.31426000  1
  O  O54  1  0.52171867  0.65813533  0.81426000  1
  O  O55  1  0.34186467  0.86358333  0.81426000  1
  O  O56  1  0.13641667  0.47828133  0.81426000  1
  O  O57  1  0.34186467  0.47828133  0.68574000  1
  O  O58  1  0.13641667  0.65813533  0.68574000  1
  O  O59  1  0.52171867  0.86358333  0.68574000  1
  O  O60  1  0.00000000  0.00000000  0.00000000  1
  O  O61  1  0.00000000  0.00000000  0.50000000  1
  O  O62  1  0.01942933  0.82924267  0.12563000  1
  O  O63  1  0.17075733  0.19018667  0.12563000  1
  O  O64  1  0.80981333  0.98057067  0.12563000  1
  O  O65  1  0.17075733  0.98057067  0.37437000  1
  O  O66  1  0.80981333  0.82924267  0.37437000  1
  O  O67  1  0.01942933  0.19018667  0.37437000  1
  O  O68  1  0.98057067  0.17075733  0.87437000  1
  O  O69  1  0.82924267  0.80981333  0.87437000  1
  O  O70  1  0.19018667  0.01942933  0.87437000  1
  O  O71  1  0.82924267  0.01942933  0.62563000  1
  O  O72  1  0.19018667  0.17075733  0.62563000  1
  O  O73  1  0.98057067  0.80981333  0.62563000  1
