# generated using pymatgen
data_CoSb2Br2O3
_symmetry_space_group_name_H-M   'P 1'
_cell_length_a   5.29677679
_cell_length_b   8.16986672
_cell_length_c   8.56272469
_cell_angle_alpha   87.37734010
_cell_angle_beta   82.51540119
_cell_angle_gamma   82.65455687
_symmetry_Int_Tables_number   1
_chemical_formula_structural   CoSb2Br2O3
_chemical_formula_sum   'Co2 Sb4 Br4 O6'
_cell_volume   364.21131414
_cell_formula_units_Z   2
loop_
 _symmetry_equiv_pos_site_id
 _symmetry_equiv_pos_as_xyz
  1  'x, y, z'
loop_
 _atom_site_type_symbol
 _atom_site_label
 _atom_site_symmetry_multiplicity
 _atom_site_fract_x
 _atom_site_fract_y
 _atom_site_fract_z
 _atom_site_occupancy
  Co  Co0  1  0.52213300  0.28782800  0.49117600  1
  Co  Co1  1  0.47786700  0.71217200  0.50882400  1
  Sb  Sb2  1  0.09463750  0.03532750  0.31581800  1
  Sb  Sb3  1  0.90536250  0.96467250  0.68418200  1
  Sb  Sb4  1  0.05944000  0.47713700  0.30640800  1
  Sb  Sb5  1  0.94056000  0.52286300  0.69359200  1
  Br  Br6  1  0.64268350  0.78231150  0.22608850  1
  Br  Br7  1  0.35731650  0.21768850  0.77391150  1
  Br  Br8  1  0.76381700  0.29978200  0.14196200  1
  Br  Br9  1  0.23618300  0.70021800  0.85803800  1
  O  O10  1  0.21593650  0.91359250  0.51638050  1
  O  O11  1  0.78406350  0.08640750  0.48361950  1
  O  O12  1  0.77033150  0.75314850  0.63158250  1
  O  O13  1  0.22966850  0.24685150  0.36841750  1
  O  O14  1  0.76357900  0.46826000  0.48611050  1
  O  O15  1  0.23642100  0.53174000  0.51388950  1
