# generated using pymatgen
data_CaCr2O4
_symmetry_space_group_name_H-M   'P 1'
_cell_length_a   3.03396600
_cell_length_b   9.19973800
_cell_length_c   10.78531100
_cell_angle_alpha   90.00000000
_cell_angle_beta   90.00000000
_cell_angle_gamma   90.00000000
_symmetry_Int_Tables_number   1
_chemical_formula_structural   CaCr2O4
_chemical_formula_sum   'Ca4 Cr8 O16'
_cell_volume   301.03628201
_cell_formula_units_Z   4
loop_
 _symmetry_equiv_pos_site_id
 _symmetry_equiv_pos_as_xyz
  1  'x, y, z'
loop_
 _atom_site_type_symbol
 _atom_site_label
 _atom_site_symmetry_multiplicity
 _atom_site_fract_x
 _atom_site_fract_y
 _atom_site_fract_z
 _atom_site_occupancy
  Ca  Ca0  1  0.75000000  0.74023700  0.84090400  1
  Ca  Ca1  1  0.25000000  0.25976300  0.15909600  1
  Ca  Ca2  1  0.75000000  0.24023700  0.65909600  1
  Ca  Ca3  1  0.25000000  0.75976300  0.34090400  1
  Cr  Cr4  1  0.75000000  0.55962000  0.61316400  1
  Cr  Cr5  1  0.25000000  0.44038000  0.38683600  1
  Cr  Cr6  1  0.75000000  0.08423500  0.39908400  1
  Cr  Cr7  1  0.25000000  0.91576500  0.60091600  1
  Cr  Cr8  1  0.75000000  0.05962000  0.88683600  1
  Cr  Cr9  1  0.25000000  0.94038000  0.11316400  1
  Cr  Cr10  1  0.75000000  0.58423500  0.10091600  1
  Cr  Cr11  1  0.25000000  0.41576500  0.89908400  1
  O  O12  1  0.75000000  0.29849100  0.33767100  1
  O  O13  1  0.25000000  0.70150900  0.66232900  1
  O  O14  1  0.75000000  0.79849100  0.16232900  1
  O  O15  1  0.25000000  0.20150900  0.83767100  1
  O  O16  1  0.75000000  0.38232900  0.02485800  1
  O  O17  1  0.25000000  0.61767100  0.97514200  1
  O  O18  1  0.75000000  0.88232900  0.47514200  1
  O  O19  1  0.25000000  0.11767100  0.52485800  1
  O  O20  1  0.75000000  0.97125500  0.71436700  1
  O  O21  1  0.25000000  0.02874500  0.28563300  1
  O  O22  1  0.75000000  0.47125500  0.78563300  1
  O  O23  1  0.25000000  0.52874500  0.21436700  1
  O  O24  1  0.75000000  0.08208500  0.07352400  1
  O  O25  1  0.25000000  0.91791500  0.92647600  1
  O  O26  1  0.75000000  0.58208500  0.42647600  1
  O  O27  1  0.25000000  0.41791500  0.57352400  1
