# generated using pymatgen
data_NbVF6
_symmetry_space_group_name_H-M   'P 1'
_cell_length_a   5.55949618
_cell_length_b   5.55949618
_cell_length_c   14.45136052
_cell_angle_alpha   90.00000000
_cell_angle_beta   90.00000000
_cell_angle_gamma   120.00000000
_symmetry_Int_Tables_number   1
_chemical_formula_structural   NbVF6
_chemical_formula_sum   'Nb3 V3 F18'
_cell_volume   386.82117531
_cell_formula_units_Z   3
loop_
 _symmetry_equiv_pos_site_id
 _symmetry_equiv_pos_as_xyz
  1  'x, y, z'
loop_
 _atom_site_type_symbol
 _atom_site_label
 _atom_site_symmetry_multiplicity
 _atom_site_fract_x
 _atom_site_fract_y
 _atom_site_fract_z
 _atom_site_occupancy
  Nb  Nb0  1  0.33333333  0.66666667  0.16666667  1
  Nb  Nb1  1  1.00000000  0.00000000  0.50000000  1
  Nb  Nb2  1  0.66666667  0.33333333  0.83333333  1
  V  V3  1  0.00000000  0.00000000  0.00000000  1
  V  V4  1  0.66666667  0.33333333  0.33333333  1
  V  V5  1  0.33333333  0.66666667  0.66666667  1
  F  F6  1  0.08912633  0.74777067  0.08408567  1
  F  F7  1  0.65864433  0.91087367  0.08408567  1
  F  F8  1  0.41443733  0.99197767  0.24924767  1
  F  F9  1  0.00802233  0.42245967  0.24924767  1
  F  F10  1  0.57754033  0.58556267  0.24924767  1
  F  F11  1  0.25222933  0.34135567  0.08408567  1
  F  F12  1  0.75579300  0.08110400  0.41741900  1
  F  F13  1  0.32531100  0.24420700  0.41741900  1
  F  F14  1  0.08110400  0.32531100  0.58258100  1
  F  F15  1  0.67468900  0.75579300  0.58258100  1
  F  F16  1  0.24420700  0.91889600  0.58258100  1
  F  F17  1  0.91889600  0.67468900  0.41741900  1
  F  F18  1  0.42245967  0.41443733  0.75075233  1
  F  F19  1  0.99197767  0.57754033  0.75075233  1
  F  F20  1  0.74777067  0.65864433  0.91591433  1
  F  F21  1  0.34135567  0.08912633  0.91591433  1
  F  F22  1  0.91087367  0.25222933  0.91591433  1
  F  F23  1  0.58556267  0.00802233  0.75075233  1
