# generated using pymatgen
data_Cd8Ag5
_symmetry_space_group_name_H-M   'P 1'
_cell_length_a   10.17414400
_cell_length_b   10.17414400
_cell_length_c   10.17414400
_cell_angle_alpha   90.00000000
_cell_angle_beta   90.00000000
_cell_angle_gamma   90.00000000
_symmetry_Int_Tables_number   1
_chemical_formula_structural   Cd8Ag5
_chemical_formula_sum   'Cd32 Ag20'
_cell_volume   1053.15826510
_cell_formula_units_Z   4
loop_
 _symmetry_equiv_pos_site_id
 _symmetry_equiv_pos_as_xyz
  1  'x, y, z'
loop_
 _atom_site_type_symbol
 _atom_site_label
 _atom_site_symmetry_multiplicity
 _atom_site_fract_x
 _atom_site_fract_y
 _atom_site_fract_z
 _atom_site_occupancy
  Cd  Cd0  1  0.81264050  0.46405150  0.18735950  1
  Cd  Cd1  1  0.53594850  0.18735950  0.18735950  1
  Cd  Cd2  1  0.46405150  0.81264050  0.18735950  1
  Cd  Cd3  1  0.31264050  0.31264050  0.03594850  1
  Cd  Cd4  1  0.60890100  0.39109900  0.39109900  1
  Cd  Cd5  1  0.10890100  0.10890100  0.10890100  1
  Cd  Cd6  1  0.18735950  0.53594850  0.18735950  1
  Cd  Cd7  1  0.81264050  0.18735950  0.46405150  1
  Cd  Cd8  1  0.18735950  0.46405150  0.81264050  1
  Cd  Cd9  1  0.18735950  0.18735950  0.53594850  1
  Cd  Cd10  1  0.03594850  0.31264050  0.31264050  1
  Cd  Cd11  1  0.18735950  0.81264050  0.46405150  1
  Cd  Cd12  1  0.46405150  0.18735950  0.81264050  1
  Cd  Cd13  1  0.39109900  0.39109900  0.60890100  1
  Cd  Cd14  1  0.39109900  0.60890100  0.39109900  1
  Cd  Cd15  1  0.31264050  0.03594850  0.31264050  1
  Cd  Cd16  1  0.31264050  0.96405150  0.68735950  1
  Cd  Cd17  1  0.03594850  0.68735950  0.68735950  1
  Cd  Cd18  1  0.96405150  0.31264050  0.68735950  1
  Cd  Cd19  1  0.81264050  0.81264050  0.53594850  1
  Cd  Cd20  1  0.10890100  0.89109900  0.89109900  1
  Cd  Cd21  1  0.60890100  0.60890100  0.60890100  1
  Cd  Cd22  1  0.68735950  0.03594850  0.68735950  1
  Cd  Cd23  1  0.31264050  0.68735950  0.96405150  1
  Cd  Cd24  1  0.68735950  0.96405150  0.31264050  1
  Cd  Cd25  1  0.68735950  0.68735950  0.03594850  1
  Cd  Cd26  1  0.53594850  0.81264050  0.81264050  1
  Cd  Cd27  1  0.68735950  0.31264050  0.96405150  1
  Cd  Cd28  1  0.96405150  0.68735950  0.31264050  1
  Cd  Cd29  1  0.89109900  0.89109900  0.10890100  1
  Cd  Cd30  1  0.89109900  0.10890100  0.89109900  1
  Cd  Cd31  1  0.81264050  0.53594850  0.81264050  1
  Ag  Ag32  1  0.17264350  0.17264350  0.82735650  1
  Ag  Ag33  1  0.35729800  0.00000000  0.00000000  1
  Ag  Ag34  1  0.00000000  0.00000000  0.64270200  1
  Ag  Ag35  1  0.32735650  0.32735650  0.32735650  1
  Ag  Ag36  1  0.82735650  0.17264350  0.17264350  1
  Ag  Ag37  1  0.00000000  0.35729800  0.00000000  1
  Ag  Ag38  1  0.00000000  0.00000000  0.35729800  1
  Ag  Ag39  1  0.64270200  0.00000000  0.00000000  1
  Ag  Ag40  1  0.17264350  0.82735650  0.17264350  1
  Ag  Ag41  1  0.00000000  0.64270200  0.00000000  1
  Ag  Ag42  1  0.67264350  0.67264350  0.32735650  1
  Ag  Ag43  1  0.85729800  0.50000000  0.50000000  1
  Ag  Ag44  1  0.50000000  0.50000000  0.14270200  1
  Ag  Ag45  1  0.82735650  0.82735650  0.82735650  1
  Ag  Ag46  1  0.32735650  0.67264350  0.67264350  1
  Ag  Ag47  1  0.50000000  0.85729800  0.50000000  1
  Ag  Ag48  1  0.50000000  0.50000000  0.85729800  1
  Ag  Ag49  1  0.14270200  0.50000000  0.50000000  1
  Ag  Ag50  1  0.67264350  0.32735650  0.67264350  1
  Ag  Ag51  1  0.50000000  0.14270200  0.50000000  1
