# generated using pymatgen
data_La4Cu6(MoO4)9
_symmetry_space_group_name_H-M   'P 1'
_cell_length_a   21.18536213
_cell_length_b   21.18536213
_cell_length_c   12.96403973
_cell_angle_alpha   90.00000000
_cell_angle_beta   90.00000000
_cell_angle_gamma   120.00000000
_symmetry_Int_Tables_number   1
_chemical_formula_structural   La4Cu6(MoO4)9
_chemical_formula_sum   'La24 Cu36 Mo54 O216'
_cell_volume   5038.98156225
_cell_formula_units_Z   6
loop_
 _symmetry_equiv_pos_site_id
 _symmetry_equiv_pos_as_xyz
  1  'x, y, z'
loop_
 _atom_site_type_symbol
 _atom_site_label
 _atom_site_symmetry_multiplicity
 _atom_site_fract_x
 _atom_site_fract_y
 _atom_site_fract_z
 _atom_site_occupancy
  La  La0  1  0.46775367  0.48052133  0.93495933  1
  La  La1  1  0.18614533  0.32056567  0.26829267  1
  La  La2  1  0.18614533  0.86557967  0.76829267  1
  La  La3  1  0.34610100  0.14718800  0.10162600  1
  La  La4  1  0.46775367  0.98723233  0.43495933  1
  La  La5  1  0.00000000  0.00000000  0.00984400  1
  La  La6  1  0.34610100  0.19891300  0.60162600  1
  La  La7  1  0.00000000  0.00000000  0.50984400  1
  La  La8  1  0.13442033  0.81385467  0.26829267  1
  La  La9  1  0.85281200  0.65389900  0.60162600  1
  La  La10  1  0.85281200  0.19891300  0.10162600  1
  La  La11  1  0.01276767  0.48052133  0.43495933  1
  La  La12  1  0.13442033  0.32056567  0.76829267  1
  La  La13  1  0.66666667  0.33333333  0.34317733  1
  La  La14  1  0.01276767  0.53224633  0.93495933  1
  La  La15  1  0.66666667  0.33333333  0.84317733  1
  La  La16  1  0.80108700  0.14718800  0.60162600  1
  La  La17  1  0.51947867  0.98723233  0.93495933  1
  La  La18  1  0.51947867  0.53224633  0.43495933  1
  La  La19  1  0.67943433  0.81385467  0.76829267  1
  La  La20  1  0.80108700  0.65389900  0.10162600  1
  La  La21  1  0.33333333  0.66666667  0.67651067  1
  La  La22  1  0.67943433  0.86557967  0.26829267  1
  La  La23  1  0.33333333  0.66666667  0.17651067  1
  Cu  Cu24  1  0.27539667  0.79277033  0.12395233  1
  Cu  Cu25  1  0.32285033  0.88356467  0.94851467  1
  Cu  Cu26  1  0.18404033  0.12610367  0.95728567  1
  Cu  Cu27  1  0.18404033  0.05793667  0.45728567  1
  Cu  Cu28  1  0.32285033  0.43928567  0.44851467  1
  Cu  Cu29  1  0.44976867  0.10595233  0.61518133  1
  Cu  Cu30  1  0.54056300  0.14929300  0.79061900  1
  Cu  Cu31  1  0.22738100  0.21689800  0.78184800  1
  Cu  Cu32  1  0.44976867  0.34381633  0.11518133  1
  Cu  Cu33  1  0.22738100  0.01048300  0.28184800  1
  Cu  Cu34  1  0.27539667  0.48262633  0.62395233  1
  Cu  Cu35  1  0.54056300  0.39127000  0.29061900  1
  Cu  Cu36  1  0.94206333  0.12610367  0.45728567  1
  Cu  Cu37  1  0.98951700  0.21689800  0.28184800  1
  Cu  Cu38  1  0.85070700  0.45943700  0.29061900  1
  Cu  Cu39  1  0.85070700  0.39127000  0.79061900  1
  Cu  Cu40  1  0.98951700  0.77261900  0.78184800  1
  Cu  Cu41  1  0.11643533  0.43928567  0.94851467  1
  Cu  Cu42  1  0.20722967  0.48262633  0.12395233  1
  Cu  Cu43  1  0.89404767  0.55023133  0.11518133  1
  Cu  Cu44  1  0.11643533  0.67714967  0.44851467  1
  Cu  Cu45  1  0.89404767  0.34381633  0.61518133  1
  Cu  Cu46  1  0.94206333  0.81595967  0.95728567  1
  Cu  Cu47  1  0.20722967  0.72460333  0.62395233  1
  Cu  Cu48  1  0.60873000  0.45943700  0.79061900  1
  Cu  Cu49  1  0.65618367  0.55023133  0.61518133  1
  Cu  Cu50  1  0.51737367  0.79277033  0.62395233  1
  Cu  Cu51  1  0.51737367  0.72460333  0.12395233  1
  Cu  Cu52  1  0.65618367  0.10595233  0.11518133  1
  Cu  Cu53  1  0.78310200  0.77261900  0.28184800  1
  Cu  Cu54  1  0.87389633  0.81595967  0.45728567  1
  Cu  Cu55  1  0.56071433  0.88356467  0.44851467  1
  Cu  Cu56  1  0.78310200  0.01048300  0.78184800  1
  Cu  Cu57  1  0.56071433  0.67714967  0.94851467  1
  Cu  Cu58  1  0.60873000  0.14929300  0.29061900  1
  Cu  Cu59  1  0.87389633  0.05793667  0.95728567  1
  Mo  Mo60  1  0.45939400  0.28606700  0.86965000  1
  Mo  Mo61  1  0.38059967  0.87393933  0.70298333  1
  Mo  Mo62  1  0.26894633  0.98334267  0.48763067  1
  Mo  Mo63  1  0.27978933  0.76668767  0.42326967  1
  Mo  Mo64  1  0.34999067  0.95227033  0.15429733  1
  Mo  Mo65  1  0.56664567  0.17976833  0.08993633  1
  Mo  Mo66  1  0.34999067  0.39772033  0.65429733  1
  Mo  Mo67  1  0.15356500  0.10002100  0.25660300  1
  Mo  Mo68  1  0.15356500  0.05354400  0.75660300  1
  Mo  Mo69  1  0.16000633  0.95273367  0.03631667  1
  Mo  Mo70  1  0.16000633  0.20727267  0.53631667  1
  Mo  Mo71  1  0.38106300  0.06438700  0.82096400  1
  Mo  Mo72  1  0.26894633  0.28560367  0.98763067  1
  Mo  Mo73  1  0.45939400  0.17332700  0.36965000  1
  Mo  Mo74  1  0.38059967  0.50666033  0.20298333  1
  Mo  Mo75  1  0.27978933  0.51310167  0.92326967  1
  Mo  Mo76  1  0.38106300  0.31667600  0.32096400  1
  Mo  Mo77  1  0.56664567  0.38687733  0.58993633  1
  Mo  Mo78  1  0.12606067  0.61940033  0.20298333  1
  Mo  Mo79  1  0.04726633  0.20727267  0.03631667  1
  Mo  Mo80  1  0.93561300  0.31667600  0.82096400  1
  Mo  Mo81  1  0.94645600  0.10002100  0.75660300  1
  Mo  Mo82  1  0.01665733  0.28560367  0.48763067  1
  Mo  Mo83  1  0.23331233  0.51310167  0.42326967  1
  Mo  Mo84  1  0.01665733  0.73105367  0.98763067  1
  Mo  Mo85  1  0.82023167  0.43335433  0.58993633  1
  Mo  Mo86  1  0.82023167  0.38687733  0.08993633  1
  Mo  Mo87  1  0.82667300  0.28606700  0.36965000  1
  Mo  Mo88  1  0.82667300  0.54060600  0.86965000  1
  Mo  Mo89  1  0.04772967  0.39772033  0.15429733  1
  Mo  Mo90  1  0.93561300  0.61893700  0.32096400  1
  Mo  Mo91  1  0.12606067  0.50666033  0.70298333  1
  Mo  Mo92  1  0.04726633  0.83999367  0.53631667  1
  Mo  Mo93  1  0.94645600  0.84643500  0.25660300  1
  Mo  Mo94  1  0.04772967  0.65000933  0.65429733  1
  Mo  Mo95  1  0.23331233  0.72021067  0.92326967  1
  Mo  Mo96  1  0.79272733  0.95273367  0.53631667  1
  Mo  Mo97  1  0.71393300  0.54060600  0.36965000  1
  Mo  Mo98  1  0.60227967  0.65000933  0.15429733  1
  Mo  Mo99  1  0.61312267  0.43335433  0.08993633  1
  Mo  Mo100  1  0.68332400  0.61893700  0.82096400  1
  Mo  Mo101  1  0.89997900  0.84643500  0.75660300  1
  Mo  Mo102  1  0.68332400  0.06438700  0.32096400  1
  Mo  Mo103  1  0.48689833  0.76668767  0.92326967  1
  Mo  Mo104  1  0.48689833  0.72021067  0.42326967  1
  Mo  Mo105  1  0.49333967  0.61940033  0.70298333  1
  Mo  Mo106  1  0.49333967  0.87393933  0.20298333  1
  Mo  Mo107  1  0.71439633  0.73105367  0.48763067  1
  Mo  Mo108  1  0.60227967  0.95227033  0.65429733  1
  Mo  Mo109  1  0.79272733  0.83999367  0.03631667  1
  Mo  Mo110  1  0.71393300  0.17332700  0.86965000  1
  Mo  Mo111  1  0.61312267  0.17976833  0.58993633  1
  Mo  Mo112  1  0.71439633  0.98334267  0.98763067  1
  Mo  Mo113  1  0.89997900  0.05354400  0.25660300  1
  O  O114  1  0.22590100  0.93622800  0.36535200  1
  O  O115  1  0.61284067  0.37472533  0.48472133  1
  O  O116  1  0.09521800  0.04139200  0.65138800  1
  O  O117  1  0.38597767  0.14554533  0.28073633  1
  O  O118  1  0.32413233  0.02022467  0.14575867  1
  O  O119  1  0.61284067  0.23811533  0.98472133  1
  O  O120  1  0.22726200  0.30691900  0.08941700  1
  O  O121  1  0.26688333  0.40044567  0.69288267  1
  O  O122  1  0.46689567  0.06711233  0.85954933  1
  O  O123  1  0.32413233  0.30390767  0.64575867  1
  O  O124  1  0.52843367  0.26466033  0.33895433  1
  O  O125  1  0.22590100  0.28967300  0.86535200  1
  O  O126  1  0.36275900  0.00920100  0.47909200  1
  O  O127  1  0.09521800  0.05382600  0.15138800  1
  O  O128  1  0.38597767  0.24043233  0.78073633  1
  O  O129  1  0.52761833  0.09323767  0.56482267  1
  O  O130  1  0.52761833  0.43438067  0.06482267  1
  O  O131  1  0.40695967  0.90398333  0.83617433  1
  O  O132  1  0.35233900  0.85772500  0.42892300  1
  O  O133  1  0.26622100  0.19977100  0.02621600  1
  O  O134  1  0.16369033  0.23731667  0.66950767  1
  O  O135  1  0.10587067  0.05135133  0.37578833  1
  O  O136  1  0.42623433  0.94735567  0.61406967  1
  O  O137  1  0.47560833  0.16128067  0.09558967  1
  O  O138  1  0.42623433  0.47887867  0.11406967  1
  O  O139  1  0.52843367  0.26377333  0.83895433  1
  O  O140  1  0.23228600  0.80571500  0.89815600  1
  O  O141  1  0.18778800  0.90709900  0.94740300  1
  O  O142  1  0.46689567  0.39978333  0.35954933  1
  O  O143  1  0.40200633  0.59710667  0.67228767  1
  O  O144  1  0.35974767  0.10607133  0.92275033  1
  O  O145  1  0.42935000  0.25970700  0.00284100  1
  O  O146  1  0.26688333  0.86643767  0.19288267  1
  O  O147  1  0.35233900  0.49461400  0.92892300  1
  O  O148  1  0.40695967  0.50297633  0.33617433  1
  O  O149  1  0.21951267  0.04978733  0.02321133  1
  O  O150  1  0.49694133  0.38312067  0.85654467  1
  O  O151  1  0.29194133  0.57144867  0.81805467  1
  O  O152  1  0.41299033  0.97358567  0.25608367  1
  O  O153  1  0.17205267  0.98099433  0.76225633  1
  O  O154  1  0.35974767  0.25367633  0.42275033  1
  O  O155  1  0.06956000  0.93132700  0.50562100  1
  O  O156  1  0.39710533  0.95633967  0.03201867  1
  O  O157  1  0.18778800  0.28068900  0.44740300  1
  O  O158  1  0.28354600  0.44715400  0.18987800  1
  O  O159  1  0.28354600  0.83639200  0.68987800  1
  O  O160  1  0.31310867  0.34253433  0.31242533  1
  O  O161  1  0.24009567  0.13904833  0.73148933  1
  O  O162  1  0.31310867  0.97057433  0.81242533  1
  O  O163  1  0.49694133  0.11382067  0.35654467  1
  O  O164  1  0.40200633  0.80489967  0.17228767  1
  O  O165  1  0.61214733  0.22746267  0.70912167  1
  O  O166  1  0.24009567  0.10104733  0.23148933  1
  O  O167  1  0.41299033  0.43940467  0.75608367  1
  O  O168  1  0.37699367  0.26956133  0.19868533  1
  O  O169  1  0.17205267  0.19105833  0.26225633  1
  O  O170  1  0.26622100  0.06645000  0.52621600  1
  O  O171  1  0.36275900  0.35355800  0.97909200  1
  O  O172  1  0.29194133  0.72049267  0.31805467  1
  O  O173  1  0.06956000  0.13823300  0.00562100  1
  O  O174  1  0.23228600  0.42657100  0.39815600  1
  O  O175  1  0.21951267  0.16972533  0.52321133  1
  O  O176  1  0.39710533  0.44076567  0.53201867  1
  O  O177  1  0.10587067  0.05451933  0.87578833  1
  O  O178  1  0.42935000  0.16964300  0.50284100  1
  O  O179  1  0.28198200  0.72118600  0.04245500  1
  O  O180  1  0.47560833  0.31432767  0.59558967  1
  O  O181  1  0.61214733  0.38468467  0.20912167  1
  O  O182  1  0.16369033  0.92637367  0.16950767  1
  O  O183  1  0.22726200  0.92034300  0.58941700  1
  O  O184  1  0.37699367  0.10743233  0.69868533  1
  O  O185  1  0.28198200  0.56079600  0.54245500  1
  O  O186  1  0.89256767  0.26956133  0.69868533  1
  O  O187  1  0.27950733  0.70805867  0.81805467  1
  O  O188  1  0.76188467  0.37472533  0.98472133  1
  O  O189  1  0.05264433  0.47887867  0.61406967  1
  O  O190  1  0.99079900  0.35355800  0.47909200  1
  O  O191  1  0.27950733  0.57144867  0.31805467  1
  O  O192  1  0.89392867  0.64025233  0.42275033  1
  O  O193  1  0.93355000  0.73377900  0.02621600  1
  O  O194  1  0.13356233  0.40044567  0.19288267  1
  O  O195  1  0.99079900  0.63724100  0.97909200  1
  O  O196  1  0.19510033  0.59799367  0.67228767  1
  O  O197  1  0.89256767  0.62300633  0.19868533  1
  O  O198  1  0.02942567  0.34253433  0.81242533  1
  O  O199  1  0.76188467  0.38715933  0.48472133  1
  O  O200  1  0.05264433  0.57376567  0.11406967  1
  O  O201  1  0.19428500  0.42657100  0.89815600  1
  O  O202  1  0.19428500  0.76771400  0.39815600  1
  O  O203  1  0.07362633  0.23731667  0.16950767  1
  O  O204  1  0.01900567  0.19105833  0.76225633  1
  O  O205  1  0.93288767  0.53310433  0.35954933  1
  O  O206  1  0.83035700  0.57065000  0.00284100  1
  O  O207  1  0.77253733  0.38468467  0.70912167  1
  O  O208  1  0.09290100  0.28068900  0.94740300  1
  O  O209  1  0.14227500  0.49461400  0.42892300  1
  O  O210  1  0.09290100  0.81221200  0.44740300  1
  O  O211  1  0.19510033  0.59710667  0.17228767  1
  O  O212  1  0.89895267  0.13904833  0.23148933  1
  O  O213  1  0.85445467  0.24043233  0.28073633  1
  O  O214  1  0.13356233  0.73311667  0.69288267  1
  O  O215  1  0.06867300  0.93044000  0.00562100  1
  O  O216  1  0.02641433  0.43940467  0.25608367  1
  O  O217  1  0.09601667  0.59304033  0.33617433  1
  O  O218  1  0.93355000  0.19977100  0.52621600  1
  O  O219  1  0.01900567  0.82794733  0.26225633  1
  O  O220  1  0.07362633  0.83630967  0.66950767  1
  O  O221  1  0.88617933  0.38312067  0.35654467  1
  O  O222  1  0.16360800  0.71645400  0.18987800  1
  O  O223  1  0.95860800  0.90478200  0.15138800  1
  O  O224  1  0.07965700  0.30691900  0.58941700  1
  O  O225  1  0.83871933  0.31432767  0.09558967  1
  O  O226  1  0.02641433  0.58700967  0.75608367  1
  O  O227  1  0.73622667  0.26466033  0.83895433  1
  O  O228  1  0.06377200  0.28967300  0.36535200  1
  O  O229  1  0.85445467  0.61402233  0.78073633  1
  O  O230  1  0.95021267  0.78048733  0.52321133  1
  O  O231  1  0.95021267  0.16972533  0.02321133  1
  O  O232  1  0.97977533  0.67586767  0.64575867  1
  O  O233  1  0.90676233  0.47238167  0.06482267  1
  O  O234  1  0.97977533  0.30390767  0.14575867  1
  O  O235  1  0.16360800  0.44715400  0.68987800  1
  O  O236  1  0.06867300  0.13823300  0.50562100  1
  O  O237  1  0.27881400  0.56079600  0.04245500  1
  O  O238  1  0.90676233  0.43438067  0.56482267  1
  O  O239  1  0.07965700  0.77273800  0.08941700  1
  O  O240  1  0.04366033  0.60289467  0.53201867  1
  O  O241  1  0.83871933  0.52439167  0.59558967  1
  O  O242  1  0.93288767  0.39978333  0.85954933  1
  O  O243  1  0.02942567  0.68689133  0.31242533  1
  O  O244  1  0.95860800  0.05382600  0.65138800  1
  O  O245  1  0.73622667  0.47156633  0.33895433  1
  O  O246  1  0.89895267  0.75990433  0.73148933  1
  O  O247  1  0.88617933  0.50305867  0.85654467  1
  O  O248  1  0.06377200  0.77409900  0.86535200  1
  O  O249  1  0.77253733  0.38785267  0.20912167  1
  O  O250  1  0.09601667  0.50297633  0.83617433  1
  O  O251  1  0.94864867  0.05451933  0.37578833  1
  O  O252  1  0.14227500  0.64766100  0.92892300  1
  O  O253  1  0.27881400  0.71801800  0.54245500  1
  O  O254  1  0.83035700  0.25970700  0.50284100  1
  O  O255  1  0.89392867  0.25367633  0.92275033  1
  O  O256  1  0.04366033  0.44076567  0.03201867  1
  O  O257  1  0.94864867  0.89412933  0.87578833  1
  O  O258  1  0.55923433  0.60289467  0.03201867  1
  O  O259  1  0.94617400  0.04139200  0.15138800  1
  O  O260  1  0.42855133  0.70805867  0.31805467  1
  O  O261  1  0.71931100  0.81221200  0.94740300  1
  O  O262  1  0.65746567  0.68689133  0.81242533  1
  O  O263  1  0.94617400  0.90478200  0.65138800  1
  O  O264  1  0.56059533  0.97358567  0.75608367  1
  O  O265  1  0.60021667  0.06711233  0.35954933  1
  O  O266  1  0.80022900  0.73377900  0.52621600  1
  O  O267  1  0.65746567  0.97057433  0.31242533  1
  O  O268  1  0.86176700  0.93132700  0.00562100  1
  O  O269  1  0.55923433  0.95633967  0.53201867  1
  O  O270  1  0.69609233  0.67586767  0.14575867  1
  O  O271  1  0.42855133  0.72049267  0.81805467  1
  O  O272  1  0.71931100  0.90709900  0.44740300  1
  O  O273  1  0.86095167  0.75990433  0.23148933  1
  O  O274  1  0.86095167  0.10104733  0.73148933  1
  O  O275  1  0.74029300  0.57065000  0.50284100  1
  O  O276  1  0.68567233  0.52439167  0.09558967  1
  O  O277  1  0.59955433  0.86643767  0.69288267  1
  O  O278  1  0.49702367  0.90398333  0.33617433  1
  O  O279  1  0.43920400  0.71801800  0.04245500  1
  O  O280  1  0.75956767  0.61402233  0.28073633  1
  O  O281  1  0.80894167  0.82794733  0.76225633  1
  O  O282  1  0.75956767  0.14554533  0.78073633  1
  O  O283  1  0.86176700  0.93044000  0.50562100  1
  O  O284  1  0.56561933  0.47238167  0.56482267  1
  O  O285  1  0.52112133  0.57376567  0.61406967  1
  O  O286  1  0.80022900  0.06645000  0.02621600  1
  O  O287  1  0.73533967  0.26377333  0.33895433  1
  O  O288  1  0.69308100  0.77273800  0.58941700  1
  O  O289  1  0.76268333  0.92637367  0.66950767  1
  O  O290  1  0.60021667  0.53310433  0.85954933  1
  O  O291  1  0.68567233  0.16128067  0.59558967  1
  O  O292  1  0.74029300  0.16964300  0.00284100  1
  O  O293  1  0.55284600  0.71645400  0.68987800  1
  O  O294  1  0.83027467  0.04978733  0.52321133  1
  O  O295  1  0.62527467  0.23811533  0.48472133  1
  O  O296  1  0.74632367  0.64025233  0.92275033  1
  O  O297  1  0.50538600  0.64766100  0.42892300  1
  O  O298  1  0.69308100  0.92034300  0.08941700  1
  O  O299  1  0.40289333  0.59799367  0.17228767  1
  O  O300  1  0.73043867  0.62300633  0.69868533  1
  O  O301  1  0.52112133  0.94735567  0.11406967  1
  O  O302  1  0.61687933  0.11382067  0.85654467  1
  O  O303  1  0.61687933  0.50305867  0.35654467  1
  O  O304  1  0.64644200  0.00920100  0.97909200  1
  O  O305  1  0.57342900  0.80571500  0.39815600  1
  O  O306  1  0.64644200  0.63724100  0.47909200  1
  O  O307  1  0.83027467  0.78048733  0.02321133  1
  O  O308  1  0.73533967  0.47156633  0.83895433  1
  O  O309  1  0.94548067  0.89412933  0.37578833  1
  O  O310  1  0.57342900  0.76771400  0.89815600  1
  O  O311  1  0.74632367  0.10607133  0.42275033  1
  O  O312  1  0.71032700  0.93622800  0.86535200  1
  O  O313  1  0.50538600  0.85772500  0.92892300  1
  O  O314  1  0.59955433  0.73311667  0.19288267  1
  O  O315  1  0.69609233  0.02022467  0.64575867  1
  O  O316  1  0.62527467  0.38715933  0.98472133  1
  O  O317  1  0.40289333  0.80489967  0.67228767  1
  O  O318  1  0.56561933  0.09323767  0.06482267  1
  O  O319  1  0.55284600  0.83639200  0.18987800  1
  O  O320  1  0.73043867  0.10743233  0.19868533  1
  O  O321  1  0.43920400  0.72118600  0.54245500  1
  O  O322  1  0.76268333  0.83630967  0.16950767  1
  O  O323  1  0.61531533  0.38785267  0.70912167  1
  O  O324  1  0.80894167  0.98099433  0.26225633  1
  O  O325  1  0.94548067  0.05135133  0.87578833  1
  O  O326  1  0.49702367  0.59304033  0.83617433  1
  O  O327  1  0.56059533  0.58700967  0.25608367  1
  O  O328  1  0.71032700  0.77409900  0.36535200  1
  O  O329  1  0.61531533  0.22746267  0.20912167  1
