# generated using pymatgen
data_P3RuO9
_symmetry_space_group_name_H-M   'P 1'
_cell_length_a   13.32924000
_cell_length_b   6.58675200
_cell_length_c   9.59282368
_cell_angle_alpha   90.00000000
_cell_angle_beta   126.40155279
_cell_angle_gamma   90.00000000
_symmetry_Int_Tables_number   1
_chemical_formula_structural   P3RuO9
_chemical_formula_sum   'P12 Ru4 O36'
_cell_volume   677.88038054
_cell_formula_units_Z   4
loop_
 _symmetry_equiv_pos_site_id
 _symmetry_equiv_pos_as_xyz
  1  'x, y, z'
loop_
 _atom_site_type_symbol
 _atom_site_label
 _atom_site_symmetry_multiplicity
 _atom_site_fract_x
 _atom_site_fract_y
 _atom_site_fract_z
 _atom_site_occupancy
  P  P0  1  0.88665000  0.40785700  0.82199800  1
  P  P1  1  0.50000000  0.44709500  0.25000000  1
  P  P2  1  0.38665000  0.09214300  0.32199800  1
  P  P3  1  0.61335000  0.90785700  0.67800200  1
  P  P4  1  0.11335000  0.59214300  0.17800200  1
  P  P5  1  0.50000000  0.55290500  0.75000000  1
  P  P6  1  0.38665000  0.90785700  0.82199800  1
  P  P7  1  0.00000000  0.94709500  0.25000000  1
  P  P8  1  0.88665000  0.59214300  0.32199800  1
  P  P9  1  0.11335000  0.40785700  0.67800200  1
  P  P10  1  0.61335000  0.09214300  0.17800200  1
  P  P11  1  0.00000000  0.05290500  0.75000000  1
  Ru  Ru12  1  0.75000000  0.25000000  0.00000000  1
  Ru  Ru13  1  0.75000000  0.75000000  0.50000000  1
  Ru  Ru14  1  0.25000000  0.75000000  0.00000000  1
  Ru  Ru15  1  0.25000000  0.25000000  0.50000000  1
  O  O16  1  0.60119950  0.43768550  0.90754500  1
  O  O17  1  0.39880050  0.56231450  0.09245500  1
  O  O18  1  0.36384850  0.03080150  0.67341900  1
  O  O19  1  0.22341600  0.62687600  0.17462900  1
  O  O20  1  0.44337750  0.69511650  0.82157900  1
  O  O21  1  0.77658400  0.37312400  0.82537100  1
  O  O22  1  0.72341600  0.87312400  0.67462900  1
  O  O23  1  0.55662250  0.69511650  0.67842100  1
  O  O24  1  0.63615150  0.96919850  0.32658100  1
  O  O25  1  0.63615150  0.03080150  0.82658100  1
  O  O26  1  0.60119950  0.56231450  0.40754500  1
  O  O27  1  0.39880050  0.43768550  0.59245500  1
  O  O28  1  0.50000000  0.00000000  0.50000000  1
  O  O29  1  0.55662250  0.30488350  0.17842100  1
  O  O30  1  0.44337750  0.30488350  0.32157900  1
  O  O31  1  0.27658400  0.12687600  0.32537100  1
  O  O32  1  0.36384850  0.96919850  0.17341900  1
  O  O33  1  0.00000000  0.50000000  0.00000000  1
  O  O34  1  0.10119950  0.93768550  0.90754500  1
  O  O35  1  0.89880050  0.06231450  0.09245500  1
  O  O36  1  0.86384850  0.53080150  0.67341900  1
  O  O37  1  0.72341600  0.12687600  0.17462900  1
  O  O38  1  0.94337750  0.19511650  0.82157900  1
  O  O39  1  0.27658400  0.87312400  0.82537100  1
  O  O40  1  0.22341600  0.37312400  0.67462900  1
  O  O41  1  0.05662250  0.19511650  0.67842100  1
  O  O42  1  0.13615150  0.46919850  0.32658100  1
  O  O43  1  0.13615150  0.53080150  0.82658100  1
  O  O44  1  0.10119950  0.06231450  0.40754500  1
  O  O45  1  0.89880050  0.93768550  0.59245500  1
  O  O46  1  0.00000000  0.50000000  0.50000000  1
  O  O47  1  0.05662250  0.80488350  0.17842100  1
  O  O48  1  0.94337750  0.80488350  0.32157900  1
  O  O49  1  0.77658400  0.62687600  0.32537100  1
  O  O50  1  0.86384850  0.46919850  0.17341900  1
  O  O51  1  0.50000000  0.00000000  0.00000000  1
