# generated using pymatgen
data_Na3Fe3(PO4)4
_symmetry_space_group_name_H-M   'P 1'
_cell_length_a   19.82569400
_cell_length_b   6.47099200
_cell_length_c   10.74287627
_cell_angle_alpha   90.00000000
_cell_angle_beta   91.80310610
_cell_angle_gamma   90.00000000
_symmetry_Int_Tables_number   1
_chemical_formula_structural   Na3Fe3(PO4)4
_chemical_formula_sum   'Na12 Fe12 P16 O64'
_cell_volume   1377.54166693
_cell_formula_units_Z   4
loop_
 _symmetry_equiv_pos_site_id
 _symmetry_equiv_pos_as_xyz
  1  'x, y, z'
loop_
 _atom_site_type_symbol
 _atom_site_label
 _atom_site_symmetry_multiplicity
 _atom_site_fract_x
 _atom_site_fract_y
 _atom_site_fract_z
 _atom_site_occupancy
  Na  Na0  1  0.58340200  0.64085100  0.47413000  1
  Na  Na1  1  0.00000000  0.37081900  0.75000000  1
  Na  Na2  1  0.58340200  0.35914900  0.97413000  1
  Na  Na3  1  0.91659800  0.85914900  0.52587000  1
  Na  Na4  1  0.00000000  0.62918100  0.25000000  1
  Na  Na5  1  0.91659800  0.14085100  0.02587000  1
  Na  Na6  1  0.08340200  0.14085100  0.47413000  1
  Na  Na7  1  0.50000000  0.87081900  0.75000000  1
  Na  Na8  1  0.08340200  0.85914900  0.97413000  1
  Na  Na9  1  0.41659800  0.35914900  0.52587000  1
  Na  Na10  1  0.50000000  0.12918100  0.25000000  1
  Na  Na11  1  0.41659800  0.64085100  0.02587000  1
  Fe  Fe12  1  0.65678100  0.02181200  0.74729000  1
  Fe  Fe13  1  0.75000000  0.25000000  0.50000000  1
  Fe  Fe14  1  0.84321900  0.47818800  0.25271000  1
  Fe  Fe15  1  0.65678100  0.97818800  0.24729000  1
  Fe  Fe16  1  0.75000000  0.75000000  0.00000000  1
  Fe  Fe17  1  0.84321900  0.52181200  0.75271000  1
  Fe  Fe18  1  0.15678100  0.52181200  0.74729000  1
  Fe  Fe19  1  0.25000000  0.75000000  0.50000000  1
  Fe  Fe20  1  0.34321900  0.97818800  0.25271000  1
  Fe  Fe21  1  0.15678100  0.47818800  0.24729000  1
  Fe  Fe22  1  0.25000000  0.25000000  0.00000000  1
  Fe  Fe23  1  0.34321900  0.02181200  0.75271000  1
  P  P24  1  0.79837700  0.01863000  0.75700500  1
  P  P25  1  0.58762000  0.15955700  0.49025400  1
  P  P26  1  0.70162300  0.51863000  0.74299500  1
  P  P27  1  0.70162300  0.48137000  0.24299500  1
  P  P28  1  0.91238000  0.34044300  0.50974600  1
  P  P29  1  0.79837700  0.98137000  0.25700500  1
  P  P30  1  0.91238000  0.65955700  0.00974600  1
  P  P31  1  0.58762000  0.84044300  0.99025400  1
  P  P32  1  0.29837700  0.51863000  0.75700500  1
  P  P33  1  0.08762000  0.65955700  0.49025400  1
  P  P34  1  0.20162300  0.01863000  0.74299500  1
  P  P35  1  0.20162300  0.98137000  0.24299500  1
  P  P36  1  0.41238000  0.84044300  0.50974600  1
  P  P37  1  0.29837700  0.48137000  0.25700500  1
  P  P38  1  0.41238000  0.15955700  0.00974600  1
  P  P39  1  0.08762000  0.34044300  0.99025400  1
  O  O40  1  0.84237900  0.20822100  0.78640800  1
  O  O41  1  0.59497400  0.00918400  0.88563200  1
  O  O42  1  0.65762100  0.29177900  0.21359200  1
  O  O43  1  0.75562350  0.44623550  0.35380300  1
  O  O44  1  0.65198900  0.70210300  0.99378300  1
  O  O45  1  0.84237900  0.79177900  0.28640800  1
  O  O46  1  0.90502600  0.50918400  0.61436800  1
  O  O47  1  0.91525500  0.45985400  0.38344400  1
  O  O48  1  0.75562350  0.55376450  0.85380300  1
  O  O49  1  0.90502600  0.49081600  0.11436800  1
  O  O50  1  0.84801100  0.79789700  0.00621700  1
  O  O51  1  0.65762100  0.70822100  0.71359200  1
  O  O52  1  0.75354350  0.47861850  0.63645400  1
  O  O53  1  0.65736950  0.33277950  0.77392700  1
  O  O54  1  0.58474500  0.95985400  0.11655600  1
  O  O55  1  0.75354350  0.52138150  0.13645400  1
  O  O56  1  0.59497400  0.99081600  0.38563200  1
  O  O57  1  0.97399950  0.20846450  0.53964500  1
  O  O58  1  0.58474500  0.04014600  0.61655600  1
  O  O59  1  0.74437650  0.94623550  0.14619700  1
  O  O60  1  0.65736950  0.66722050  0.27392700  1
  O  O61  1  0.74437650  0.05376450  0.64619700  1
  O  O62  1  0.74645650  0.97861850  0.86354600  1
  O  O63  1  0.84801100  0.20210300  0.50621700  1
  O  O64  1  0.74645650  0.02138150  0.36354600  1
  O  O65  1  0.84263050  0.16722050  0.22607300  1
  O  O66  1  0.84263050  0.83277950  0.72607300  1
  O  O67  1  0.65198900  0.29789700  0.49378300  1
  O  O68  1  0.52600050  0.70846450  0.96035500  1
  O  O69  1  0.91525500  0.54014600  0.88344400  1
  O  O70  1  0.97399950  0.79153550  0.03964500  1
  O  O71  1  0.52600050  0.29153550  0.46035500  1
  O  O72  1  0.34237900  0.70822100  0.78640800  1
  O  O73  1  0.09497400  0.50918400  0.88563200  1
  O  O74  1  0.15762100  0.79177900  0.21359200  1
  O  O75  1  0.25562350  0.94623550  0.35380300  1
  O  O76  1  0.15198900  0.20210300  0.99378300  1
  O  O77  1  0.34237900  0.29177900  0.28640800  1
  O  O78  1  0.40502600  0.00918400  0.61436800  1
  O  O79  1  0.41525500  0.95985400  0.38344400  1
  O  O80  1  0.25562350  0.05376450  0.85380300  1
  O  O81  1  0.40502600  0.99081600  0.11436800  1
  O  O82  1  0.34801100  0.29789700  0.00621700  1
  O  O83  1  0.15762100  0.20822100  0.71359200  1
  O  O84  1  0.25354350  0.97861850  0.63645400  1
  O  O85  1  0.15736950  0.83277950  0.77392700  1
  O  O86  1  0.08474500  0.45985400  0.11655600  1
  O  O87  1  0.25354350  0.02138150  0.13645400  1
  O  O88  1  0.09497400  0.49081600  0.38563200  1
  O  O89  1  0.47399950  0.70846450  0.53964500  1
  O  O90  1  0.08474500  0.54014600  0.61655600  1
  O  O91  1  0.24437650  0.44623550  0.14619700  1
  O  O92  1  0.15736950  0.16722050  0.27392700  1
  O  O93  1  0.24437650  0.55376450  0.64619700  1
  O  O94  1  0.24645650  0.47861850  0.86354600  1
  O  O95  1  0.34801100  0.70210300  0.50621700  1
  O  O96  1  0.24645650  0.52138150  0.36354600  1
  O  O97  1  0.34263050  0.66722050  0.22607300  1
  O  O98  1  0.34263050  0.33277950  0.72607300  1
  O  O99  1  0.15198900  0.79789700  0.49378300  1
  O  O100  1  0.02600050  0.20846450  0.96035500  1
  O  O101  1  0.41525500  0.04014600  0.88344400  1
  O  O102  1  0.47399950  0.29153550  0.03964500  1
  O  O103  1  0.02600050  0.79153550  0.46035500  1
