# generated using pymatgen
data_CsHg2
_symmetry_space_group_name_H-M   'P 1'
_cell_length_a   5.78661200
_cell_length_b   8.99569400
_cell_length_c   9.51956200
_cell_angle_alpha   90.00000000
_cell_angle_beta   90.00000000
_cell_angle_gamma   90.00000000
_symmetry_Int_Tables_number   1
_chemical_formula_structural   CsHg2
_chemical_formula_sum   'Cs4 Hg8'
_cell_volume   495.53690497
_cell_formula_units_Z   4
loop_
 _symmetry_equiv_pos_site_id
 _symmetry_equiv_pos_as_xyz
  1  'x, y, z'
loop_
 _atom_site_type_symbol
 _atom_site_label
 _atom_site_symmetry_multiplicity
 _atom_site_fract_x
 _atom_site_fract_y
 _atom_site_fract_z
 _atom_site_occupancy
  Cs  Cs0  1  0.50000000  0.75000000  0.56001600  1
  Cs  Cs1  1  0.50000000  0.25000000  0.43998400  1
  Cs  Cs2  1  0.00000000  0.25000000  0.06001600  1
  Cs  Cs3  1  0.00000000  0.75000000  0.93998400  1
  Hg  Hg4  1  0.50000000  0.07198200  0.83410800  1
  Hg  Hg5  1  0.50000000  0.92801800  0.16589200  1
  Hg  Hg6  1  0.00000000  0.92801800  0.33410800  1
  Hg  Hg7  1  0.00000000  0.07198200  0.66589200  1
  Hg  Hg8  1  0.00000000  0.57198200  0.33410800  1
  Hg  Hg9  1  0.00000000  0.42801800  0.66589200  1
  Hg  Hg10  1  0.50000000  0.42801800  0.83410800  1
  Hg  Hg11  1  0.50000000  0.57198200  0.16589200  1
