# generated using pymatgen
data_Cs5Hg19
_symmetry_space_group_name_H-M   'P 1'
_cell_length_a   12.47385600
_cell_length_b   12.47385600
_cell_length_c   11.32336200
_cell_angle_alpha   90.00000000
_cell_angle_beta   90.00000000
_cell_angle_gamma   90.00000000
_symmetry_Int_Tables_number   1
_chemical_formula_structural   Cs5Hg19
_chemical_formula_sum   'Cs10 Hg38'
_cell_volume   1761.88210271
_cell_formula_units_Z   2
loop_
 _symmetry_equiv_pos_site_id
 _symmetry_equiv_pos_as_xyz
  1  'x, y, z'
loop_
 _atom_site_type_symbol
 _atom_site_label
 _atom_site_symmetry_multiplicity
 _atom_site_fract_x
 _atom_site_fract_y
 _atom_site_fract_z
 _atom_site_occupancy
  Cs  Cs0  1  0.11911800  0.32430300  0.00000000  1
  Cs  Cs1  1  0.82430300  0.38088200  0.50000000  1
  Cs  Cs2  1  0.67569700  0.11911800  0.00000000  1
  Cs  Cs3  1  0.38088200  0.17569700  0.50000000  1
  Cs  Cs4  1  0.00000000  0.00000000  0.50000000  1
  Cs  Cs5  1  0.61911800  0.82430300  0.50000000  1
  Cs  Cs6  1  0.32430300  0.88088200  0.00000000  1
  Cs  Cs7  1  0.17569700  0.61911800  0.50000000  1
  Cs  Cs8  1  0.88088200  0.67569700  0.00000000  1
  Cs  Cs9  1  0.50000000  0.50000000  0.00000000  1
  Hg  Hg10  1  0.38609000  0.20324200  0.86015300  1
  Hg  Hg11  1  0.20324200  0.61391000  0.86015300  1
  Hg  Hg12  1  0.29675800  0.88609000  0.36015300  1
  Hg  Hg13  1  0.11391000  0.29675800  0.36015300  1
  Hg  Hg14  1  0.11391000  0.29675800  0.63984700  1
  Hg  Hg15  1  0.29675800  0.88609000  0.63984700  1
  Hg  Hg16  1  0.20324200  0.61391000  0.13984700  1
  Hg  Hg17  1  0.38609000  0.20324200  0.13984700  1
  Hg  Hg18  1  0.00000000  0.50000000  0.25000000  1
  Hg  Hg19  1  0.50000000  0.00000000  0.25000000  1
  Hg  Hg20  1  0.17260250  0.07991150  0.78186750  1
  Hg  Hg21  1  0.57991150  0.32739750  0.28186750  1
  Hg  Hg22  1  0.92008850  0.17260250  0.78186750  1
  Hg  Hg23  1  0.32739750  0.42008850  0.28186750  1
  Hg  Hg24  1  0.32739750  0.42008850  0.71813250  1
  Hg  Hg25  1  0.92008850  0.17260250  0.21813250  1
  Hg  Hg26  1  0.57991150  0.32739750  0.71813250  1
  Hg  Hg27  1  0.17260250  0.07991150  0.21813250  1
  Hg  Hg28  1  0.00000000  0.00000000  0.00000000  1
  Hg  Hg29  1  0.88609000  0.70324200  0.36015300  1
  Hg  Hg30  1  0.70324200  0.11391000  0.36015300  1
  Hg  Hg31  1  0.79675800  0.38609000  0.86015300  1
  Hg  Hg32  1  0.61391000  0.79675800  0.86015300  1
  Hg  Hg33  1  0.61391000  0.79675800  0.13984700  1
  Hg  Hg34  1  0.79675800  0.38609000  0.13984700  1
  Hg  Hg35  1  0.70324200  0.11391000  0.63984700  1
  Hg  Hg36  1  0.88609000  0.70324200  0.63984700  1
  Hg  Hg37  1  0.50000000  0.00000000  0.75000000  1
  Hg  Hg38  1  0.00000000  0.50000000  0.75000000  1
  Hg  Hg39  1  0.67260250  0.57991150  0.28186750  1
  Hg  Hg40  1  0.07991150  0.82739750  0.78186750  1
  Hg  Hg41  1  0.42008850  0.67260250  0.28186750  1
  Hg  Hg42  1  0.82739750  0.92008850  0.78186750  1
  Hg  Hg43  1  0.82739750  0.92008850  0.21813250  1
  Hg  Hg44  1  0.42008850  0.67260250  0.71813250  1
  Hg  Hg45  1  0.07991150  0.82739750  0.21813250  1
  Hg  Hg46  1  0.67260250  0.57991150  0.71813250  1
  Hg  Hg47  1  0.50000000  0.50000000  0.50000000  1
