# generated using pymatgen
data_Mn2Hg2SF6
_symmetry_space_group_name_H-M   'P 1'
_cell_length_a   11.17411400
_cell_length_b   11.17411400
_cell_length_c   11.17411400
_cell_angle_alpha   90.00000000
_cell_angle_beta   90.00000000
_cell_angle_gamma   90.00000000
_symmetry_Int_Tables_number   1
_chemical_formula_structural   Mn2Hg2SF6
_chemical_formula_sum   'Mn16 Hg16 S8 F48'
_cell_volume   1395.20907799
_cell_formula_units_Z   8
loop_
 _symmetry_equiv_pos_site_id
 _symmetry_equiv_pos_as_xyz
  1  'x, y, z'
loop_
 _atom_site_type_symbol
 _atom_site_label
 _atom_site_symmetry_multiplicity
 _atom_site_fract_x
 _atom_site_fract_y
 _atom_site_fract_z
 _atom_site_occupancy
  Mn  Mn0  1  0.87500000  0.87500000  0.12500000  1
  Mn  Mn1  1  0.37500000  0.12500000  0.37500000  1
  Mn  Mn2  1  0.62500000  0.87500000  0.37500000  1
  Mn  Mn3  1  0.12500000  0.12500000  0.12500000  1
  Mn  Mn4  1  0.87500000  0.37500000  0.62500000  1
  Mn  Mn5  1  0.37500000  0.62500000  0.87500000  1
  Mn  Mn6  1  0.62500000  0.37500000  0.87500000  1
  Mn  Mn7  1  0.12500000  0.62500000  0.62500000  1
  Mn  Mn8  1  0.37500000  0.87500000  0.62500000  1
  Mn  Mn9  1  0.87500000  0.12500000  0.87500000  1
  Mn  Mn10  1  0.12500000  0.87500000  0.87500000  1
  Mn  Mn11  1  0.62500000  0.12500000  0.62500000  1
  Mn  Mn12  1  0.37500000  0.37500000  0.12500000  1
  Mn  Mn13  1  0.87500000  0.62500000  0.37500000  1
  Mn  Mn14  1  0.12500000  0.37500000  0.37500000  1
  Mn  Mn15  1  0.62500000  0.62500000  0.12500000  1
  Hg  Hg16  1  0.37500000  0.87500000  0.12500000  1
  Hg  Hg17  1  0.37500000  0.62500000  0.37500000  1
  Hg  Hg18  1  0.12500000  0.87500000  0.37500000  1
  Hg  Hg19  1  0.12500000  0.62500000  0.12500000  1
  Hg  Hg20  1  0.37500000  0.37500000  0.62500000  1
  Hg  Hg21  1  0.37500000  0.12500000  0.87500000  1
  Hg  Hg22  1  0.12500000  0.37500000  0.87500000  1
  Hg  Hg23  1  0.12500000  0.12500000  0.62500000  1
  Hg  Hg24  1  0.87500000  0.87500000  0.62500000  1
  Hg  Hg25  1  0.87500000  0.62500000  0.87500000  1
  Hg  Hg26  1  0.62500000  0.87500000  0.87500000  1
  Hg  Hg27  1  0.62500000  0.62500000  0.62500000  1
  Hg  Hg28  1  0.87500000  0.37500000  0.12500000  1
  Hg  Hg29  1  0.87500000  0.12500000  0.37500000  1
  Hg  Hg30  1  0.62500000  0.37500000  0.37500000  1
  Hg  Hg31  1  0.62500000  0.12500000  0.12500000  1
  S  S32  1  0.00000000  0.00000000  0.50000000  1
  S  S33  1  0.25000000  0.75000000  0.25000000  1
  S  S34  1  0.00000000  0.50000000  0.00000000  1
  S  S35  1  0.25000000  0.25000000  0.75000000  1
  S  S36  1  0.50000000  0.00000000  0.00000000  1
  S  S37  1  0.75000000  0.75000000  0.75000000  1
  S  S38  1  0.50000000  0.50000000  0.50000000  1
  S  S39  1  0.75000000  0.25000000  0.25000000  1
  F  F40  1  0.50000000  0.20077900  0.50000000  1
  F  F41  1  0.50000000  0.00000000  0.29922100  1
  F  F42  1  0.25000000  0.04922100  0.25000000  1
  F  F43  1  0.50000000  0.79922100  0.50000000  1
  F  F44  1  0.25000000  0.25000000  0.04922100  1
  F  F45  1  0.04922100  0.25000000  0.25000000  1
  F  F46  1  0.00000000  0.00000000  0.20077900  1
  F  F47  1  0.25000000  0.25000000  0.45077900  1
  F  F48  1  0.25000000  0.45077900  0.25000000  1
  F  F49  1  0.29922100  0.00000000  0.50000000  1
  F  F50  1  0.70077900  0.00000000  0.50000000  1
  F  F51  1  0.45077900  0.25000000  0.25000000  1
  F  F52  1  0.50000000  0.70077900  0.00000000  1
  F  F53  1  0.50000000  0.50000000  0.79922100  1
  F  F54  1  0.25000000  0.54922100  0.75000000  1
  F  F55  1  0.50000000  0.29922100  0.00000000  1
  F  F56  1  0.25000000  0.75000000  0.54922100  1
  F  F57  1  0.04922100  0.75000000  0.75000000  1
  F  F58  1  0.00000000  0.50000000  0.70077900  1
  F  F59  1  0.25000000  0.75000000  0.95077900  1
  F  F60  1  0.25000000  0.95077900  0.75000000  1
  F  F61  1  0.29922100  0.50000000  0.00000000  1
  F  F62  1  0.70077900  0.50000000  0.00000000  1
  F  F63  1  0.45077900  0.75000000  0.75000000  1
  F  F64  1  0.00000000  0.20077900  0.00000000  1
  F  F65  1  0.00000000  0.00000000  0.79922100  1
  F  F66  1  0.75000000  0.04922100  0.75000000  1
  F  F67  1  0.00000000  0.79922100  0.00000000  1
  F  F68  1  0.75000000  0.25000000  0.54922100  1
  F  F69  1  0.54922100  0.25000000  0.75000000  1
  F  F70  1  0.50000000  0.00000000  0.70077900  1
  F  F71  1  0.75000000  0.25000000  0.95077900  1
  F  F72  1  0.75000000  0.45077900  0.75000000  1
  F  F73  1  0.79922100  0.00000000  0.00000000  1
  F  F74  1  0.20077900  0.00000000  0.00000000  1
  F  F75  1  0.95077900  0.25000000  0.75000000  1
  F  F76  1  0.00000000  0.70077900  0.50000000  1
  F  F77  1  0.00000000  0.50000000  0.29922100  1
  F  F78  1  0.75000000  0.54922100  0.25000000  1
  F  F79  1  0.00000000  0.29922100  0.50000000  1
  F  F80  1  0.75000000  0.75000000  0.04922100  1
  F  F81  1  0.54922100  0.75000000  0.25000000  1
  F  F82  1  0.50000000  0.50000000  0.20077900  1
  F  F83  1  0.75000000  0.75000000  0.45077900  1
  F  F84  1  0.75000000  0.95077900  0.25000000  1
  F  F85  1  0.79922100  0.50000000  0.50000000  1
  F  F86  1  0.20077900  0.50000000  0.50000000  1
  F  F87  1  0.95077900  0.75000000  0.25000000  1
