# generated using pymatgen
data_K3FeO4
_symmetry_space_group_name_H-M   'P 1'
_cell_length_a   7.76350500
_cell_length_b   7.95291500
_cell_length_c   9.22071200
_cell_angle_alpha   90.00000000
_cell_angle_beta   90.00000000
_cell_angle_gamma   90.00000000
_symmetry_Int_Tables_number   1
_chemical_formula_structural   K3FeO4
_chemical_formula_sum   'K12 Fe4 O16'
_cell_volume   569.30976804
_cell_formula_units_Z   4
loop_
 _symmetry_equiv_pos_site_id
 _symmetry_equiv_pos_as_xyz
  1  'x, y, z'
loop_
 _atom_site_type_symbol
 _atom_site_label
 _atom_site_symmetry_multiplicity
 _atom_site_fract_x
 _atom_site_fract_y
 _atom_site_fract_z
 _atom_site_occupancy
  K  K0  1  0.53729350  0.77868550  0.46379500  1
  K  K1  1  0.32831350  0.44405550  0.25000000  1
  K  K2  1  0.67168650  0.55594450  0.75000000  1
  K  K3  1  0.17168650  0.94405550  0.75000000  1
  K  K4  1  0.46270650  0.22131450  0.53620500  1
  K  K5  1  0.96270650  0.27868550  0.96379500  1
  K  K6  1  0.03729350  0.72131450  0.46379500  1
  K  K7  1  0.53729350  0.77868550  0.03620500  1
  K  K8  1  0.46270650  0.22131450  0.96379500  1
  K  K9  1  0.03729350  0.72131450  0.03620500  1
  K  K10  1  0.96270650  0.27868550  0.53620500  1
  K  K11  1  0.82831350  0.05594450  0.25000000  1
  Fe  Fe12  1  0.77401050  0.50750350  0.25000000  1
  Fe  Fe13  1  0.27401050  0.99249650  0.25000000  1
  Fe  Fe14  1  0.72598950  0.00750350  0.75000000  1
  Fe  Fe15  1  0.22598950  0.49249650  0.75000000  1
  O  O16  1  0.78793450  0.72467350  0.25000000  1
  O  O17  1  0.28793450  0.77532650  0.25000000  1
  O  O18  1  0.71206550  0.22467350  0.75000000  1
  O  O19  1  0.21206550  0.27532650  0.75000000  1
  O  O20  1  0.47850650  0.07969750  0.25000000  1
  O  O21  1  0.97850650  0.42030250  0.25000000  1
  O  O22  1  0.02149350  0.57969750  0.75000000  1
  O  O23  1  0.52149350  0.92030250  0.75000000  1
  O  O24  1  0.31670850  0.54269050  0.91926700  1
  O  O25  1  0.81670850  0.95730950  0.58073300  1
  O  O26  1  0.18329150  0.04269050  0.08073300  1
  O  O27  1  0.68329150  0.45730950  0.41926700  1
  O  O28  1  0.68329150  0.45730950  0.08073300  1
  O  O29  1  0.31670850  0.54269050  0.58073300  1
  O  O30  1  0.81670850  0.95730950  0.91926700  1
  O  O31  1  0.18329150  0.04269050  0.41926700  1
