# generated using pymatgen
data_La2TeI2
_symmetry_space_group_name_H-M   'P 1'
_cell_length_a   4.53817170
_cell_length_b   4.53817170
_cell_length_c   33.69174184
_cell_angle_alpha   90.00000000
_cell_angle_beta   90.00000000
_cell_angle_gamma   120.00000000
_symmetry_Int_Tables_number   1
_chemical_formula_structural   La2TeI2
_chemical_formula_sum   'La6 Te3 I6'
_cell_volume   600.91901031
_cell_formula_units_Z   3
loop_
 _symmetry_equiv_pos_site_id
 _symmetry_equiv_pos_as_xyz
  1  'x, y, z'
loop_
 _atom_site_type_symbol
 _atom_site_label
 _atom_site_symmetry_multiplicity
 _atom_site_fract_x
 _atom_site_fract_y
 _atom_site_fract_z
 _atom_site_occupancy
  La  La0  1  0.00000000  0.00000000  0.11356600  1
  La  La1  1  0.66666667  0.33333333  0.21976733  1
  La  La2  1  0.66666667  0.33333333  0.44689933  1
  La  La3  1  0.33333333  0.66666667  0.55310067  1
  La  La4  1  0.33333333  0.66666667  0.78023267  1
  La  La5  1  0.00000000  0.00000000  0.88643400  1
  Te  Te6  1  0.33333333  0.66666667  0.16666667  1
  Te  Te7  1  1.00000000  1.00000000  0.50000000  1
  Te  Te8  1  0.66666667  0.33333333  0.83333333  1
  I  I9  1  0.00000000  0.00000000  0.28028900  1
  I  I10  1  0.66666667  0.33333333  0.05304433  1
  I  I11  1  0.66666667  0.33333333  0.61362233  1
  I  I12  1  0.33333333  0.66666667  0.38637767  1
  I  I13  1  0.33333333  0.66666667  0.94695567  1
  I  I14  1  0.00000000  0.00000000  0.71971100  1
