# generated using pymatgen
data_KU2(PO4)3
_symmetry_space_group_name_H-M   'P 1'
_cell_length_a   9.23628622
_cell_length_b   9.23628622
_cell_length_c   25.12958723
_cell_angle_alpha   90.00000000
_cell_angle_beta   90.00000000
_cell_angle_gamma   120.00000000
_symmetry_Int_Tables_number   1
_chemical_formula_structural   KU2(PO4)3
_chemical_formula_sum   'K6 U12 P18 O72'
_cell_volume   1856.56753773
_cell_formula_units_Z   6
loop_
 _symmetry_equiv_pos_site_id
 _symmetry_equiv_pos_as_xyz
  1  'x, y, z'
loop_
 _atom_site_type_symbol
 _atom_site_label
 _atom_site_symmetry_multiplicity
 _atom_site_fract_x
 _atom_site_fract_y
 _atom_site_fract_z
 _atom_site_occupancy
  K  K0  1  0.33333333  0.66666667  0.16666667  1
  K  K1  1  0.00000000  0.00000000  0.00000000  1
  K  K2  1  1.00000000  0.00000000  0.50000000  1
  K  K3  1  0.66666667  0.33333333  0.33333333  1
  K  K4  1  0.66666667  0.33333333  0.83333333  1
  K  K5  1  0.33333333  0.66666667  0.66666667  1
  U  U6  1  0.00000000  0.00000000  0.15028600  1
  U  U7  1  0.66666667  0.33333333  0.18304733  1
  U  U8  1  0.33333333  0.66666667  0.01638067  1
  U  U9  1  0.33333333  0.66666667  0.31695267  1
  U  U10  1  0.66666667  0.33333333  0.48361933  1
  U  U11  1  0.33333333  0.66666667  0.51638067  1
  U  U12  1  0.00000000  0.00000000  0.34971400  1
  U  U13  1  0.00000000  0.00000000  0.65028600  1
  U  U14  1  0.33333333  0.66666667  0.81695267  1
  U  U15  1  0.00000000  0.00000000  0.84971400  1
  U  U16  1  0.66666667  0.33333333  0.68304733  1
  U  U17  1  0.66666667  0.33333333  0.98361933  1
  P  P18  1  0.66666667  0.62714833  0.08333333  1
  P  P19  1  0.96048167  0.33333333  0.08333333  1
  P  P20  1  0.70618500  0.00000000  0.25000000  1
  P  P21  1  0.37285167  0.03951833  0.08333333  1
  P  P22  1  0.29381500  0.29381500  0.25000000  1
  P  P23  1  0.00000000  0.70618500  0.25000000  1
  P  P24  1  0.33333333  0.96048167  0.41666667  1
  P  P25  1  0.62714833  0.66666667  0.41666667  1
  P  P26  1  0.37285167  0.33333333  0.58333333  1
  P  P27  1  0.03951833  0.37285167  0.41666667  1
  P  P28  1  0.96048167  0.62714833  0.58333333  1
  P  P29  1  0.66666667  0.03951833  0.58333333  1
  P  P30  1  0.00000000  0.29381500  0.75000000  1
  P  P31  1  0.29381500  0.00000000  0.75000000  1
  P  P32  1  0.03951833  0.66666667  0.91666667  1
  P  P33  1  0.70618500  0.70618500  0.75000000  1
  P  P34  1  0.62714833  0.96048167  0.91666667  1
  P  P35  1  0.33333333  0.37285167  0.91666667  1
  O  O36  1  0.81741133  0.03171967  0.29977167  1
  O  O37  1  0.68722667  0.15553833  0.24068233  1
  O  O38  1  0.82220500  0.80164500  0.09265100  1
  O  O39  1  0.31277333  0.46831167  0.25931767  1
  O  O40  1  0.18258867  0.21430833  0.20022833  1
  O  O41  1  0.63494700  0.51592200  0.13310500  1
  O  O42  1  0.35389333  0.86502167  0.07401567  1
  O  O43  1  0.84446167  0.53168833  0.24068233  1
  O  O44  1  0.15553833  0.68722667  0.25931767  1
  O  O45  1  0.78569167  0.96828033  0.20022833  1
  O  O46  1  0.03171967  0.81741133  0.20022833  1
  O  O47  1  0.45235833  0.15074467  0.03356167  1
  O  O48  1  0.96828033  0.78569167  0.29977167  1
  O  O49  1  0.13497833  0.48887167  0.07401567  1
  O  O50  1  0.97944000  0.17779500  0.09265100  1
  O  O51  1  0.51112833  0.64610667  0.07401567  1
  O  O52  1  0.84925533  0.30161367  0.03356167  1
  O  O53  1  0.69838633  0.54764167  0.03356167  1
  O  O54  1  0.48407800  0.11902500  0.13310500  1
  O  O55  1  0.53168833  0.84446167  0.25931767  1
  O  O56  1  0.88097500  0.36505300  0.13310500  1
  O  O57  1  0.19835500  0.02056000  0.09265100  1
  O  O58  1  0.21430833  0.18258867  0.29977167  1
  O  O59  1  0.46831167  0.31277333  0.24068233  1
  O  O60  1  0.48407800  0.36505300  0.63310500  1
  O  O61  1  0.35389333  0.48887167  0.57401567  1
  O  O62  1  0.48887167  0.13497833  0.42598433  1
  O  O63  1  0.97944000  0.80164500  0.59265100  1
  O  O64  1  0.84925533  0.54764167  0.53356167  1
  O  O65  1  0.30161367  0.84925533  0.46643833  1
  O  O66  1  0.02056000  0.19835500  0.40734900  1
  O  O67  1  0.51112833  0.86502167  0.57401567  1
  O  O68  1  0.82220500  0.02056000  0.59265100  1
  O  O69  1  0.45235833  0.30161367  0.53356167  1
  O  O70  1  0.69838633  0.15074467  0.53356167  1
  O  O71  1  0.11902500  0.48407800  0.36689500  1
  O  O72  1  0.63494700  0.11902500  0.63310500  1
  O  O73  1  0.80164500  0.82220500  0.40734900  1
  O  O74  1  0.64610667  0.51112833  0.42598433  1
  O  O75  1  0.17779500  0.97944000  0.40734900  1
  O  O76  1  0.51592200  0.63494700  0.36689500  1
  O  O77  1  0.36505300  0.88097500  0.36689500  1
  O  O78  1  0.15074467  0.45235833  0.46643833  1
  O  O79  1  0.19835500  0.17779500  0.59265100  1
  O  O80  1  0.54764167  0.69838633  0.46643833  1
  O  O81  1  0.86502167  0.35389333  0.42598433  1
  O  O82  1  0.88097500  0.51592200  0.63310500  1
  O  O83  1  0.13497833  0.64610667  0.57401567  1
  O  O84  1  0.15074467  0.69838633  0.96643833  1
  O  O85  1  0.02056000  0.82220500  0.90734900  1
  O  O86  1  0.15553833  0.46831167  0.75931767  1
  O  O87  1  0.64610667  0.13497833  0.92598433  1
  O  O88  1  0.51592200  0.88097500  0.86689500  1
  O  O89  1  0.96828033  0.18258867  0.79977167  1
  O  O90  1  0.68722667  0.53168833  0.74068233  1
  O  O91  1  0.17779500  0.19835500  0.90734900  1
  O  O92  1  0.48887167  0.35389333  0.92598433  1
  O  O93  1  0.11902500  0.63494700  0.86689500  1
  O  O94  1  0.36505300  0.48407800  0.86689500  1
  O  O95  1  0.78569167  0.81741133  0.70022833  1
  O  O96  1  0.30161367  0.45235833  0.96643833  1
  O  O97  1  0.46831167  0.15553833  0.74068233  1
  O  O98  1  0.31277333  0.84446167  0.75931767  1
  O  O99  1  0.84446167  0.31277333  0.74068233  1
  O  O100  1  0.18258867  0.96828033  0.70022833  1
  O  O101  1  0.03171967  0.21430833  0.70022833  1
  O  O102  1  0.81741133  0.78569167  0.79977167  1
  O  O103  1  0.86502167  0.51112833  0.92598433  1
  O  O104  1  0.21430833  0.03171967  0.79977167  1
  O  O105  1  0.53168833  0.68722667  0.75931767  1
  O  O106  1  0.54764167  0.84925533  0.96643833  1
  O  O107  1  0.80164500  0.97944000  0.90734900  1
