# generated using pymatgen
data_Sm(AsPd)2
_symmetry_space_group_name_H-M   'P 1'
_cell_length_a   4.27571200
_cell_length_b   4.27571200
_cell_length_c   10.53803400
_cell_angle_alpha   90.00000000
_cell_angle_beta   90.00000000
_cell_angle_gamma   90.00000000
_symmetry_Int_Tables_number   1
_chemical_formula_structural   Sm(AsPd)2
_chemical_formula_sum   'Sm2 As4 Pd4'
_cell_volume   192.65331430
_cell_formula_units_Z   2
loop_
 _symmetry_equiv_pos_site_id
 _symmetry_equiv_pos_as_xyz
  1  'x, y, z'
loop_
 _atom_site_type_symbol
 _atom_site_label
 _atom_site_symmetry_multiplicity
 _atom_site_fract_x
 _atom_site_fract_y
 _atom_site_fract_z
 _atom_site_occupancy
  Sm  Sm0  1  0.00000000  0.00000000  0.00000000  1
  Sm  Sm1  1  0.50000000  0.50000000  0.50000000  1
  As  As2  1  0.00000000  0.00000000  0.38132900  1
  As  As3  1  0.50000000  0.50000000  0.11867100  1
  As  As4  1  0.50000000  0.50000000  0.88132900  1
  As  As5  1  0.00000000  0.00000000  0.61867100  1
  Pd  Pd6  1  0.50000000  0.00000000  0.25000000  1
  Pd  Pd7  1  0.00000000  0.50000000  0.25000000  1
  Pd  Pd8  1  0.00000000  0.50000000  0.75000000  1
  Pd  Pd9  1  0.50000000  0.00000000  0.75000000  1
