# generated using pymatgen
data_K3Cr(HO)6
_symmetry_space_group_name_H-M   'P 1'
_cell_length_a   10.90017965
_cell_length_b   10.90017965
_cell_length_c   11.30217331
_cell_angle_alpha   90.00000000
_cell_angle_beta   90.00000000
_cell_angle_gamma   120.00000000
_symmetry_Int_Tables_number   1
_chemical_formula_structural   K3Cr(HO)6
_chemical_formula_sum   'K18 Cr6 H36 O36'
_cell_volume   1162.94695534
_cell_formula_units_Z   6
loop_
 _symmetry_equiv_pos_site_id
 _symmetry_equiv_pos_as_xyz
  1  'x, y, z'
loop_
 _atom_site_type_symbol
 _atom_site_label
 _atom_site_symmetry_multiplicity
 _atom_site_fract_x
 _atom_site_fract_y
 _atom_site_fract_z
 _atom_site_occupancy
  K  K0  1  0.04757967  0.33333333  0.08333333  1
  K  K1  1  0.66666667  0.71424633  0.08333333  1
  K  K2  1  0.28575367  0.95242033  0.08333333  1
  K  K3  1  0.95242033  0.66666667  0.91666667  1
  K  K4  1  0.33333333  0.28575367  0.91666667  1
  K  K5  1  0.71424633  0.04757967  0.91666667  1
  K  K6  1  0.71424633  0.66666667  0.41666667  1
  K  K7  1  0.33333333  0.04757967  0.41666667  1
  K  K8  1  0.95242033  0.28575367  0.41666667  1
  K  K9  1  0.61908700  0.00000000  0.25000000  1
  K  K10  1  0.00000000  0.61908700  0.25000000  1
  K  K11  1  0.38091300  0.38091300  0.25000000  1
  K  K12  1  0.38091300  0.00000000  0.75000000  1
  K  K13  1  0.00000000  0.38091300  0.75000000  1
  K  K14  1  0.61908700  0.61908700  0.75000000  1
  K  K15  1  0.28575367  0.33333333  0.58333333  1
  K  K16  1  0.66666667  0.95242033  0.58333333  1
  K  K17  1  0.04757967  0.71424633  0.58333333  1
  Cr  Cr18  1  0.00000000  0.00000000  0.00000000  1
  Cr  Cr19  1  0.00000000  0.00000000  0.50000000  1
  Cr  Cr20  1  0.66666667  0.33333333  0.33333333  1
  Cr  Cr21  1  0.66666667  0.33333333  0.83333333  1
  Cr  Cr22  1  0.33333333  0.66666667  0.66666667  1
  Cr  Cr23  1  0.33333333  0.66666667  0.16666667  1
  H  H24  1  0.94262533  0.84744067  0.17728367  1
  H  H25  1  0.15255933  0.09518467  0.17728367  1
  H  H26  1  0.90481533  0.05737467  0.17728367  1
  H  H27  1  0.09518467  0.15255933  0.32271633  1
  H  H28  1  0.84744067  0.94262533  0.32271633  1
  H  H29  1  0.05737467  0.90481533  0.32271633  1
  H  H30  1  0.05737467  0.15255933  0.82271633  1
  H  H31  1  0.84744067  0.90481533  0.82271633  1
  H  H32  1  0.09518467  0.94262533  0.82271633  1
  H  H33  1  0.90481533  0.84744067  0.67728367  1
  H  H34  1  0.15255933  0.05737467  0.67728367  1
  H  H35  1  0.94262533  0.09518467  0.67728367  1
  H  H36  1  0.60929200  0.18077400  0.51061700  1
  H  H37  1  0.81922600  0.42851800  0.51061700  1
  H  H38  1  0.57148200  0.39070800  0.51061700  1
  H  H39  1  0.76185133  0.48589267  0.65604967  1
  H  H40  1  0.51410733  0.27595867  0.65604967  1
  H  H41  1  0.72404133  0.23814867  0.65604967  1
  H  H42  1  0.72404133  0.48589267  0.15604967  1
  H  H43  1  0.51410733  0.23814867  0.15604967  1
  H  H44  1  0.76185133  0.27595867  0.15604967  1
  H  H45  1  0.57148200  0.18077400  0.01061700  1
  H  H46  1  0.81922600  0.39070800  0.01061700  1
  H  H47  1  0.60929200  0.42851800  0.01061700  1
  H  H48  1  0.27595867  0.51410733  0.84395033  1
  H  H49  1  0.48589267  0.76185133  0.84395033  1
  H  H50  1  0.23814867  0.72404133  0.84395033  1
  H  H51  1  0.42851800  0.81922600  0.98938300  1
  H  H52  1  0.18077400  0.60929200  0.98938300  1
  H  H53  1  0.39070800  0.57148200  0.98938300  1
  H  H54  1  0.39070800  0.81922600  0.48938300  1
  H  H55  1  0.18077400  0.57148200  0.48938300  1
  H  H56  1  0.42851800  0.60929200  0.48938300  1
  H  H57  1  0.23814867  0.51410733  0.34395033  1
  H  H58  1  0.48589267  0.72404133  0.34395033  1
  H  H59  1  0.27595867  0.76185133  0.34395033  1
  O  O60  1  0.00922567  0.15711133  0.89374033  1
  O  O61  1  0.84288867  0.85211433  0.89374033  1
  O  O62  1  0.14788567  0.99077433  0.89374033  1
  O  O63  1  0.51878100  0.17622200  0.93959300  1
  O  O64  1  0.82377800  0.34255900  0.93959300  1
  O  O65  1  0.65744100  0.48121900  0.93959300  1
  O  O66  1  0.99077433  0.84288867  0.10625967  1
  O  O67  1  0.15711133  0.14788567  0.10625967  1
  O  O68  1  0.85211433  0.00922567  0.10625967  1
  O  O69  1  0.48121900  0.82377800  0.06040700  1
  O  O70  1  0.17622200  0.65744100  0.06040700  1
  O  O71  1  0.34255900  0.51878100  0.06040700  1
  O  O72  1  0.67589233  0.49044467  0.22707367  1
  O  O73  1  0.50955533  0.18544767  0.22707367  1
  O  O74  1  0.81455233  0.32410767  0.22707367  1
  O  O75  1  0.18544767  0.50955533  0.27292633  1
  O  O76  1  0.49044467  0.67589233  0.27292633  1
  O  O77  1  0.32410767  0.81455233  0.27292633  1
  O  O78  1  0.65744100  0.17622200  0.43959300  1
  O  O79  1  0.82377800  0.48121900  0.43959300  1
  O  O80  1  0.51878100  0.34255900  0.43959300  1
  O  O81  1  0.14788567  0.15711133  0.39374033  1
  O  O82  1  0.84288867  0.99077433  0.39374033  1
  O  O83  1  0.00922567  0.85211433  0.39374033  1
  O  O84  1  0.34255900  0.82377800  0.56040700  1
  O  O85  1  0.17622200  0.51878100  0.56040700  1
  O  O86  1  0.48121900  0.65744100  0.56040700  1
  O  O87  1  0.85211433  0.84288867  0.60625967  1
  O  O88  1  0.15711133  0.00922567  0.60625967  1
  O  O89  1  0.99077433  0.14788567  0.60625967  1
  O  O90  1  0.32410767  0.50955533  0.77292633  1
  O  O91  1  0.49044467  0.81455233  0.77292633  1
  O  O92  1  0.18544767  0.67589233  0.77292633  1
  O  O93  1  0.81455233  0.49044467  0.72707367  1
  O  O94  1  0.50955533  0.32410767  0.72707367  1
  O  O95  1  0.67589233  0.18544767  0.72707367  1
