# generated using pymatgen
data_K3VCO8
_symmetry_space_group_name_H-M   'P 1'
_cell_length_a   9.18403800
_cell_length_b   9.40208600
_cell_length_c   5.71178516
_cell_angle_alpha   90.00000000
_cell_angle_beta   123.41445926
_cell_angle_gamma   90.00000000
_symmetry_Int_Tables_number   1
_chemical_formula_structural   K3VCO8
_chemical_formula_sum   'K6 V2 C2 O16'
_cell_volume   411.68477640
_cell_formula_units_Z   2
loop_
 _symmetry_equiv_pos_site_id
 _symmetry_equiv_pos_as_xyz
  1  'x, y, z'
loop_
 _atom_site_type_symbol
 _atom_site_label
 _atom_site_symmetry_multiplicity
 _atom_site_fract_x
 _atom_site_fract_y
 _atom_site_fract_z
 _atom_site_occupancy
  K  K0  1  0.59433100  0.00000000  0.09170000  1
  K  K1  1  0.63496850  0.28319250  0.63761400  1
  K  K2  1  0.63496850  0.71680750  0.63761400  1
  K  K3  1  0.09433100  0.50000000  0.09170000  1
  K  K4  1  0.13496850  0.78319250  0.63761400  1
  K  K5  1  0.13496850  0.21680750  0.63761400  1
  V  V6  1  0.00163400  0.00000000  0.00212800  1
  V  V7  1  0.50163400  0.50000000  0.00212800  1
  C  C8  1  0.33832800  0.00000000  0.35084400  1
  C  C9  1  0.83832800  0.50000000  0.35084400  1
  O  O10  1  0.24631200  0.00000000  0.07130700  1
  O  O11  1  0.89418900  0.00000000  0.65299700  1
  O  O12  1  0.39015850  0.36016750  0.09129100  1
  O  O13  1  0.52508850  0.70709350  0.06556600  1
  O  O14  1  0.52508850  0.29290650  0.06556600  1
  O  O15  1  0.50376400  0.00000000  0.49473300  1
  O  O16  1  0.24460200  0.00000000  0.45782800  1
  O  O17  1  0.39015850  0.63983250  0.09129100  1
  O  O18  1  0.74631200  0.50000000  0.07130700  1
  O  O19  1  0.39418900  0.50000000  0.65299700  1
  O  O20  1  0.89015850  0.86016750  0.09129100  1
  O  O21  1  0.02508850  0.20709350  0.06556600  1
  O  O22  1  0.02508850  0.79290650  0.06556600  1
  O  O23  1  0.00376400  0.50000000  0.49473300  1
  O  O24  1  0.74460200  0.50000000  0.45782800  1
  O  O25  1  0.89015850  0.13983250  0.09129100  1
