# generated using pymatgen
data_LiFeAsO4
_symmetry_space_group_name_H-M   'P 1'
_cell_length_a   4.95309109
_cell_length_b   6.16802205
_cell_length_c   10.73339214
_cell_angle_alpha   90.00000000
_cell_angle_beta   90.00000000
_cell_angle_gamma   90.00000000
_symmetry_Int_Tables_number   1
_chemical_formula_structural   LiFeAsO4
_chemical_formula_sum   'Li4 Fe4 As4 O16'
_cell_volume   327.91344935
_cell_formula_units_Z   4
loop_
 _symmetry_equiv_pos_site_id
 _symmetry_equiv_pos_as_xyz
  1  'x, y, z'
loop_
 _atom_site_type_symbol
 _atom_site_label
 _atom_site_symmetry_multiplicity
 _atom_site_fract_x
 _atom_site_fract_y
 _atom_site_fract_z
 _atom_site_occupancy
  Li  Li0  1  0.50000000  0.00000000  0.50000000  1
  Li  Li1  1  0.00000000  0.00000000  0.00000000  1
  Li  Li2  1  0.50000000  0.50000000  0.50000000  1
  Li  Li3  1  0.00000000  0.50000000  0.00000000  1
  Fe  Fe4  1  0.01121000  0.25000000  0.72298200  1
  Fe  Fe5  1  0.48879000  0.25000000  0.22298200  1
  Fe  Fe6  1  0.51121000  0.75000000  0.77701800  1
  Fe  Fe7  1  0.98879000  0.75000000  0.27701800  1
  As  As8  1  0.06420500  0.75000000  0.59354700  1
  As  As9  1  0.56420500  0.25000000  0.90645300  1
  As  As10  1  0.93579500  0.25000000  0.40645300  1
  As  As11  1  0.43579500  0.75000000  0.09354700  1
  O  O12  1  0.71897500  0.75000000  0.59388400  1
  O  O13  1  0.21897500  0.25000000  0.90611600  1
  O  O14  1  0.28102500  0.25000000  0.40611600  1
  O  O15  1  0.78102500  0.75000000  0.09388400  1
  O  O16  1  0.28998100  0.75000000  0.94758000  1
  O  O17  1  0.78998100  0.25000000  0.55242000  1
  O  O18  1  0.71001900  0.25000000  0.05242000  1
  O  O19  1  0.21001900  0.75000000  0.44758000  1
  O  O20  1  0.21676000  0.96742700  0.66936000  1
  O  O21  1  0.71676000  0.03257300  0.83064000  1
  O  O22  1  0.78324000  0.46742700  0.33064000  1
  O  O23  1  0.28324000  0.53257300  0.16936000  1
  O  O24  1  0.78324000  0.03257300  0.33064000  1
  O  O25  1  0.28324000  0.96742700  0.16936000  1
  O  O26  1  0.21676000  0.53257300  0.66936000  1
  O  O27  1  0.71676000  0.46742700  0.83064000  1
