# generated using pymatgen
data_Ga8Cu3W2
_symmetry_space_group_name_H-M   'P 1'
_cell_length_a   12.03699200
_cell_length_b   12.03699200
_cell_length_c   12.03699200
_cell_angle_alpha   90.00000000
_cell_angle_beta   90.00000000
_cell_angle_gamma   90.00000000
_symmetry_Int_Tables_number   1
_chemical_formula_structural   Ga8Cu3W2
_chemical_formula_sum   'Ga64 Cu24 W16'
_cell_volume   1744.02985731
_cell_formula_units_Z   8
loop_
 _symmetry_equiv_pos_site_id
 _symmetry_equiv_pos_as_xyz
  1  'x, y, z'
loop_
 _atom_site_type_symbol
 _atom_site_label
 _atom_site_symmetry_multiplicity
 _atom_site_fract_x
 _atom_site_fract_y
 _atom_site_fract_z
 _atom_site_occupancy
  Ga  Ga0  1  0.35499450  0.14500550  0.85499450  1
  Ga  Ga1  1  0.37872800  0.38872000  0.62182700  1
  Ga  Ga2  1  0.61128000  0.12182700  0.12127200  1
  Ga  Ga3  1  0.12127200  0.61128000  0.12182700  1
  Ga  Ga4  1  0.62817300  0.36128000  0.12872800  1
  Ga  Ga5  1  0.37127200  0.37182700  0.86128000  1
  Ga  Ga6  1  0.87817300  0.37872800  0.61128000  1
  Ga  Ga7  1  0.86128000  0.37127200  0.37182700  1
  Ga  Ga8  1  0.10499450  0.60499450  0.89500550  1
  Ga  Ga9  1  0.12872800  0.62817300  0.36128000  1
  Ga  Ga10  1  0.89500550  0.10499450  0.60499450  1
  Ga  Ga11  1  0.38872000  0.37817300  0.12127200  1
  Ga  Ga12  1  0.63872000  0.37127200  0.62817300  1
  Ga  Ga13  1  0.37817300  0.12127200  0.38872000  1
  Ga  Ga14  1  0.38872000  0.62182700  0.37872800  1
  Ga  Ga15  1  0.37872800  0.61128000  0.87817300  1
  Ga  Ga16  1  0.62817300  0.63872000  0.37127200  1
  Ga  Ga17  1  0.12872800  0.37182700  0.13872000  1
  Ga  Ga18  1  0.37182700  0.86128000  0.37127200  1
  Ga  Ga19  1  0.12182700  0.12127200  0.61128000  1
  Ga  Ga20  1  0.12127200  0.38872000  0.37817300  1
  Ga  Ga21  1  0.60499450  0.89500550  0.10499450  1
  Ga  Ga22  1  0.62182700  0.37872800  0.38872000  1
  Ga  Ga23  1  0.37182700  0.13872000  0.12872800  1
  Ga  Ga24  1  0.14500550  0.14500550  0.14500550  1
  Ga  Ga25  1  0.39500550  0.39500550  0.39500550  1
  Ga  Ga26  1  0.37127200  0.62817300  0.63872000  1
  Ga  Ga27  1  0.85499450  0.35499450  0.14500550  1
  Ga  Ga28  1  0.61128000  0.87817300  0.37872800  1
  Ga  Ga29  1  0.36128000  0.12872800  0.62817300  1
  Ga  Ga30  1  0.14500550  0.85499450  0.35499450  1
  Ga  Ga31  1  0.13872000  0.12872800  0.37182700  1
  Ga  Ga32  1  0.85499450  0.64500550  0.35499450  1
  Ga  Ga33  1  0.87872800  0.88872000  0.12182700  1
  Ga  Ga34  1  0.11128000  0.62182700  0.62127200  1
  Ga  Ga35  1  0.62127200  0.11128000  0.62182700  1
  Ga  Ga36  1  0.12817300  0.86128000  0.62872800  1
  Ga  Ga37  1  0.87127200  0.87182700  0.36128000  1
  Ga  Ga38  1  0.37817300  0.87872800  0.11128000  1
  Ga  Ga39  1  0.36128000  0.87127200  0.87182700  1
  Ga  Ga40  1  0.60499450  0.10499450  0.39500550  1
  Ga  Ga41  1  0.62872800  0.12817300  0.86128000  1
  Ga  Ga42  1  0.39500550  0.60499450  0.10499450  1
  Ga  Ga43  1  0.88872000  0.87817300  0.62127200  1
  Ga  Ga44  1  0.13872000  0.87127200  0.12817300  1
  Ga  Ga45  1  0.87817300  0.62127200  0.88872000  1
  Ga  Ga46  1  0.88872000  0.12182700  0.87872800  1
  Ga  Ga47  1  0.87872800  0.11128000  0.37817300  1
  Ga  Ga48  1  0.12817300  0.13872000  0.87127200  1
  Ga  Ga49  1  0.62872800  0.87182700  0.63872000  1
  Ga  Ga50  1  0.87182700  0.36128000  0.87127200  1
  Ga  Ga51  1  0.62182700  0.62127200  0.11128000  1
  Ga  Ga52  1  0.62127200  0.88872000  0.87817300  1
  Ga  Ga53  1  0.10499450  0.39500550  0.60499450  1
  Ga  Ga54  1  0.12182700  0.87872800  0.88872000  1
  Ga  Ga55  1  0.87182700  0.63872000  0.62872800  1
  Ga  Ga56  1  0.64500550  0.64500550  0.64500550  1
  Ga  Ga57  1  0.89500550  0.89500550  0.89500550  1
  Ga  Ga58  1  0.87127200  0.12817300  0.13872000  1
  Ga  Ga59  1  0.35499450  0.85499450  0.64500550  1
  Ga  Ga60  1  0.11128000  0.37817300  0.87872800  1
  Ga  Ga61  1  0.86128000  0.62872800  0.12817300  1
  Ga  Ga62  1  0.64500550  0.35499450  0.85499450  1
  Ga  Ga63  1  0.63872000  0.62872800  0.87182700  1
  Cu  Cu64  1  0.50000000  0.25000000  0.98198900  1
  Cu  Cu65  1  0.26801100  0.50000000  0.25000000  1
  Cu  Cu66  1  0.73198900  0.00000000  0.25000000  1
  Cu  Cu67  1  0.98198900  0.50000000  0.25000000  1
  Cu  Cu68  1  0.00000000  0.25000000  0.73198900  1
  Cu  Cu69  1  0.25000000  0.98198900  0.50000000  1
  Cu  Cu70  1  0.25000000  0.26801100  0.50000000  1
  Cu  Cu71  1  0.25000000  0.01801100  0.00000000  1
  Cu  Cu72  1  0.25000000  0.73198900  0.00000000  1
  Cu  Cu73  1  0.50000000  0.25000000  0.26801100  1
  Cu  Cu74  1  0.01801100  0.00000000  0.25000000  1
  Cu  Cu75  1  0.00000000  0.25000000  0.01801100  1
  Cu  Cu76  1  0.00000000  0.75000000  0.48198900  1
  Cu  Cu77  1  0.76801100  0.00000000  0.75000000  1
  Cu  Cu78  1  0.23198900  0.50000000  0.75000000  1
  Cu  Cu79  1  0.48198900  0.00000000  0.75000000  1
  Cu  Cu80  1  0.50000000  0.75000000  0.23198900  1
  Cu  Cu81  1  0.75000000  0.48198900  0.00000000  1
  Cu  Cu82  1  0.75000000  0.76801100  0.00000000  1
  Cu  Cu83  1  0.75000000  0.51801100  0.50000000  1
  Cu  Cu84  1  0.75000000  0.23198900  0.50000000  1
  Cu  Cu85  1  0.00000000  0.75000000  0.76801100  1
  Cu  Cu86  1  0.51801100  0.50000000  0.75000000  1
  Cu  Cu87  1  0.50000000  0.75000000  0.51801100  1
  W  W88  1  0.97896200  0.47896200  0.02103800  1
  W  W89  1  0.27103800  0.27103800  0.27103800  1
  W  W90  1  0.77103800  0.22896200  0.72896200  1
  W  W91  1  0.72896200  0.77103800  0.22896200  1
  W  W92  1  0.02103800  0.97896200  0.47896200  1
  W  W93  1  0.22896200  0.72896200  0.77103800  1
  W  W94  1  0.02103800  0.02103800  0.02103800  1
  W  W95  1  0.47896200  0.02103800  0.97896200  1
  W  W96  1  0.47896200  0.97896200  0.52103800  1
  W  W97  1  0.77103800  0.77103800  0.77103800  1
  W  W98  1  0.27103800  0.72896200  0.22896200  1
  W  W99  1  0.22896200  0.27103800  0.72896200  1
  W  W100  1  0.52103800  0.47896200  0.97896200  1
  W  W101  1  0.72896200  0.22896200  0.27103800  1
  W  W102  1  0.52103800  0.52103800  0.52103800  1
  W  W103  1  0.97896200  0.52103800  0.47896200  1
