# generated using pymatgen
data_SrV2(NiO4)2
_symmetry_space_group_name_H-M   'P 1'
_cell_length_a   12.34909400
_cell_length_b   12.34909400
_cell_length_c   8.46037400
_cell_angle_alpha   90.00000000
_cell_angle_beta   90.00000000
_cell_angle_gamma   90.00000000
_symmetry_Int_Tables_number   1
_chemical_formula_structural   SrV2(NiO4)2
_chemical_formula_sum   'Sr8 V16 Ni16 O64'
_cell_volume   1290.20807242
_cell_formula_units_Z   8
loop_
 _symmetry_equiv_pos_site_id
 _symmetry_equiv_pos_as_xyz
  1  'x, y, z'
loop_
 _atom_site_type_symbol
 _atom_site_label
 _atom_site_symmetry_multiplicity
 _atom_site_fract_x
 _atom_site_fract_y
 _atom_site_fract_z
 _atom_site_occupancy
  Sr  Sr0  1  0.00000000  0.00000000  0.99574700  1
  Sr  Sr1  1  0.50000000  0.00000000  0.24574700  1
  Sr  Sr2  1  0.50000000  0.00000000  0.74574700  1
  Sr  Sr3  1  0.00000000  0.00000000  0.49574700  1
  Sr  Sr4  1  0.50000000  0.50000000  0.49574700  1
  Sr  Sr5  1  0.00000000  0.50000000  0.74574700  1
  Sr  Sr6  1  0.00000000  0.50000000  0.24574700  1
  Sr  Sr7  1  0.50000000  0.50000000  0.99574700  1
  V  V8  1  0.25603600  0.92018800  0.89628300  1
  V  V9  1  0.42018800  0.74396400  0.14628300  1
  V  V10  1  0.57981200  0.25603600  0.14628300  1
  V  V11  1  0.74396400  0.07981200  0.89628300  1
  V  V12  1  0.57981200  0.74396400  0.64628300  1
  V  V13  1  0.42018800  0.25603600  0.64628300  1
  V  V14  1  0.25603600  0.07981200  0.39628300  1
  V  V15  1  0.74396400  0.92018800  0.39628300  1
  V  V16  1  0.75603600  0.42018800  0.39628300  1
  V  V17  1  0.92018800  0.24396400  0.64628300  1
  V  V18  1  0.07981200  0.75603600  0.64628300  1
  V  V19  1  0.24396400  0.57981200  0.39628300  1
  V  V20  1  0.07981200  0.24396400  0.14628300  1
  V  V21  1  0.92018800  0.75603600  0.14628300  1
  V  V22  1  0.75603600  0.57981200  0.89628300  1
  V  V23  1  0.24396400  0.42018800  0.89628300  1
  Ni  Ni24  1  0.83071750  0.16729450  0.26832450  1
  Ni  Ni25  1  0.66729450  0.16928250  0.51832450  1
  Ni  Ni26  1  0.33270550  0.83071750  0.51832450  1
  Ni  Ni27  1  0.16928250  0.83270550  0.26832450  1
  Ni  Ni28  1  0.33270550  0.16928250  0.01832450  1
  Ni  Ni29  1  0.66729450  0.83071750  0.01832450  1
  Ni  Ni30  1  0.83071750  0.83270550  0.76832450  1
  Ni  Ni31  1  0.16928250  0.16729450  0.76832450  1
  Ni  Ni32  1  0.33071750  0.66729450  0.76832450  1
  Ni  Ni33  1  0.16729450  0.66928250  0.01832450  1
  Ni  Ni34  1  0.83270550  0.33071750  0.01832450  1
  Ni  Ni35  1  0.66928250  0.33270550  0.76832450  1
  Ni  Ni36  1  0.83270550  0.66928250  0.51832450  1
  Ni  Ni37  1  0.16729450  0.33071750  0.51832450  1
  Ni  Ni38  1  0.33071750  0.33270550  0.26832450  1
  Ni  Ni39  1  0.66928250  0.66729450  0.26832450  1
  O  O40  1  0.65061050  0.00349850  0.49004450  1
  O  O41  1  0.50349850  0.34938950  0.74004450  1
  O  O42  1  0.49650150  0.65061050  0.74004450  1
  O  O43  1  0.34938950  0.99650150  0.49004450  1
  O  O44  1  0.49650150  0.34938950  0.24004450  1
  O  O45  1  0.50349850  0.65061050  0.24004450  1
  O  O46  1  0.65061050  0.99650150  0.99004450  1
  O  O47  1  0.34938950  0.00349850  0.99004450  1
  O  O48  1  0.34011750  0.32913250  0.50984150  1
  O  O49  1  0.32913250  0.15988250  0.25984150  1
  O  O50  1  0.67086750  0.84011750  0.25984150  1
  O  O51  1  0.65988250  0.67086750  0.50984150  1
  O  O52  1  0.67086750  0.15988250  0.75984150  1
  O  O53  1  0.32913250  0.84011750  0.75984150  1
  O  O54  1  0.34011750  0.67086750  0.00984150  1
  O  O55  1  0.65988250  0.32913250  0.00984150  1
  O  O56  1  0.65808350  0.82242850  0.77849150  1
  O  O57  1  0.82242850  0.84191650  0.52849150  1
  O  O58  1  0.17757150  0.15808350  0.52849150  1
  O  O59  1  0.34191650  0.17757150  0.77849150  1
  O  O60  1  0.17757150  0.84191650  0.02849150  1
  O  O61  1  0.82242850  0.15808350  0.02849150  1
  O  O62  1  0.65808350  0.17757150  0.27849150  1
  O  O63  1  0.34191650  0.82242850  0.27849150  1
  O  O64  1  0.83433700  0.00231000  0.29829800  1
  O  O65  1  0.50231000  0.16566300  0.54829800  1
  O  O66  1  0.49769000  0.83433700  0.54829800  1
  O  O67  1  0.16566300  0.99769000  0.29829800  1
  O  O68  1  0.49769000  0.16566300  0.04829800  1
  O  O69  1  0.50231000  0.83433700  0.04829800  1
  O  O70  1  0.83433700  0.99769000  0.79829800  1
  O  O71  1  0.16566300  0.00231000  0.79829800  1
  O  O72  1  0.15061050  0.50349850  0.99004450  1
  O  O73  1  0.00349850  0.84938950  0.24004450  1
  O  O74  1  0.99650150  0.15061050  0.24004450  1
  O  O75  1  0.84938950  0.49650150  0.99004450  1
  O  O76  1  0.99650150  0.84938950  0.74004450  1
  O  O77  1  0.00349850  0.15061050  0.74004450  1
  O  O78  1  0.15061050  0.49650150  0.49004450  1
  O  O79  1  0.84938950  0.50349850  0.49004450  1
  O  O80  1  0.84011750  0.82913250  0.00984150  1
  O  O81  1  0.82913250  0.65988250  0.75984150  1
  O  O82  1  0.17086750  0.34011750  0.75984150  1
  O  O83  1  0.15988250  0.17086750  0.00984150  1
  O  O84  1  0.17086750  0.65988250  0.25984150  1
  O  O85  1  0.82913250  0.34011750  0.25984150  1
  O  O86  1  0.84011750  0.17086750  0.50984150  1
  O  O87  1  0.15988250  0.82913250  0.50984150  1
  O  O88  1  0.15808350  0.32242850  0.27849150  1
  O  O89  1  0.32242850  0.34191650  0.02849150  1
  O  O90  1  0.67757150  0.65808350  0.02849150  1
  O  O91  1  0.84191650  0.67757150  0.27849150  1
  O  O92  1  0.67757150  0.34191650  0.52849150  1
  O  O93  1  0.32242850  0.65808350  0.52849150  1
  O  O94  1  0.15808350  0.67757150  0.77849150  1
  O  O95  1  0.84191650  0.32242850  0.77849150  1
  O  O96  1  0.33433700  0.50231000  0.79829800  1
  O  O97  1  0.00231000  0.66566300  0.04829800  1
  O  O98  1  0.99769000  0.33433700  0.04829800  1
  O  O99  1  0.66566300  0.49769000  0.79829800  1
  O  O100  1  0.99769000  0.66566300  0.54829800  1
  O  O101  1  0.00231000  0.33433700  0.54829800  1
  O  O102  1  0.33433700  0.49769000  0.29829800  1
  O  O103  1  0.66566300  0.50231000  0.29829800  1
