# generated using pymatgen
data_Na2Zr(WO4)3
_symmetry_space_group_name_H-M   'P 1'
_cell_length_a   5.11111000
_cell_length_b   5.11111000
_cell_length_c   38.34498000
_cell_angle_alpha   90.00000000
_cell_angle_beta   90.00000000
_cell_angle_gamma   90.00000000
_symmetry_Int_Tables_number   1
_chemical_formula_structural   Na2Zr(WO4)3
_chemical_formula_sum   'Na8 Zr4 W12 O48'
_cell_volume   1001.70299262
_cell_formula_units_Z   4
loop_
 _symmetry_equiv_pos_site_id
 _symmetry_equiv_pos_as_xyz
  1  'x, y, z'
loop_
 _atom_site_type_symbol
 _atom_site_label
 _atom_site_symmetry_multiplicity
 _atom_site_fract_x
 _atom_site_fract_y
 _atom_site_fract_z
 _atom_site_occupancy
  Na  Na0  1  0.50000000  0.00000000  0.76430300  1
  Na  Na1  1  0.00000000  0.50000000  0.07316700  1
  Na  Na2  1  0.00000000  0.00000000  0.82316700  1
  Na  Na3  1  0.00000000  0.00000000  0.01430300  1
  Na  Na4  1  0.00000000  0.50000000  0.26430300  1
  Na  Na5  1  0.50000000  0.00000000  0.57316700  1
  Na  Na6  1  0.50000000  0.50000000  0.32316700  1
  Na  Na7  1  0.50000000  0.50000000  0.51430300  1
  Zr  Zr8  1  0.50000000  0.00000000  0.92773500  1
  Zr  Zr9  1  0.00000000  0.00000000  0.17773500  1
  Zr  Zr10  1  0.00000000  0.50000000  0.42773500  1
  Zr  Zr11  1  0.50000000  0.50000000  0.67773500  1
  W  W12  1  0.50000000  0.50000000  0.84542200  1
  W  W13  1  0.50000000  0.00000000  0.09542200  1
  W  W14  1  0.50000000  0.50000000  0.15123200  1
  W  W15  1  0.50000000  0.00000000  0.24536400  1
  W  W16  1  0.00000000  0.50000000  0.90123200  1
  W  W17  1  0.50000000  0.50000000  0.99536400  1
  W  W18  1  0.00000000  0.00000000  0.34542200  1
  W  W19  1  0.00000000  0.50000000  0.59542200  1
  W  W20  1  0.00000000  0.00000000  0.65123200  1
  W  W21  1  0.00000000  0.50000000  0.74536400  1
  W  W22  1  0.50000000  0.00000000  0.40123200  1
  W  W23  1  0.00000000  0.00000000  0.49536400  1
  O  O24  1  0.69792200  0.73774700  0.89465000  1
  O  O25  1  0.22555450  0.14885150  0.22038350  1
  O  O26  1  0.19096550  0.68133050  0.86141650  1
  O  O27  1  0.31866950  0.69096550  0.11141650  1
  O  O28  1  0.35114850  0.22555450  0.97038350  1
  O  O29  1  0.26256200  0.13050400  0.06653500  1
  O  O30  1  0.63050400  0.73743800  0.81653500  1
  O  O31  1  0.64885150  0.77444550  0.97038350  1
  O  O32  1  0.25108200  0.63411700  0.02228300  1
  O  O33  1  0.86588300  0.25108200  0.77228300  1
  O  O34  1  0.80903450  0.31866950  0.86141650  1
  O  O35  1  0.68133050  0.30903450  0.11141650  1
  O  O36  1  0.17483650  0.72949050  0.93131550  1
  O  O37  1  0.27050950  0.67483650  0.18131550  1
  O  O38  1  0.73743800  0.86949600  0.06653500  1
  O  O39  1  0.36949600  0.26256200  0.81653500  1
  O  O40  1  0.13411700  0.74891800  0.77228300  1
  O  O41  1  0.26225300  0.19792200  0.14465000  1
  O  O42  1  0.73774700  0.80207800  0.14465000  1
  O  O43  1  0.74891800  0.36588300  0.02228300  1
  O  O44  1  0.30207800  0.26225300  0.89465000  1
  O  O45  1  0.72949050  0.32516350  0.18131550  1
  O  O46  1  0.82516350  0.27050950  0.93131550  1
  O  O47  1  0.77444550  0.85114850  0.22038350  1
  O  O48  1  0.19792200  0.23774700  0.39465000  1
  O  O49  1  0.72555450  0.64885150  0.72038350  1
  O  O50  1  0.69096550  0.18133050  0.36141650  1
  O  O51  1  0.81866950  0.19096550  0.61141650  1
  O  O52  1  0.85114850  0.72555450  0.47038350  1
  O  O53  1  0.76256200  0.63050400  0.56653500  1
  O  O54  1  0.13050400  0.23743800  0.31653500  1
  O  O55  1  0.14885150  0.27444550  0.47038350  1
  O  O56  1  0.75108200  0.13411700  0.52228300  1
  O  O57  1  0.36588300  0.75108200  0.27228300  1
  O  O58  1  0.30903450  0.81866950  0.36141650  1
  O  O59  1  0.18133050  0.80903450  0.61141650  1
  O  O60  1  0.67483650  0.22949050  0.43131550  1
  O  O61  1  0.77050950  0.17483650  0.68131550  1
  O  O62  1  0.23743800  0.36949600  0.56653500  1
  O  O63  1  0.86949600  0.76256200  0.31653500  1
  O  O64  1  0.63411700  0.24891800  0.27228300  1
  O  O65  1  0.76225300  0.69792200  0.64465000  1
  O  O66  1  0.23774700  0.30207800  0.64465000  1
  O  O67  1  0.24891800  0.86588300  0.52228300  1
  O  O68  1  0.80207800  0.76225300  0.39465000  1
  O  O69  1  0.22949050  0.82516350  0.68131550  1
  O  O70  1  0.32516350  0.77050950  0.43131550  1
  O  O71  1  0.27444550  0.35114850  0.72038350  1
