# generated using pymatgen
data_Ba2MnSi2ClO7
_symmetry_space_group_name_H-M   'P 1'
_cell_length_a   8.61307600
_cell_length_b   8.61307600
_cell_length_c   5.51347850
_cell_angle_alpha   90.00000000
_cell_angle_beta   90.00000000
_cell_angle_gamma   90.00000000
_symmetry_Int_Tables_number   1
_chemical_formula_structural   Ba2MnSi2ClO7
_chemical_formula_sum   'Ba4 Mn2 Si4 Cl2 O14'
_cell_volume   409.01783358
_cell_formula_units_Z   2
loop_
 _symmetry_equiv_pos_site_id
 _symmetry_equiv_pos_as_xyz
  1  'x, y, z'
loop_
 _atom_site_type_symbol
 _atom_site_label
 _atom_site_symmetry_multiplicity
 _atom_site_fract_x
 _atom_site_fract_y
 _atom_site_fract_z
 _atom_site_occupancy
  Ba  Ba0  1  0.67052600  0.17052600  0.18003500  1
  Ba  Ba1  1  0.32947400  0.82947400  0.18003500  1
  Ba  Ba2  1  0.82947400  0.67052600  0.18003500  1
  Ba  Ba3  1  0.17052600  0.32947400  0.18003500  1
  Mn  Mn4  1  0.50000000  0.50000000  0.79505400  1
  Mn  Mn5  1  0.00000000  0.00000000  0.79505400  1
  Si  Si6  1  0.87057200  0.37057200  0.70215800  1
  Si  Si7  1  0.62942800  0.87057200  0.70215800  1
  Si  Si8  1  0.37057200  0.12942800  0.70215800  1
  Si  Si9  1  0.12942800  0.62942800  0.70215800  1
  Cl  Cl10  1  0.00000000  0.00000000  0.32922500  1
  Cl  Cl11  1  0.50000000  0.50000000  0.32922500  1
  O  O12  1  0.00000000  0.50000000  0.81150400  1
  O  O13  1  0.50000000  0.00000000  0.81150400  1
  O  O14  1  0.62949100  0.87050900  0.41048700  1
  O  O15  1  0.87050900  0.37050900  0.41048700  1
  O  O16  1  0.12949100  0.62949100  0.41048700  1
  O  O17  1  0.37050900  0.12949100  0.41048700  1
  O  O18  1  0.92050250  0.20795100  0.83884900  1
  O  O19  1  0.70795100  0.42050250  0.83884900  1
  O  O20  1  0.79204900  0.92050250  0.83884900  1
  O  O21  1  0.42050250  0.29204900  0.83884900  1
  O  O22  1  0.57949750  0.70795100  0.83884900  1
  O  O23  1  0.29204900  0.57949750  0.83884900  1
  O  O24  1  0.07949750  0.79204900  0.83884900  1
  O  O25  1  0.20795100  0.07949750  0.83884900  1
