# generated using pymatgen
data_Ho(Mo3S4)2
_symmetry_space_group_name_H-M   'P 1'
_cell_length_a   9.12720829
_cell_length_b   9.12720829
_cell_length_c   11.36372412
_cell_angle_alpha   90.00000000
_cell_angle_beta   90.00000000
_cell_angle_gamma   120.00000000
_symmetry_Int_Tables_number   1
_chemical_formula_structural   Ho(Mo3S4)2
_chemical_formula_sum   'Ho3 Mo18 S24'
_cell_volume   819.83647608
_cell_formula_units_Z   3
loop_
 _symmetry_equiv_pos_site_id
 _symmetry_equiv_pos_as_xyz
  1  'x, y, z'
loop_
 _atom_site_type_symbol
 _atom_site_label
 _atom_site_symmetry_multiplicity
 _atom_site_fract_x
 _atom_site_fract_y
 _atom_site_fract_z
 _atom_site_occupancy
  Ho  Ho0  1  0.00000000  0.00000000  0.00000000  1
  Ho  Ho1  1  0.66666667  0.33333333  0.33333333  1
  Ho  Ho2  1  0.33333333  0.66666667  0.66666667  1
  Mo  Mo3  1  0.15495067  0.64769733  0.06769233  1
  Mo  Mo4  1  0.49274667  0.84504933  0.06769233  1
  Mo  Mo5  1  0.51171600  0.68563600  0.26564100  1
  Mo  Mo6  1  0.35230267  0.50725333  0.06769233  1
  Mo  Mo7  1  0.17392000  0.48828400  0.26564100  1
  Mo  Mo8  1  0.31436400  0.82608000  0.26564100  1
  Mo  Mo9  1  0.82161733  0.98103067  0.40102567  1
  Mo  Mo10  1  0.15941333  0.17838267  0.40102567  1
  Mo  Mo11  1  0.17838267  0.01896933  0.59897433  1
  Mo  Mo12  1  0.01896933  0.84058667  0.40102567  1
  Mo  Mo13  1  0.84058667  0.82161733  0.59897433  1
  Mo  Mo14  1  0.98103067  0.15941333  0.59897433  1
  Mo  Mo15  1  0.48828400  0.31436400  0.73435900  1
  Mo  Mo16  1  0.82608000  0.51171600  0.73435900  1
  Mo  Mo17  1  0.84504933  0.35230267  0.93230767  1
  Mo  Mo18  1  0.68563600  0.17392000  0.73435900  1
  Mo  Mo19  1  0.50725333  0.15495067  0.93230767  1
  Mo  Mo20  1  0.64769733  0.49274667  0.93230767  1
  S  S21  1  0.62195533  0.00347367  0.25004367  1
  S  S22  1  0.67014033  0.71485167  0.08328967  1
  S  S23  1  0.04471133  0.32985967  0.08328967  1
  S  S24  1  0.33333333  0.66666667  0.42881167  1
  S  S25  1  0.38151833  0.37804467  0.25004367  1
  S  S26  1  0.99652633  0.61848167  0.25004367  1
  S  S27  1  0.33333333  0.66666667  0.90452167  1
  S  S28  1  0.28514833  0.95528867  0.08328967  1
  S  S29  1  0.28862200  0.33680700  0.58337700  1
  S  S30  1  0.33680700  0.04818500  0.41662300  1
  S  S31  1  0.71137800  0.66319300  0.41662300  1
  S  S32  1  0.00000000  0.00000000  0.76214500  1
  S  S33  1  0.04818500  0.71137800  0.58337700  1
  S  S34  1  0.66319300  0.95181500  0.58337700  1
  S  S35  1  0.00000000  0.00000000  0.23785500  1
  S  S36  1  0.95181500  0.28862200  0.41662300  1
  S  S37  1  0.95528867  0.67014033  0.91671033  1
  S  S38  1  0.00347367  0.38151833  0.74995633  1
  S  S39  1  0.37804467  0.99652633  0.74995633  1
  S  S40  1  0.66666667  0.33333333  0.09547833  1
  S  S41  1  0.71485167  0.04471133  0.91671033  1
  S  S42  1  0.32985967  0.28514833  0.91671033  1
  S  S43  1  0.66666667  0.33333333  0.57118833  1
  S  S44  1  0.61848167  0.62195533  0.74995633  1
