# generated using pymatgen
data_Tm2MoO6
_symmetry_space_group_name_H-M   'P 1'
_cell_length_a   16.33602600
_cell_length_b   10.98878200
_cell_length_c   5.32900896
_cell_angle_alpha   90.00000000
_cell_angle_beta   108.30704832
_cell_angle_gamma   90.00000000
_symmetry_Int_Tables_number   1
_chemical_formula_structural   Tm2MoO6
_chemical_formula_sum   'Tm16 Mo8 O48'
_cell_volume   908.20864927
_cell_formula_units_Z   8
loop_
 _symmetry_equiv_pos_site_id
 _symmetry_equiv_pos_as_xyz
  1  'x, y, z'
loop_
 _atom_site_type_symbol
 _atom_site_label
 _atom_site_symmetry_multiplicity
 _atom_site_fract_x
 _atom_site_fract_y
 _atom_site_fract_z
 _atom_site_occupancy
  Tm  Tm0  1  0.66682900  0.11554300  0.37655200  1
  Tm  Tm1  1  0.66682900  0.88445700  0.87655200  1
  Tm  Tm2  1  0.33317100  0.88445700  0.62344800  1
  Tm  Tm3  1  0.33317100  0.11554300  0.12344800  1
  Tm  Tm4  1  0.50000000  0.63735200  0.75000000  1
  Tm  Tm5  1  0.50000000  0.36264800  0.25000000  1
  Tm  Tm6  1  0.50000000  0.10524700  0.75000000  1
  Tm  Tm7  1  0.50000000  0.89475300  0.25000000  1
  Tm  Tm8  1  0.16682900  0.61554300  0.37655200  1
  Tm  Tm9  1  0.16682900  0.38445700  0.87655200  1
  Tm  Tm10  1  0.83317100  0.38445700  0.62344800  1
  Tm  Tm11  1  0.83317100  0.61554300  0.12344800  1
  Tm  Tm12  1  0.00000000  0.13735200  0.75000000  1
  Tm  Tm13  1  0.00000000  0.86264800  0.25000000  1
  Tm  Tm14  1  0.00000000  0.60524700  0.75000000  1
  Tm  Tm15  1  0.00000000  0.39475300  0.25000000  1
  Mo  Mo16  1  0.15434250  0.85874150  0.93873000  1
  Mo  Mo17  1  0.84565750  0.85874150  0.56127000  1
  Mo  Mo18  1  0.84565750  0.14125850  0.06127000  1
  Mo  Mo19  1  0.15434250  0.14125850  0.43873000  1
  Mo  Mo20  1  0.65434250  0.35874150  0.93873000  1
  Mo  Mo21  1  0.34565750  0.35874150  0.56127000  1
  Mo  Mo22  1  0.34565750  0.64125850  0.06127000  1
  Mo  Mo23  1  0.65434250  0.64125850  0.43873000  1
  O  O24  1  0.59089050  0.98107250  0.07768600  1
  O  O25  1  0.40910950  0.98107250  0.42231400  1
  O  O26  1  0.40910950  0.01892750  0.92231400  1
  O  O27  1  0.59089050  0.01892750  0.57768600  1
  O  O28  1  0.57144750  0.23385350  0.08066900  1
  O  O29  1  0.42855250  0.23385350  0.41933100  1
  O  O30  1  0.42855250  0.76614650  0.91933100  1
  O  O31  1  0.57144750  0.76614650  0.58066900  1
  O  O32  1  0.60512000  0.27929900  0.62297900  1
  O  O33  1  0.39488000  0.27929900  0.87702100  1
  O  O34  1  0.39488000  0.72070100  0.37702100  1
  O  O35  1  0.60512000  0.72070100  0.12297900  1
  O  O36  1  0.23832450  0.05129750  0.36438200  1
  O  O37  1  0.76167550  0.05129750  0.13561800  1
  O  O38  1  0.76167550  0.94870250  0.63561800  1
  O  O39  1  0.23832450  0.94870250  0.86438200  1
  O  O40  1  0.07875950  0.02953750  0.48743400  1
  O  O41  1  0.92124050  0.02953750  0.01256600  1
  O  O42  1  0.22875350  0.79538450  0.24854700  1
  O  O43  1  0.07875950  0.97046250  0.98743400  1
  O  O44  1  0.22875350  0.20461550  0.74854700  1
  O  O45  1  0.77124650  0.20461550  0.75145300  1
  O  O46  1  0.77124650  0.79538450  0.25145300  1
  O  O47  1  0.92124050  0.97046250  0.51256600  1
  O  O48  1  0.09089050  0.48107250  0.07768600  1
  O  O49  1  0.90910950  0.48107250  0.42231400  1
  O  O50  1  0.90910950  0.51892750  0.92231400  1
  O  O51  1  0.09089050  0.51892750  0.57768600  1
  O  O52  1  0.07144750  0.73385350  0.08066900  1
  O  O53  1  0.92855250  0.73385350  0.41933100  1
  O  O54  1  0.92855250  0.26614650  0.91933100  1
  O  O55  1  0.07144750  0.26614650  0.58066900  1
  O  O56  1  0.10512000  0.77929900  0.62297900  1
  O  O57  1  0.89488000  0.77929900  0.87702100  1
  O  O58  1  0.89488000  0.22070100  0.37702100  1
  O  O59  1  0.10512000  0.22070100  0.12297900  1
  O  O60  1  0.73832450  0.55129750  0.36438200  1
  O  O61  1  0.26167550  0.55129750  0.13561800  1
  O  O62  1  0.26167550  0.44870250  0.63561800  1
  O  O63  1  0.73832450  0.44870250  0.86438200  1
  O  O64  1  0.57875950  0.52953750  0.48743400  1
  O  O65  1  0.42124050  0.52953750  0.01256600  1
  O  O66  1  0.72875350  0.29538450  0.24854700  1
  O  O67  1  0.57875950  0.47046250  0.98743400  1
  O  O68  1  0.72875350  0.70461550  0.74854700  1
  O  O69  1  0.27124650  0.70461550  0.75145300  1
  O  O70  1  0.27124650  0.29538450  0.25145300  1
  O  O71  1  0.42124050  0.47046250  0.51256600  1
