# generated using pymatgen
data_KCrF6
_symmetry_space_group_name_H-M   'P 1'
_cell_length_a   7.55410661
_cell_length_b   7.55410661
_cell_length_c   7.37128983
_cell_angle_alpha   90.00000000
_cell_angle_beta   90.00000000
_cell_angle_gamma   120.00000000
_symmetry_Int_Tables_number   1
_chemical_formula_structural   KCrF6
_chemical_formula_sum   'K3 Cr3 F18'
_cell_volume   364.28420276
_cell_formula_units_Z   3
loop_
 _symmetry_equiv_pos_site_id
 _symmetry_equiv_pos_as_xyz
  1  'x, y, z'
loop_
 _atom_site_type_symbol
 _atom_site_label
 _atom_site_symmetry_multiplicity
 _atom_site_fract_x
 _atom_site_fract_y
 _atom_site_fract_z
 _atom_site_occupancy
  K  K0  1  0.00000000  0.00000000  0.00000000  1
  K  K1  1  0.66666667  0.33333333  0.33333333  1
  K  K2  1  0.33333333  0.66666667  0.66666667  1
  Cr  Cr3  1  0.00000000  0.00000000  0.50000000  1
  Cr  Cr4  1  0.66666667  0.33333333  0.83333333  1
  Cr  Cr5  1  0.33333333  0.66666667  0.16666667  1
  F  F6  1  0.77650533  0.86686067  0.64145267  1
  F  F7  1  0.09035533  0.22349467  0.64145267  1
  F  F8  1  0.86686067  0.09035533  0.35854733  1
  F  F9  1  0.90964467  0.77650533  0.35854733  1
  F  F10  1  0.22349467  0.13313933  0.35854733  1
  F  F11  1  0.13313933  0.90964467  0.64145267  1
  F  F12  1  0.44317200  0.20019400  0.97478600  1
  F  F13  1  0.75702200  0.55682800  0.97478600  1
  F  F14  1  0.53352733  0.42368867  0.69188067  1
  F  F15  1  0.57631133  0.10983867  0.69188067  1
  F  F16  1  0.89016133  0.46647267  0.69188067  1
  F  F17  1  0.79980600  0.24297800  0.97478600  1
  F  F18  1  0.10983867  0.53352733  0.30811933  1
  F  F19  1  0.42368867  0.89016133  0.30811933  1
  F  F20  1  0.20019400  0.75702200  0.02521400  1
  F  F21  1  0.24297800  0.44317200  0.02521400  1
  F  F22  1  0.55682800  0.79980600  0.02521400  1
  F  F23  1  0.46647267  0.57631133  0.30811933  1
