# generated using pymatgen
data_MnAs2F12
_symmetry_space_group_name_H-M   'P 1'
_cell_length_a   7.67931000
_cell_length_b   7.67931000
_cell_length_c   15.60596800
_cell_angle_alpha   90.00000000
_cell_angle_beta   90.00000000
_cell_angle_gamma   90.00000000
_symmetry_Int_Tables_number   1
_chemical_formula_structural   MnAs2F12
_chemical_formula_sum   'Mn4 As8 F48'
_cell_volume   920.31205610
_cell_formula_units_Z   4
loop_
 _symmetry_equiv_pos_site_id
 _symmetry_equiv_pos_as_xyz
  1  'x, y, z'
loop_
 _atom_site_type_symbol
 _atom_site_label
 _atom_site_symmetry_multiplicity
 _atom_site_fract_x
 _atom_site_fract_y
 _atom_site_fract_z
 _atom_site_occupancy
  Mn  Mn0  1  0.00000000  0.50000000  0.25000000  1
  Mn  Mn1  1  0.00000000  0.00000000  0.00000000  1
  Mn  Mn2  1  0.50000000  0.00000000  0.75000000  1
  Mn  Mn3  1  0.50000000  0.50000000  0.50000000  1
  As  As4  1  0.50000000  0.50000000  0.27894800  1
  As  As5  1  0.00000000  0.00000000  0.22105200  1
  As  As6  1  0.00000000  0.50000000  0.47105200  1
  As  As7  1  0.00000000  0.50000000  0.02894800  1
  As  As8  1  0.00000000  0.00000000  0.77894800  1
  As  As9  1  0.50000000  0.50000000  0.72105200  1
  As  As10  1  0.50000000  0.00000000  0.97105200  1
  As  As11  1  0.50000000  0.00000000  0.52894800  1
  F  F12  1  0.53680150  0.66176250  0.20421750  1
  F  F13  1  0.46319850  0.33823750  0.20421750  1
  F  F14  1  0.33823750  0.96319850  0.45421750  1
  F  F15  1  0.83823750  0.03680150  0.29578250  1
  F  F16  1  0.16176250  0.96319850  0.29578250  1
  F  F17  1  0.46319850  0.16176250  0.04578250  1
  F  F18  1  0.15201900  0.53378600  0.11455600  1
  F  F19  1  0.03378600  0.34798100  0.38544400  1
  F  F20  1  0.96621400  0.65201900  0.38544400  1
  F  F21  1  0.15201900  0.96621400  0.13544400  1
  F  F22  1  0.84798100  0.03378600  0.13544400  1
  F  F23  1  0.84798100  0.46621400  0.11455600  1
  F  F24  1  0.46621400  0.34798100  0.36455600  1
  F  F25  1  0.53378600  0.65201900  0.36455600  1
  F  F26  1  0.05349800  0.26919000  0.03165500  1
  F  F27  1  0.76919000  0.44650200  0.46834500  1
  F  F28  1  0.23081000  0.55349800  0.46834500  1
  F  F29  1  0.05349800  0.23081000  0.21834500  1
  F  F30  1  0.94650200  0.76919000  0.21834500  1
  F  F31  1  0.94650200  0.73081000  0.03165500  1
  F  F32  1  0.73081000  0.44650200  0.28165500  1
  F  F33  1  0.26919000  0.55349800  0.28165500  1
  F  F34  1  0.66176250  0.03680150  0.45421750  1
  F  F35  1  0.53680150  0.83823750  0.04578250  1
  F  F36  1  0.03680150  0.16176250  0.70421750  1
  F  F37  1  0.96319850  0.83823750  0.70421750  1
  F  F38  1  0.83823750  0.46319850  0.95421750  1
  F  F39  1  0.33823750  0.53680150  0.79578250  1
  F  F40  1  0.66176250  0.46319850  0.79578250  1
  F  F41  1  0.96319850  0.66176250  0.54578250  1
  F  F42  1  0.65201900  0.03378600  0.61455600  1
  F  F43  1  0.53378600  0.84798100  0.88544400  1
  F  F44  1  0.46621400  0.15201900  0.88544400  1
  F  F45  1  0.65201900  0.46621400  0.63544400  1
  F  F46  1  0.34798100  0.53378600  0.63544400  1
  F  F47  1  0.34798100  0.96621400  0.61455600  1
  F  F48  1  0.96621400  0.84798100  0.86455600  1
  F  F49  1  0.03378600  0.15201900  0.86455600  1
  F  F50  1  0.55349800  0.76919000  0.53165500  1
  F  F51  1  0.26919000  0.94650200  0.96834500  1
  F  F52  1  0.73081000  0.05349800  0.96834500  1
  F  F53  1  0.55349800  0.73081000  0.71834500  1
  F  F54  1  0.44650200  0.26919000  0.71834500  1
  F  F55  1  0.44650200  0.23081000  0.53165500  1
  F  F56  1  0.23081000  0.94650200  0.78165500  1
  F  F57  1  0.76919000  0.05349800  0.78165500  1
  F  F58  1  0.16176250  0.53680150  0.95421750  1
  F  F59  1  0.03680150  0.33823750  0.54578250  1
