# generated using pymatgen
data_K2Ni(MoO4)2
_symmetry_space_group_name_H-M   'P 1'
_cell_length_a   8.59385600
_cell_length_b   19.36291800
_cell_length_c   11.06808700
_cell_angle_alpha   90.00000000
_cell_angle_beta   90.00000000
_cell_angle_gamma   90.00000000
_symmetry_Int_Tables_number   1
_chemical_formula_structural   K2Ni(MoO4)2
_chemical_formula_sum   'K16 Ni8 Mo16 O64'
_cell_volume   1841.75324111
_cell_formula_units_Z   8
loop_
 _symmetry_equiv_pos_site_id
 _symmetry_equiv_pos_as_xyz
  1  'x, y, z'
loop_
 _atom_site_type_symbol
 _atom_site_label
 _atom_site_symmetry_multiplicity
 _atom_site_fract_x
 _atom_site_fract_y
 _atom_site_fract_z
 _atom_site_occupancy
  K  K0  1  0.75000000  0.78623100  0.75000000  1
  K  K1  1  0.50000000  0.63145500  0.56969900  1
  K  K2  1  0.00000000  0.63145500  0.93030100  1
  K  K3  1  0.75000000  0.71376900  0.25000000  1
  K  K4  1  0.25000000  0.71376900  0.25000000  1
  K  K5  1  0.50000000  0.86854500  0.06969900  1
  K  K6  1  0.25000000  0.78623100  0.75000000  1
  K  K7  1  0.00000000  0.86854500  0.43030100  1
  K  K8  1  0.25000000  0.28623100  0.75000000  1
  K  K9  1  0.00000000  0.13145500  0.56969900  1
  K  K10  1  0.50000000  0.13145500  0.93030100  1
  K  K11  1  0.25000000  0.21376900  0.25000000  1
  K  K12  1  0.75000000  0.21376900  0.25000000  1
  K  K13  1  0.00000000  0.36854500  0.06969900  1
  K  K14  1  0.75000000  0.28623100  0.75000000  1
  K  K15  1  0.50000000  0.36854500  0.43030100  1
  Ni  Ni16  1  0.17841900  0.50000000  0.50000000  1
  Ni  Ni17  1  0.67841900  0.50000000  0.00000000  1
  Ni  Ni18  1  0.82158100  0.50000000  0.50000000  1
  Ni  Ni19  1  0.32158100  0.50000000  0.00000000  1
  Ni  Ni20  1  0.67841900  0.00000000  0.50000000  1
  Ni  Ni21  1  0.17841900  0.00000000  0.00000000  1
  Ni  Ni22  1  0.32158100  0.00000000  0.50000000  1
  Ni  Ni23  1  0.82158100  0.00000000  0.00000000  1
  Mo  Mo24  1  0.00000000  0.96860000  0.71644800  1
  Mo  Mo25  1  0.50000000  0.53140000  0.28355200  1
  Mo  Mo26  1  0.50000000  0.65683200  0.96505100  1
  Mo  Mo27  1  0.50000000  0.96860000  0.78355200  1
  Mo  Mo28  1  0.00000000  0.84316800  0.03494900  1
  Mo  Mo29  1  0.00000000  0.53140000  0.21644800  1
  Mo  Mo30  1  0.50000000  0.84316800  0.46505100  1
  Mo  Mo31  1  0.00000000  0.65683200  0.53494900  1
  Mo  Mo32  1  0.50000000  0.46860000  0.71644800  1
  Mo  Mo33  1  0.00000000  0.03140000  0.28355200  1
  Mo  Mo34  1  0.00000000  0.15683200  0.96505100  1
  Mo  Mo35  1  0.00000000  0.46860000  0.78355200  1
  Mo  Mo36  1  0.50000000  0.34316800  0.03494900  1
  Mo  Mo37  1  0.50000000  0.03140000  0.21644800  1
  Mo  Mo38  1  0.00000000  0.34316800  0.46505100  1
  Mo  Mo39  1  0.50000000  0.15683200  0.53494900  1
  O  O40  1  0.16302650  0.50153650  0.86463400  1
  O  O41  1  0.32379900  0.60882800  0.99936400  1
  O  O42  1  0.00000000  0.50087800  0.62666000  1
  O  O43  1  0.33697350  0.99846350  0.13536600  1
  O  O44  1  0.00000000  0.62303600  0.20631800  1
  O  O45  1  0.50000000  0.62303600  0.29368200  1
  O  O46  1  0.66302650  0.99846350  0.13536600  1
  O  O47  1  0.50000000  0.73254200  0.05743400  1
  O  O48  1  0.16302650  0.99846350  0.36463400  1
  O  O49  1  0.67620100  0.60882800  0.99936400  1
  O  O50  1  0.50000000  0.76745800  0.55743400  1
  O  O51  1  0.00000000  0.81537800  0.18955600  1
  O  O52  1  0.00000000  0.87696400  0.70631800  1
  O  O53  1  0.82379900  0.60882800  0.50063600  1
  O  O54  1  0.83697350  0.50153650  0.86463400  1
  O  O55  1  0.50000000  0.87696400  0.79368200  1
  O  O56  1  0.82379900  0.89117200  0.00063600  1
  O  O57  1  0.17620100  0.60882800  0.50063600  1
  O  O58  1  0.00000000  0.99912200  0.12666000  1
  O  O59  1  0.67620100  0.89117200  0.49936400  1
  O  O60  1  0.50000000  0.99912200  0.37334000  1
  O  O61  1  0.00000000  0.68462200  0.68955600  1
  O  O62  1  0.00000000  0.73254200  0.44256600  1
  O  O63  1  0.83697350  0.99846350  0.36463400  1
  O  O64  1  0.50000000  0.50087800  0.87334000  1
  O  O65  1  0.50000000  0.81537800  0.31044400  1
  O  O66  1  0.66302650  0.50153650  0.63536600  1
  O  O67  1  0.50000000  0.68462200  0.81044400  1
  O  O68  1  0.32379900  0.89117200  0.49936400  1
  O  O69  1  0.00000000  0.76745800  0.94256600  1
  O  O70  1  0.17620100  0.89117200  0.00063600  1
  O  O71  1  0.33697350  0.50153650  0.63536600  1
  O  O72  1  0.66302650  0.00153650  0.86463400  1
  O  O73  1  0.82379900  0.10882800  0.99936400  1
  O  O74  1  0.50000000  0.00087800  0.62666000  1
  O  O75  1  0.83697350  0.49846350  0.13536600  1
  O  O76  1  0.50000000  0.12303600  0.20631800  1
  O  O77  1  0.00000000  0.12303600  0.29368200  1
  O  O78  1  0.16302650  0.49846350  0.13536600  1
  O  O79  1  0.00000000  0.23254200  0.05743400  1
  O  O80  1  0.66302650  0.49846350  0.36463400  1
  O  O81  1  0.17620100  0.10882800  0.99936400  1
  O  O82  1  0.00000000  0.26745800  0.55743400  1
  O  O83  1  0.50000000  0.31537800  0.18955600  1
  O  O84  1  0.50000000  0.37696400  0.70631800  1
  O  O85  1  0.32379900  0.10882800  0.50063600  1
  O  O86  1  0.33697350  0.00153650  0.86463400  1
  O  O87  1  0.00000000  0.37696400  0.79368200  1
  O  O88  1  0.32379900  0.39117200  0.00063600  1
  O  O89  1  0.67620100  0.10882800  0.50063600  1
  O  O90  1  0.50000000  0.49912200  0.12666000  1
  O  O91  1  0.17620100  0.39117200  0.49936400  1
  O  O92  1  0.00000000  0.49912200  0.37334000  1
  O  O93  1  0.50000000  0.18462200  0.68955600  1
  O  O94  1  0.50000000  0.23254200  0.44256600  1
  O  O95  1  0.33697350  0.49846350  0.36463400  1
  O  O96  1  0.00000000  0.00087800  0.87334000  1
  O  O97  1  0.00000000  0.31537800  0.31044400  1
  O  O98  1  0.16302650  0.00153650  0.63536600  1
  O  O99  1  0.00000000  0.18462200  0.81044400  1
  O  O100  1  0.82379900  0.39117200  0.49936400  1
  O  O101  1  0.50000000  0.26745800  0.94256600  1
  O  O102  1  0.67620100  0.39117200  0.00063600  1
  O  O103  1  0.83697350  0.00153650  0.63536600  1
