# generated using pymatgen
data_Ta3SiNi2
_symmetry_space_group_name_H-M   'P 1'
_cell_length_a   11.18964800
_cell_length_b   11.18964800
_cell_length_c   11.18964800
_cell_angle_alpha   90.00000000
_cell_angle_beta   90.00000000
_cell_angle_gamma   90.00000000
_symmetry_Int_Tables_number   1
_chemical_formula_structural   Ta3SiNi2
_chemical_formula_sum   'Ta48 Si16 Ni32'
_cell_volume   1401.03593496
_cell_formula_units_Z   16
loop_
 _symmetry_equiv_pos_site_id
 _symmetry_equiv_pos_as_xyz
  1  'x, y, z'
loop_
 _atom_site_type_symbol
 _atom_site_label
 _atom_site_symmetry_multiplicity
 _atom_site_fract_x
 _atom_site_fract_y
 _atom_site_fract_z
 _atom_site_occupancy
  Ta  Ta0  1  0.50000000  0.20197400  0.50000000  1
  Ta  Ta1  1  0.04802600  0.25000000  0.25000000  1
  Ta  Ta2  1  0.45197400  0.25000000  0.25000000  1
  Ta  Ta3  1  0.25000000  0.45197400  0.25000000  1
  Ta  Ta4  1  0.25000000  0.25000000  0.04802600  1
  Ta  Ta5  1  0.25000000  0.25000000  0.45197400  1
  Ta  Ta6  1  0.00000000  0.00000000  0.20197400  1
  Ta  Ta7  1  0.70197400  0.00000000  0.50000000  1
  Ta  Ta8  1  0.29802600  0.00000000  0.50000000  1
  Ta  Ta9  1  0.50000000  0.00000000  0.29802600  1
  Ta  Ta10  1  0.25000000  0.04802600  0.25000000  1
  Ta  Ta11  1  0.50000000  0.79802600  0.50000000  1
  Ta  Ta12  1  0.50000000  0.70197400  0.00000000  1
  Ta  Ta13  1  0.04802600  0.75000000  0.75000000  1
  Ta  Ta14  1  0.45197400  0.75000000  0.75000000  1
  Ta  Ta15  1  0.25000000  0.95197400  0.75000000  1
  Ta  Ta16  1  0.25000000  0.75000000  0.54802600  1
  Ta  Ta17  1  0.25000000  0.75000000  0.95197400  1
  Ta  Ta18  1  0.00000000  0.50000000  0.70197400  1
  Ta  Ta19  1  0.70197400  0.50000000  0.00000000  1
  Ta  Ta20  1  0.29802600  0.50000000  0.00000000  1
  Ta  Ta21  1  0.50000000  0.50000000  0.79802600  1
  Ta  Ta22  1  0.25000000  0.54802600  0.75000000  1
  Ta  Ta23  1  0.50000000  0.29802600  0.00000000  1
  Ta  Ta24  1  0.00000000  0.20197400  0.00000000  1
  Ta  Ta25  1  0.54802600  0.25000000  0.75000000  1
  Ta  Ta26  1  0.95197400  0.25000000  0.75000000  1
  Ta  Ta27  1  0.75000000  0.45197400  0.75000000  1
  Ta  Ta28  1  0.75000000  0.25000000  0.54802600  1
  Ta  Ta29  1  0.75000000  0.25000000  0.95197400  1
  Ta  Ta30  1  0.50000000  0.00000000  0.70197400  1
  Ta  Ta31  1  0.20197400  0.00000000  0.00000000  1
  Ta  Ta32  1  0.79802600  0.00000000  0.00000000  1
  Ta  Ta33  1  0.00000000  0.00000000  0.79802600  1
  Ta  Ta34  1  0.75000000  0.04802600  0.75000000  1
  Ta  Ta35  1  0.00000000  0.79802600  0.00000000  1
  Ta  Ta36  1  0.00000000  0.70197400  0.50000000  1
  Ta  Ta37  1  0.54802600  0.75000000  0.25000000  1
  Ta  Ta38  1  0.95197400  0.75000000  0.25000000  1
  Ta  Ta39  1  0.75000000  0.95197400  0.25000000  1
  Ta  Ta40  1  0.75000000  0.75000000  0.04802600  1
  Ta  Ta41  1  0.75000000  0.75000000  0.45197400  1
  Ta  Ta42  1  0.50000000  0.50000000  0.20197400  1
  Ta  Ta43  1  0.20197400  0.50000000  0.50000000  1
  Ta  Ta44  1  0.79802600  0.50000000  0.50000000  1
  Ta  Ta45  1  0.00000000  0.50000000  0.29802600  1
  Ta  Ta46  1  0.75000000  0.54802600  0.25000000  1
  Ta  Ta47  1  0.00000000  0.29802600  0.50000000  1
  Si  Si48  1  0.12500000  0.62500000  0.12500000  1
  Si  Si49  1  0.12500000  0.87500000  0.37500000  1
  Si  Si50  1  0.37500000  0.62500000  0.37500000  1
  Si  Si51  1  0.37500000  0.87500000  0.12500000  1
  Si  Si52  1  0.12500000  0.12500000  0.62500000  1
  Si  Si53  1  0.12500000  0.37500000  0.87500000  1
  Si  Si54  1  0.37500000  0.12500000  0.87500000  1
  Si  Si55  1  0.37500000  0.37500000  0.62500000  1
  Si  Si56  1  0.62500000  0.62500000  0.62500000  1
  Si  Si57  1  0.62500000  0.87500000  0.87500000  1
  Si  Si58  1  0.87500000  0.62500000  0.87500000  1
  Si  Si59  1  0.87500000  0.87500000  0.62500000  1
  Si  Si60  1  0.62500000  0.12500000  0.12500000  1
  Si  Si61  1  0.62500000  0.37500000  0.37500000  1
  Si  Si62  1  0.87500000  0.12500000  0.37500000  1
  Si  Si63  1  0.87500000  0.37500000  0.12500000  1
  Ni  Ni64  1  0.33263900  0.83263900  0.33263900  1
  Ni  Ni65  1  0.41736100  0.08263900  0.08263900  1
  Ni  Ni66  1  0.08263900  0.41736100  0.08263900  1
  Ni  Ni67  1  0.08263900  0.08263900  0.41736100  1
  Ni  Ni68  1  0.16736100  0.83263900  0.16736100  1
  Ni  Ni69  1  0.16736100  0.66736100  0.33263900  1
  Ni  Ni70  1  0.33263900  0.66736100  0.16736100  1
  Ni  Ni71  1  0.41736100  0.41736100  0.41736100  1
  Ni  Ni72  1  0.33263900  0.33263900  0.83263900  1
  Ni  Ni73  1  0.41736100  0.58263900  0.58263900  1
  Ni  Ni74  1  0.08263900  0.91736100  0.58263900  1
  Ni  Ni75  1  0.08263900  0.58263900  0.91736100  1
  Ni  Ni76  1  0.16736100  0.33263900  0.66736100  1
  Ni  Ni77  1  0.16736100  0.16736100  0.83263900  1
  Ni  Ni78  1  0.33263900  0.16736100  0.66736100  1
  Ni  Ni79  1  0.41736100  0.91736100  0.91736100  1
  Ni  Ni80  1  0.83263900  0.83263900  0.83263900  1
  Ni  Ni81  1  0.91736100  0.08263900  0.58263900  1
  Ni  Ni82  1  0.58263900  0.41736100  0.58263900  1
  Ni  Ni83  1  0.58263900  0.08263900  0.91736100  1
  Ni  Ni84  1  0.66736100  0.83263900  0.66736100  1
  Ni  Ni85  1  0.66736100  0.66736100  0.83263900  1
  Ni  Ni86  1  0.83263900  0.66736100  0.66736100  1
  Ni  Ni87  1  0.91736100  0.41736100  0.91736100  1
  Ni  Ni88  1  0.83263900  0.33263900  0.33263900  1
  Ni  Ni89  1  0.91736100  0.58263900  0.08263900  1
  Ni  Ni90  1  0.58263900  0.91736100  0.08263900  1
  Ni  Ni91  1  0.58263900  0.58263900  0.41736100  1
  Ni  Ni92  1  0.66736100  0.33263900  0.16736100  1
  Ni  Ni93  1  0.66736100  0.16736100  0.33263900  1
  Ni  Ni94  1  0.83263900  0.16736100  0.16736100  1
  Ni  Ni95  1  0.91736100  0.91736100  0.41736100  1
