# generated using pymatgen
data_Yb2(ZnGe)3
_symmetry_space_group_name_H-M   'P 1'
_cell_length_a   15.88727600
_cell_length_b   4.31031000
_cell_length_c   11.62030818
_cell_angle_alpha   90.00000000
_cell_angle_beta   126.67305450
_cell_angle_gamma   90.00000000
_symmetry_Int_Tables_number   1
_chemical_formula_structural   Yb2(ZnGe)3
_chemical_formula_sum   'Yb8 Zn12 Ge12'
_cell_volume   638.23499808
_cell_formula_units_Z   4
loop_
 _symmetry_equiv_pos_site_id
 _symmetry_equiv_pos_as_xyz
  1  'x, y, z'
loop_
 _atom_site_type_symbol
 _atom_site_label
 _atom_site_symmetry_multiplicity
 _atom_site_fract_x
 _atom_site_fract_y
 _atom_site_fract_z
 _atom_site_occupancy
  Yb  Yb0  1  0.93241400  0.50000000  0.09005500  1
  Yb  Yb1  1  0.06758600  0.50000000  0.90994500  1
  Yb  Yb2  1  0.73885800  0.00000000  0.33347300  1
  Yb  Yb3  1  0.26114200  0.00000000  0.66652700  1
  Yb  Yb4  1  0.43241400  0.00000000  0.09005500  1
  Yb  Yb5  1  0.56758600  0.00000000  0.90994500  1
  Yb  Yb6  1  0.23885800  0.50000000  0.33347300  1
  Yb  Yb7  1  0.76114200  0.50000000  0.66652700  1
  Zn  Zn8  1  0.73206400  0.50000000  0.10160300  1
  Zn  Zn9  1  0.93805900  0.00000000  0.67530100  1
  Zn  Zn10  1  0.26793600  0.50000000  0.89839700  1
  Zn  Zn11  1  0.08022300  0.50000000  0.64220000  1
  Zn  Zn12  1  0.06194100  0.00000000  0.32469900  1
  Zn  Zn13  1  0.91977700  0.50000000  0.35780000  1
  Zn  Zn14  1  0.23206400  0.00000000  0.10160300  1
  Zn  Zn15  1  0.43805900  0.50000000  0.67530100  1
  Zn  Zn16  1  0.76793600  0.00000000  0.89839700  1
  Zn  Zn17  1  0.58022300  0.00000000  0.64220000  1
  Zn  Zn18  1  0.56194100  0.50000000  0.32469900  1
  Zn  Zn19  1  0.41977700  0.00000000  0.35780000  1
  Ge  Ge20  1  0.58367900  0.50000000  0.12266000  1
  Ge  Ge21  1  0.15431200  0.00000000  0.82326600  1
  Ge  Ge22  1  0.41632100  0.50000000  0.87734000  1
  Ge  Ge23  1  0.88271500  0.50000000  0.54105700  1
  Ge  Ge24  1  0.84568800  0.00000000  0.17673400  1
  Ge  Ge25  1  0.11728500  0.50000000  0.45894300  1
  Ge  Ge26  1  0.08367900  0.00000000  0.12266000  1
  Ge  Ge27  1  0.65431200  0.50000000  0.82326600  1
  Ge  Ge28  1  0.91632100  0.00000000  0.87734000  1
  Ge  Ge29  1  0.38271500  0.00000000  0.54105700  1
  Ge  Ge30  1  0.34568800  0.50000000  0.17673400  1
  Ge  Ge31  1  0.61728500  0.00000000  0.45894300  1
