# generated using pymatgen
data_YbIn4Pd
_symmetry_space_group_name_H-M   'P 1'
_cell_length_a   4.48987400
_cell_length_b   16.86226000
_cell_length_c   7.63680400
_cell_angle_alpha   90.00000000
_cell_angle_beta   90.00000000
_cell_angle_gamma   90.00000000
_symmetry_Int_Tables_number   1
_chemical_formula_structural   YbIn4Pd
_chemical_formula_sum   'Yb4 In16 Pd4'
_cell_volume   578.17802253
_cell_formula_units_Z   4
loop_
 _symmetry_equiv_pos_site_id
 _symmetry_equiv_pos_as_xyz
  1  'x, y, z'
loop_
 _atom_site_type_symbol
 _atom_site_label
 _atom_site_symmetry_multiplicity
 _atom_site_fract_x
 _atom_site_fract_y
 _atom_site_fract_z
 _atom_site_occupancy
  Yb  Yb0  1  0.00000000  0.87177300  0.75000000  1
  Yb  Yb1  1  0.50000000  0.62822700  0.25000000  1
  Yb  Yb2  1  0.50000000  0.37177300  0.75000000  1
  Yb  Yb3  1  0.00000000  0.12822700  0.25000000  1
  In  In4  1  0.50000000  0.81791400  0.45144600  1
  In  In5  1  0.00000000  0.68208600  0.95144600  1
  In  In6  1  0.00000000  0.93467900  0.25000000  1
  In  In7  1  0.00000000  0.68208600  0.54855400  1
  In  In8  1  0.50000000  0.81791400  0.04855400  1
  In  In9  1  0.50000000  0.56532100  0.75000000  1
  In  In10  1  0.50000000  0.00000000  0.50000000  1
  In  In11  1  0.50000000  0.00000000  0.00000000  1
  In  In12  1  0.00000000  0.31791400  0.45144600  1
  In  In13  1  0.50000000  0.18208600  0.95144600  1
  In  In14  1  0.50000000  0.43467900  0.25000000  1
  In  In15  1  0.50000000  0.18208600  0.54855400  1
  In  In16  1  0.00000000  0.31791400  0.04855400  1
  In  In17  1  0.00000000  0.06532100  0.75000000  1
  In  In18  1  0.00000000  0.50000000  0.50000000  1
  In  In19  1  0.00000000  0.50000000  0.00000000  1
  Pd  Pd20  1  0.00000000  0.77254000  0.25000000  1
  Pd  Pd21  1  0.50000000  0.72746000  0.75000000  1
  Pd  Pd22  1  0.50000000  0.27254000  0.25000000  1
  Pd  Pd23  1  0.00000000  0.22746000  0.75000000  1
