# generated using pymatgen
data_NiP2(H4O5)2
_symmetry_space_group_name_H-M   'P 1'
_cell_length_a   5.33958500
_cell_length_b   9.91968000
_cell_length_c   8.66735424
_cell_angle_alpha   90.00000000
_cell_angle_beta   124.00800614
_cell_angle_gamma   90.00000000
_symmetry_Int_Tables_number   1
_chemical_formula_structural   NiP2(H4O5)2
_chemical_formula_sum   'Ni2 P4 H16 O20'
_cell_volume   380.56162082
_cell_formula_units_Z   2
loop_
 _symmetry_equiv_pos_site_id
 _symmetry_equiv_pos_as_xyz
  1  'x, y, z'
loop_
 _atom_site_type_symbol
 _atom_site_label
 _atom_site_symmetry_multiplicity
 _atom_site_fract_x
 _atom_site_fract_y
 _atom_site_fract_z
 _atom_site_occupancy
  Ni  Ni0  1  0.00000000  0.50000000  0.50000000  1
  Ni  Ni1  1  0.00000000  0.00000000  0.00000000  1
  P  P2  1  0.09621400  0.28359200  0.83546900  1
  P  P3  1  0.90378600  0.78359200  0.66453100  1
  P  P4  1  0.90378600  0.71640800  0.16453100  1
  P  P5  1  0.09621400  0.21640800  0.33546900  1
  H  H6  1  0.41781200  0.42311800  0.33917100  1
  H  H7  1  0.58218800  0.92311800  0.16082900  1
  H  H8  1  0.58218800  0.57688200  0.66082900  1
  H  H9  1  0.41781200  0.07688200  0.83917100  1
  H  H10  1  0.42651000  0.54963200  0.23527500  1
  H  H11  1  0.57349000  0.04963200  0.26472500  1
  H  H12  1  0.57349000  0.45036800  0.76472500  1
  H  H13  1  0.42651000  0.95036800  0.73527500  1
  H  H14  1  0.45390600  0.39050200  0.09631600  1
  H  H15  1  0.54609400  0.89050200  0.40368400  1
  H  H16  1  0.54609400  0.60949800  0.90368400  1
  H  H17  1  0.45390600  0.10949800  0.59631600  1
  H  H18  1  0.88201700  0.27808800  0.98686800  1
  H  H19  1  0.11798300  0.77808800  0.51313200  1
  H  H20  1  0.11798300  0.72191200  0.01313200  1
  H  H21  1  0.88201700  0.22191200  0.48686800  1
  O  O22  1  0.98833000  0.32920400  0.63914500  1
  O  O23  1  0.01167000  0.82920400  0.86085500  1
  O  O24  1  0.01167000  0.67079600  0.36085500  1
  O  O25  1  0.98833000  0.17079600  0.13914500  1
  O  O26  1  0.13799200  0.13100100  0.86410100  1
  O  O27  1  0.86200800  0.63100100  0.63589900  1
  O  O28  1  0.86200800  0.86899900  0.13589900  1
  O  O29  1  0.13799200  0.36899900  0.36410100  1
  O  O30  1  0.40281900  0.35978200  0.97106600  1
  O  O31  1  0.59718100  0.85978200  0.52893400  1
  O  O32  1  0.59718100  0.64021800  0.02893400  1
  O  O33  1  0.40281900  0.14021800  0.47106600  1
  O  O34  1  0.85649400  0.33245800  0.87766200  1
  O  O35  1  0.14350600  0.83245800  0.62233800  1
  O  O36  1  0.14350600  0.66754200  0.12233800  1
  O  O37  1  0.85649400  0.16754200  0.37766200  1
  O  O38  1  0.53899800  0.46434600  0.29452200  1
  O  O39  1  0.46100200  0.96434600  0.20547800  1
  O  O40  1  0.46100200  0.53565400  0.70547800  1
  O  O41  1  0.53899800  0.03565400  0.79452200  1
