# generated using pymatgen
data_Ba2Ca3Tl2(CuO3)4
_symmetry_space_group_name_H-M   'P 1'
_cell_length_a   3.91530338
_cell_length_b   3.91530338
_cell_length_c   43.81249474
_cell_angle_alpha   90.00000000
_cell_angle_beta   90.00000000
_cell_angle_gamma   90.00000000
_symmetry_Int_Tables_number   1
_chemical_formula_structural   Ba2Ca3Tl2(CuO3)4
_chemical_formula_sum   'Ba4 Ca6 Tl4 Cu8 O24'
_cell_volume   671.62804419
_cell_formula_units_Z   2
loop_
 _symmetry_equiv_pos_site_id
 _symmetry_equiv_pos_as_xyz
  1  'x, y, z'
loop_
 _atom_site_type_symbol
 _atom_site_label
 _atom_site_symmetry_multiplicity
 _atom_site_fract_x
 _atom_site_fract_y
 _atom_site_fract_z
 _atom_site_occupancy
  Ba  Ba0  1  0.50000000  0.50000000  0.34529000  1
  Ba  Ba1  1  0.00000000  0.00000000  0.15471000  1
  Ba  Ba2  1  0.00000000  0.00000000  0.84529000  1
  Ba  Ba3  1  0.50000000  0.50000000  0.65471000  1
  Ca  Ca4  1  0.00000000  0.00000000  0.07414200  1
  Ca  Ca5  1  0.50000000  0.50000000  0.42585800  1
  Ca  Ca6  1  0.00000000  0.00000000  0.00000000  1
  Ca  Ca7  1  0.50000000  0.50000000  0.57414200  1
  Ca  Ca8  1  0.00000000  0.00000000  0.92585800  1
  Ca  Ca9  1  0.50000000  0.50000000  0.50000000  1
  Tl  Tl10  1  0.50000000  0.50000000  0.22377550  1
  Tl  Tl11  1  0.00000000  0.00000000  0.27622450  1
  Tl  Tl12  1  0.00000000  0.00000000  0.72377550  1
  Tl  Tl13  1  0.50000000  0.50000000  0.77622450  1
  Cu  Cu14  1  0.00000000  0.00000000  0.39117550  1
  Cu  Cu15  1  0.50000000  0.50000000  0.03715150  1
  Cu  Cu16  1  0.50000000  0.50000000  0.10882450  1
  Cu  Cu17  1  0.00000000  0.00000000  0.46284850  1
  Cu  Cu18  1  0.50000000  0.50000000  0.89117550  1
  Cu  Cu19  1  0.00000000  0.00000000  0.53715150  1
  Cu  Cu20  1  0.00000000  0.00000000  0.60882450  1
  Cu  Cu21  1  0.50000000  0.50000000  0.96284850  1
  O  O22  1  0.00000000  0.50000000  0.46323400  1
  O  O23  1  0.50000000  0.50000000  0.17589650  1
  O  O24  1  0.50000000  0.00000000  0.03676600  1
  O  O25  1  0.50000000  0.00000000  0.46323400  1
  O  O26  1  0.00000000  0.00000000  0.32410350  1
  O  O27  1  0.00000000  0.50000000  0.10964400  1
  O  O28  1  0.50000000  0.00000000  0.25000000  1
  O  O29  1  0.50000000  0.00000000  0.10964400  1
  O  O30  1  0.50000000  0.00000000  0.39035600  1
  O  O31  1  0.00000000  0.50000000  0.03676600  1
  O  O32  1  0.00000000  0.50000000  0.39035600  1
  O  O33  1  0.00000000  0.50000000  0.25000000  1
  O  O34  1  0.50000000  0.00000000  0.96323400  1
  O  O35  1  0.00000000  0.00000000  0.67589650  1
  O  O36  1  0.00000000  0.50000000  0.53676600  1
  O  O37  1  0.00000000  0.50000000  0.96323400  1
  O  O38  1  0.50000000  0.50000000  0.82410350  1
  O  O39  1  0.50000000  0.00000000  0.60964400  1
  O  O40  1  0.00000000  0.50000000  0.75000000  1
  O  O41  1  0.00000000  0.50000000  0.60964400  1
  O  O42  1  0.00000000  0.50000000  0.89035600  1
  O  O43  1  0.50000000  0.00000000  0.53676600  1
  O  O44  1  0.50000000  0.00000000  0.89035600  1
  O  O45  1  0.50000000  0.00000000  0.75000000  1
