# generated using pymatgen
data_Yb4Mn2Sn5
_symmetry_space_group_name_H-M   'P 1'
_cell_length_a   16.72020800
_cell_length_b   4.62132000
_cell_length_c   7.69440776
_cell_angle_alpha   90.00000000
_cell_angle_beta   107.43888282
_cell_angle_gamma   90.00000000
_symmetry_Int_Tables_number   1
_chemical_formula_structural   Yb4Mn2Sn5
_chemical_formula_sum   'Yb8 Mn4 Sn10'
_cell_volume   567.21565754
_cell_formula_units_Z   2
loop_
 _symmetry_equiv_pos_site_id
 _symmetry_equiv_pos_as_xyz
  1  'x, y, z'
loop_
 _atom_site_type_symbol
 _atom_site_label
 _atom_site_symmetry_multiplicity
 _atom_site_fract_x
 _atom_site_fract_y
 _atom_site_fract_z
 _atom_site_occupancy
  Yb  Yb0  1  0.07949400  0.00000000  0.86320600  1
  Yb  Yb1  1  0.15026300  0.00000000  0.43757800  1
  Yb  Yb2  1  0.42050600  0.50000000  0.13679400  1
  Yb  Yb3  1  0.34973700  0.50000000  0.56242200  1
  Yb  Yb4  1  0.57949400  0.50000000  0.86320600  1
  Yb  Yb5  1  0.65026300  0.50000000  0.43757800  1
  Yb  Yb6  1  0.92050600  0.00000000  0.13679400  1
  Yb  Yb7  1  0.84973700  0.00000000  0.56242200  1
  Mn  Mn8  1  0.22399200  0.50000000  0.11136100  1
  Mn  Mn9  1  0.27600800  0.00000000  0.88863900  1
  Mn  Mn10  1  0.72399200  0.00000000  0.11136100  1
  Mn  Mn11  1  0.77600800  0.50000000  0.88863900  1
  Sn  Sn12  1  0.07075600  0.50000000  0.16135400  1
  Sn  Sn13  1  0.19593900  0.50000000  0.74410100  1
  Sn  Sn14  1  0.00000000  0.50000000  0.50000000  1
  Sn  Sn15  1  0.42924400  0.00000000  0.83864600  1
  Sn  Sn16  1  0.30406100  0.00000000  0.25589900  1
  Sn  Sn17  1  0.57075600  0.00000000  0.16135400  1
  Sn  Sn18  1  0.69593900  0.00000000  0.74410100  1
  Sn  Sn19  1  0.50000000  0.00000000  0.50000000  1
  Sn  Sn20  1  0.92924400  0.50000000  0.83864600  1
  Sn  Sn21  1  0.80406100  0.50000000  0.25589900  1
