# generated using pymatgen
data_ErMoClO4
_symmetry_space_group_name_H-M   'P 1'
_cell_length_a   10.24890600
_cell_length_b   7.27324600
_cell_length_c   6.89364128
_cell_angle_alpha   90.00000000
_cell_angle_beta   107.44104638
_cell_angle_gamma   90.00000000
_symmetry_Int_Tables_number   1
_chemical_formula_structural   ErMoClO4
_chemical_formula_sum   'Er4 Mo4 Cl4 O16'
_cell_volume   490.24662309
_cell_formula_units_Z   4
loop_
 _symmetry_equiv_pos_site_id
 _symmetry_equiv_pos_as_xyz
  1  'x, y, z'
loop_
 _atom_site_type_symbol
 _atom_site_label
 _atom_site_symmetry_multiplicity
 _atom_site_fract_x
 _atom_site_fract_y
 _atom_site_fract_z
 _atom_site_occupancy
  Er  Er0  1  0.22160800  0.00000000  0.11248600  1
  Er  Er1  1  0.77839200  0.00000000  0.88751400  1
  Er  Er2  1  0.72160800  0.50000000  0.11248600  1
  Er  Er3  1  0.27839200  0.50000000  0.88751400  1
  Mo  Mo4  1  0.63782700  0.00000000  0.26912900  1
  Mo  Mo5  1  0.36217300  0.00000000  0.73087100  1
  Mo  Mo6  1  0.13782700  0.50000000  0.26912900  1
  Mo  Mo7  1  0.86217300  0.50000000  0.73087100  1
  Cl  Cl8  1  0.01023800  0.00000000  0.76786700  1
  Cl  Cl9  1  0.98976200  0.00000000  0.23213300  1
  Cl  Cl10  1  0.51023800  0.50000000  0.76786700  1
  Cl  Cl11  1  0.48976200  0.50000000  0.23213300  1
  O  O12  1  0.70042300  0.80791200  0.15355200  1
  O  O13  1  0.29957700  0.19208800  0.84644800  1
  O  O14  1  0.29957700  0.80791200  0.84644800  1
  O  O15  1  0.54421000  0.00000000  0.79923000  1
  O  O16  1  0.29337300  0.00000000  0.46276900  1
  O  O17  1  0.70042300  0.19208800  0.15355200  1
  O  O18  1  0.70662700  0.00000000  0.53723100  1
  O  O19  1  0.45579000  0.00000000  0.20077000  1
  O  O20  1  0.20042300  0.30791200  0.15355200  1
  O  O21  1  0.79957700  0.69208800  0.84644800  1
  O  O22  1  0.79957700  0.30791200  0.84644800  1
  O  O23  1  0.04421000  0.50000000  0.79923000  1
  O  O24  1  0.79337300  0.50000000  0.46276900  1
  O  O25  1  0.20042300  0.69208800  0.15355200  1
  O  O26  1  0.20662700  0.50000000  0.53723100  1
  O  O27  1  0.95579000  0.50000000  0.20077000  1
