# generated using pymatgen
data_Mn(Bi3O5)4
_symmetry_space_group_name_H-M   'P 1'
_cell_length_a   10.30508800
_cell_length_b   10.30508800
_cell_length_c   10.30508800
_cell_angle_alpha   90.00000000
_cell_angle_beta   90.00000000
_cell_angle_gamma   90.00000000
_symmetry_Int_Tables_number   1
_chemical_formula_structural   Mn(Bi3O5)4
_chemical_formula_sum   'Mn2 Bi24 O40'
_cell_volume   1094.34715782
_cell_formula_units_Z   2
loop_
 _symmetry_equiv_pos_site_id
 _symmetry_equiv_pos_as_xyz
  1  'x, y, z'
loop_
 _atom_site_type_symbol
 _atom_site_label
 _atom_site_symmetry_multiplicity
 _atom_site_fract_x
 _atom_site_fract_y
 _atom_site_fract_z
 _atom_site_occupancy
  Mn  Mn0  1  0.00000000  0.00000000  0.00000000  1
  Mn  Mn1  1  0.50000000  0.50000000  0.50000000  1
  Bi  Bi2  1  0.31832700  0.01518800  0.17749000  1
  Bi  Bi3  1  0.51518800  0.32251000  0.18167300  1
  Bi  Bi4  1  0.32251000  0.81832700  0.48481200  1
  Bi  Bi5  1  0.98481200  0.17749000  0.68167300  1
  Bi  Bi6  1  0.32251000  0.18167300  0.51518800  1
  Bi  Bi7  1  0.48481200  0.32251000  0.81832700  1
  Bi  Bi8  1  0.17749000  0.68167300  0.98481200  1
  Bi  Bi9  1  0.17749000  0.31832700  0.01518800  1
  Bi  Bi10  1  0.01518800  0.17749000  0.31832700  1
  Bi  Bi11  1  0.18167300  0.51518800  0.32251000  1
  Bi  Bi12  1  0.81832700  0.48481200  0.32251000  1
  Bi  Bi13  1  0.68167300  0.98481200  0.17749000  1
  Bi  Bi14  1  0.81832700  0.51518800  0.67749000  1
  Bi  Bi15  1  0.01518800  0.82251000  0.68167300  1
  Bi  Bi16  1  0.82251000  0.31832700  0.98481200  1
  Bi  Bi17  1  0.48481200  0.67749000  0.18167300  1
  Bi  Bi18  1  0.82251000  0.68167300  0.01518800  1
  Bi  Bi19  1  0.98481200  0.82251000  0.31832700  1
  Bi  Bi20  1  0.67749000  0.18167300  0.48481200  1
  Bi  Bi21  1  0.67749000  0.81832700  0.51518800  1
  Bi  Bi22  1  0.51518800  0.67749000  0.81832700  1
  Bi  Bi23  1  0.68167300  0.01518800  0.82251000  1
  Bi  Bi24  1  0.31832700  0.98481200  0.82251000  1
  Bi  Bi25  1  0.18167300  0.48481200  0.67749000  1
  O  O26  1  0.19463150  0.19463150  0.19463150  1
  O  O27  1  0.69463150  0.30536850  0.30536850  1
  O  O28  1  0.30536850  0.69463150  0.30536850  1
  O  O29  1  0.30536850  0.30536850  0.69463150  1
  O  O30  1  0.25068800  0.48870800  0.13114000  1
  O  O31  1  0.98870800  0.36886000  0.24931200  1
  O  O32  1  0.86886000  0.25068800  0.51129200  1
  O  O33  1  0.01129200  0.63114000  0.24931200  1
  O  O34  1  0.36886000  0.24931200  0.98870800  1
  O  O35  1  0.51129200  0.86886000  0.25068800  1
  O  O36  1  0.63114000  0.24931200  0.01129200  1
  O  O37  1  0.13114000  0.25068800  0.48870800  1
  O  O38  1  0.48870800  0.13114000  0.25068800  1
  O  O39  1  0.24931200  0.98870800  0.36886000  1
  O  O40  1  0.25068800  0.51129200  0.86886000  1
  O  O41  1  0.24931200  0.01129200  0.63114000  1
  O  O42  1  0.39687550  0.39687550  0.39687550  1
  O  O43  1  0.89687550  0.10312450  0.10312450  1
  O  O44  1  0.10312450  0.89687550  0.10312450  1
  O  O45  1  0.10312450  0.10312450  0.89687550  1
  O  O46  1  0.69463150  0.69463150  0.69463150  1
  O  O47  1  0.19463150  0.80536850  0.80536850  1
  O  O48  1  0.80536850  0.19463150  0.80536850  1
  O  O49  1  0.80536850  0.80536850  0.19463150  1
  O  O50  1  0.75068800  0.98870800  0.63114000  1
  O  O51  1  0.48870800  0.86886000  0.74931200  1
  O  O52  1  0.36886000  0.75068800  0.01129200  1
  O  O53  1  0.51129200  0.13114000  0.74931200  1
  O  O54  1  0.86886000  0.74931200  0.48870800  1
  O  O55  1  0.01129200  0.36886000  0.75068800  1
  O  O56  1  0.13114000  0.74931200  0.51129200  1
  O  O57  1  0.63114000  0.75068800  0.98870800  1
  O  O58  1  0.98870800  0.63114000  0.75068800  1
  O  O59  1  0.74931200  0.48870800  0.86886000  1
  O  O60  1  0.75068800  0.01129200  0.36886000  1
  O  O61  1  0.74931200  0.51129200  0.13114000  1
  O  O62  1  0.89687550  0.89687550  0.89687550  1
  O  O63  1  0.39687550  0.60312450  0.60312450  1
  O  O64  1  0.60312450  0.39687550  0.60312450  1
  O  O65  1  0.60312450  0.60312450  0.39687550  1
