# generated using pymatgen
data_SmB2Rh2C
_symmetry_space_group_name_H-M   'P 1'
_cell_length_a   3.85269000
_cell_length_b   3.85269000
_cell_length_c   10.27275800
_cell_angle_alpha   90.00000000
_cell_angle_beta   90.00000000
_cell_angle_gamma   90.00000000
_symmetry_Int_Tables_number   1
_chemical_formula_structural   SmB2Rh2C
_chemical_formula_sum   'Sm2 B4 Rh4 C2'
_cell_volume   152.48080943
_cell_formula_units_Z   2
loop_
 _symmetry_equiv_pos_site_id
 _symmetry_equiv_pos_as_xyz
  1  'x, y, z'
loop_
 _atom_site_type_symbol
 _atom_site_label
 _atom_site_symmetry_multiplicity
 _atom_site_fract_x
 _atom_site_fract_y
 _atom_site_fract_z
 _atom_site_occupancy
  Sm  Sm0  1  0.00000000  0.00000000  0.00000000  1
  Sm  Sm1  1  0.50000000  0.50000000  0.50000000  1
  B  B2  1  0.50000000  0.50000000  0.14575200  1
  B  B3  1  0.00000000  0.00000000  0.35424800  1
  B  B4  1  0.00000000  0.00000000  0.64575200  1
  B  B5  1  0.50000000  0.50000000  0.85424800  1
  Rh  Rh6  1  0.50000000  0.00000000  0.25000000  1
  Rh  Rh7  1  0.00000000  0.50000000  0.25000000  1
  Rh  Rh8  1  0.00000000  0.50000000  0.75000000  1
  Rh  Rh9  1  0.50000000  0.00000000  0.75000000  1
  C  C10  1  0.50000000  0.50000000  0.00000000  1
  C  C11  1  0.00000000  0.00000000  0.50000000  1
