# generated using pymatgen
data_NaLiYb2F8
_symmetry_space_group_name_H-M   'P 1'
_cell_length_a   8.52320000
_cell_length_b   10.00047400
_cell_length_c   7.30869000
_cell_angle_alpha   90.00000000
_cell_angle_beta   90.00000000
_cell_angle_gamma   90.00000000
_symmetry_Int_Tables_number   1
_chemical_formula_structural   NaLiYb2F8
_chemical_formula_sum   'Na4 Li4 Yb8 F32'
_cell_volume   622.96379316
_cell_formula_units_Z   4
loop_
 _symmetry_equiv_pos_site_id
 _symmetry_equiv_pos_as_xyz
  1  'x, y, z'
loop_
 _atom_site_type_symbol
 _atom_site_label
 _atom_site_symmetry_multiplicity
 _atom_site_fract_x
 _atom_site_fract_y
 _atom_site_fract_z
 _atom_site_occupancy
  Na  Na0  1  0.33101400  0.00000000  0.75000000  1
  Na  Na1  1  0.66898600  0.00000000  0.25000000  1
  Na  Na2  1  0.83101400  0.50000000  0.75000000  1
  Na  Na3  1  0.16898600  0.50000000  0.25000000  1
  Li  Li4  1  0.00000000  0.00000000  0.50000000  1
  Li  Li5  1  0.00000000  0.00000000  0.00000000  1
  Li  Li6  1  0.50000000  0.50000000  0.50000000  1
  Li  Li7  1  0.50000000  0.50000000  0.00000000  1
  Yb  Yb8  1  0.25285950  0.81330750  0.25000000  1
  Yb  Yb9  1  0.74714050  0.18669250  0.75000000  1
  Yb  Yb10  1  0.25285950  0.18669250  0.25000000  1
  Yb  Yb11  1  0.74714050  0.81330750  0.75000000  1
  Yb  Yb12  1  0.75285950  0.31330750  0.25000000  1
  Yb  Yb13  1  0.24714050  0.68669250  0.75000000  1
  Yb  Yb14  1  0.75285950  0.68669250  0.25000000  1
  Yb  Yb15  1  0.24714050  0.31330750  0.75000000  1
  F  F16  1  0.41594600  0.00000000  0.25000000  1
  F  F17  1  0.58405400  0.00000000  0.75000000  1
  F  F18  1  0.20194550  0.86310950  0.54661500  1
  F  F19  1  0.79805450  0.13689050  0.45338500  1
  F  F20  1  0.51554050  0.79090050  0.25000000  1
  F  F21  1  0.48445950  0.79090050  0.75000000  1
  F  F22  1  0.20194550  0.13689050  0.95338500  1
  F  F23  1  0.79805450  0.86310950  0.45338500  1
  F  F24  1  0.48445950  0.20909950  0.75000000  1
  F  F25  1  0.79805450  0.86310950  0.04661500  1
  F  F26  1  0.20194550  0.86310950  0.95338500  1
  F  F27  1  0.91228300  0.00000000  0.75000000  1
  F  F28  1  0.79805450  0.13689050  0.04661500  1
  F  F29  1  0.51554050  0.20909950  0.25000000  1
  F  F30  1  0.20194550  0.13689050  0.54661500  1
  F  F31  1  0.08771700  0.00000000  0.25000000  1
  F  F32  1  0.91594600  0.50000000  0.25000000  1
  F  F33  1  0.08405400  0.50000000  0.75000000  1
  F  F34  1  0.70194550  0.36310950  0.54661500  1
  F  F35  1  0.29805450  0.63689050  0.45338500  1
  F  F36  1  0.01554050  0.29090050  0.25000000  1
  F  F37  1  0.98445950  0.29090050  0.75000000  1
  F  F38  1  0.70194550  0.63689050  0.95338500  1
  F  F39  1  0.29805450  0.36310950  0.45338500  1
  F  F40  1  0.98445950  0.70909950  0.75000000  1
  F  F41  1  0.29805450  0.36310950  0.04661500  1
  F  F42  1  0.70194550  0.36310950  0.95338500  1
  F  F43  1  0.41228300  0.50000000  0.75000000  1
  F  F44  1  0.29805450  0.63689050  0.04661500  1
  F  F45  1  0.01554050  0.70909950  0.25000000  1
  F  F46  1  0.70194550  0.63689050  0.54661500  1
  F  F47  1  0.58771700  0.50000000  0.25000000  1
