# generated using pymatgen
data_LiBi2(PO4)3
_symmetry_space_group_name_H-M   'P 1'
_cell_length_a   15.59702000
_cell_length_b   9.32789000
_cell_length_c   9.14694376
_cell_angle_alpha   90.00000000
_cell_angle_beta   123.08553306
_cell_angle_gamma   90.00000000
_symmetry_Int_Tables_number   1
_chemical_formula_structural   LiBi2(PO4)3
_chemical_formula_sum   'Li4 Bi8 P12 O48'
_cell_volume   1114.98939741
_cell_formula_units_Z   4
loop_
 _symmetry_equiv_pos_site_id
 _symmetry_equiv_pos_as_xyz
  1  'x, y, z'
loop_
 _atom_site_type_symbol
 _atom_site_label
 _atom_site_symmetry_multiplicity
 _atom_site_fract_x
 _atom_site_fract_y
 _atom_site_fract_z
 _atom_site_occupancy
  Li  Li0  1  0.50000000  0.38660200  0.75000000  1
  Li  Li1  1  0.50000000  0.61339800  0.25000000  1
  Li  Li2  1  0.00000000  0.88660200  0.75000000  1
  Li  Li3  1  0.00000000  0.11339800  0.25000000  1
  Bi  Bi4  1  0.39746750  0.75034250  0.84952000  1
  Bi  Bi5  1  0.60253250  0.24965750  0.15048000  1
  Bi  Bi6  1  0.39746750  0.24965750  0.34952000  1
  Bi  Bi7  1  0.60253250  0.75034250  0.65048000  1
  Bi  Bi8  1  0.89746750  0.25034250  0.84952000  1
  Bi  Bi9  1  0.10253250  0.74965750  0.15048000  1
  Bi  Bi10  1  0.89746750  0.74965750  0.34952000  1
  Bi  Bi11  1  0.10253250  0.25034250  0.65048000  1
  P  P12  1  0.85760750  0.10017950  0.43270300  1
  P  P13  1  0.50000000  0.93196200  0.25000000  1
  P  P14  1  0.14239250  0.89982050  0.56729700  1
  P  P15  1  0.50000000  0.06803800  0.75000000  1
  P  P16  1  0.85760750  0.89982050  0.93270300  1
  P  P17  1  0.14239250  0.10017950  0.06729700  1
  P  P18  1  0.35760750  0.60017950  0.43270300  1
  P  P19  1  0.00000000  0.43196200  0.25000000  1
  P  P20  1  0.64239250  0.39982050  0.56729700  1
  P  P21  1  0.00000000  0.56803800  0.75000000  1
  P  P22  1  0.35760750  0.39982050  0.93270300  1
  P  P23  1  0.64239250  0.60017950  0.06729700  1
  O  O24  1  0.82617100  0.94005300  0.39332900  1
  O  O25  1  0.82617100  0.05994700  0.89332900  1
  O  O26  1  0.44856000  0.36381400  0.91324700  1
  O  O27  1  0.39414700  0.62230600  0.62687700  1
  O  O28  1  0.56023950  0.97767250  0.69396500  1
  O  O29  1  0.23188350  0.80114450  0.69337200  1
  O  O30  1  0.60585300  0.62230600  0.87312300  1
  O  O31  1  0.55144000  0.63618600  0.08675300  1
  O  O32  1  0.58133500  0.83194400  0.39896100  1
  O  O33  1  0.76811650  0.19885550  0.30662800  1
  O  O34  1  0.58133500  0.16805600  0.89896100  1
  O  O35  1  0.60585300  0.37769400  0.37312300  1
  O  O36  1  0.43976050  0.97767250  0.80603500  1
  O  O37  1  0.43976050  0.02232750  0.30603500  1
  O  O38  1  0.56023950  0.02232750  0.19396500  1
  O  O39  1  0.55144000  0.36381400  0.58675300  1
  O  O40  1  0.17382900  0.05994700  0.60667100  1
  O  O41  1  0.39414700  0.37769400  0.12687700  1
  O  O42  1  0.23188350  0.19885550  0.19337200  1
  O  O43  1  0.76811650  0.80114450  0.80662800  1
  O  O44  1  0.41866500  0.16805600  0.60103900  1
  O  O45  1  0.17382900  0.94005300  0.10667100  1
  O  O46  1  0.41866500  0.83194400  0.10103900  1
  O  O47  1  0.44856000  0.63618600  0.41324700  1
  O  O48  1  0.32617100  0.44005300  0.39332900  1
  O  O49  1  0.32617100  0.55994700  0.89332900  1
  O  O50  1  0.94856000  0.86381400  0.91324700  1
  O  O51  1  0.89414700  0.12230600  0.62687700  1
  O  O52  1  0.06023950  0.47767250  0.69396500  1
  O  O53  1  0.73188350  0.30114450  0.69337200  1
  O  O54  1  0.10585300  0.12230600  0.87312300  1
  O  O55  1  0.05144000  0.13618600  0.08675300  1
  O  O56  1  0.08133500  0.33194400  0.39896100  1
  O  O57  1  0.26811650  0.69885550  0.30662800  1
  O  O58  1  0.08133500  0.66805600  0.89896100  1
  O  O59  1  0.10585300  0.87769400  0.37312300  1
  O  O60  1  0.93976050  0.47767250  0.80603500  1
  O  O61  1  0.93976050  0.52232750  0.30603500  1
  O  O62  1  0.06023950  0.52232750  0.19396500  1
  O  O63  1  0.05144000  0.86381400  0.58675300  1
  O  O64  1  0.67382900  0.55994700  0.60667100  1
  O  O65  1  0.89414700  0.87769400  0.12687700  1
  O  O66  1  0.73188350  0.69885550  0.19337200  1
  O  O67  1  0.26811650  0.30114450  0.80662800  1
  O  O68  1  0.91866500  0.66805600  0.60103900  1
  O  O69  1  0.67382900  0.44005300  0.10667100  1
  O  O70  1  0.91866500  0.33194400  0.10103900  1
  O  O71  1  0.94856000  0.13618600  0.41324700  1
