# generated using pymatgen
data_Li3FeP2O9
_symmetry_space_group_name_H-M   'P 1'
_cell_length_a   6.87954877
_cell_length_b   7.14403182
_cell_length_c   7.95272083
_cell_angle_alpha   89.79453130
_cell_angle_beta   115.52321791
_cell_angle_gamma   92.30845043
_symmetry_Int_Tables_number   1
_chemical_formula_structural   Li3FeP2O9
_chemical_formula_sum   'Li6 Fe2 P4 O18'
_cell_volume   352.38718216
_cell_formula_units_Z   2
loop_
 _symmetry_equiv_pos_site_id
 _symmetry_equiv_pos_as_xyz
  1  'x, y, z'
loop_
 _atom_site_type_symbol
 _atom_site_label
 _atom_site_symmetry_multiplicity
 _atom_site_fract_x
 _atom_site_fract_y
 _atom_site_fract_z
 _atom_site_occupancy
  Li  Li0  1  0.38077400  0.29926200  0.72860500  1
  Li  Li1  1  0.76379600  0.99649600  0.00041200  1
  Li  Li2  1  0.14254400  0.23746900  0.20610300  1
  Li  Li3  1  0.91336100  0.76773400  0.79452600  1
  Li  Li4  1  0.00164900  0.50001900  0.50503600  1
  Li  Li5  1  0.60127300  0.69706700  0.26922200  1
  Fe  Fe6  1  0.49635000  0.00218800  0.49757500  1
  Fe  Fe7  1  0.99954700  0.99757200  0.50406500  1
  P  P8  1  0.61906100  0.24348400  0.20298100  1
  P  P9  1  0.87705600  0.29096600  0.75398600  1
  P  P10  1  0.38722700  0.75506900  0.79634700  1
  P  P11  1  0.10691800  0.70893000  0.24579200  1
  O  O12  1  0.44968200  0.14612400  0.26138900  1
  O  O13  1  0.18110400  0.87236900  0.74724300  1
  O  O14  1  0.00759700  0.23151400  0.64065600  1
  O  O15  1  0.98926200  0.80251300  0.05849300  1
  O  O16  1  0.95489100  0.19532300  0.94170200  1
  O  O17  1  0.50776800  0.75563300  0.00923800  1
  O  O18  1  0.23607200  0.10063700  0.47330200  1
  O  O19  1  0.63097700  0.23524100  0.63798200  1
  O  O20  1  0.35133100  0.77667800  0.34059000  1
  O  O21  1  0.75736300  0.89867600  0.52694000  1
  O  O22  1  0.54846400  0.86997100  0.73703000  1
  O  O23  1  0.10552500  0.49581400  0.24402100  1
  O  O24  1  0.32174600  0.56354500  0.70128700  1
  O  O25  1  0.51486700  0.24618200  0.99010200  1
  O  O26  1  0.89794100  0.50389300  0.75394300  1
  O  O27  1  0.81723400  0.11427300  0.25673400  1
  O  O28  1  0.69198300  0.43591900  0.29812300  1
  O  O29  1  0.99557100  0.75943800  0.37657400  1
