# generated using pymatgen
data_Er4I5
_symmetry_space_group_name_H-M   'P 1'
_cell_length_a   18.51549200
_cell_length_b   3.93273800
_cell_length_c   8.75291324
_cell_angle_alpha   90.00000000
_cell_angle_beta   103.67386128
_cell_angle_gamma   90.00000000
_symmetry_Int_Tables_number   1
_chemical_formula_structural   Er4I5
_chemical_formula_sum   'Er8 I10'
_cell_volume   619.29262538
_cell_formula_units_Z   2
loop_
 _symmetry_equiv_pos_site_id
 _symmetry_equiv_pos_as_xyz
  1  'x, y, z'
loop_
 _atom_site_type_symbol
 _atom_site_label
 _atom_site_symmetry_multiplicity
 _atom_site_fract_x
 _atom_site_fract_y
 _atom_site_fract_z
 _atom_site_occupancy
  Er  Er0  1  0.00039500  0.00000000  0.80393600  1
  Er  Er1  1  0.49960500  0.50000000  0.19606400  1
  Er  Er2  1  0.13347300  0.50000000  0.06747700  1
  Er  Er3  1  0.36652700  0.00000000  0.93252300  1
  Er  Er4  1  0.50039500  0.50000000  0.80393600  1
  Er  Er5  1  0.99960500  0.00000000  0.19606400  1
  Er  Er6  1  0.63347300  0.00000000  0.06747700  1
  Er  Er7  1  0.86652700  0.50000000  0.93252300  1
  I  I8  1  0.16789900  0.00000000  0.34650800  1
  I  I9  1  0.33210100  0.50000000  0.65349200  1
  I  I10  1  0.17458600  0.00000000  0.82475400  1
  I  I11  1  0.32541400  0.50000000  0.17524600  1
  I  I12  1  0.00000000  0.50000000  0.50000000  1
  I  I13  1  0.66789900  0.50000000  0.34650800  1
  I  I14  1  0.83210100  0.00000000  0.65349200  1
  I  I15  1  0.67458600  0.50000000  0.82475400  1
  I  I16  1  0.82541400  0.00000000  0.17524600  1
  I  I17  1  0.50000000  0.00000000  0.50000000  1
