# generated using pymatgen
data_Ga4Fe3
_symmetry_space_group_name_H-M   'P 1'
_cell_length_a   10.06424400
_cell_length_b   7.66576200
_cell_length_c   7.84111013
_cell_angle_alpha   90.00000000
_cell_angle_beta   106.12370180
_cell_angle_gamma   90.00000000
_symmetry_Int_Tables_number   1
_chemical_formula_structural   Ga4Fe3
_chemical_formula_sum   'Ga24 Fe18'
_cell_volume   581.14662360
_cell_formula_units_Z   6
loop_
 _symmetry_equiv_pos_site_id
 _symmetry_equiv_pos_as_xyz
  1  'x, y, z'
loop_
 _atom_site_type_symbol
 _atom_site_label
 _atom_site_symmetry_multiplicity
 _atom_site_fract_x
 _atom_site_fract_y
 _atom_site_fract_z
 _atom_site_occupancy
  Ga  Ga0  1  0.22996400  0.50000000  0.91681100  1
  Ga  Ga1  1  0.77003600  0.50000000  0.08318900  1
  Ga  Ga2  1  0.45872300  0.50000000  0.65309800  1
  Ga  Ga3  1  0.54127700  0.50000000  0.34690200  1
  Ga  Ga4  1  0.89244050  0.70322350  0.84876400  1
  Ga  Ga5  1  0.89244050  0.29677650  0.84876400  1
  Ga  Ga6  1  0.10755950  0.29677650  0.15123600  1
  Ga  Ga7  1  0.10755950  0.70322350  0.15123600  1
  Ga  Ga8  1  0.14769750  0.68613150  0.55062800  1
  Ga  Ga9  1  0.14769750  0.31386850  0.55062800  1
  Ga  Ga10  1  0.85230250  0.31386850  0.44937200  1
  Ga  Ga11  1  0.85230250  0.68613150  0.44937200  1
  Ga  Ga12  1  0.72996400  0.00000000  0.91681100  1
  Ga  Ga13  1  0.27003600  0.00000000  0.08318900  1
  Ga  Ga14  1  0.95872300  0.00000000  0.65309800  1
  Ga  Ga15  1  0.04127700  0.00000000  0.34690200  1
  Ga  Ga16  1  0.39244050  0.20322350  0.84876400  1
  Ga  Ga17  1  0.39244050  0.79677650  0.84876400  1
  Ga  Ga18  1  0.60755950  0.79677650  0.15123600  1
  Ga  Ga19  1  0.60755950  0.20322350  0.15123600  1
  Ga  Ga20  1  0.64769750  0.18613150  0.55062800  1
  Ga  Ga21  1  0.64769750  0.81386850  0.55062800  1
  Ga  Ga22  1  0.35230250  0.81386850  0.44937200  1
  Ga  Ga23  1  0.35230250  0.18613150  0.44937200  1
  Fe  Fe24  1  0.00000000  0.00000000  0.00000000  1
  Fe  Fe25  1  0.00542800  0.50000000  0.68941300  1
  Fe  Fe26  1  0.99457200  0.50000000  0.31058700  1
  Fe  Fe27  1  0.27629100  0.50000000  0.35943400  1
  Fe  Fe28  1  0.72370900  0.50000000  0.64056600  1
  Fe  Fe29  1  0.86418900  0.20177900  0.15181200  1
  Fe  Fe30  1  0.86418900  0.79822100  0.15181200  1
  Fe  Fe31  1  0.13581100  0.79822100  0.84818800  1
  Fe  Fe32  1  0.13581100  0.20177900  0.84818800  1
  Fe  Fe33  1  0.50000000  0.50000000  0.00000000  1
  Fe  Fe34  1  0.50542800  0.00000000  0.68941300  1
  Fe  Fe35  1  0.49457200  0.00000000  0.31058700  1
  Fe  Fe36  1  0.77629100  0.00000000  0.35943400  1
  Fe  Fe37  1  0.22370900  0.00000000  0.64056600  1
  Fe  Fe38  1  0.36418900  0.70177900  0.15181200  1
  Fe  Fe39  1  0.36418900  0.29822100  0.15181200  1
  Fe  Fe40  1  0.63581100  0.29822100  0.84818800  1
  Fe  Fe41  1  0.63581100  0.70177900  0.84818800  1
