# generated using pymatgen
data_LiCr(PO3)4
_symmetry_space_group_name_H-M   'P 1'
_cell_length_a   11.94947000
_cell_length_b   8.37311600
_cell_length_c   9.85953602
_cell_angle_alpha   90.00000000
_cell_angle_beta   117.49000894
_cell_angle_gamma   90.00000000
_symmetry_Int_Tables_number   1
_chemical_formula_structural   LiCr(PO3)4
_chemical_formula_sum   'Li4 Cr4 P16 O48'
_cell_volume   875.10581101
_cell_formula_units_Z   4
loop_
 _symmetry_equiv_pos_site_id
 _symmetry_equiv_pos_as_xyz
  1  'x, y, z'
loop_
 _atom_site_type_symbol
 _atom_site_label
 _atom_site_symmetry_multiplicity
 _atom_site_fract_x
 _atom_site_fract_y
 _atom_site_fract_z
 _atom_site_occupancy
  Li  Li0  1  0.00000000  0.96127200  0.75000000  1
  Li  Li1  1  0.50000000  0.53872800  0.25000000  1
  Li  Li2  1  0.50000000  0.46127200  0.75000000  1
  Li  Li3  1  0.00000000  0.03872800  0.25000000  1
  Cr  Cr4  1  0.25000000  0.75000000  0.00000000  1
  Cr  Cr5  1  0.25000000  0.25000000  0.50000000  1
  Cr  Cr6  1  0.75000000  0.25000000  0.00000000  1
  Cr  Cr7  1  0.75000000  0.75000000  0.50000000  1
  P  P8  1  0.31071450  0.99316050  0.30420700  1
  P  P9  1  0.49553200  0.76407700  0.52862900  1
  P  P10  1  0.18928550  0.49316050  0.19579300  1
  P  P11  1  0.99553200  0.73592300  0.02862900  1
  P  P12  1  0.31071450  0.00683950  0.80420700  1
  P  P13  1  0.00446800  0.73592300  0.47137100  1
  P  P14  1  0.18928550  0.50683950  0.69579300  1
  P  P15  1  0.50446800  0.76407700  0.97137100  1
  P  P16  1  0.81071450  0.49316050  0.30420700  1
  P  P17  1  0.99553200  0.26407700  0.52862900  1
  P  P18  1  0.68928550  0.99316050  0.19579300  1
  P  P19  1  0.49553200  0.23592300  0.02862900  1
  P  P20  1  0.81071450  0.50683950  0.80420700  1
  P  P21  1  0.50446800  0.23592300  0.47137100  1
  P  P22  1  0.68928550  0.00683950  0.69579300  1
  P  P23  1  0.00446800  0.26407700  0.97137100  1
  O  O24  1  0.13667700  0.64382200  0.56829200  1
  O  O25  1  0.26467750  0.07597450  0.64800900  1
  O  O26  1  0.23532250  0.42402550  0.35199100  1
  O  O27  1  0.56277500  0.24378500  0.92886000  1
  O  O28  1  0.07147400  0.60558900  0.16351400  1
  O  O29  1  0.97013200  0.88060100  0.09336200  1
  O  O30  1  0.28582050  0.41289450  0.66804900  1
  O  O31  1  0.56277500  0.75621500  0.42886000  1
  O  O32  1  0.36332300  0.14382200  0.93170800  1
  O  O33  1  0.02986800  0.88060100  0.40663800  1
  O  O34  1  0.57147400  0.89441100  0.66351400  1
  O  O35  1  0.92852600  0.60558900  0.33648600  1
  O  O36  1  0.73532250  0.07597450  0.85199100  1
  O  O37  1  0.21417950  0.91289450  0.83195100  1
  O  O38  1  0.42852600  0.89441100  0.83648600  1
  O  O39  1  0.76467750  0.42402550  0.14800900  1
  O  O40  1  0.93722500  0.25621500  0.07114000  1
  O  O41  1  0.36332300  0.85617800  0.43170800  1
  O  O42  1  0.47013200  0.61939900  0.59336200  1
  O  O43  1  0.13667700  0.35617800  0.06829200  1
  O  O44  1  0.93722500  0.74378500  0.57114000  1
  O  O45  1  0.21417950  0.08710550  0.33195100  1
  O  O46  1  0.52986800  0.61939900  0.90663800  1
  O  O47  1  0.28582050  0.58710550  0.16804900  1
  O  O48  1  0.63667700  0.14382200  0.56829200  1
  O  O49  1  0.76467750  0.57597450  0.64800900  1
  O  O50  1  0.73532250  0.92402550  0.35199100  1
  O  O51  1  0.06277500  0.74378500  0.92886000  1
  O  O52  1  0.57147400  0.10558900  0.16351400  1
  O  O53  1  0.47013200  0.38060100  0.09336200  1
  O  O54  1  0.78582050  0.91289450  0.66804900  1
  O  O55  1  0.06277500  0.25621500  0.42886000  1
  O  O56  1  0.86332300  0.64382200  0.93170800  1
  O  O57  1  0.52986800  0.38060100  0.40663800  1
  O  O58  1  0.07147400  0.39441100  0.66351400  1
  O  O59  1  0.42852600  0.10558900  0.33648600  1
  O  O60  1  0.23532250  0.57597450  0.85199100  1
  O  O61  1  0.71417950  0.41289450  0.83195100  1
  O  O62  1  0.92852600  0.39441100  0.83648600  1
  O  O63  1  0.26467750  0.92402550  0.14800900  1
  O  O64  1  0.43722500  0.75621500  0.07114000  1
  O  O65  1  0.86332300  0.35617800  0.43170800  1
  O  O66  1  0.97013200  0.11939900  0.59336200  1
  O  O67  1  0.63667700  0.85617800  0.06829200  1
  O  O68  1  0.43722500  0.24378500  0.57114000  1
  O  O69  1  0.71417950  0.58710550  0.33195100  1
  O  O70  1  0.02986800  0.11939900  0.90663800  1
  O  O71  1  0.78582050  0.08710550  0.16804900  1
