# generated using pymatgen
data_VPO5
_symmetry_space_group_name_H-M   'P 1'
_cell_length_a   7.34847600
_cell_length_b   7.06271000
_cell_length_c   7.38904551
_cell_angle_alpha   90.00000000
_cell_angle_beta   115.27358885
_cell_angle_gamma   90.00000000
_symmetry_Int_Tables_number   1
_chemical_formula_structural   VPO5
_chemical_formula_sum   'V4 P4 O20'
_cell_volume   346.78448301
_cell_formula_units_Z   4
loop_
 _symmetry_equiv_pos_site_id
 _symmetry_equiv_pos_as_xyz
  1  'x, y, z'
loop_
 _atom_site_type_symbol
 _atom_site_label
 _atom_site_symmetry_multiplicity
 _atom_site_fract_x
 _atom_site_fract_y
 _atom_site_fract_z
 _atom_site_occupancy
  V  V0  1  0.99989250  0.23083950  0.00475000  1
  V  V1  1  0.99989250  0.76916050  0.50475000  1
  V  V2  1  0.49989250  0.73083950  0.00475000  1
  V  V3  1  0.49989250  0.26916050  0.50475000  1
  P  P4  1  0.20950550  0.37872250  0.71582900  1
  P  P5  1  0.20950550  0.62127750  0.21582900  1
  P  P6  1  0.70950550  0.87872250  0.71582900  1
  P  P7  1  0.70950550  0.12127750  0.21582900  1
  O  O8  1  0.10022400  0.75165600  0.30382900  1
  O  O9  1  0.69191100  0.34941100  0.69523300  1
  O  O10  1  0.37171700  0.50153800  0.38028200  1
  O  O11  1  0.10022400  0.24834400  0.80382900  1
  O  O12  1  0.80641700  0.74912100  0.61301700  1
  O  O13  1  0.37171700  0.49846200  0.88028200  1
  O  O14  1  0.80641700  0.25087900  0.11301700  1
  O  O15  1  0.05133200  0.50782700  0.55326000  1
  O  O16  1  0.05133200  0.49217300  0.05326000  1
  O  O17  1  0.69191100  0.65058900  0.19523300  1
  O  O18  1  0.60022400  0.25165600  0.30382900  1
  O  O19  1  0.19191100  0.84941100  0.69523300  1
  O  O20  1  0.87171700  0.00153800  0.38028200  1
  O  O21  1  0.60022400  0.74834400  0.80382900  1
  O  O22  1  0.30641700  0.24912100  0.61301700  1
  O  O23  1  0.87171700  0.99846200  0.88028200  1
  O  O24  1  0.30641700  0.75087900  0.11301700  1
  O  O25  1  0.55133200  0.00782700  0.55326000  1
  O  O26  1  0.55133200  0.99217300  0.05326000  1
  O  O27  1  0.19191100  0.15058900  0.19523300  1
