# generated using pymatgen
data_Ga(MoSe2)4
_symmetry_space_group_name_H-M   'P 1'
_cell_length_a   10.29790800
_cell_length_b   10.29790800
_cell_length_c   10.29790800
_cell_angle_alpha   90.00000000
_cell_angle_beta   90.00000000
_cell_angle_gamma   90.00000000
_symmetry_Int_Tables_number   1
_chemical_formula_structural   Ga(MoSe2)4
_chemical_formula_sum   'Ga4 Mo16 Se32'
_cell_volume   1092.06131438
_cell_formula_units_Z   4
loop_
 _symmetry_equiv_pos_site_id
 _symmetry_equiv_pos_as_xyz
  1  'x, y, z'
loop_
 _atom_site_type_symbol
 _atom_site_label
 _atom_site_symmetry_multiplicity
 _atom_site_fract_x
 _atom_site_fract_y
 _atom_site_fract_z
 _atom_site_occupancy
  Ga  Ga0  1  0.00000000  0.00000000  0.00000000  1
  Ga  Ga1  1  0.00000000  0.50000000  0.50000000  1
  Ga  Ga2  1  0.50000000  0.00000000  0.50000000  1
  Ga  Ga3  1  0.50000000  0.50000000  0.00000000  1
  Mo  Mo4  1  0.60004000  0.10004000  0.10004000  1
  Mo  Mo5  1  0.10004000  0.39996000  0.89996000  1
  Mo  Mo6  1  0.89996000  0.39996000  0.10004000  1
  Mo  Mo7  1  0.39996000  0.10004000  0.89996000  1
  Mo  Mo8  1  0.60004000  0.60004000  0.60004000  1
  Mo  Mo9  1  0.10004000  0.89996000  0.39996000  1
  Mo  Mo10  1  0.89996000  0.89996000  0.60004000  1
  Mo  Mo11  1  0.39996000  0.60004000  0.39996000  1
  Mo  Mo12  1  0.10004000  0.10004000  0.60004000  1
  Mo  Mo13  1  0.60004000  0.39996000  0.39996000  1
  Mo  Mo14  1  0.39996000  0.39996000  0.60004000  1
  Mo  Mo15  1  0.89996000  0.10004000  0.39996000  1
  Mo  Mo16  1  0.10004000  0.60004000  0.10004000  1
  Mo  Mo17  1  0.60004000  0.89996000  0.89996000  1
  Mo  Mo18  1  0.39996000  0.89996000  0.10004000  1
  Mo  Mo19  1  0.89996000  0.60004000  0.89996000  1
  Se  Se20  1  0.36272833  0.36272833  0.86272833  1
  Se  Se21  1  0.36272833  0.13727167  0.63727167  1
  Se  Se22  1  0.13727167  0.13727167  0.86272833  1
  Se  Se23  1  0.13552300  0.36447700  0.13552300  1
  Se  Se24  1  0.63552300  0.13552300  0.86447700  1
  Se  Se25  1  0.36447700  0.13552300  0.13552300  1
  Se  Se26  1  0.86447700  0.36447700  0.86447700  1
  Se  Se27  1  0.13727167  0.36272833  0.63727167  1
  Se  Se28  1  0.36272833  0.86272833  0.36272833  1
  Se  Se29  1  0.36272833  0.63727167  0.13727167  1
  Se  Se30  1  0.13727167  0.63727167  0.36272833  1
  Se  Se31  1  0.13552300  0.86447700  0.63552300  1
  Se  Se32  1  0.63552300  0.63552300  0.36447700  1
  Se  Se33  1  0.36447700  0.63552300  0.63552300  1
  Se  Se34  1  0.86447700  0.86447700  0.36447700  1
  Se  Se35  1  0.13727167  0.86272833  0.13727167  1
  Se  Se36  1  0.86272833  0.36272833  0.36272833  1
  Se  Se37  1  0.86272833  0.13727167  0.13727167  1
  Se  Se38  1  0.63727167  0.13727167  0.36272833  1
  Se  Se39  1  0.63552300  0.36447700  0.63552300  1
  Se  Se40  1  0.13552300  0.13552300  0.36447700  1
  Se  Se41  1  0.86447700  0.13552300  0.63552300  1
  Se  Se42  1  0.36447700  0.36447700  0.36447700  1
  Se  Se43  1  0.63727167  0.36272833  0.13727167  1
  Se  Se44  1  0.86272833  0.86272833  0.86272833  1
  Se  Se45  1  0.86272833  0.63727167  0.63727167  1
  Se  Se46  1  0.63727167  0.63727167  0.86272833  1
  Se  Se47  1  0.63552300  0.86447700  0.13552300  1
  Se  Se48  1  0.13552300  0.63552300  0.86447700  1
  Se  Se49  1  0.86447700  0.63552300  0.13552300  1
  Se  Se50  1  0.36447700  0.86447700  0.86447700  1
  Se  Se51  1  0.63727167  0.86272833  0.63727167  1
