# generated using pymatgen
data_NaNiAsO4
_symmetry_space_group_name_H-M   'P 1'
_cell_length_a   5.02602157
_cell_length_b   5.02602157
_cell_length_c   26.69282719
_cell_angle_alpha   90.00000000
_cell_angle_beta   90.00000000
_cell_angle_gamma   120.00000000
_symmetry_Int_Tables_number   1
_chemical_formula_structural   NaNiAsO4
_chemical_formula_sum   'Na6 Ni6 As6 O24'
_cell_volume   583.94763245
_cell_formula_units_Z   6
loop_
 _symmetry_equiv_pos_site_id
 _symmetry_equiv_pos_as_xyz
  1  'x, y, z'
loop_
 _atom_site_type_symbol
 _atom_site_label
 _atom_site_symmetry_multiplicity
 _atom_site_fract_x
 _atom_site_fract_y
 _atom_site_fract_z
 _atom_site_occupancy
  Na  Na0  1  0.66666667  0.33333333  0.62065483  1
  Na  Na1  1  0.33333333  0.66666667  0.37934517  1
  Na  Na2  1  0.33333333  0.66666667  0.95398817  1
  Na  Na3  1  0.00000000  0.00000000  0.71267850  1
  Na  Na4  1  0.00000000  0.00000000  0.28732150  1
  Na  Na5  1  0.66666667  0.33333333  0.04601183  1
  Ni  Ni6  1  0.66666667  0.33333333  0.49756400  1
  Ni  Ni7  1  0.33333333  0.66666667  0.50243600  1
  Ni  Ni8  1  0.33333333  0.66666667  0.83089733  1
  Ni  Ni9  1  0.00000000  0.00000000  0.83576933  1
  Ni  Ni10  1  0.00000000  0.00000000  0.16423067  1
  Ni  Ni11  1  0.66666667  0.33333333  0.16910267  1
  As  As12  1  0.00000000  0.00000000  0.56610033  1
  As  As13  1  0.00000000  0.00000000  0.43389967  1
  As  As14  1  0.66666667  0.33333333  0.89943367  1
  As  As15  1  0.66666667  0.33333333  0.76723300  1
  As  As16  1  0.33333333  0.66666667  0.23276700  1
  As  As17  1  0.33333333  0.66666667  0.10056633  1
  O  O18  1  0.00000000  0.00000000  0.62910833  1
  O  O19  1  0.00000000  0.00000000  0.37089167  1
  O  O20  1  0.67529633  0.66522267  0.54567667  1
  O  O21  1  0.32470367  0.33477733  0.45432333  1
  O  O22  1  0.98992633  0.32470367  0.54567667  1
  O  O23  1  0.33477733  0.01007367  0.54567667  1
  O  O24  1  0.66522267  0.98992633  0.45432333  1
  O  O25  1  0.01007367  0.67529633  0.45432333  1
  O  O26  1  0.66666667  0.33333333  0.96244167  1
  O  O27  1  0.66666667  0.33333333  0.70422500  1
  O  O28  1  0.34196300  0.99855600  0.87901000  1
  O  O29  1  0.99137033  0.66811067  0.78765667  1
  O  O30  1  0.65659300  0.65803700  0.87901000  1
  O  O31  1  0.00144400  0.34340700  0.87901000  1
  O  O32  1  0.33188933  0.32325967  0.78765667  1
  O  O33  1  0.67674033  0.00862967  0.78765667  1
  O  O34  1  0.33333333  0.66666667  0.29577500  1
  O  O35  1  0.33333333  0.66666667  0.03755833  1
  O  O36  1  0.00862967  0.33188933  0.21234333  1
  O  O37  1  0.65803700  0.00144400  0.12099000  1
  O  O38  1  0.32325967  0.99137033  0.21234333  1
  O  O39  1  0.66811067  0.67674033  0.21234333  1
  O  O40  1  0.99855600  0.65659300  0.12099000  1
  O  O41  1  0.34340700  0.34196300  0.12099000  1
