# generated using pymatgen
data_K4Cu4Cl10O
_symmetry_space_group_name_H-M   'P 1'
_cell_length_a   14.87189400
_cell_length_b   15.04451400
_cell_length_c   9.03490046
_cell_angle_alpha   90.00000000
_cell_angle_beta   104.38444823
_cell_angle_gamma   90.00000000
_symmetry_Int_Tables_number   1
_chemical_formula_structural   K4Cu4Cl10O
_chemical_formula_sum   'K16 Cu16 Cl40 O4'
_cell_volume   1958.10050961
_cell_formula_units_Z   4
loop_
 _symmetry_equiv_pos_site_id
 _symmetry_equiv_pos_as_xyz
  1  'x, y, z'
loop_
 _atom_site_type_symbol
 _atom_site_label
 _atom_site_symmetry_multiplicity
 _atom_site_fract_x
 _atom_site_fract_y
 _atom_site_fract_z
 _atom_site_occupancy
  K  K0  1  0.36899050  0.07375250  0.86372000  1
  K  K1  1  0.84123900  0.12812100  0.12412400  1
  K  K2  1  0.84123900  0.87187900  0.62412400  1
  K  K3  1  0.63100950  0.07375250  0.63628000  1
  K  K4  1  0.36899050  0.92624750  0.36372000  1
  K  K5  1  0.15876100  0.12812100  0.37587600  1
  K  K6  1  0.63100950  0.92624750  0.13628000  1
  K  K7  1  0.15876100  0.87187900  0.87587600  1
  K  K8  1  0.86899050  0.57375250  0.86372000  1
  K  K9  1  0.34123900  0.62812100  0.12412400  1
  K  K10  1  0.34123900  0.37187900  0.62412400  1
  K  K11  1  0.13100950  0.57375250  0.63628000  1
  K  K12  1  0.86899050  0.42624750  0.36372000  1
  K  K13  1  0.65876100  0.62812100  0.37587600  1
  K  K14  1  0.13100950  0.42624750  0.13628000  1
  K  K15  1  0.65876100  0.37187900  0.87587600  1
  Cu  Cu16  1  0.59175900  0.63998600  0.88524800  1
  Cu  Cu17  1  0.40824100  0.36001400  0.11475200  1
  Cu  Cu18  1  0.43729450  0.79028950  0.87267400  1
  Cu  Cu19  1  0.56270550  0.79028950  0.62732600  1
  Cu  Cu20  1  0.43729450  0.20971050  0.37267400  1
  Cu  Cu21  1  0.56270550  0.20971050  0.12732600  1
  Cu  Cu22  1  0.40824100  0.63998600  0.61475200  1
  Cu  Cu23  1  0.59175900  0.36001400  0.38524800  1
  Cu  Cu24  1  0.09175900  0.13998600  0.88524800  1
  Cu  Cu25  1  0.90824100  0.86001400  0.11475200  1
  Cu  Cu26  1  0.93729450  0.29028950  0.87267400  1
  Cu  Cu27  1  0.06270550  0.29028950  0.62732600  1
  Cu  Cu28  1  0.93729450  0.70971050  0.37267400  1
  Cu  Cu29  1  0.06270550  0.70971050  0.12732600  1
  Cu  Cu30  1  0.90824100  0.13998600  0.61475200  1
  Cu  Cu31  1  0.09175900  0.86001400  0.38524800  1
  Cl  Cl32  1  0.20589700  0.05972100  0.04113600  1
  Cl  Cl33  1  0.50000000  0.52125300  0.75000000  1
  Cl  Cl34  1  0.79410300  0.05972100  0.45886400  1
  Cl  Cl35  1  0.69371100  0.29499900  0.22363500  1
  Cl  Cl36  1  0.37800600  0.11667700  0.51868000  1
  Cl  Cl37  1  0.30628900  0.29499900  0.27636500  1
  Cl  Cl38  1  0.55158200  0.72577800  0.08151000  1
  Cl  Cl39  1  0.50000000  0.08812400  0.25000000  1
  Cl  Cl40  1  0.37800600  0.88332300  0.01868000  1
  Cl  Cl41  1  0.50000000  0.47874700  0.25000000  1
  Cl  Cl42  1  0.55158200  0.27422200  0.58151000  1
  Cl  Cl43  1  0.69371100  0.70500100  0.72363500  1
  Cl  Cl44  1  0.79410300  0.94027900  0.95886400  1
  Cl  Cl45  1  0.62199400  0.88332300  0.48132000  1
  Cl  Cl46  1  0.30628900  0.70500100  0.77636500  1
  Cl  Cl47  1  0.44841800  0.72577800  0.41849000  1
  Cl  Cl48  1  0.44841800  0.27422200  0.91849000  1
  Cl  Cl49  1  0.50000000  0.91187600  0.75000000  1
  Cl  Cl50  1  0.20589700  0.94027900  0.54113600  1
  Cl  Cl51  1  0.62199400  0.11667700  0.98132000  1
  Cl  Cl52  1  0.70589700  0.55972100  0.04113600  1
  Cl  Cl53  1  0.00000000  0.02125300  0.75000000  1
  Cl  Cl54  1  0.29410300  0.55972100  0.45886400  1
  Cl  Cl55  1  0.19371100  0.79499900  0.22363500  1
  Cl  Cl56  1  0.87800600  0.61667700  0.51868000  1
  Cl  Cl57  1  0.80628900  0.79499900  0.27636500  1
  Cl  Cl58  1  0.05158200  0.22577800  0.08151000  1
  Cl  Cl59  1  0.00000000  0.58812400  0.25000000  1
  Cl  Cl60  1  0.87800600  0.38332300  0.01868000  1
  Cl  Cl61  1  0.00000000  0.97874700  0.25000000  1
  Cl  Cl62  1  0.05158200  0.77422200  0.58151000  1
  Cl  Cl63  1  0.19371100  0.20500100  0.72363500  1
  Cl  Cl64  1  0.29410300  0.44027900  0.95886400  1
  Cl  Cl65  1  0.12199400  0.38332300  0.48132000  1
  Cl  Cl66  1  0.80628900  0.20500100  0.77636500  1
  Cl  Cl67  1  0.94841800  0.22577800  0.41849000  1
  Cl  Cl68  1  0.94841800  0.77422200  0.91849000  1
  Cl  Cl69  1  0.00000000  0.41187600  0.75000000  1
  Cl  Cl70  1  0.70589700  0.44027900  0.54113600  1
  Cl  Cl71  1  0.12199400  0.61667700  0.98132000  1
  O  O72  1  0.50000000  0.28092800  0.25000000  1
  O  O73  1  0.50000000  0.71907200  0.75000000  1
  O  O74  1  0.00000000  0.78092800  0.25000000  1
  O  O75  1  0.00000000  0.21907200  0.75000000  1
