# generated using pymatgen
data_U3Ag6Mo5O27
_symmetry_space_group_name_H-M   'P 1'
_cell_length_a   16.53721800
_cell_length_b   11.50135200
_cell_length_c   13.26348280
_cell_angle_alpha   90.00000000
_cell_angle_beta   99.41440114
_cell_angle_gamma   90.00000000
_symmetry_Int_Tables_number   1
_chemical_formula_structural   U3Ag6Mo5O27
_chemical_formula_sum   'U12 Ag24 Mo20 O108'
_cell_volume   2488.74096774
_cell_formula_units_Z   4
loop_
 _symmetry_equiv_pos_site_id
 _symmetry_equiv_pos_as_xyz
  1  'x, y, z'
loop_
 _atom_site_type_symbol
 _atom_site_label
 _atom_site_symmetry_multiplicity
 _atom_site_fract_x
 _atom_site_fract_y
 _atom_site_fract_z
 _atom_site_occupancy
  U  U0  1  0.50000000  0.86074000  0.25000000  1
  U  U1  1  0.36958750  0.12278750  0.27739900  1
  U  U2  1  0.36958750  0.87721250  0.77739900  1
  U  U3  1  0.50000000  0.13926000  0.75000000  1
  U  U4  1  0.63041250  0.12278750  0.22260100  1
  U  U5  1  0.63041250  0.87721250  0.72260100  1
  U  U6  1  0.00000000  0.36074000  0.25000000  1
  U  U7  1  0.86958750  0.62278750  0.27739900  1
  U  U8  1  0.86958750  0.37721250  0.77739900  1
  U  U9  1  0.00000000  0.63926000  0.75000000  1
  U  U10  1  0.13041250  0.62278750  0.22260100  1
  U  U11  1  0.13041250  0.37721250  0.72260100  1
  Ag  Ag12  1  0.22115000  0.11391300  0.90082800  1
  Ag  Ag13  1  0.57480750  0.87028050  0.97987600  1
  Ag  Ag14  1  0.77885000  0.11391300  0.59917200  1
  Ag  Ag15  1  0.57480750  0.12971950  0.47987600  1
  Ag  Ag16  1  0.42519250  0.12971950  0.02012400  1
  Ag  Ag17  1  0.57567600  0.60216500  0.45403100  1
  Ag  Ag18  1  0.22115000  0.88608700  0.40082800  1
  Ag  Ag19  1  0.77885000  0.88608700  0.09917200  1
  Ag  Ag20  1  0.42432400  0.60216500  0.04596900  1
  Ag  Ag21  1  0.57567600  0.39783500  0.95403100  1
  Ag  Ag22  1  0.42519250  0.87028050  0.52012400  1
  Ag  Ag23  1  0.42432400  0.39783500  0.54596900  1
  Ag  Ag24  1  0.72115000  0.61391300  0.90082800  1
  Ag  Ag25  1  0.07480750  0.37028050  0.97987600  1
  Ag  Ag26  1  0.27885000  0.61391300  0.59917200  1
  Ag  Ag27  1  0.07480750  0.62971950  0.47987600  1
  Ag  Ag28  1  0.92519250  0.62971950  0.02012400  1
  Ag  Ag29  1  0.07567600  0.10216500  0.45403100  1
  Ag  Ag30  1  0.72115000  0.38608700  0.40082800  1
  Ag  Ag31  1  0.27885000  0.38608700  0.09917200  1
  Ag  Ag32  1  0.92432400  0.10216500  0.04596900  1
  Ag  Ag33  1  0.07567600  0.89783500  0.95403100  1
  Ag  Ag34  1  0.92519250  0.37028050  0.52012400  1
  Ag  Ag35  1  0.92432400  0.89783500  0.54596900  1
  Mo  Mo36  1  0.28135500  0.85607100  0.10781900  1
  Mo  Mo37  1  0.14237450  0.87174150  0.66788900  1
  Mo  Mo38  1  0.14237450  0.12825850  0.16788900  1
  Mo  Mo39  1  0.85762550  0.12825850  0.33211100  1
  Mo  Mo40  1  0.28135500  0.14392900  0.60781900  1
  Mo  Mo41  1  0.71864500  0.85607100  0.39218100  1
  Mo  Mo42  1  0.71864500  0.14392900  0.89218100  1
  Mo  Mo43  1  0.50000000  0.63208600  0.75000000  1
  Mo  Mo44  1  0.50000000  0.36791400  0.25000000  1
  Mo  Mo45  1  0.85762550  0.87174150  0.83211100  1
  Mo  Mo46  1  0.78135500  0.35607100  0.10781900  1
  Mo  Mo47  1  0.64237450  0.37174150  0.66788900  1
  Mo  Mo48  1  0.64237450  0.62825850  0.16788900  1
  Mo  Mo49  1  0.35762550  0.62825850  0.33211100  1
  Mo  Mo50  1  0.78135500  0.64392900  0.60781900  1
  Mo  Mo51  1  0.21864500  0.35607100  0.39218100  1
  Mo  Mo52  1  0.21864500  0.64392900  0.89218100  1
  Mo  Mo53  1  0.00000000  0.13208600  0.75000000  1
  Mo  Mo54  1  0.00000000  0.86791400  0.25000000  1
  Mo  Mo55  1  0.35762550  0.37174150  0.83211100  1
  O  O56  1  0.66692000  0.23921100  0.96397300  1
  O  O57  1  0.59021200  0.29528000  0.75917300  1
  O  O58  1  0.22848750  0.03540050  0.52631300  1
  O  O59  1  0.61892650  0.95015050  0.59821200  1
  O  O60  1  0.40978800  0.29528000  0.74082700  1
  O  O61  1  0.91870000  0.04714300  0.68195000  1
  O  O62  1  0.40978800  0.70472000  0.24082700  1
  O  O63  1  0.93162300  0.96317800  0.90722300  1
  O  O64  1  0.63703550  0.93320950  0.30164200  1
  O  O65  1  0.06837700  0.03682200  0.09277700  1
  O  O66  1  0.38107350  0.04984950  0.40178800  1
  O  O67  1  0.08130000  0.95285700  0.31805000  1
  O  O68  1  0.50000000  0.05462200  0.25000000  1
  O  O69  1  0.54136800  0.72828700  0.66028700  1
  O  O70  1  0.49521550  0.85565650  0.38893600  1
  O  O71  1  0.36296450  0.06679050  0.69835800  1
  O  O72  1  0.49521550  0.14434350  0.88893600  1
  O  O73  1  0.45863200  0.72828700  0.83971300  1
  O  O74  1  0.67580400  0.26473800  0.58611500  1
  O  O75  1  0.06837700  0.96317800  0.59277700  1
  O  O76  1  0.28342150  0.27476850  0.31802100  1
  O  O77  1  0.32419600  0.26473800  0.91388500  1
  O  O78  1  0.50478450  0.85565650  0.11106400  1
  O  O79  1  0.64052800  0.19122500  0.35174700  1
  O  O80  1  0.33308000  0.76078900  0.03602700  1
  O  O81  1  0.50478450  0.14434350  0.61106400  1
  O  O82  1  0.38107350  0.95015050  0.90178800  1
  O  O83  1  0.59021200  0.70472000  0.25917300  1
  O  O84  1  0.22848750  0.96459950  0.02631300  1
  O  O85  1  0.50000000  0.94537800  0.75000000  1
  O  O86  1  0.76797050  0.94698750  0.76260100  1
  O  O87  1  0.28342150  0.72523150  0.81802100  1
  O  O88  1  0.63703550  0.06679050  0.80164200  1
  O  O89  1  0.77151250  0.03540050  0.97368700  1
  O  O90  1  0.32419600  0.73526200  0.41388500  1
  O  O91  1  0.93162300  0.03682200  0.40722300  1
  O  O92  1  0.45863200  0.27171300  0.33971300  1
  O  O93  1  0.64052800  0.80877500  0.85174700  1
  O  O94  1  0.33308000  0.23921100  0.53602700  1
  O  O95  1  0.35947200  0.80877500  0.64825300  1
  O  O96  1  0.71657850  0.27476850  0.18197900  1
  O  O97  1  0.67580400  0.73526200  0.08611500  1
  O  O98  1  0.61892650  0.04984950  0.09821200  1
  O  O99  1  0.91870000  0.95285700  0.18195000  1
  O  O100  1  0.23202950  0.05301250  0.23739900  1
  O  O101  1  0.54136800  0.27171300  0.16028700  1
  O  O102  1  0.35947200  0.19122500  0.14825300  1
  O  O103  1  0.76797050  0.05301250  0.26260100  1
  O  O104  1  0.77151250  0.96459950  0.47368700  1
  O  O105  1  0.08130000  0.04714300  0.81805000  1
  O  O106  1  0.66692000  0.76078900  0.46397300  1
  O  O107  1  0.36296450  0.93320950  0.19835800  1
  O  O108  1  0.71657850  0.72523150  0.68197900  1
  O  O109  1  0.23202950  0.94698750  0.73739900  1
  O  O110  1  0.16692000  0.73921100  0.96397300  1
  O  O111  1  0.09021200  0.79528000  0.75917300  1
  O  O112  1  0.72848750  0.53540050  0.52631300  1
  O  O113  1  0.11892650  0.45015050  0.59821200  1
  O  O114  1  0.90978800  0.79528000  0.74082700  1
  O  O115  1  0.41870000  0.54714300  0.68195000  1
  O  O116  1  0.90978800  0.20472000  0.24082700  1
  O  O117  1  0.43162300  0.46317800  0.90722300  1
  O  O118  1  0.13703550  0.43320950  0.30164200  1
  O  O119  1  0.56837700  0.53682200  0.09277700  1
  O  O120  1  0.88107350  0.54984950  0.40178800  1
  O  O121  1  0.58130000  0.45285700  0.31805000  1
  O  O122  1  0.00000000  0.55462200  0.25000000  1
  O  O123  1  0.04136800  0.22828700  0.66028700  1
  O  O124  1  0.99521550  0.35565650  0.38893600  1
  O  O125  1  0.86296450  0.56679050  0.69835800  1
  O  O126  1  0.99521550  0.64434350  0.88893600  1
  O  O127  1  0.95863200  0.22828700  0.83971300  1
  O  O128  1  0.17580400  0.76473800  0.58611500  1
  O  O129  1  0.56837700  0.46317800  0.59277700  1
  O  O130  1  0.78342150  0.77476850  0.31802100  1
  O  O131  1  0.82419600  0.76473800  0.91388500  1
  O  O132  1  0.00478450  0.35565650  0.11106400  1
  O  O133  1  0.14052800  0.69122500  0.35174700  1
  O  O134  1  0.83308000  0.26078900  0.03602700  1
  O  O135  1  0.00478450  0.64434350  0.61106400  1
  O  O136  1  0.88107350  0.45015050  0.90178800  1
  O  O137  1  0.09021200  0.20472000  0.25917300  1
  O  O138  1  0.72848750  0.46459950  0.02631300  1
  O  O139  1  0.00000000  0.44537800  0.75000000  1
  O  O140  1  0.26797050  0.44698750  0.76260100  1
  O  O141  1  0.78342150  0.22523150  0.81802100  1
  O  O142  1  0.13703550  0.56679050  0.80164200  1
  O  O143  1  0.27151250  0.53540050  0.97368700  1
  O  O144  1  0.82419600  0.23526200  0.41388500  1
  O  O145  1  0.43162300  0.53682200  0.40722300  1
  O  O146  1  0.95863200  0.77171300  0.33971300  1
  O  O147  1  0.14052800  0.30877500  0.85174700  1
  O  O148  1  0.83308000  0.73921100  0.53602700  1
  O  O149  1  0.85947200  0.30877500  0.64825300  1
  O  O150  1  0.21657850  0.77476850  0.18197900  1
  O  O151  1  0.17580400  0.23526200  0.08611500  1
  O  O152  1  0.11892650  0.54984950  0.09821200  1
  O  O153  1  0.41870000  0.45285700  0.18195000  1
  O  O154  1  0.73202950  0.55301250  0.23739900  1
  O  O155  1  0.04136800  0.77171300  0.16028700  1
  O  O156  1  0.85947200  0.69122500  0.14825300  1
  O  O157  1  0.26797050  0.55301250  0.26260100  1
  O  O158  1  0.27151250  0.46459950  0.47368700  1
  O  O159  1  0.58130000  0.54714300  0.81805000  1
  O  O160  1  0.16692000  0.26078900  0.46397300  1
  O  O161  1  0.86296450  0.43320950  0.19835800  1
  O  O162  1  0.21657850  0.22523150  0.68197900  1
  O  O163  1  0.73202950  0.44698750  0.73739900  1
