# generated using pymatgen
data_Dy3Ge5
_symmetry_space_group_name_H-M   'P 1'
_cell_length_a   5.77792400
_cell_length_b   13.76966600
_cell_length_c   17.40181600
_cell_angle_alpha   90.00000000
_cell_angle_beta   90.00000000
_cell_angle_gamma   90.00000000
_symmetry_Int_Tables_number   1
_chemical_formula_structural   Dy3Ge5
_chemical_formula_sum   'Dy24 Ge40'
_cell_volume   1384.48993668
_cell_formula_units_Z   8
loop_
 _symmetry_equiv_pos_site_id
 _symmetry_equiv_pos_as_xyz
  1  'x, y, z'
loop_
 _atom_site_type_symbol
 _atom_site_label
 _atom_site_symmetry_multiplicity
 _atom_site_fract_x
 _atom_site_fract_y
 _atom_site_fract_z
 _atom_site_occupancy
  Dy  Dy0  1  0.25000000  0.99623700  0.75000000  1
  Dy  Dy1  1  0.50000000  0.74623700  0.00000000  1
  Dy  Dy2  1  0.98158850  0.75353150  0.83241600  1
  Dy  Dy3  1  0.01841150  0.75353150  0.16758400  1
  Dy  Dy4  1  0.76841150  0.50353150  0.08241600  1
  Dy  Dy5  1  0.23158850  0.50353150  0.91758400  1
  Dy  Dy6  1  0.25000000  0.49623700  0.25000000  1
  Dy  Dy7  1  0.50000000  0.24623700  0.50000000  1
  Dy  Dy8  1  0.98158850  0.25353150  0.33241600  1
  Dy  Dy9  1  0.01841150  0.25353150  0.66758400  1
  Dy  Dy10  1  0.76841150  0.00353150  0.58241600  1
  Dy  Dy11  1  0.23158850  0.00353150  0.41758400  1
  Dy  Dy12  1  0.75000000  0.49623700  0.75000000  1
  Dy  Dy13  1  0.00000000  0.24623700  0.00000000  1
  Dy  Dy14  1  0.48158850  0.25353150  0.83241600  1
  Dy  Dy15  1  0.51841150  0.25353150  0.16758400  1
  Dy  Dy16  1  0.26841150  0.00353150  0.08241600  1
  Dy  Dy17  1  0.73158850  0.00353150  0.91758400  1
  Dy  Dy18  1  0.75000000  0.99623700  0.25000000  1
  Dy  Dy19  1  0.00000000  0.74623700  0.50000000  1
  Dy  Dy20  1  0.48158850  0.75353150  0.33241600  1
  Dy  Dy21  1  0.51841150  0.75353150  0.66758400  1
  Dy  Dy22  1  0.26841150  0.50353150  0.58241600  1
  Dy  Dy23  1  0.73158850  0.50353150  0.41758400  1
  Ge  Ge24  1  0.75000000  0.94154100  0.75000000  1
  Ge  Ge25  1  0.00000000  0.69154100  0.00000000  1
  Ge  Ge26  1  0.43348600  0.64970700  0.81333000  1
  Ge  Ge27  1  0.56651400  0.64970700  0.18667000  1
  Ge  Ge28  1  0.81651400  0.89970700  0.06333000  1
  Ge  Ge29  1  0.18348600  0.89970700  0.93667000  1
  Ge  Ge30  1  0.49510400  0.83280150  0.83727650  1
  Ge  Ge31  1  0.50489600  0.83280150  0.16272350  1
  Ge  Ge32  1  0.25489600  0.58280150  0.08727650  1
  Ge  Ge33  1  0.74510400  0.58280150  0.91272350  1
  Ge  Ge34  1  0.75000000  0.44154100  0.25000000  1
  Ge  Ge35  1  0.00000000  0.19154100  0.50000000  1
  Ge  Ge36  1  0.43348600  0.14970700  0.31333000  1
  Ge  Ge37  1  0.56651400  0.14970700  0.68667000  1
  Ge  Ge38  1  0.81651400  0.39970700  0.56333000  1
  Ge  Ge39  1  0.18348600  0.39970700  0.43667000  1
  Ge  Ge40  1  0.49510400  0.33280150  0.33727650  1
  Ge  Ge41  1  0.50489600  0.33280150  0.66272350  1
  Ge  Ge42  1  0.25489600  0.08280150  0.58727650  1
  Ge  Ge43  1  0.74510400  0.08280150  0.41272350  1
  Ge  Ge44  1  0.25000000  0.44154100  0.75000000  1
  Ge  Ge45  1  0.50000000  0.19154100  0.00000000  1
  Ge  Ge46  1  0.93348600  0.14970700  0.81333000  1
  Ge  Ge47  1  0.06651400  0.14970700  0.18667000  1
  Ge  Ge48  1  0.31651400  0.39970700  0.06333000  1
  Ge  Ge49  1  0.68348600  0.39970700  0.93667000  1
  Ge  Ge50  1  0.99510400  0.33280150  0.83727650  1
  Ge  Ge51  1  0.00489600  0.33280150  0.16272350  1
  Ge  Ge52  1  0.75489600  0.08280150  0.08727650  1
  Ge  Ge53  1  0.24510400  0.08280150  0.91272350  1
  Ge  Ge54  1  0.25000000  0.94154100  0.25000000  1
  Ge  Ge55  1  0.50000000  0.69154100  0.50000000  1
  Ge  Ge56  1  0.93348600  0.64970700  0.31333000  1
  Ge  Ge57  1  0.06651400  0.64970700  0.68667000  1
  Ge  Ge58  1  0.31651400  0.89970700  0.56333000  1
  Ge  Ge59  1  0.68348600  0.89970700  0.43667000  1
  Ge  Ge60  1  0.99510400  0.83280150  0.33727650  1
  Ge  Ge61  1  0.00489600  0.83280150  0.66272350  1
  Ge  Ge62  1  0.75489600  0.58280150  0.58727650  1
  Ge  Ge63  1  0.24510400  0.58280150  0.41272350  1
