# generated using pymatgen
data_Na3V(SO4)3
_symmetry_space_group_name_H-M   'P 1'
_cell_length_a   13.66576841
_cell_length_b   13.66576841
_cell_length_c   9.26490255
_cell_angle_alpha   90.00000000
_cell_angle_beta   90.00000000
_cell_angle_gamma   120.00000000
_symmetry_Int_Tables_number   1
_chemical_formula_structural   Na3V(SO4)3
_chemical_formula_sum   'Na18 V6 S18 O72'
_cell_volume   1498.44083822
_cell_formula_units_Z   6
loop_
 _symmetry_equiv_pos_site_id
 _symmetry_equiv_pos_as_xyz
  1  'x, y, z'
loop_
 _atom_site_type_symbol
 _atom_site_label
 _atom_site_symmetry_multiplicity
 _atom_site_fract_x
 _atom_site_fract_y
 _atom_site_fract_z
 _atom_site_occupancy
  Na  Na0  1  0.25643867  0.89274133  0.50792433  1
  Na  Na1  1  0.10725867  0.36369733  0.50792433  1
  Na  Na2  1  0.63630267  0.74356133  0.50792433  1
  Na  Na3  1  0.74356133  0.10725867  0.49207567  1
  Na  Na4  1  0.89274133  0.63630267  0.49207567  1
  Na  Na5  1  0.36369733  0.25643867  0.49207567  1
  Na  Na6  1  0.92310533  0.22607467  0.84125767  1
  Na  Na7  1  0.77392533  0.69703067  0.84125767  1
  Na  Na8  1  0.30296933  0.07689467  0.84125767  1
  Na  Na9  1  0.41022800  0.44059200  0.82540900  1
  Na  Na10  1  0.55940800  0.96963600  0.82540900  1
  Na  Na11  1  0.03036400  0.58977200  0.82540900  1
  Na  Na12  1  0.58977200  0.55940800  0.17459100  1
  Na  Na13  1  0.44059200  0.03036400  0.17459100  1
  Na  Na14  1  0.96963600  0.41022800  0.17459100  1
  Na  Na15  1  0.07689467  0.77392533  0.15874233  1
  Na  Na16  1  0.22607467  0.30296933  0.15874233  1
  Na  Na17  1  0.69703067  0.92310533  0.15874233  1
  V  V18  1  0.00000000  0.00000000  0.00000000  1
  V  V19  1  0.00000000  0.00000000  0.50000000  1
  V  V20  1  0.66666667  0.33333333  0.33333333  1
  V  V21  1  0.66666667  0.33333333  0.83333333  1
  V  V22  1  0.33333333  0.66666667  0.66666667  1
  V  V23  1  0.33333333  0.66666667  0.16666667  1
  S  S24  1  0.02473533  0.83759067  0.73934267  1
  S  S25  1  0.16240933  0.18714467  0.73934267  1
  S  S26  1  0.81285533  0.97526467  0.73934267  1
  S  S27  1  0.97526467  0.16240933  0.26065733  1
  S  S28  1  0.83759067  0.81285533  0.26065733  1
  S  S29  1  0.18714467  0.02473533  0.26065733  1
  S  S30  1  0.69140200  0.17092400  0.07267600  1
  S  S31  1  0.82907600  0.52047800  0.07267600  1
  S  S32  1  0.47952200  0.30859800  0.07267600  1
  S  S33  1  0.64193133  0.49574267  0.59399067  1
  S  S34  1  0.50425733  0.14618867  0.59399067  1
  S  S35  1  0.85381133  0.35806867  0.59399067  1
  S  S36  1  0.35806867  0.50425733  0.40600933  1
  S  S37  1  0.49574267  0.85381133  0.40600933  1
  S  S38  1  0.14618867  0.64193133  0.40600933  1
  S  S39  1  0.30859800  0.82907600  0.92732400  1
  S  S40  1  0.17092400  0.47952200  0.92732400  1
  S  S41  1  0.52047800  0.69140200  0.92732400  1
  O  O42  1  0.96580400  0.86392000  0.62060100  1
  O  O43  1  0.13608000  0.10188400  0.62060100  1
  O  O44  1  0.89811600  0.03419600  0.62060100  1
  O  O45  1  0.03419600  0.13608000  0.37939900  1
  O  O46  1  0.86392000  0.89811600  0.37939900  1
  O  O47  1  0.10188400  0.96580400  0.37939900  1
  O  O48  1  0.14727367  0.89886833  0.72027633  1
  O  O49  1  0.10113167  0.24840533  0.72027633  1
  O  O50  1  0.75159467  0.85272633  0.72027633  1
  O  O51  1  0.85272633  0.10113167  0.27972367  1
  O  O52  1  0.89886833  0.75159467  0.27972367  1
  O  O53  1  0.24840533  0.14727367  0.27972367  1
  O  O54  1  0.30569667  0.38005333  0.40514533  1
  O  O55  1  0.61994667  0.92564333  0.40514533  1
  O  O56  1  0.07435667  0.69430333  0.40514533  1
  O  O57  1  0.69430333  0.61994667  0.59485467  1
  O  O58  1  0.38005333  0.07435667  0.59485467  1
  O  O59  1  0.92564333  0.30569667  0.59485467  1
  O  O60  1  0.32438800  0.53528300  0.54757800  1
  O  O61  1  0.46471700  0.78910500  0.54757800  1
  O  O62  1  0.21089500  0.67561200  0.54757800  1
  O  O63  1  0.67561200  0.46471700  0.45242200  1
  O  O64  1  0.53528300  0.21089500  0.45242200  1
  O  O65  1  0.78910500  0.32438800  0.45242200  1
  O  O66  1  0.63247067  0.19725333  0.95393433  1
  O  O67  1  0.80274667  0.43521733  0.95393433  1
  O  O68  1  0.56478267  0.36752933  0.95393433  1
  O  O69  1  0.70086267  0.46941333  0.71273233  1
  O  O70  1  0.53058667  0.23144933  0.71273233  1
  O  O71  1  0.76855067  0.29913733  0.71273233  1
  O  O72  1  0.81394033  0.23220167  0.05360967  1
  O  O73  1  0.76779833  0.58173867  0.05360967  1
  O  O74  1  0.41826133  0.18605967  0.05360967  1
  O  O75  1  0.51939300  0.43446500  0.61305700  1
  O  O76  1  0.56553500  0.08492800  0.61305700  1
  O  O77  1  0.91507200  0.48060700  0.61305700  1
  O  O78  1  0.97236333  0.71338667  0.73847867  1
  O  O79  1  0.28661333  0.25897667  0.73847867  1
  O  O80  1  0.74102333  0.02763667  0.73847867  1
  O  O81  1  0.36097000  0.95328000  0.92818800  1
  O  O82  1  0.04672000  0.40769000  0.92818800  1
  O  O83  1  0.59231000  0.63903000  0.92818800  1
  O  O84  1  0.99105467  0.86861633  0.88091133  1
  O  O85  1  0.13138367  0.12243833  0.88091133  1
  O  O86  1  0.87756167  0.00894533  0.88091133  1
  O  O87  1  0.34227867  0.79805033  0.78575533  1
  O  O88  1  0.20194967  0.54422833  0.78575533  1
  O  O89  1  0.45577167  0.65772133  0.78575533  1
  O  O90  1  0.29913733  0.53058667  0.28726767  1
  O  O91  1  0.46941333  0.76855067  0.28726767  1
  O  O92  1  0.23144933  0.70086267  0.28726767  1
  O  O93  1  0.36752933  0.80274667  0.04606567  1
  O  O94  1  0.19725333  0.56478267  0.04606567  1
  O  O95  1  0.43521733  0.63247067  0.04606567  1
  O  O96  1  0.48060700  0.56553500  0.38694300  1
  O  O97  1  0.43446500  0.91507200  0.38694300  1
  O  O98  1  0.08492800  0.51939300  0.38694300  1
  O  O99  1  0.18605967  0.76779833  0.94639033  1
  O  O100  1  0.23220167  0.41826133  0.94639033  1
  O  O101  1  0.58173867  0.81394033  0.94639033  1
  O  O102  1  0.63903000  0.04672000  0.07181200  1
  O  O103  1  0.95328000  0.59231000  0.07181200  1
  O  O104  1  0.40769000  0.36097000  0.07181200  1
  O  O105  1  0.02763667  0.28661333  0.26152133  1
  O  O106  1  0.71338667  0.74102333  0.26152133  1
  O  O107  1  0.25897667  0.97236333  0.26152133  1
  O  O108  1  0.65772133  0.20194967  0.21424467  1
  O  O109  1  0.79805033  0.45577167  0.21424467  1
  O  O110  1  0.54422833  0.34227867  0.21424467  1
  O  O111  1  0.00894533  0.13138367  0.11908867  1
  O  O112  1  0.86861633  0.87756167  0.11908867  1
  O  O113  1  0.12243833  0.99105467  0.11908867  1
