# generated using pymatgen
data_U8FeS17
_symmetry_space_group_name_H-M   'P 1'
_cell_length_a   13.09580600
_cell_length_b   8.26547800
_cell_length_c   10.23284077
_cell_angle_alpha   90.00000000
_cell_angle_beta   101.14326784
_cell_angle_gamma   90.00000000
_symmetry_Int_Tables_number   1
_chemical_formula_structural   U8FeS17
_chemical_formula_sum   'U16 Fe2 S34'
_cell_volume   1086.75213650
_cell_formula_units_Z   2
loop_
 _symmetry_equiv_pos_site_id
 _symmetry_equiv_pos_as_xyz
  1  'x, y, z'
loop_
 _atom_site_type_symbol
 _atom_site_label
 _atom_site_symmetry_multiplicity
 _atom_site_fract_x
 _atom_site_fract_y
 _atom_site_fract_z
 _atom_site_occupancy
  U  U0  1  0.20271900  0.00000000  0.45399800  1
  U  U1  1  0.44087000  0.74096100  0.29559500  1
  U  U2  1  0.31715500  0.00000000  0.98285800  1
  U  U3  1  0.79728100  0.00000000  0.54600200  1
  U  U4  1  0.55913000  0.25903900  0.70440500  1
  U  U5  1  0.68284500  0.00000000  0.01714200  1
  U  U6  1  0.55913000  0.74096100  0.70440500  1
  U  U7  1  0.44087000  0.25903900  0.29559500  1
  U  U8  1  0.70271900  0.50000000  0.45399800  1
  U  U9  1  0.94087000  0.24096100  0.29559500  1
  U  U10  1  0.81715500  0.50000000  0.98285800  1
  U  U11  1  0.29728100  0.50000000  0.54600200  1
  U  U12  1  0.05913000  0.75903900  0.70440500  1
  U  U13  1  0.18284500  0.50000000  0.01714200  1
  U  U14  1  0.05913000  0.24096100  0.70440500  1
  U  U15  1  0.94087000  0.75903900  0.29559500  1
  Fe  Fe16  1  0.00000000  0.00000000  0.00000000  1
  Fe  Fe17  1  0.50000000  0.50000000  0.00000000  1
  S  S18  1  0.47801600  0.00000000  0.83073100  1
  S  S19  1  0.36978650  0.68618150  0.02466900  1
  S  S20  1  0.78758000  0.00000000  0.27830500  1
  S  S21  1  0.37340250  0.19297650  0.53506000  1
  S  S22  1  0.21242000  0.00000000  0.72169500  1
  S  S23  1  0.63021350  0.31381850  0.97533100  1
  S  S24  1  0.37340250  0.80702350  0.53506000  1
  S  S25  1  0.30089200  0.00000000  0.24338000  1
  S  S26  1  0.94305500  0.00000000  0.77832600  1
  S  S27  1  0.63021350  0.68618150  0.97533100  1
  S  S28  1  0.05694500  0.00000000  0.22167400  1
  S  S29  1  0.36978650  0.31381850  0.02466900  1
  S  S30  1  0.52198400  0.00000000  0.16926900  1
  S  S31  1  0.62659750  0.80702350  0.46494000  1
  S  S32  1  0.00000000  0.00000000  0.50000000  1
  S  S33  1  0.62659750  0.19297650  0.46494000  1
  S  S34  1  0.69910800  0.00000000  0.75662000  1
  S  S35  1  0.97801600  0.50000000  0.83073100  1
  S  S36  1  0.86978650  0.18618150  0.02466900  1
  S  S37  1  0.28758000  0.50000000  0.27830500  1
  S  S38  1  0.87340250  0.69297650  0.53506000  1
  S  S39  1  0.71242000  0.50000000  0.72169500  1
  S  S40  1  0.13021350  0.81381850  0.97533100  1
  S  S41  1  0.87340250  0.30702350  0.53506000  1
  S  S42  1  0.80089200  0.50000000  0.24338000  1
  S  S43  1  0.44305500  0.50000000  0.77832600  1
  S  S44  1  0.13021350  0.18618150  0.97533100  1
  S  S45  1  0.55694500  0.50000000  0.22167400  1
  S  S46  1  0.86978650  0.81381850  0.02466900  1
  S  S47  1  0.02198400  0.50000000  0.16926900  1
  S  S48  1  0.12659750  0.30702350  0.46494000  1
  S  S49  1  0.50000000  0.50000000  0.50000000  1
  S  S50  1  0.12659750  0.69297650  0.46494000  1
  S  S51  1  0.19910800  0.50000000  0.75662000  1
