# generated using pymatgen
data_KNiAsO4
_symmetry_space_group_name_H-M   'P 1'
_cell_length_a   5.06116813
_cell_length_b   5.06116813
_cell_length_c   28.95951123
_cell_angle_alpha   90.00000000
_cell_angle_beta   90.00000000
_cell_angle_gamma   120.00000000
_symmetry_Int_Tables_number   1
_chemical_formula_structural   KNiAsO4
_chemical_formula_sum   'K6 Ni6 As6 O24'
_cell_volume   642.42641400
_cell_formula_units_Z   6
loop_
 _symmetry_equiv_pos_site_id
 _symmetry_equiv_pos_as_xyz
  1  'x, y, z'
loop_
 _atom_site_type_symbol
 _atom_site_label
 _atom_site_symmetry_multiplicity
 _atom_site_fract_x
 _atom_site_fract_y
 _atom_site_fract_z
 _atom_site_occupancy
  K  K0  1  0.00000000  0.00000000  0.28901850  1
  K  K1  1  0.66666667  0.33333333  0.04431483  1
  K  K2  1  0.66666667  0.33333333  0.62235183  1
  K  K3  1  0.33333333  0.66666667  0.37764817  1
  K  K4  1  0.33333333  0.66666667  0.95568517  1
  K  K5  1  0.00000000  0.00000000  0.71098150  1
  Ni  Ni6  1  0.66666667  0.33333333  0.16814767  1
  Ni  Ni7  1  0.00000000  0.00000000  0.16518567  1
  Ni  Ni8  1  0.33333333  0.66666667  0.50148100  1
  Ni  Ni9  1  0.66666667  0.33333333  0.49851900  1
  Ni  Ni10  1  0.00000000  0.00000000  0.83481433  1
  Ni  Ni11  1  0.33333333  0.66666667  0.83185233  1
  As  As12  1  0.33333333  0.66666667  0.10628183  1
  As  As13  1  0.33333333  0.66666667  0.22705150  1
  As  As14  1  0.00000000  0.00000000  0.43961517  1
  As  As15  1  0.00000000  0.00000000  0.56038483  1
  As  As16  1  0.66666667  0.33333333  0.77294850  1
  As  As17  1  0.66666667  0.33333333  0.89371817  1
  O  O18  1  0.33333333  0.66666667  0.28577100  1
  O  O19  1  0.33333333  0.66666667  0.04756233  1
  O  O20  1  0.00291067  0.66105533  0.12494633  1
  O  O21  1  0.65814467  0.99708933  0.12494633  1
  O  O22  1  0.32772200  0.99147800  0.20838700  1
  O  O23  1  0.66375600  0.67227800  0.20838700  1
  O  O24  1  0.33894467  0.34185533  0.12494633  1
  O  O25  1  0.00852200  0.33624400  0.20838700  1
  O  O26  1  0.00000000  0.00000000  0.61910433  1
  O  O27  1  0.00000000  0.00000000  0.38089567  1
  O  O28  1  0.66957733  0.99438867  0.45827967  1
  O  O29  1  0.32481133  0.33042267  0.45827967  1
  O  O30  1  0.99438867  0.32481133  0.54172033  1
  O  O31  1  0.33042267  0.00561133  0.54172033  1
  O  O32  1  0.00561133  0.67518867  0.45827967  1
  O  O33  1  0.67518867  0.66957733  0.54172033  1
  O  O34  1  0.66666667  0.33333333  0.95243767  1
  O  O35  1  0.66666667  0.33333333  0.71422900  1
  O  O36  1  0.33624400  0.32772200  0.79161300  1
  O  O37  1  0.99147800  0.66375600  0.79161300  1
  O  O38  1  0.66105533  0.65814467  0.87505367  1
  O  O39  1  0.99708933  0.33894467  0.87505367  1
  O  O40  1  0.67227800  0.00852200  0.79161300  1
  O  O41  1  0.34185533  0.00291067  0.87505367  1
