# generated using pymatgen
data_MnAsO4
_symmetry_space_group_name_H-M   'P 1'
_cell_length_a   4.91252853
_cell_length_b   9.09682500
_cell_length_c   8.13622382
_cell_angle_alpha   90.00000000
_cell_angle_beta   122.55836733
_cell_angle_gamma   90.00000000
_symmetry_Int_Tables_number   1
_chemical_formula_structural   MnAsO4
_chemical_formula_sum   'Mn4 As4 O16'
_cell_volume   306.45367751
_cell_formula_units_Z   4
loop_
 _symmetry_equiv_pos_site_id
 _symmetry_equiv_pos_as_xyz
  1  'x, y, z'
loop_
 _atom_site_type_symbol
 _atom_site_label
 _atom_site_symmetry_multiplicity
 _atom_site_fract_x
 _atom_site_fract_y
 _atom_site_fract_z
 _atom_site_occupancy
  Mn  Mn0  1  0.00000000  0.50000000  0.50000000  1
  Mn  Mn1  1  0.00000000  0.00000000  0.00000000  1
  Mn  Mn2  1  0.50000000  0.00000000  0.50000000  1
  Mn  Mn3  1  0.50000000  0.50000000  0.00000000  1
  As  As4  1  0.82057000  0.67918000  0.78321200  1
  As  As5  1  0.82057000  0.82082000  0.28321200  1
  As  As6  1  0.17943000  0.32082000  0.21678800  1
  As  As7  1  0.17943000  0.17918000  0.71678800  1
  O  O8  1  0.75588000  0.87756200  0.06421900  1
  O  O9  1  0.82538600  0.12421000  0.51223200  1
  O  O10  1  0.24412000  0.37756200  0.43578100  1
  O  O11  1  0.50948600  0.37969300  0.21222600  1
  O  O12  1  0.49051400  0.87969300  0.28777400  1
  O  O13  1  0.14586200  0.37007600  0.72758800  1
  O  O14  1  0.14586200  0.12992400  0.22758800  1
  O  O15  1  0.85413800  0.87007600  0.77241200  1
  O  O16  1  0.24412000  0.12243800  0.93578100  1
  O  O17  1  0.82538600  0.37579000  0.01223200  1
  O  O18  1  0.75588000  0.62243800  0.56421900  1
  O  O19  1  0.50948600  0.12030700  0.71222600  1
  O  O20  1  0.17461400  0.62421000  0.98776800  1
  O  O21  1  0.49051400  0.62030700  0.78777400  1
  O  O22  1  0.85413800  0.62992400  0.27241200  1
  O  O23  1  0.17461400  0.87579000  0.48776800  1
