# generated using pymatgen
data_CrPO5
_symmetry_space_group_name_H-M   'P 1'
_cell_length_a   6.09121200
_cell_length_b   7.15650100
_cell_length_c   8.12881400
_cell_angle_alpha   90.00000000
_cell_angle_beta   90.00000000
_cell_angle_gamma   90.00000000
_symmetry_Int_Tables_number   1
_chemical_formula_structural   CrPO5
_chemical_formula_sum   'Cr4 P4 O20'
_cell_volume   354.34934774
_cell_formula_units_Z   4
loop_
 _symmetry_equiv_pos_site_id
 _symmetry_equiv_pos_as_xyz
  1  'x, y, z'
loop_
 _atom_site_type_symbol
 _atom_site_label
 _atom_site_symmetry_multiplicity
 _atom_site_fract_x
 _atom_site_fract_y
 _atom_site_fract_z
 _atom_site_occupancy
  Cr  Cr0  1  0.75000000  0.29239300  0.81435400  1
  Cr  Cr1  1  0.25000000  0.79239300  0.68564600  1
  Cr  Cr2  1  0.75000000  0.20760700  0.31435400  1
  Cr  Cr3  1  0.25000000  0.70760700  0.18564600  1
  P  P4  1  0.75000000  0.60441200  0.12228500  1
  P  P5  1  0.25000000  0.10441200  0.37771500  1
  P  P6  1  0.75000000  0.89558800  0.62228500  1
  P  P7  1  0.25000000  0.39558800  0.87771500  1
  O  O8  1  0.44954750  0.26118600  0.86548000  1
  O  O9  1  0.05045250  0.26118600  0.86548000  1
  O  O10  1  0.55045250  0.73881400  0.13452000  1
  O  O11  1  0.94954750  0.73881400  0.13452000  1
  O  O12  1  0.44954750  0.23881400  0.36548000  1
  O  O13  1  0.55045250  0.76118600  0.63452000  1
  O  O14  1  0.94954750  0.76118600  0.63452000  1
  O  O15  1  0.05045250  0.23881400  0.36548000  1
  O  O16  1  0.25000000  0.87706300  0.86443900  1
  O  O17  1  0.75000000  0.12293700  0.13556100  1
  O  O18  1  0.25000000  0.62293700  0.36443900  1
  O  O19  1  0.75000000  0.37706300  0.63556100  1
  O  O20  1  0.25000000  0.96642200  0.23201100  1
  O  O21  1  0.75000000  0.46642200  0.26798900  1
  O  O22  1  0.75000000  0.03357800  0.76798900  1
  O  O23  1  0.25000000  0.53357800  0.73201100  1
  O  O24  1  0.25000000  0.00327500  0.54472900  1
  O  O25  1  0.25000000  0.49672500  0.04472900  1
  O  O26  1  0.75000000  0.99672500  0.45527100  1
  O  O27  1  0.75000000  0.50327500  0.95527100  1
