# generated using pymatgen
data_CsK2CoO2
_symmetry_space_group_name_H-M   'P 1'
_cell_length_a   5.34052957
_cell_length_b   5.34052957
_cell_length_c   9.94631225
_cell_angle_alpha   90.00000000
_cell_angle_beta   90.00000000
_cell_angle_gamma   90.00000000
_symmetry_Int_Tables_number   1
_chemical_formula_structural   CsK2CoO2
_chemical_formula_sum   'Cs2 K4 Co2 O4'
_cell_volume   283.68131910
_cell_formula_units_Z   2
loop_
 _symmetry_equiv_pos_site_id
 _symmetry_equiv_pos_as_xyz
  1  'x, y, z'
loop_
 _atom_site_type_symbol
 _atom_site_label
 _atom_site_symmetry_multiplicity
 _atom_site_fract_x
 _atom_site_fract_y
 _atom_site_fract_z
 _atom_site_occupancy
  Cs  Cs0  1  0.00000000  0.00000000  0.00000000  1
  Cs  Cs1  1  0.50000000  0.50000000  0.50000000  1
  K  K2  1  0.00000000  0.50000000  0.25000000  1
  K  K3  1  0.50000000  0.00000000  0.25000000  1
  K  K4  1  0.50000000  0.00000000  0.75000000  1
  K  K5  1  0.00000000  0.50000000  0.75000000  1
  Co  Co6  1  0.50000000  0.50000000  0.00000000  1
  Co  Co7  1  0.00000000  0.00000000  0.50000000  1
  O  O8  1  0.00000000  0.00000000  0.32190600  1
  O  O9  1  0.50000000  0.50000000  0.17809400  1
  O  O10  1  0.50000000  0.50000000  0.82190600  1
  O  O11  1  0.00000000  0.00000000  0.67809400  1
