# generated using pymatgen
data_Zr21Re25
_symmetry_space_group_name_H-M   'P 1'
_cell_length_a   25.96669235
_cell_length_b   25.96669235
_cell_length_c   8.81971273
_cell_angle_alpha   90.00000000
_cell_angle_beta   90.00000000
_cell_angle_gamma   120.00000000
_symmetry_Int_Tables_number   1
_chemical_formula_structural   Zr21Re25
_chemical_formula_sum   'Zr126 Re150'
_cell_volume   5150.13171786
_cell_formula_units_Z   6
loop_
 _symmetry_equiv_pos_site_id
 _symmetry_equiv_pos_as_xyz
  1  'x, y, z'
loop_
 _atom_site_type_symbol
 _atom_site_label
 _atom_site_symmetry_multiplicity
 _atom_site_fract_x
 _atom_site_fract_y
 _atom_site_fract_z
 _atom_site_occupancy
  Zr  Zr0  1  0.21767300  0.55133300  0.10166300  1
  Zr  Zr1  1  0.66666667  0.02898233  0.08333333  1
  Zr  Zr2  1  0.00230300  0.23046800  0.54584800  1
  Zr  Zr3  1  0.77641300  0.12924300  0.58498100  1
  Zr  Zr4  1  0.66896967  0.10516833  0.37918133  1
  Zr  Zr5  1  0.01949667  0.46257633  0.41831433  1
  Zr  Zr6  1  0.98050333  0.44307967  0.08168567  1
  Zr  Zr7  1  0.89483167  0.33103033  0.87918133  1
  Zr  Zr8  1  0.79590967  0.10974633  0.24835233  1
  Zr  Zr9  1  0.10974633  0.31383667  0.75164767  1
  Zr  Zr10  1  0.78200033  0.33300667  0.76832967  1
  Zr  Zr11  1  0.00000000  0.30435100  0.25000000  1
  Zr  Zr12  1  0.53742367  0.98050333  0.91831433  1
  Zr  Zr13  1  0.10286533  0.43850167  0.21251467  1
  Zr  Zr14  1  0.68616333  0.89025367  0.25164767  1
  Zr  Zr15  1  0.21799967  0.55100633  0.73167033  1
  Zr  Zr16  1  0.56149833  0.89713467  0.71251467  1
  Zr  Zr17  1  0.12924300  0.35283000  0.41501900  1
  Zr  Zr18  1  0.66436367  0.10286533  0.78748533  1
  Zr  Zr19  1  0.89025367  0.20409033  0.74835233  1
  Zr  Zr20  1  0.02898233  0.36231567  0.91666667  1
  Zr  Zr21  1  0.10516833  0.43619867  0.62081867  1
  Zr  Zr22  1  0.76953200  0.99769700  0.04584800  1
  Zr  Zr23  1  0.78232700  0.33366000  0.39833700  1
  Zr  Zr24  1  0.66634000  0.21767300  0.89833700  1
  Zr  Zr25  1  0.00032667  0.11566033  0.43499633  1
  Zr  Zr26  1  0.64717000  0.87075700  0.91501900  1
  Zr  Zr27  1  0.89713467  0.33563633  0.28748533  1
  Zr  Zr28  1  0.88466633  0.00032667  0.56500367  1
  Zr  Zr29  1  0.44899367  0.78200033  0.23167033  1
  Zr  Zr30  1  0.99769700  0.22816500  0.95415200  1
  Zr  Zr31  1  0.87075700  0.22358700  0.08498100  1
  Zr  Zr32  1  0.97101767  0.33333333  0.58333333  1
  Zr  Zr33  1  0.69564900  0.00000000  0.75000000  1
  Zr  Zr34  1  0.88433967  0.99967333  0.93499633  1
  Zr  Zr35  1  0.77183500  0.00230300  0.45415200  1
  Zr  Zr36  1  0.63768433  0.97101767  0.41666667  1
  Zr  Zr37  1  0.99967333  0.11533367  0.06500367  1
  Zr  Zr38  1  0.44866700  0.78232700  0.60166300  1
  Zr  Zr39  1  0.66699333  0.21799967  0.26832967  1
  Zr  Zr40  1  0.56380133  0.89483167  0.12081867  1
  Zr  Zr41  1  0.55692033  0.01949667  0.58168567  1
  Zr  Zr42  1  0.88433967  0.88466633  0.43499633  1
  Zr  Zr43  1  0.33333333  0.36231567  0.41666667  1
  Zr  Zr44  1  0.66896967  0.56380133  0.87918133  1
  Zr  Zr45  1  0.44307967  0.46257633  0.91831433  1
  Zr  Zr46  1  0.33563633  0.43850167  0.71251467  1
  Zr  Zr47  1  0.68616333  0.79590967  0.75164767  1
  Zr  Zr48  1  0.64717000  0.77641300  0.41501900  1
  Zr  Zr49  1  0.56149833  0.66436367  0.21251467  1
  Zr  Zr50  1  0.46257633  0.44307967  0.58168567  1
  Zr  Zr51  1  0.77641300  0.64717000  0.08498100  1
  Zr  Zr52  1  0.44866700  0.66634000  0.10166300  1
  Zr  Zr53  1  0.66666667  0.63768433  0.58333333  1
  Zr  Zr54  1  0.20409033  0.31383667  0.25164767  1
  Zr  Zr55  1  0.76953200  0.77183500  0.54584800  1
  Zr  Zr56  1  0.35283000  0.22358700  0.58498100  1
  Zr  Zr57  1  0.88466633  0.88433967  0.06500367  1
  Zr  Zr58  1  0.22816500  0.23046800  0.04584800  1
  Zr  Zr59  1  0.79590967  0.68616333  0.74835233  1
  Zr  Zr60  1  0.33103033  0.43619867  0.12081867  1
  Zr  Zr61  1  0.55692033  0.53742367  0.08168567  1
  Zr  Zr62  1  0.69564900  0.69564900  0.25000000  1
  Zr  Zr63  1  0.77183500  0.76953200  0.95415200  1
  Zr  Zr64  1  0.43619867  0.33103033  0.37918133  1
  Zr  Zr65  1  0.44899367  0.66699333  0.73167033  1
  Zr  Zr66  1  0.33300667  0.55100633  0.23167033  1
  Zr  Zr67  1  0.66699333  0.44899367  0.76832967  1
  Zr  Zr68  1  0.31383667  0.20409033  0.24835233  1
  Zr  Zr69  1  0.56380133  0.66896967  0.62081867  1
  Zr  Zr70  1  0.55133300  0.33366000  0.89833700  1
  Zr  Zr71  1  0.11566033  0.11533367  0.56500367  1
  Zr  Zr72  1  0.66436367  0.56149833  0.28748533  1
  Zr  Zr73  1  0.53742367  0.55692033  0.41831433  1
  Zr  Zr74  1  0.63768433  0.66666667  0.91666667  1
  Zr  Zr75  1  0.36231567  0.33333333  0.08333333  1
  Zr  Zr76  1  0.55100633  0.33300667  0.26832967  1
  Zr  Zr77  1  0.43850167  0.33563633  0.78748533  1
  Zr  Zr78  1  0.30435100  0.30435100  0.75000000  1
  Zr  Zr79  1  0.66634000  0.44866700  0.39833700  1
  Zr  Zr80  1  0.11533367  0.11566033  0.93499633  1
  Zr  Zr81  1  0.33366000  0.55133300  0.60166300  1
  Zr  Zr82  1  0.23046800  0.22816500  0.45415200  1
  Zr  Zr83  1  0.22358700  0.35283000  0.91501900  1
  Zr  Zr84  1  0.55100633  0.21799967  0.76832967  1
  Zr  Zr85  1  0.00000000  0.69564900  0.75000000  1
  Zr  Zr86  1  0.33563633  0.89713467  0.21251467  1
  Zr  Zr87  1  0.10974633  0.79590967  0.25164767  1
  Zr  Zr88  1  0.00230300  0.77183500  0.04584800  1
  Zr  Zr89  1  0.35283000  0.12924300  0.08498100  1
  Zr  Zr90  1  0.31383667  0.10974633  0.74835233  1
  Zr  Zr91  1  0.22816500  0.99769700  0.54584800  1
  Zr  Zr92  1  0.12924300  0.77641300  0.91501900  1
  Zr  Zr93  1  0.44307967  0.98050333  0.41831433  1
  Zr  Zr94  1  0.11533367  0.99967333  0.43499633  1
  Zr  Zr95  1  0.33333333  0.97101767  0.91666667  1
  Zr  Zr96  1  0.87075700  0.64717000  0.58498100  1
  Zr  Zr97  1  0.43619867  0.10516833  0.87918133  1
  Zr  Zr98  1  0.01949667  0.55692033  0.91831433  1
  Zr  Zr99  1  0.55133300  0.21767300  0.39833700  1
  Zr  Zr100  1  0.89483167  0.56380133  0.37918133  1
  Zr  Zr101  1  0.46257633  0.01949667  0.08168567  1
  Zr  Zr102  1  0.99769700  0.76953200  0.45415200  1
  Zr  Zr103  1  0.22358700  0.87075700  0.41501900  1
  Zr  Zr104  1  0.36231567  0.02898233  0.58333333  1
  Zr  Zr105  1  0.43850167  0.10286533  0.28748533  1
  Zr  Zr106  1  0.10286533  0.66436367  0.71251467  1
  Zr  Zr107  1  0.11566033  0.00032667  0.06500367  1
  Zr  Zr108  1  0.99967333  0.88433967  0.56500367  1
  Zr  Zr109  1  0.33366000  0.78232700  0.10166300  1
  Zr  Zr110  1  0.98050333  0.53742367  0.58168567  1
  Zr  Zr111  1  0.23046800  0.00230300  0.95415200  1
  Zr  Zr112  1  0.21799967  0.66699333  0.23167033  1
  Zr  Zr113  1  0.78232700  0.44866700  0.89833700  1
  Zr  Zr114  1  0.33103033  0.89483167  0.62081867  1
  Zr  Zr115  1  0.20409033  0.89025367  0.75164767  1
  Zr  Zr116  1  0.30435100  0.00000000  0.25000000  1
  Zr  Zr117  1  0.02898233  0.66666667  0.41666667  1
  Zr  Zr118  1  0.21767300  0.66634000  0.60166300  1
  Zr  Zr119  1  0.10516833  0.66896967  0.12081867  1
  Zr  Zr120  1  0.97101767  0.63768433  0.08333333  1
  Zr  Zr121  1  0.33300667  0.78200033  0.73167033  1
  Zr  Zr122  1  0.78200033  0.44899367  0.26832967  1
  Zr  Zr123  1  0.00032667  0.88466633  0.93499633  1
  Zr  Zr124  1  0.89713467  0.56149833  0.78748533  1
  Zr  Zr125  1  0.89025367  0.68616333  0.24835233  1
  Re  Re126  1  0.82448467  0.05862333  0.74757333  1
  Re  Re127  1  0.88097867  0.11556533  0.00092933  1
  Re  Re128  1  0.84218200  0.27471000  0.58576000  1
  Re  Re129  1  0.21431200  0.43208000  0.16759600  1
  Re  Re130  1  0.09919467  0.49115133  0.91909333  1
  Re  Re131  1  0.94177633  0.11944967  0.75215067  1
  Re  Re132  1  0.94137667  0.17551533  0.24757333  1
  Re  Re133  1  0.90125333  0.44889867  0.83426267  1
  Re  Re134  1  0.11136567  0.33333333  0.08333333  1
  Re  Re135  1  0.45278300  0.84434000  0.91451600  1
  Re  Re136  1  0.72489033  0.21388367  0.58118267  1
  Re  Re137  1  0.27262233  0.60595567  0.41666667  1
  Re  Re138  1  0.56747200  0.84218200  0.41424000  1
  Re  Re139  1  0.39404433  0.72737767  0.91666667  1
  Re  Re140  1  0.45235467  0.90125333  0.16573733  1
  Re  Re141  1  0.76586133  0.94137667  0.75242667  1
  Re  Re142  1  0.21388367  0.48899333  0.41881733  1
  Re  Re143  1  0.88863433  0.22196767  0.41666667  1
  Re  Re144  1  0.60844300  0.15566000  0.58548400  1
  Re  Re145  1  0.11556533  0.23458667  0.99907067  1
  Re  Re146  1  0.72529000  0.15781800  0.08576000  1
  Re  Re147  1  0.05822367  0.17767333  0.74784933  1
  Re  Re148  1  0.84434000  0.39155700  0.08548400  1
  Re  Re149  1  0.09874667  0.54764533  0.66573733  1
  Re  Re150  1  0.78223200  0.21431200  0.83240400  1
  Re  Re151  1  0.51100667  0.78611633  0.91881733  1
  Re  Re152  1  0.15566000  0.54721700  0.41451600  1
  Re  Re153  1  0.88055033  0.05822367  0.25215067  1
  Re  Re154  1  0.82232667  0.94177633  0.24784933  1
  Re  Re155  1  0.56792000  0.78568800  0.66759600  1
  Re  Re156  1  0.50884867  0.90080533  0.41909333  1
  Re  Re157  1  0.00000000  0.00000000  0.50000000  1
  Re  Re158  1  0.00000000  0.00000000  0.00000000  1
  Re  Re159  1  0.93928900  0.00000000  0.25000000  1
  Re  Re160  1  0.00000000  0.44469900  0.75000000  1
  Re  Re161  1  0.66666667  0.27262233  0.58333333  1
  Re  Re162  1  0.55110133  0.09874667  0.33426267  1
  Re  Re163  1  0.72737767  0.33333333  0.08333333  1
  Re  Re164  1  0.78568800  0.21776800  0.33240400  1
  Re  Re165  1  0.05862333  0.23413867  0.25242667  1
  Re  Re166  1  0.00000000  0.06071100  0.75000000  1
  Re  Re167  1  0.76541333  0.88443467  0.49907067  1
  Re  Re168  1  0.88443467  0.11902133  0.50092933  1
  Re  Re169  1  0.15781800  0.43252800  0.91424000  1
  Re  Re170  1  0.66666667  0.88863433  0.58333333  1
  Re  Re171  1  0.55530100  0.00000000  0.25000000  1
  Re  Re172  1  0.77803233  0.11136567  0.91666667  1
  Re  Re173  1  0.90080533  0.39195667  0.58090667  1
  Re  Re174  1  0.78611633  0.27510967  0.08118267  1
  Re  Re175  1  0.60804333  0.09919467  0.08090667  1
  Re  Re176  1  0.49115133  0.39195667  0.08090667  1
  Re  Re177  1  0.54764533  0.44889867  0.33426267  1
  Re  Re178  1  0.50884867  0.60804333  0.91909333  1
  Re  Re179  1  0.88097867  0.76541333  0.50092933  1
  Re  Re180  1  0.76586133  0.82448467  0.25242667  1
  Re  Re181  1  0.60844300  0.45278300  0.08548400  1
  Re  Re182  1  0.60804333  0.50884867  0.58090667  1
  Re  Re183  1  0.56792000  0.78223200  0.16759600  1
  Re  Re184  1  0.77803233  0.66666667  0.41666667  1
  Re  Re185  1  0.11944967  0.17767333  0.24784933  1
  Re  Re186  1  0.39155700  0.54721700  0.91451600  1
  Re  Re187  1  0.93928900  0.93928900  0.75000000  1
  Re  Re188  1  0.23413867  0.17551533  0.74757333  1
  Re  Re189  1  0.06071100  0.06071100  0.25000000  1
  Re  Re190  1  0.11902133  0.23458667  0.49907067  1
  Re  Re191  1  0.43252800  0.27471000  0.08576000  1
  Re  Re192  1  0.88055033  0.82232667  0.75215067  1
  Re  Re193  1  0.55530100  0.55530100  0.75000000  1
  Re  Re194  1  0.27510967  0.48899333  0.91881733  1
  Re  Re195  1  0.78223200  0.56792000  0.33240400  1
  Re  Re196  1  0.39195667  0.49115133  0.41909333  1
  Re  Re197  1  0.72489033  0.51100667  0.08118267  1
  Re  Re198  1  0.51100667  0.72489033  0.41881733  1
  Re  Re199  1  0.76541333  0.88097867  0.99907067  1
  Re  Re200  1  0.44889867  0.54764533  0.16573733  1
  Re  Re201  1  0.17767333  0.11944967  0.25215067  1
  Re  Re202  1  0.82232667  0.88055033  0.74784933  1
  Re  Re203  1  0.54721700  0.39155700  0.58548400  1
  Re  Re204  1  0.48899333  0.27510967  0.58118267  1
  Re  Re205  1  0.23458667  0.11902133  0.00092933  1
  Re  Re206  1  0.17551533  0.23413867  0.75242667  1
  Re  Re207  1  0.66666667  0.33333333  0.83333333  1
  Re  Re208  1  0.66666667  0.33333333  0.33333333  1
  Re  Re209  1  0.60595567  0.33333333  0.58333333  1
  Re  Re210  1  0.66666667  0.77803233  0.08333333  1
  Re  Re211  1  0.33333333  0.60595567  0.91666667  1
  Re  Re212  1  0.21776800  0.43208000  0.66759600  1
  Re  Re213  1  0.39404433  0.66666667  0.41666667  1
  Re  Re214  1  0.45235467  0.55110133  0.66573733  1
  Re  Re215  1  0.72529000  0.56747200  0.58576000  1
  Re  Re216  1  0.66666667  0.39404433  0.08333333  1
  Re  Re217  1  0.43208000  0.21776800  0.83240400  1
  Re  Re218  1  0.55110133  0.45235467  0.83426267  1
  Re  Re219  1  0.82448467  0.76586133  0.24757333  1
  Re  Re220  1  0.33333333  0.22196767  0.91666667  1
  Re  Re221  1  0.22196767  0.33333333  0.58333333  1
  Re  Re222  1  0.44469900  0.44469900  0.25000000  1
  Re  Re223  1  0.56747200  0.72529000  0.91424000  1
  Re  Re224  1  0.45278300  0.60844300  0.41451600  1
  Re  Re225  1  0.27471000  0.43252800  0.41424000  1
  Re  Re226  1  0.15781800  0.72529000  0.41424000  1
  Re  Re227  1  0.21431200  0.78223200  0.66759600  1
  Re  Re228  1  0.17551533  0.94137667  0.25242667  1
  Re  Re229  1  0.54764533  0.09874667  0.83426267  1
  Re  Re230  1  0.43252800  0.15781800  0.58576000  1
  Re  Re231  1  0.27510967  0.78611633  0.41881733  1
  Re  Re232  1  0.27471000  0.84218200  0.91424000  1
  Re  Re233  1  0.23458667  0.11556533  0.50092933  1
  Re  Re234  1  0.44469900  0.00000000  0.75000000  1
  Re  Re235  1  0.78611633  0.51100667  0.58118267  1
  Re  Re236  1  0.05822367  0.88055033  0.24784933  1
  Re  Re237  1  0.60595567  0.27262233  0.08333333  1
  Re  Re238  1  0.90080533  0.50884867  0.08090667  1
  Re  Re239  1  0.72737767  0.39404433  0.58333333  1
  Re  Re240  1  0.78568800  0.56792000  0.83240400  1
  Re  Re241  1  0.09919467  0.60804333  0.41909333  1
  Re  Re242  1  0.54721700  0.15566000  0.08548400  1
  Re  Re243  1  0.22196767  0.88863433  0.08333333  1
  Re  Re244  1  0.94177633  0.82232667  0.25215067  1
  Re  Re245  1  0.44889867  0.90125333  0.66573733  1
  Re  Re246  1  0.05862333  0.82448467  0.75242667  1
  Re  Re247  1  0.39155700  0.84434000  0.41451600  1
  Re  Re248  1  0.17767333  0.05822367  0.75215067  1
  Re  Re249  1  0.43208000  0.21431200  0.33240400  1
  Re  Re250  1  0.11556533  0.88097867  0.49907067  1
  Re  Re251  1  0.84434000  0.45278300  0.58548400  1
  Re  Re252  1  0.48899333  0.21388367  0.08118267  1
  Re  Re253  1  0.21388367  0.72489033  0.91881733  1
  Re  Re254  1  0.15566000  0.60844300  0.91451600  1
  Re  Re255  1  0.90125333  0.45235467  0.33426267  1
  Re  Re256  1  0.84218200  0.56747200  0.08576000  1
  Re  Re257  1  0.33333333  0.66666667  0.16666667  1
  Re  Re258  1  0.33333333  0.66666667  0.66666667  1
  Re  Re259  1  0.27262233  0.66666667  0.91666667  1
  Re  Re260  1  0.33333333  0.11136567  0.41666667  1
  Re  Re261  1  0.00000000  0.93928900  0.25000000  1
  Re  Re262  1  0.88443467  0.76541333  0.00092933  1
  Re  Re263  1  0.06071100  0.00000000  0.75000000  1
  Re  Re264  1  0.11902133  0.88443467  0.99907067  1
  Re  Re265  1  0.39195667  0.90080533  0.91909333  1
  Re  Re266  1  0.33333333  0.72737767  0.41666667  1
  Re  Re267  1  0.09874667  0.55110133  0.16573733  1
  Re  Re268  1  0.21776800  0.78568800  0.16759600  1
  Re  Re269  1  0.49115133  0.09919467  0.58090667  1
  Re  Re270  1  0.00000000  0.55530100  0.25000000  1
  Re  Re271  1  0.88863433  0.66666667  0.91666667  1
  Re  Re272  1  0.11136567  0.77803233  0.58333333  1
  Re  Re273  1  0.23413867  0.05862333  0.24757333  1
  Re  Re274  1  0.11944967  0.94177633  0.74784933  1
  Re  Re275  1  0.94137667  0.76586133  0.74757333  1
