# generated using pymatgen
data_Mo6PbS8
_symmetry_space_group_name_H-M   'P 1'
_cell_length_a   9.26917008
_cell_length_b   9.26917008
_cell_length_c   11.61262747
_cell_angle_alpha   90.00000000
_cell_angle_beta   90.00000000
_cell_angle_gamma   120.00000000
_symmetry_Int_Tables_number   1
_chemical_formula_structural   Mo6PbS8
_chemical_formula_sum   'Mo18 Pb3 S24'
_cell_volume   864.05786592
_cell_formula_units_Z   3
loop_
 _symmetry_equiv_pos_site_id
 _symmetry_equiv_pos_as_xyz
  1  'x, y, z'
loop_
 _atom_site_type_symbol
 _atom_site_label
 _atom_site_symmetry_multiplicity
 _atom_site_fract_x
 _atom_site_fract_y
 _atom_site_fract_z
 _atom_site_occupancy
  Mo  Mo0  1  0.50774933  0.82791667  0.26476467  1
  Mo  Mo1  1  0.34649933  0.84108267  0.06856867  1
  Mo  Mo2  1  0.17208333  0.67983267  0.26476467  1
  Mo  Mo3  1  0.15891733  0.50541667  0.06856867  1
  Mo  Mo4  1  0.49458333  0.65350067  0.06856867  1
  Mo  Mo5  1  0.32016733  0.49225067  0.26476467  1
  Mo  Mo6  1  0.17441600  0.16125000  0.59809800  1
  Mo  Mo7  1  0.01316600  0.17441600  0.40190200  1
  Mo  Mo8  1  0.83875000  0.01316600  0.59809800  1
  Mo  Mo9  1  0.82558400  0.83875000  0.40190200  1
  Mo  Mo10  1  0.16125000  0.98683400  0.40190200  1
  Mo  Mo11  1  0.98683400  0.82558400  0.59809800  1
  Mo  Mo12  1  0.84108267  0.49458333  0.93143133  1
  Mo  Mo13  1  0.67983267  0.50774933  0.73523533  1
  Mo  Mo14  1  0.50541667  0.34649933  0.93143133  1
  Mo  Mo15  1  0.49225067  0.17208333  0.73523533  1
  Mo  Mo16  1  0.82791667  0.32016733  0.73523533  1
  Mo  Mo17  1  0.65350067  0.15891733  0.93143133  1
  Pb  Pb18  1  0.00000000  0.00000000  0.00000000  1
  Pb  Pb19  1  0.66666667  0.33333333  0.33333333  1
  Pb  Pb20  1  0.33333333  0.66666667  0.66666667  1
  S  S21  1  0.04214133  0.69907267  0.08380767  1
  S  S22  1  0.33333333  0.66666667  0.42192767  1
  S  S23  1  0.36573933  0.99026467  0.24952567  1
  S  S24  1  0.62452533  0.63426067  0.24952567  1
  S  S25  1  0.00973533  0.37547467  0.24952567  1
  S  S26  1  0.30092733  0.34306867  0.08380767  1
  S  S27  1  0.33333333  0.66666667  0.91140567  1
  S  S28  1  0.65693133  0.95785867  0.08380767  1
  S  S29  1  0.70880800  0.03240600  0.41714100  1
  S  S30  1  0.00000000  0.00000000  0.75526100  1
  S  S31  1  0.03240600  0.32359800  0.58285900  1
  S  S32  1  0.29119200  0.96759400  0.58285900  1
  S  S33  1  0.67640200  0.70880800  0.58285900  1
  S  S34  1  0.96759400  0.67640200  0.41714100  1
  S  S35  1  0.00000000  0.00000000  0.24473900  1
  S  S36  1  0.32359800  0.29119200  0.41714100  1
  S  S37  1  0.37547467  0.36573933  0.75047433  1
  S  S38  1  0.66666667  0.33333333  0.08859433  1
  S  S39  1  0.69907267  0.65693133  0.91619233  1
  S  S40  1  0.95785867  0.30092733  0.91619233  1
  S  S41  1  0.34306867  0.04214133  0.91619233  1
  S  S42  1  0.63426067  0.00973533  0.75047433  1
  S  S43  1  0.66666667  0.33333333  0.57807233  1
  S  S44  1  0.99026467  0.62452533  0.75047433  1
