# generated using pymatgen
data_Yb3CoSn6
_symmetry_space_group_name_H-M   'P 1'
_cell_length_a   4.73211000
_cell_length_b   16.01195600
_cell_length_c   13.27333700
_cell_angle_alpha   90.00000000
_cell_angle_beta   90.00000000
_cell_angle_gamma   90.00000000
_symmetry_Int_Tables_number   1
_chemical_formula_structural   Yb3CoSn6
_chemical_formula_sum   'Yb12 Co4 Sn24'
_cell_volume   1005.72521903
_cell_formula_units_Z   4
loop_
 _symmetry_equiv_pos_site_id
 _symmetry_equiv_pos_as_xyz
  1  'x, y, z'
loop_
 _atom_site_type_symbol
 _atom_site_label
 _atom_site_symmetry_multiplicity
 _atom_site_fract_x
 _atom_site_fract_y
 _atom_site_fract_z
 _atom_site_occupancy
  Yb  Yb0  1  0.00000000  0.09818700  0.59767400  1
  Yb  Yb1  1  0.50000000  0.40181300  0.09767400  1
  Yb  Yb2  1  0.00000000  0.09808300  0.25000000  1
  Yb  Yb3  1  0.50000000  0.40181300  0.40232600  1
  Yb  Yb4  1  0.50000000  0.40191700  0.75000000  1
  Yb  Yb5  1  0.00000000  0.09818700  0.90232600  1
  Yb  Yb6  1  0.50000000  0.59818700  0.59767400  1
  Yb  Yb7  1  0.00000000  0.90181300  0.09767400  1
  Yb  Yb8  1  0.50000000  0.59808300  0.25000000  1
  Yb  Yb9  1  0.00000000  0.90181300  0.40232600  1
  Yb  Yb10  1  0.00000000  0.90191700  0.75000000  1
  Yb  Yb11  1  0.50000000  0.59818700  0.90232600  1
  Co  Co12  1  0.50000000  0.20511300  0.75000000  1
  Co  Co13  1  0.00000000  0.29488700  0.25000000  1
  Co  Co14  1  0.00000000  0.70511300  0.75000000  1
  Co  Co15  1  0.50000000  0.79488700  0.25000000  1
  Sn  Sn16  1  0.00000000  0.24479300  0.07065400  1
  Sn  Sn17  1  0.50000000  0.07332100  0.07685900  1
  Sn  Sn18  1  0.00000000  0.42667900  0.92314100  1
  Sn  Sn19  1  0.00000000  0.26867200  0.75000000  1
  Sn  Sn20  1  0.50000000  0.23132800  0.25000000  1
  Sn  Sn21  1  0.50000000  0.25520700  0.57065400  1
  Sn  Sn22  1  0.50000000  0.25520700  0.92934600  1
  Sn  Sn23  1  0.00000000  0.42667900  0.57685900  1
  Sn  Sn24  1  0.50000000  0.04625600  0.75000000  1
  Sn  Sn25  1  0.00000000  0.45374400  0.25000000  1
  Sn  Sn26  1  0.00000000  0.24479300  0.42934600  1
  Sn  Sn27  1  0.50000000  0.07332100  0.42314100  1
  Sn  Sn28  1  0.50000000  0.74479300  0.07065400  1
  Sn  Sn29  1  0.00000000  0.57332100  0.07685900  1
  Sn  Sn30  1  0.50000000  0.92667900  0.92314100  1
  Sn  Sn31  1  0.50000000  0.76867200  0.75000000  1
  Sn  Sn32  1  0.00000000  0.73132800  0.25000000  1
  Sn  Sn33  1  0.00000000  0.75520700  0.57065400  1
  Sn  Sn34  1  0.00000000  0.75520700  0.92934600  1
  Sn  Sn35  1  0.50000000  0.92667900  0.57685900  1
  Sn  Sn36  1  0.00000000  0.54625600  0.75000000  1
  Sn  Sn37  1  0.50000000  0.95374400  0.25000000  1
  Sn  Sn38  1  0.50000000  0.74479300  0.42934600  1
  Sn  Sn39  1  0.00000000  0.57332100  0.42314100  1
