# generated using pymatgen
data_TlV3(CrS4)2
_symmetry_space_group_name_H-M   'P 1'
_cell_length_a   17.31317600
_cell_length_b   3.35365000
_cell_length_c   8.78428379
_cell_angle_alpha   90.00000000
_cell_angle_beta   102.92964892
_cell_angle_gamma   90.00000000
_symmetry_Int_Tables_number   1
_chemical_formula_structural   TlV3(CrS4)2
_chemical_formula_sum   'Tl2 V6 Cr4 S16'
_cell_volume   497.10431927
_cell_formula_units_Z   2
loop_
 _symmetry_equiv_pos_site_id
 _symmetry_equiv_pos_as_xyz
  1  'x, y, z'
loop_
 _atom_site_type_symbol
 _atom_site_label
 _atom_site_symmetry_multiplicity
 _atom_site_fract_x
 _atom_site_fract_y
 _atom_site_fract_z
 _atom_site_occupancy
  Tl  Tl0  1  0.00000000  0.00000000  0.00000000  1
  Tl  Tl1  1  0.50000000  0.50000000  0.00000000  1
  V  V2  1  0.64630100  0.50000000  0.48683100  1
  V  V3  1  0.85369900  0.00000000  0.51316900  1
  V  V4  1  0.00000000  0.50000000  0.50000000  1
  V  V5  1  0.14630100  0.00000000  0.48683100  1
  V  V6  1  0.35369900  0.50000000  0.51316900  1
  V  V7  1  0.50000000  0.00000000  0.50000000  1
  Cr  Cr8  1  0.70453000  0.50000000  0.83097800  1
  Cr  Cr9  1  0.79547000  0.00000000  0.16902200  1
  Cr  Cr10  1  0.20453000  0.00000000  0.83097800  1
  Cr  Cr11  1  0.29547000  0.50000000  0.16902200  1
  S  S12  1  0.57155000  0.50000000  0.67047700  1
  S  S13  1  0.83009000  0.50000000  0.00832900  1
  S  S14  1  0.76200900  0.50000000  0.35142300  1
  S  S15  1  0.91414400  0.50000000  0.68157000  1
  S  S16  1  0.58585600  0.00000000  0.31843000  1
  S  S17  1  0.92845000  0.00000000  0.32952300  1
  S  S18  1  0.73799100  0.00000000  0.64857700  1
  S  S19  1  0.66991000  0.00000000  0.99167100  1
  S  S20  1  0.07155000  0.00000000  0.67047700  1
  S  S21  1  0.33009000  0.00000000  0.00832900  1
  S  S22  1  0.26200900  0.00000000  0.35142300  1
  S  S23  1  0.41414400  0.00000000  0.68157000  1
  S  S24  1  0.08585600  0.50000000  0.31843000  1
  S  S25  1  0.42845000  0.50000000  0.32952300  1
  S  S26  1  0.23799100  0.50000000  0.64857700  1
  S  S27  1  0.16991000  0.50000000  0.99167100  1
