# generated using pymatgen
data_CoP2O7
_symmetry_space_group_name_H-M   'P 1'
_cell_length_a   9.35248000
_cell_length_b   7.98031600
_cell_length_c   12.92903854
_cell_angle_alpha   90.00000000
_cell_angle_beta   109.52328796
_cell_angle_gamma   90.00000000
_symmetry_Int_Tables_number   1
_chemical_formula_structural   CoP2O7
_chemical_formula_sum   'Co8 P16 O56'
_cell_volume   909.48828495
_cell_formula_units_Z   8
loop_
 _symmetry_equiv_pos_site_id
 _symmetry_equiv_pos_as_xyz
  1  'x, y, z'
loop_
 _atom_site_type_symbol
 _atom_site_label
 _atom_site_symmetry_multiplicity
 _atom_site_fract_x
 _atom_site_fract_y
 _atom_site_fract_z
 _atom_site_occupancy
  Co  Co0  1  0.85390100  0.73174700  0.85617200  1
  Co  Co1  1  0.14609900  0.73174700  0.64382800  1
  Co  Co2  1  0.35390100  0.76825300  0.35617200  1
  Co  Co3  1  0.64609900  0.76825300  0.14382800  1
  Co  Co4  1  0.35390100  0.23174700  0.85617200  1
  Co  Co5  1  0.64609900  0.23174700  0.64382800  1
  Co  Co6  1  0.85390100  0.26825300  0.35617200  1
  Co  Co7  1  0.14609900  0.26825300  0.14382800  1
  P  P8  1  0.83604200  0.08483300  0.13821900  1
  P  P9  1  0.83604200  0.91516700  0.63821900  1
  P  P10  1  0.12664300  0.45906700  0.93055500  1
  P  P11  1  0.62664300  0.04093300  0.43055500  1
  P  P12  1  0.87335700  0.45906700  0.56944500  1
  P  P13  1  0.66395800  0.41516700  0.86178100  1
  P  P14  1  0.66395800  0.58483300  0.36178100  1
  P  P15  1  0.37335700  0.04093300  0.06944500  1
  P  P16  1  0.33604200  0.58483300  0.13821900  1
  P  P17  1  0.33604200  0.41516700  0.63821900  1
  P  P18  1  0.62664300  0.95906700  0.93055500  1
  P  P19  1  0.12664300  0.54093300  0.43055500  1
  P  P20  1  0.37335700  0.95906700  0.56944500  1
  P  P21  1  0.16395800  0.91516700  0.86178100  1
  P  P22  1  0.16395800  0.08483300  0.36178100  1
  P  P23  1  0.87335700  0.54093300  0.06944500  1
  O  O24  1  0.79430350  0.39989450  0.98050200  1
  O  O25  1  0.22793900  0.41734900  0.86219200  1
  O  O26  1  0.72793900  0.08265100  0.36219200  1
  O  O27  1  0.09777000  0.30249000  0.99252000  1
  O  O28  1  0.69895100  0.73245700  0.29650900  1
  O  O29  1  0.01904550  0.54004250  0.64579100  1
  O  O30  1  0.19895100  0.76754300  0.79650900  1
  O  O31  1  0.51904550  0.95995750  0.14579100  1
  O  O32  1  0.77206100  0.41734900  0.63780800  1
  O  O33  1  0.98827450  0.89752350  0.61885000  1
  O  O34  1  0.67733000  0.59321000  0.82098800  1
  O  O35  1  0.01172550  0.89752350  0.88115000  1
  O  O36  1  0.51172550  0.60247650  0.38115000  1
  O  O37  1  0.48095450  0.95995750  0.35420900  1
  O  O38  1  0.30104900  0.73245700  0.20349100  1
  O  O39  1  0.67733000  0.40679000  0.32098800  1
  O  O40  1  0.40223000  0.80249000  0.50748000  1
  O  O41  1  0.27206100  0.08265100  0.13780800  1
  O  O42  1  0.70569650  0.89989450  0.51949800  1
  O  O43  1  0.70569650  0.10010550  0.01949800  1
  O  O44  1  0.98095450  0.54004250  0.85420900  1
  O  O45  1  0.48827450  0.60247650  0.11885000  1
  O  O46  1  0.09777000  0.69751000  0.49252000  1
  O  O47  1  0.82267000  0.09321000  0.67901200  1
  O  O48  1  0.82267000  0.90679000  0.17901200  1
  O  O49  1  0.40223000  0.19751000  0.00748000  1
  O  O50  1  0.80104900  0.76754300  0.70349100  1
  O  O51  1  0.79430350  0.60010550  0.48050200  1
  O  O52  1  0.29430350  0.89989450  0.98050200  1
  O  O53  1  0.72793900  0.91734900  0.86219200  1
  O  O54  1  0.22793900  0.58265100  0.36219200  1
  O  O55  1  0.59777000  0.80249000  0.99252000  1
  O  O56  1  0.19895100  0.23245700  0.29650900  1
  O  O57  1  0.51904550  0.04004250  0.64579100  1
  O  O58  1  0.69895100  0.26754300  0.79650900  1
  O  O59  1  0.01904550  0.45995750  0.14579100  1
  O  O60  1  0.27206100  0.91734900  0.63780800  1
  O  O61  1  0.48827450  0.39752350  0.61885000  1
  O  O62  1  0.17733000  0.09321000  0.82098800  1
  O  O63  1  0.51172550  0.39752350  0.88115000  1
  O  O64  1  0.01172550  0.10247650  0.38115000  1
  O  O65  1  0.98095450  0.45995750  0.35420900  1
  O  O66  1  0.80104900  0.23245700  0.20349100  1
  O  O67  1  0.17733000  0.90679000  0.32098800  1
  O  O68  1  0.90223000  0.30249000  0.50748000  1
  O  O69  1  0.77206100  0.58265100  0.13780800  1
  O  O70  1  0.20569650  0.39989450  0.51949800  1
  O  O71  1  0.20569650  0.60010550  0.01949800  1
  O  O72  1  0.48095450  0.04004250  0.85420900  1
  O  O73  1  0.98827450  0.10247650  0.11885000  1
  O  O74  1  0.59777000  0.19751000  0.49252000  1
  O  O75  1  0.32267000  0.59321000  0.67901200  1
  O  O76  1  0.32267000  0.40679000  0.17901200  1
  O  O77  1  0.90223000  0.69751000  0.00748000  1
  O  O78  1  0.30104900  0.26754300  0.70349100  1
  O  O79  1  0.29430350  0.10010550  0.48050200  1
