# generated using pymatgen
data_Ba2LaAg5S6
_symmetry_space_group_name_H-M   'P 1'
_cell_length_a   14.15140600
_cell_length_b   4.28924800
_cell_length_c   11.34352461
_cell_angle_alpha   90.00000000
_cell_angle_beta   95.17324709
_cell_angle_gamma   90.00000000
_symmetry_Int_Tables_number   1
_chemical_formula_structural   Ba2LaAg5S6
_chemical_formula_sum   'Ba4 La2 Ag10 S12'
_cell_volume   685.73466125
_cell_formula_units_Z   2
loop_
 _symmetry_equiv_pos_site_id
 _symmetry_equiv_pos_as_xyz
  1  'x, y, z'
loop_
 _atom_site_type_symbol
 _atom_site_label
 _atom_site_symmetry_multiplicity
 _atom_site_fract_x
 _atom_site_fract_y
 _atom_site_fract_z
 _atom_site_occupancy
  Ba  Ba0  1  0.74914300  0.00000000  0.29270800  1
  Ba  Ba1  1  0.75085700  0.50000000  0.70729200  1
  Ba  Ba2  1  0.24914300  0.50000000  0.29270800  1
  Ba  Ba3  1  0.25085700  0.00000000  0.70729200  1
  La  La4  1  0.00000000  0.50000000  0.50000000  1
  La  La5  1  0.50000000  0.00000000  0.50000000  1
  Ag  Ag6  1  0.64863800  0.00000000  0.96485000  1
  Ag  Ag7  1  0.85136200  0.50000000  0.03515000  1
  Ag  Ag8  1  0.51907200  0.50000000  0.25552100  1
  Ag  Ag9  1  0.98092800  0.00000000  0.74447900  1
  Ag  Ag10  1  0.00000000  0.00000000  0.00000000  1
  Ag  Ag11  1  0.14863800  0.50000000  0.96485000  1
  Ag  Ag12  1  0.35136200  0.00000000  0.03515000  1
  Ag  Ag13  1  0.01907200  0.00000000  0.25552100  1
  Ag  Ag14  1  0.48092800  0.50000000  0.74447900  1
  Ag  Ag15  1  0.50000000  0.50000000  0.00000000  1
  S  S16  1  0.91365700  0.50000000  0.25781100  1
  S  S17  1  0.65736200  0.50000000  0.10121900  1
  S  S18  1  0.84263800  0.00000000  0.89878100  1
  S  S19  1  0.58634300  0.00000000  0.74218900  1
  S  S20  1  0.86882200  0.00000000  0.55119700  1
  S  S21  1  0.63117800  0.50000000  0.44880300  1
  S  S22  1  0.41365700  0.00000000  0.25781100  1
  S  S23  1  0.15736200  0.00000000  0.10121900  1
  S  S24  1  0.34263800  0.50000000  0.89878100  1
  S  S25  1  0.08634300  0.50000000  0.74218900  1
  S  S26  1  0.36882200  0.50000000  0.55119700  1
  S  S27  1  0.13117800  0.00000000  0.44880300  1
