# generated using pymatgen
data_Ba2Hg3(PdO2)7
_symmetry_space_group_name_H-M   'P 1'
_cell_length_a   10.82264000
_cell_length_b   6.36284400
_cell_length_c   11.11679205
_cell_angle_alpha   90.00000000
_cell_angle_beta   90.39340677
_cell_angle_gamma   90.00000000
_symmetry_Int_Tables_number   1
_chemical_formula_structural   Ba2Hg3(PdO2)7
_chemical_formula_sum   'Ba4 Hg6 Pd14 O28'
_cell_volume   765.51504846
_cell_formula_units_Z   2
loop_
 _symmetry_equiv_pos_site_id
 _symmetry_equiv_pos_as_xyz
  1  'x, y, z'
loop_
 _atom_site_type_symbol
 _atom_site_label
 _atom_site_symmetry_multiplicity
 _atom_site_fract_x
 _atom_site_fract_y
 _atom_site_fract_z
 _atom_site_occupancy
  Ba  Ba0  1  0.49747600  0.00000000  0.70475100  1
  Ba  Ba1  1  0.50252400  0.00000000  0.29524900  1
  Ba  Ba2  1  0.99747600  0.50000000  0.70475100  1
  Ba  Ba3  1  0.00252400  0.50000000  0.29524900  1
  Hg  Hg4  1  0.17491300  0.00000000  0.19549700  1
  Hg  Hg5  1  0.82508700  0.00000000  0.80450300  1
  Hg  Hg6  1  0.00000000  0.00000000  0.50000000  1
  Hg  Hg7  1  0.67491300  0.50000000  0.19549700  1
  Hg  Hg8  1  0.32508700  0.50000000  0.80450300  1
  Hg  Hg9  1  0.50000000  0.50000000  0.50000000  1
  Pd  Pd10  1  0.00000000  0.00000000  0.00000000  1
  Pd  Pd11  1  0.16672700  0.00000000  0.77841000  1
  Pd  Pd12  1  0.83327300  0.00000000  0.22159000  1
  Pd  Pd13  1  0.75000000  0.25000000  0.00000000  1
  Pd  Pd14  1  0.75000000  0.75000000  0.50000000  1
  Pd  Pd15  1  0.75000000  0.25000000  0.50000000  1
  Pd  Pd16  1  0.75000000  0.75000000  0.00000000  1
  Pd  Pd17  1  0.50000000  0.50000000  0.00000000  1
  Pd  Pd18  1  0.66672700  0.50000000  0.77841000  1
  Pd  Pd19  1  0.33327300  0.50000000  0.22159000  1
  Pd  Pd20  1  0.25000000  0.75000000  0.00000000  1
  Pd  Pd21  1  0.25000000  0.25000000  0.50000000  1
  Pd  Pd22  1  0.25000000  0.75000000  0.50000000  1
  Pd  Pd23  1  0.25000000  0.25000000  0.00000000  1
  O  O24  1  0.59287650  0.71593250  0.89770900  1
  O  O25  1  0.31146600  0.00000000  0.89949100  1
  O  O26  1  0.75595000  0.76432400  0.31634900  1
  O  O27  1  0.63646700  0.00000000  0.50269000  1
  O  O28  1  0.24405000  0.76432400  0.68365100  1
  O  O29  1  0.99419800  0.00000000  0.31341400  1
  O  O30  1  0.24405000  0.23567600  0.68365100  1
  O  O31  1  0.59287650  0.28406750  0.89770900  1
  O  O32  1  0.40712350  0.28406750  0.10229100  1
  O  O33  1  0.36353300  0.00000000  0.49731000  1
  O  O34  1  0.68853400  0.00000000  0.10050900  1
  O  O35  1  0.75595000  0.23567600  0.31634900  1
  O  O36  1  0.00580200  0.00000000  0.68658600  1
  O  O37  1  0.40712350  0.71593250  0.10229100  1
  O  O38  1  0.09287650  0.21593250  0.89770900  1
  O  O39  1  0.81146600  0.50000000  0.89949100  1
  O  O40  1  0.25595000  0.26432400  0.31634900  1
  O  O41  1  0.13646700  0.50000000  0.50269000  1
  O  O42  1  0.74405000  0.26432400  0.68365100  1
  O  O43  1  0.49419800  0.50000000  0.31341400  1
  O  O44  1  0.74405000  0.73567600  0.68365100  1
  O  O45  1  0.09287650  0.78406750  0.89770900  1
  O  O46  1  0.90712350  0.78406750  0.10229100  1
  O  O47  1  0.86353300  0.50000000  0.49731000  1
  O  O48  1  0.18853400  0.50000000  0.10050900  1
  O  O49  1  0.25595000  0.73567600  0.31634900  1
  O  O50  1  0.50580200  0.50000000  0.68658600  1
  O  O51  1  0.90712350  0.21593250  0.10229100  1
