# generated using pymatgen
data_Cu4Si2NiS7
_symmetry_space_group_name_H-M   'P 1'
_cell_length_a   11.53642200
_cell_length_b   5.28030800
_cell_length_c   8.17117702
_cell_angle_alpha   90.00000000
_cell_angle_beta   98.73347643
_cell_angle_gamma   90.00000000
_symmetry_Int_Tables_number   1
_chemical_formula_structural   Cu4Si2NiS7
_chemical_formula_sum   'Cu8 Si4 Ni2 S14'
_cell_volume   491.98299489
_cell_formula_units_Z   2
loop_
 _symmetry_equiv_pos_site_id
 _symmetry_equiv_pos_as_xyz
  1  'x, y, z'
loop_
 _atom_site_type_symbol
 _atom_site_label
 _atom_site_symmetry_multiplicity
 _atom_site_fract_x
 _atom_site_fract_y
 _atom_site_fract_z
 _atom_site_occupancy
  Cu  Cu0  1  0.63988900  0.51913700  0.93460200  1
  Cu  Cu1  1  0.86011100  0.01913700  0.06539800  1
  Cu  Cu2  1  0.71008450  0.00504050  0.63926100  1
  Cu  Cu3  1  0.78991550  0.50504050  0.36073900  1
  Cu  Cu4  1  0.13988900  0.01913700  0.93460200  1
  Cu  Cu5  1  0.36011100  0.51913700  0.06539800  1
  Cu  Cu6  1  0.21008450  0.50504050  0.63926100  1
  Cu  Cu7  1  0.28991550  0.00504050  0.36073900  1
  Si  Si8  1  0.57448300  0.99140800  0.21777700  1
  Si  Si9  1  0.92551700  0.49140800  0.78222300  1
  Si  Si10  1  0.07448300  0.49140800  0.21777700  1
  Si  Si11  1  0.42551700  0.99140800  0.78222300  1
  Ni  Ni12  1  0.00000000  0.00045200  0.50000000  1
  Ni  Ni13  1  0.50000000  0.50045200  0.50000000  1
  S  S14  1  0.71490150  0.77299250  0.14909300  1
  S  S15  1  0.63795100  0.25023000  0.41439800  1
  S  S16  1  0.93698900  0.25805200  0.28707300  1
  S  S17  1  0.00000000  0.73150900  0.00000000  1
  S  S18  1  0.56301100  0.75805200  0.71292700  1
  S  S19  1  0.78509850  0.27299250  0.85090700  1
  S  S20  1  0.86204900  0.75023000  0.58560200  1
  S  S21  1  0.21490150  0.27299250  0.14909300  1
  S  S22  1  0.13795100  0.75023000  0.41439800  1
  S  S23  1  0.43698900  0.75805200  0.28707300  1
  S  S24  1  0.50000000  0.23150900  0.00000000  1
  S  S25  1  0.06301100  0.25805200  0.71292700  1
  S  S26  1  0.28509850  0.77299250  0.85090700  1
  S  S27  1  0.36204900  0.25023000  0.58560200  1
