# generated using pymatgen
data_LiFe(PO3)4
_symmetry_space_group_name_H-M   'P 1'
_cell_length_a   8.09225400
_cell_length_b   11.44830600
_cell_length_c   9.61674460
_cell_angle_alpha   90.00000000
_cell_angle_beta   92.02195924
_cell_angle_gamma   90.00000000
_symmetry_Int_Tables_number   1
_chemical_formula_structural   LiFe(PO3)4
_chemical_formula_sum   'Li4 Fe4 P16 O48'
_cell_volume   890.36551666
_cell_formula_units_Z   4
loop_
 _symmetry_equiv_pos_site_id
 _symmetry_equiv_pos_as_xyz
  1  'x, y, z'
loop_
 _atom_site_type_symbol
 _atom_site_label
 _atom_site_symmetry_multiplicity
 _atom_site_fract_x
 _atom_site_fract_y
 _atom_site_fract_z
 _atom_site_occupancy
  Li  Li0  1  0.50000000  0.66573600  0.25000000  1
  Li  Li1  1  0.50000000  0.33426400  0.75000000  1
  Li  Li2  1  0.00000000  0.16573600  0.25000000  1
  Li  Li3  1  0.00000000  0.83426400  0.75000000  1
  Fe  Fe4  1  0.50000000  0.61486100  0.75000000  1
  Fe  Fe5  1  0.50000000  0.38513900  0.25000000  1
  Fe  Fe6  1  0.00000000  0.11486100  0.75000000  1
  Fe  Fe7  1  0.00000000  0.88513900  0.25000000  1
  P  P8  1  0.44664400  0.82342700  0.96692200  1
  P  P9  1  0.55335600  0.82342700  0.53307800  1
  P  P10  1  0.23995150  0.03887650  0.02820100  1
  P  P11  1  0.44664400  0.17657300  0.46692200  1
  P  P12  1  0.55335600  0.17657300  0.03307800  1
  P  P13  1  0.23995150  0.96112350  0.52820100  1
  P  P14  1  0.76004850  0.03887650  0.47179900  1
  P  P15  1  0.76004850  0.96112350  0.97179900  1
  P  P16  1  0.94664400  0.32342700  0.96692200  1
  P  P17  1  0.05335600  0.32342700  0.53307800  1
  P  P18  1  0.73995150  0.53887650  0.02820100  1
  P  P19  1  0.94664400  0.67657300  0.46692200  1
  P  P20  1  0.05335600  0.67657300  0.03307800  1
  P  P21  1  0.73995150  0.46112350  0.52820100  1
  P  P22  1  0.26004850  0.53887650  0.47179900  1
  P  P23  1  0.26004850  0.46112350  0.97179900  1
  O  O24  1  0.17254050  0.89168850  0.40628800  1
  O  O25  1  0.50767150  0.22268050  0.89421600  1
  O  O26  1  0.49232850  0.77731950  0.10578400  1
  O  O27  1  0.12647400  0.02025100  0.14892800  1
  O  O28  1  0.38928200  0.25840800  0.35130600  1
  O  O29  1  0.82745950  0.89168850  0.09371200  1
  O  O30  1  0.49232850  0.22268050  0.60578400  1
  O  O31  1  0.40526950  0.09631050  0.09341800  1
  O  O32  1  0.59473050  0.09631050  0.40658200  1
  O  O33  1  0.70342550  0.91628250  0.53183700  1
  O  O34  1  0.40526950  0.90368950  0.59341800  1
  O  O35  1  0.61071800  0.25840800  0.14869400  1
  O  O36  1  0.87352600  0.97974900  0.85107200  1
  O  O37  1  0.38928200  0.74159200  0.85130600  1
  O  O38  1  0.12647400  0.97974900  0.64892800  1
  O  O39  1  0.29657450  0.08371750  0.46816300  1
  O  O40  1  0.29657450  0.91628250  0.96816300  1
  O  O41  1  0.87352600  0.02025100  0.35107200  1
  O  O42  1  0.59473050  0.90368950  0.90658200  1
  O  O43  1  0.50767150  0.77731950  0.39421600  1
  O  O44  1  0.70342550  0.08371750  0.03183700  1
  O  O45  1  0.17254050  0.10831150  0.90628800  1
  O  O46  1  0.61071800  0.74159200  0.64869400  1
  O  O47  1  0.82745950  0.10831150  0.59371200  1
  O  O48  1  0.67254050  0.39168850  0.40628800  1
  O  O49  1  0.00767150  0.72268050  0.89421600  1
  O  O50  1  0.99232850  0.27731950  0.10578400  1
  O  O51  1  0.62647400  0.52025100  0.14892800  1
  O  O52  1  0.88928200  0.75840800  0.35130600  1
  O  O53  1  0.32745950  0.39168850  0.09371200  1
  O  O54  1  0.99232850  0.72268050  0.60578400  1
  O  O55  1  0.90526950  0.59631050  0.09341800  1
  O  O56  1  0.09473050  0.59631050  0.40658200  1
  O  O57  1  0.20342550  0.41628250  0.53183700  1
  O  O58  1  0.90526950  0.40368950  0.59341800  1
  O  O59  1  0.11071800  0.75840800  0.14869400  1
  O  O60  1  0.37352600  0.47974900  0.85107200  1
  O  O61  1  0.88928200  0.24159200  0.85130600  1
  O  O62  1  0.62647400  0.47974900  0.64892800  1
  O  O63  1  0.79657450  0.58371750  0.46816300  1
  O  O64  1  0.79657450  0.41628250  0.96816300  1
  O  O65  1  0.37352600  0.52025100  0.35107200  1
  O  O66  1  0.09473050  0.40368950  0.90658200  1
  O  O67  1  0.00767150  0.27731950  0.39421600  1
  O  O68  1  0.20342550  0.58371750  0.03183700  1
  O  O69  1  0.67254050  0.60831150  0.90628800  1
  O  O70  1  0.11071800  0.24159200  0.64869400  1
  O  O71  1  0.32745950  0.60831150  0.59371200  1
