# generated using pymatgen
data_Li13Ti22O48
_symmetry_space_group_name_H-M   'P 1'
_cell_length_a   31.02308600
_cell_length_b   5.97419200
_cell_length_c   10.34205804
_cell_angle_alpha   90.00000000
_cell_angle_beta   109.43505306
_cell_angle_gamma   90.00000000
_symmetry_Int_Tables_number   1
_chemical_formula_structural   Li13Ti22O48
_chemical_formula_sum   'Li26 Ti44 O96'
_cell_volume   1807.55578644
_cell_formula_units_Z   2
loop_
 _symmetry_equiv_pos_site_id
 _symmetry_equiv_pos_as_xyz
  1  'x, y, z'
loop_
 _atom_site_type_symbol
 _atom_site_label
 _atom_site_symmetry_multiplicity
 _atom_site_fract_x
 _atom_site_fract_y
 _atom_site_fract_z
 _atom_site_occupancy
  Li  Li0  1  0.00007800  0.50000000  0.50220900  1
  Li  Li1  1  0.45945700  0.00000000  0.79090200  1
  Li  Li2  1  0.33416100  0.50000000  0.16979500  1
  Li  Li3  1  0.29105800  0.50000000  0.45546500  1
  Li  Li4  1  0.45872900  0.50000000  0.29053900  1
  Li  Li5  1  0.16629800  0.00000000  0.83520900  1
  Li  Li6  1  0.33409400  0.00000000  0.66646400  1
  Li  Li7  1  0.12397600  0.00000000  0.12289800  1
  Li  Li8  1  0.29127200  0.00000000  0.95894200  1
  Li  Li9  1  0.31251300  0.00000000  0.31260900  1
  Li  Li10  1  0.12409500  0.50000000  0.62175700  1
  Li  Li11  1  0.16646800  0.50000000  0.33390800  1
  Li  Li12  1  0.06270400  0.00000000  0.56211400  1
  Li  Li13  1  0.50007800  0.00000000  0.50220900  1
  Li  Li14  1  0.95945700  0.50000000  0.79090200  1
  Li  Li15  1  0.83416100  0.00000000  0.16979500  1
  Li  Li16  1  0.79105800  0.00000000  0.45546500  1
  Li  Li17  1  0.95872900  0.00000000  0.29053900  1
  Li  Li18  1  0.66629800  0.50000000  0.83520900  1
  Li  Li19  1  0.83409400  0.50000000  0.66646400  1
  Li  Li20  1  0.62397600  0.50000000  0.12289800  1
  Li  Li21  1  0.79127200  0.50000000  0.95894200  1
  Li  Li22  1  0.81251300  0.50000000  0.31260900  1
  Li  Li23  1  0.62409500  0.00000000  0.62175700  1
  Li  Li24  1  0.66646800  0.00000000  0.33390800  1
  Li  Li25  1  0.56270400  0.50000000  0.56211400  1
  Ti  Ti26  1  0.39351900  0.24533600  0.47523800  1
  Ti  Ti27  1  0.39812000  0.50000000  0.73302100  1
  Ti  Ti28  1  0.48097000  0.50000000  0.64028100  1
  Ti  Ti29  1  0.39650900  0.74783100  0.98033100  1
  Ti  Ti30  1  0.23161400  0.75490200  0.15041100  1
  Ti  Ti31  1  0.39351900  0.75466400  0.47523800  1
  Ti  Ti32  1  0.39362100  0.00000000  0.22851400  1
  Ti  Ti33  1  0.23105600  0.00000000  0.39576700  1
  Ti  Ti34  1  0.47974000  0.00000000  0.14210000  1
  Ti  Ti35  1  0.22892350  0.25080650  0.64383700  1
  Ti  Ti36  1  0.06226400  0.24299000  0.80651500  1
  Ti  Ti37  1  0.39650900  0.25216900  0.98033100  1
  Ti  Ti38  1  0.23161400  0.24509800  0.15041100  1
  Ti  Ti39  1  0.22795600  0.50000000  0.89381400  1
  Ti  Ti40  1  0.06167600  0.50000000  0.06340400  1
  Ti  Ti41  1  0.14579700  0.50000000  0.98263100  1
  Ti  Ti42  1  0.31269400  0.50000000  0.81301500  1
  Ti  Ti43  1  0.06200350  0.75478350  0.31682100  1
  Ti  Ti44  1  0.22892350  0.74919350  0.64383700  1
  Ti  Ti45  1  0.06226400  0.75701000  0.80651500  1
  Ti  Ti46  1  0.14365300  0.00000000  0.48342000  1
  Ti  Ti47  1  0.06200350  0.24521650  0.31682100  1
  Ti  Ti48  1  0.89351900  0.74533600  0.47523800  1
  Ti  Ti49  1  0.89812000  0.00000000  0.73302100  1
  Ti  Ti50  1  0.98097000  0.00000000  0.64028100  1
  Ti  Ti51  1  0.89650900  0.24783100  0.98033100  1
  Ti  Ti52  1  0.73161400  0.25490200  0.15041100  1
  Ti  Ti53  1  0.89351900  0.25466400  0.47523800  1
  Ti  Ti54  1  0.89362100  0.50000000  0.22851400  1
  Ti  Ti55  1  0.73105600  0.50000000  0.39576700  1
  Ti  Ti56  1  0.97974000  0.50000000  0.14210000  1
  Ti  Ti57  1  0.72892350  0.75080650  0.64383700  1
  Ti  Ti58  1  0.56226400  0.74299000  0.80651500  1
  Ti  Ti59  1  0.89650900  0.75216900  0.98033100  1
  Ti  Ti60  1  0.73161400  0.74509800  0.15041100  1
  Ti  Ti61  1  0.72795600  0.00000000  0.89381400  1
  Ti  Ti62  1  0.56167600  0.00000000  0.06340400  1
  Ti  Ti63  1  0.64579700  0.00000000  0.98263100  1
  Ti  Ti64  1  0.81269400  0.00000000  0.81301500  1
  Ti  Ti65  1  0.56200350  0.25478350  0.31682100  1
  Ti  Ti66  1  0.72892350  0.24919350  0.64383700  1
  Ti  Ti67  1  0.56226400  0.25701000  0.80651500  1
  Ti  Ti68  1  0.64365300  0.50000000  0.48342000  1
  Ti  Ti69  1  0.56200350  0.74521650  0.31682100  1
  O  O70  1  0.43514600  0.27874500  0.67685100  1
  O  O71  1  0.36020700  0.50000000  0.52427400  1
  O  O72  1  0.43616500  0.50000000  0.45448600  1
  O  O73  1  0.43514600  0.72125500  0.67685100  1
  O  O74  1  0.43549800  0.77817500  0.17634600  1
  O  O75  1  0.36018100  0.76715500  0.28352900  1
  O  O76  1  0.26500400  0.76727400  0.34175200  1
  O  O77  1  0.19368200  0.00000000  0.19308600  1
  O  O78  1  0.36030500  0.00000000  0.51580700  1
  O  O79  1  0.36017200  0.00000000  0.02832400  1
  O  O80  1  0.43531800  0.00000000  0.95157500  1
  O  O81  1  0.43119900  0.00000000  0.43217400  1
  O  O82  1  0.26489200  0.00000000  0.10936400  1
  O  O83  1  0.43549800  0.22182500  0.17634600  1
  O  O84  1  0.26500400  0.23272600  0.34175200  1
  O  O85  1  0.36018100  0.23284500  0.28352900  1
  O  O86  1  0.10236850  0.27712050  0.01022100  1
  O  O87  1  0.18949600  0.27739900  0.94826900  1
  O  O88  1  0.35624800  0.27632400  0.78088900  1
  O  O89  1  0.26857950  0.27605950  0.84316200  1
  O  O90  1  0.35619800  0.50000000  0.00670900  1
  O  O91  1  0.19368300  0.50000000  0.69301400  1
  O  O92  1  0.02828000  0.50000000  0.86381900  1
  O  O93  1  0.42970700  0.50000000  0.93034800  1
  O  O94  1  0.18917500  0.50000000  0.16997400  1
  O  O95  1  0.26483100  0.50000000  0.09937700  1
  O  O96  1  0.10218300  0.50000000  0.78505100  1
  O  O97  1  0.26862900  0.50000000  0.61857100  1
  O  O98  1  0.10236850  0.72287950  0.01022100  1
  O  O99  1  0.26857950  0.72394050  0.84316200  1
  O  O100  1  0.18949600  0.72260100  0.94826900  1
  O  O101  1  0.35624800  0.72367600  0.78088900  1
  O  O102  1  0.02072500  0.76582300  0.62152100  1
  O  O103  1  0.10436500  0.76750400  0.50297700  1
  O  O104  1  0.19012450  0.77849250  0.44931600  1
  O  O105  1  0.02378600  0.00000000  0.83523600  1
  O  O106  1  0.02692000  0.00000000  0.34853600  1
  O  O107  1  0.26508800  0.00000000  0.59736800  1
  O  O108  1  0.09876900  0.00000000  0.77755500  1
  O  O109  1  0.18934000  0.00000000  0.67324000  1
  O  O110  1  0.10225200  0.00000000  0.28551500  1
  O  O111  1  0.10436500  0.23249600  0.50297700  1
  O  O112  1  0.02072500  0.23417700  0.62152100  1
  O  O113  1  0.19012450  0.22150750  0.44931600  1
  O  O114  1  0.02389950  0.28250650  0.11828500  1
  O  O115  1  0.02342400  0.50000000  0.34234900  1
  O  O116  1  0.09782700  0.50000000  0.26273100  1
  O  O117  1  0.02389950  0.71749350  0.11828500  1
  O  O118  1  0.93514600  0.77874500  0.67685100  1
  O  O119  1  0.86020700  0.00000000  0.52427400  1
  O  O120  1  0.93616500  0.00000000  0.45448600  1
  O  O121  1  0.93514600  0.22125500  0.67685100  1
  O  O122  1  0.93549800  0.27817500  0.17634600  1
  O  O123  1  0.86018100  0.26715500  0.28352900  1
  O  O124  1  0.76500400  0.26727400  0.34175200  1
  O  O125  1  0.69368200  0.50000000  0.19308600  1
  O  O126  1  0.86030500  0.50000000  0.51580700  1
  O  O127  1  0.86017200  0.50000000  0.02832400  1
  O  O128  1  0.93531800  0.50000000  0.95157500  1
  O  O129  1  0.93119900  0.50000000  0.43217400  1
  O  O130  1  0.76489200  0.50000000  0.10936400  1
  O  O131  1  0.93549800  0.72182500  0.17634600  1
  O  O132  1  0.76500400  0.73272600  0.34175200  1
  O  O133  1  0.86018100  0.73284500  0.28352900  1
  O  O134  1  0.60236850  0.77712050  0.01022100  1
  O  O135  1  0.68949600  0.77739900  0.94826900  1
  O  O136  1  0.85624800  0.77632400  0.78088900  1
  O  O137  1  0.76857950  0.77605950  0.84316200  1
  O  O138  1  0.85619800  0.00000000  0.00670900  1
  O  O139  1  0.69368300  0.00000000  0.69301400  1
  O  O140  1  0.52828000  0.00000000  0.86381900  1
  O  O141  1  0.92970700  0.00000000  0.93034800  1
  O  O142  1  0.68917500  0.00000000  0.16997400  1
  O  O143  1  0.76483100  0.00000000  0.09937700  1
  O  O144  1  0.60218300  0.00000000  0.78505100  1
  O  O145  1  0.76862900  0.00000000  0.61857100  1
  O  O146  1  0.60236850  0.22287950  0.01022100  1
  O  O147  1  0.76857950  0.22394050  0.84316200  1
  O  O148  1  0.68949600  0.22260100  0.94826900  1
  O  O149  1  0.85624800  0.22367600  0.78088900  1
  O  O150  1  0.52072500  0.26582300  0.62152100  1
  O  O151  1  0.60436500  0.26750400  0.50297700  1
  O  O152  1  0.69012450  0.27849250  0.44931600  1
  O  O153  1  0.52378600  0.50000000  0.83523600  1
  O  O154  1  0.52692000  0.50000000  0.34853600  1
  O  O155  1  0.76508800  0.50000000  0.59736800  1
  O  O156  1  0.59876900  0.50000000  0.77755500  1
  O  O157  1  0.68934000  0.50000000  0.67324000  1
  O  O158  1  0.60225200  0.50000000  0.28551500  1
  O  O159  1  0.60436500  0.73249600  0.50297700  1
  O  O160  1  0.52072500  0.73417700  0.62152100  1
  O  O161  1  0.69012450  0.72150750  0.44931600  1
  O  O162  1  0.52389950  0.78250650  0.11828500  1
  O  O163  1  0.52342400  0.00000000  0.34234900  1
  O  O164  1  0.59782700  0.00000000  0.26273100  1
  O  O165  1  0.52389950  0.21749350  0.11828500  1
