# generated using pymatgen
data_Nb4As3
_symmetry_space_group_name_H-M   'P 1'
_cell_length_a   3.54236200
_cell_length_b   14.79464600
_cell_length_c   18.99305000
_cell_angle_alpha   90.00000000
_cell_angle_beta   90.00000000
_cell_angle_gamma   90.00000000
_symmetry_Int_Tables_number   1
_chemical_formula_structural   Nb4As3
_chemical_formula_sum   'Nb32 As24'
_cell_volume   995.38760854
_cell_formula_units_Z   8
loop_
 _symmetry_equiv_pos_site_id
 _symmetry_equiv_pos_as_xyz
  1  'x, y, z'
loop_
 _atom_site_type_symbol
 _atom_site_label
 _atom_site_symmetry_multiplicity
 _atom_site_fract_x
 _atom_site_fract_y
 _atom_site_fract_z
 _atom_site_occupancy
  Nb  Nb0  1  0.00000000  0.26226400  0.66187300  1
  Nb  Nb1  1  0.50000000  0.23773600  0.33812700  1
  Nb  Nb2  1  0.50000000  0.23773600  0.16187300  1
  Nb  Nb3  1  0.00000000  0.26226400  0.83812700  1
  Nb  Nb4  1  0.00000000  0.46613300  0.61965100  1
  Nb  Nb5  1  0.50000000  0.03386700  0.38034900  1
  Nb  Nb6  1  0.50000000  0.03386700  0.11965100  1
  Nb  Nb7  1  0.00000000  0.46613300  0.88034900  1
  Nb  Nb8  1  0.00000000  0.33164700  0.47125900  1
  Nb  Nb9  1  0.50000000  0.16835300  0.52874100  1
  Nb  Nb10  1  0.50000000  0.16835300  0.97125900  1
  Nb  Nb11  1  0.00000000  0.33164700  0.02874100  1
  Nb  Nb12  1  0.00000000  0.00000000  0.50000000  1
  Nb  Nb13  1  0.00000000  0.00000000  0.00000000  1
  Nb  Nb14  1  0.50000000  0.44667200  0.25000000  1
  Nb  Nb15  1  0.00000000  0.05332800  0.75000000  1
  Nb  Nb16  1  0.50000000  0.76226400  0.66187300  1
  Nb  Nb17  1  0.00000000  0.73773600  0.33812700  1
  Nb  Nb18  1  0.00000000  0.73773600  0.16187300  1
  Nb  Nb19  1  0.50000000  0.76226400  0.83812700  1
  Nb  Nb20  1  0.50000000  0.96613300  0.61965100  1
  Nb  Nb21  1  0.00000000  0.53386700  0.38034900  1
  Nb  Nb22  1  0.00000000  0.53386700  0.11965100  1
  Nb  Nb23  1  0.50000000  0.96613300  0.88034900  1
  Nb  Nb24  1  0.50000000  0.83164700  0.47125900  1
  Nb  Nb25  1  0.00000000  0.66835300  0.52874100  1
  Nb  Nb26  1  0.00000000  0.66835300  0.97125900  1
  Nb  Nb27  1  0.50000000  0.83164700  0.02874100  1
  Nb  Nb28  1  0.50000000  0.50000000  0.50000000  1
  Nb  Nb29  1  0.50000000  0.50000000  0.00000000  1
  Nb  Nb30  1  0.00000000  0.94667200  0.25000000  1
  Nb  Nb31  1  0.50000000  0.55332800  0.75000000  1
  As  As32  1  0.00000000  0.09814600  0.61811200  1
  As  As33  1  0.50000000  0.40185400  0.38188800  1
  As  As34  1  0.50000000  0.40185400  0.11811200  1
  As  As35  1  0.00000000  0.09814600  0.88188800  1
  As  As36  1  0.00000000  0.15793800  0.42259700  1
  As  As37  1  0.50000000  0.34206200  0.57740300  1
  As  As38  1  0.50000000  0.34206200  0.92259700  1
  As  As39  1  0.00000000  0.15793800  0.07740300  1
  As  As40  1  0.00000000  0.30815900  0.25000000  1
  As  As41  1  0.50000000  0.19184100  0.75000000  1
  As  As42  1  0.50000000  0.08712800  0.25000000  1
  As  As43  1  0.00000000  0.41287200  0.75000000  1
  As  As44  1  0.50000000  0.59814600  0.61811200  1
  As  As45  1  0.00000000  0.90185400  0.38188800  1
  As  As46  1  0.00000000  0.90185400  0.11811200  1
  As  As47  1  0.50000000  0.59814600  0.88188800  1
  As  As48  1  0.50000000  0.65793800  0.42259700  1
  As  As49  1  0.00000000  0.84206200  0.57740300  1
  As  As50  1  0.00000000  0.84206200  0.92259700  1
  As  As51  1  0.50000000  0.65793800  0.07740300  1
  As  As52  1  0.50000000  0.80815900  0.25000000  1
  As  As53  1  0.00000000  0.69184100  0.75000000  1
  As  As54  1  0.00000000  0.58712800  0.25000000  1
  As  As55  1  0.50000000  0.91287200  0.75000000  1
