# generated using pymatgen
data_Cs4Sc6CCl13
_symmetry_space_group_name_H-M   'P 1'
_cell_length_a   15.53248000
_cell_length_b   15.53248000
_cell_length_c   10.52232200
_cell_angle_alpha   90.00000000
_cell_angle_beta   90.00000000
_cell_angle_gamma   90.00000000
_symmetry_Int_Tables_number   1
_chemical_formula_structural   Cs4Sc6CCl13
_chemical_formula_sum   'Cs16 Sc24 C4 Cl52'
_cell_volume   2538.59367660
_cell_formula_units_Z   4
loop_
 _symmetry_equiv_pos_site_id
 _symmetry_equiv_pos_as_xyz
  1  'x, y, z'
loop_
 _atom_site_type_symbol
 _atom_site_label
 _atom_site_symmetry_multiplicity
 _atom_site_fract_x
 _atom_site_fract_y
 _atom_site_fract_z
 _atom_site_occupancy
  Cs  Cs0  1  0.34514150  0.84514150  0.75000000  1
  Cs  Cs1  1  0.15485850  0.34514150  0.25000000  1
  Cs  Cs2  1  0.15485850  0.65485850  0.25000000  1
  Cs  Cs3  1  0.84514150  0.15485850  0.50000000  1
  Cs  Cs4  1  0.15485850  0.84514150  0.50000000  1
  Cs  Cs5  1  0.34514150  0.15485850  0.75000000  1
  Cs  Cs6  1  0.84514150  0.84514150  0.50000000  1
  Cs  Cs7  1  0.15485850  0.15485850  0.50000000  1
  Cs  Cs8  1  0.84514150  0.34514150  0.25000000  1
  Cs  Cs9  1  0.65485850  0.84514150  0.75000000  1
  Cs  Cs10  1  0.65485850  0.15485850  0.75000000  1
  Cs  Cs11  1  0.34514150  0.65485850  0.00000000  1
  Cs  Cs12  1  0.65485850  0.34514150  0.00000000  1
  Cs  Cs13  1  0.84514150  0.65485850  0.25000000  1
  Cs  Cs14  1  0.34514150  0.34514150  0.00000000  1
  Cs  Cs15  1  0.65485850  0.65485850  0.00000000  1
  Sc  Sc16  1  0.00000000  0.64454150  0.75175650  1
  Sc  Sc17  1  0.14454150  0.00000000  0.00175650  1
  Sc  Sc18  1  0.85545850  0.00000000  0.00175650  1
  Sc  Sc19  1  0.50000000  0.00000000  0.46374000  1
  Sc  Sc20  1  0.00000000  0.35545850  0.75175650  1
  Sc  Sc21  1  0.00000000  0.00000000  0.78626000  1
  Sc  Sc22  1  0.00000000  0.00000000  0.21374000  1
  Sc  Sc23  1  0.35545850  0.00000000  0.24824350  1
  Sc  Sc24  1  0.50000000  0.00000000  0.03626000  1
  Sc  Sc25  1  0.64454150  0.00000000  0.24824350  1
  Sc  Sc26  1  0.00000000  0.85545850  0.99824350  1
  Sc  Sc27  1  0.00000000  0.14454150  0.99824350  1
  Sc  Sc28  1  0.50000000  0.14454150  0.25175650  1
  Sc  Sc29  1  0.64454150  0.50000000  0.50175650  1
  Sc  Sc30  1  0.35545850  0.50000000  0.50175650  1
  Sc  Sc31  1  0.00000000  0.50000000  0.96374000  1
  Sc  Sc32  1  0.50000000  0.85545850  0.25175650  1
  Sc  Sc33  1  0.50000000  0.50000000  0.28626000  1
  Sc  Sc34  1  0.50000000  0.50000000  0.71374000  1
  Sc  Sc35  1  0.85545850  0.50000000  0.74824350  1
  Sc  Sc36  1  0.00000000  0.50000000  0.53626000  1
  Sc  Sc37  1  0.14454150  0.50000000  0.74824350  1
  Sc  Sc38  1  0.50000000  0.35545850  0.49824350  1
  Sc  Sc39  1  0.50000000  0.64454150  0.49824350  1
  C  C40  1  0.50000000  0.00000000  0.25000000  1
  C  C41  1  0.00000000  0.00000000  0.00000000  1
  C  C42  1  0.00000000  0.50000000  0.75000000  1
  C  C43  1  0.50000000  0.50000000  0.50000000  1
  Cl  Cl44  1  0.00000000  0.66653400  0.50396700  1
  Cl  Cl45  1  0.33521000  0.16479000  0.25000000  1
  Cl  Cl46  1  0.16479000  0.33521000  0.75000000  1
  Cl  Cl47  1  0.00000000  0.33358000  0.99745200  1
  Cl  Cl48  1  0.00000000  0.83346600  0.24603300  1
  Cl  Cl49  1  0.66653400  0.00000000  0.49603300  1
  Cl  Cl50  1  0.33358000  0.00000000  0.00254800  1
  Cl  Cl51  1  0.66642000  0.00000000  0.00254800  1
  Cl  Cl52  1  0.16642000  0.00000000  0.24745200  1
  Cl  Cl53  1  0.16479000  0.16479000  0.00000000  1
  Cl  Cl54  1  0.00000000  0.66642000  0.99745200  1
  Cl  Cl55  1  0.00000000  0.16642000  0.75254800  1
  Cl  Cl56  1  0.00000000  0.16653400  0.24603300  1
  Cl  Cl57  1  0.33521000  0.83521000  0.25000000  1
  Cl  Cl58  1  0.16479000  0.83521000  0.00000000  1
  Cl  Cl59  1  0.33346600  0.00000000  0.49603300  1
  Cl  Cl60  1  0.00000000  0.00000000  0.50000000  1
  Cl  Cl61  1  0.16653400  0.00000000  0.75396700  1
  Cl  Cl62  1  0.00000000  0.83358000  0.75254800  1
  Cl  Cl63  1  0.16479000  0.66479000  0.75000000  1
  Cl  Cl64  1  0.83521000  0.83521000  0.00000000  1
  Cl  Cl65  1  0.00000000  0.33346600  0.50396700  1
  Cl  Cl66  1  0.83521000  0.16479000  0.00000000  1
  Cl  Cl67  1  0.83358000  0.00000000  0.24745200  1
  Cl  Cl68  1  0.83346600  0.00000000  0.75396700  1
  Cl  Cl69  1  0.50000000  0.00000000  0.75000000  1
  Cl  Cl70  1  0.50000000  0.16653400  0.00396700  1
  Cl  Cl71  1  0.83521000  0.66479000  0.75000000  1
  Cl  Cl72  1  0.66479000  0.83521000  0.25000000  1
  Cl  Cl73  1  0.50000000  0.83358000  0.49745200  1
  Cl  Cl74  1  0.50000000  0.33346600  0.74603300  1
  Cl  Cl75  1  0.16653400  0.50000000  0.99603300  1
  Cl  Cl76  1  0.83358000  0.50000000  0.50254800  1
  Cl  Cl77  1  0.16642000  0.50000000  0.50254800  1
  Cl  Cl78  1  0.66642000  0.50000000  0.74745200  1
  Cl  Cl79  1  0.66479000  0.66479000  0.50000000  1
  Cl  Cl80  1  0.50000000  0.16642000  0.49745200  1
  Cl  Cl81  1  0.50000000  0.66642000  0.25254800  1
  Cl  Cl82  1  0.50000000  0.66653400  0.74603300  1
  Cl  Cl83  1  0.83521000  0.33521000  0.75000000  1
  Cl  Cl84  1  0.66479000  0.33521000  0.50000000  1
  Cl  Cl85  1  0.83346600  0.50000000  0.99603300  1
  Cl  Cl86  1  0.50000000  0.50000000  0.00000000  1
  Cl  Cl87  1  0.66653400  0.50000000  0.25396700  1
  Cl  Cl88  1  0.50000000  0.33358000  0.25254800  1
  Cl  Cl89  1  0.66479000  0.16479000  0.25000000  1
  Cl  Cl90  1  0.33521000  0.33521000  0.50000000  1
  Cl  Cl91  1  0.50000000  0.83346600  0.00396700  1
  Cl  Cl92  1  0.33521000  0.66479000  0.50000000  1
  Cl  Cl93  1  0.33358000  0.50000000  0.74745200  1
  Cl  Cl94  1  0.33346600  0.50000000  0.25396700  1
  Cl  Cl95  1  0.00000000  0.50000000  0.25000000  1
