# generated using pymatgen
data_RbNd(WO4)2
_symmetry_space_group_name_H-M   'P 1'
_cell_length_a   11.04182400
_cell_length_b   10.91014800
_cell_length_c   7.59294762
_cell_angle_alpha   90.00000000
_cell_angle_beta   130.07643687
_cell_angle_gamma   90.00000000
_symmetry_Int_Tables_number   1
_chemical_formula_structural   RbNd(WO4)2
_chemical_formula_sum   'Rb4 Nd4 W8 O32'
_cell_volume   699.92098560
_cell_formula_units_Z   4
loop_
 _symmetry_equiv_pos_site_id
 _symmetry_equiv_pos_as_xyz
  1  'x, y, z'
loop_
 _atom_site_type_symbol
 _atom_site_label
 _atom_site_symmetry_multiplicity
 _atom_site_fract_x
 _atom_site_fract_y
 _atom_site_fract_z
 _atom_site_occupancy
  Rb  Rb0  1  0.00000000  0.79824500  0.25000000  1
  Rb  Rb1  1  0.00000000  0.20175500  0.75000000  1
  Rb  Rb2  1  0.50000000  0.29824500  0.25000000  1
  Rb  Rb3  1  0.50000000  0.70175500  0.75000000  1
  Nd  Nd4  1  0.00000000  0.22474400  0.25000000  1
  Nd  Nd5  1  0.00000000  0.77525600  0.75000000  1
  Nd  Nd6  1  0.50000000  0.72474400  0.25000000  1
  Nd  Nd7  1  0.50000000  0.27525600  0.75000000  1
  W  W8  1  0.19222450  0.49509750  0.21930500  1
  W  W9  1  0.19222450  0.50490250  0.71930500  1
  W  W10  1  0.80777550  0.50490250  0.78069500  1
  W  W11  1  0.80777550  0.49509750  0.28069500  1
  W  W12  1  0.69222450  0.99509750  0.21930500  1
  W  W13  1  0.69222450  0.00490250  0.71930500  1
  W  W14  1  0.30777550  0.00490250  0.78069500  1
  W  W15  1  0.30777550  0.99509750  0.28069500  1
  O  O16  1  0.97950150  0.60751450  0.52790800  1
  O  O17  1  0.63482000  0.58278300  0.19163400  1
  O  O18  1  0.72326000  0.34442200  0.13456400  1
  O  O19  1  0.72326000  0.65557800  0.63456400  1
  O  O20  1  0.18585800  0.56248100  0.43941600  1
  O  O21  1  0.81414200  0.56248100  0.06058400  1
  O  O22  1  0.27674000  0.34442200  0.36543600  1
  O  O23  1  0.02049850  0.39248550  0.47209200  1
  O  O24  1  0.63482000  0.41721700  0.69163400  1
  O  O25  1  0.36518000  0.41721700  0.80836600  1
  O  O26  1  0.97950150  0.39248550  0.02790800  1
  O  O27  1  0.27674000  0.65557800  0.86543600  1
  O  O28  1  0.81414200  0.43751900  0.56058400  1
  O  O29  1  0.18585800  0.43751900  0.93941600  1
  O  O30  1  0.36518000  0.58278300  0.30836600  1
  O  O31  1  0.02049850  0.60751450  0.97209200  1
  O  O32  1  0.47950150  0.10751450  0.52790800  1
  O  O33  1  0.13482000  0.08278300  0.19163400  1
  O  O34  1  0.22326000  0.84442200  0.13456400  1
  O  O35  1  0.22326000  0.15557800  0.63456400  1
  O  O36  1  0.68585800  0.06248100  0.43941600  1
  O  O37  1  0.31414200  0.06248100  0.06058400  1
  O  O38  1  0.77674000  0.84442200  0.36543600  1
  O  O39  1  0.52049850  0.89248550  0.47209200  1
  O  O40  1  0.13482000  0.91721700  0.69163400  1
  O  O41  1  0.86518000  0.91721700  0.80836600  1
  O  O42  1  0.47950150  0.89248550  0.02790800  1
  O  O43  1  0.77674000  0.15557800  0.86543600  1
  O  O44  1  0.31414200  0.93751900  0.56058400  1
  O  O45  1  0.68585800  0.93751900  0.93941600  1
  O  O46  1  0.86518000  0.08278300  0.30836600  1
  O  O47  1  0.52049850  0.10751450  0.97209200  1
