# generated using pymatgen
data_Tb4CdCo
_symmetry_space_group_name_H-M   'P 1'
_cell_length_a   13.48902400
_cell_length_b   13.48902400
_cell_length_c   13.48902400
_cell_angle_alpha   90.00000000
_cell_angle_beta   90.00000000
_cell_angle_gamma   90.00000000
_symmetry_Int_Tables_number   1
_chemical_formula_structural   Tb4CdCo
_chemical_formula_sum   'Tb64 Cd16 Co16'
_cell_volume   2454.37874982
_cell_formula_units_Z   16
loop_
 _symmetry_equiv_pos_site_id
 _symmetry_equiv_pos_as_xyz
  1  'x, y, z'
loop_
 _atom_site_type_symbol
 _atom_site_label
 _atom_site_symmetry_multiplicity
 _atom_site_fract_x
 _atom_site_fract_y
 _atom_site_fract_z
 _atom_site_occupancy
  Tb  Tb0  1  0.50000000  0.31145775  0.00000000  1
  Tb  Tb1  1  0.34648925  0.65351075  0.34648925  1
  Tb  Tb2  1  0.06169825  0.25000000  0.25000000  1
  Tb  Tb3  1  0.50000000  0.68854225  0.00000000  1
  Tb  Tb4  1  0.31145775  0.50000000  0.00000000  1
  Tb  Tb5  1  0.75000000  0.25000000  0.56169825  1
  Tb  Tb6  1  0.50000000  0.50000000  0.18854225  1
  Tb  Tb7  1  0.65351075  0.34648925  0.34648925  1
  Tb  Tb8  1  0.25000000  0.43830175  0.25000000  1
  Tb  Tb9  1  0.84648925  0.34648925  0.15351075  1
  Tb  Tb10  1  0.43830175  0.25000000  0.25000000  1
  Tb  Tb11  1  0.68854225  0.50000000  0.00000000  1
  Tb  Tb12  1  0.75000000  0.25000000  0.93830175  1
  Tb  Tb13  1  0.15351075  0.65351075  0.15351075  1
  Tb  Tb14  1  0.75000000  0.56169825  0.25000000  1
  Tb  Tb15  1  0.50000000  0.50000000  0.81145775  1
  Tb  Tb16  1  0.50000000  0.81145775  0.50000000  1
  Tb  Tb17  1  0.34648925  0.15351075  0.84648925  1
  Tb  Tb18  1  0.06169825  0.75000000  0.75000000  1
  Tb  Tb19  1  0.50000000  0.18854225  0.50000000  1
  Tb  Tb20  1  0.31145775  0.00000000  0.50000000  1
  Tb  Tb21  1  0.75000000  0.75000000  0.06169825  1
  Tb  Tb22  1  0.50000000  0.00000000  0.68854225  1
  Tb  Tb23  1  0.65351075  0.84648925  0.84648925  1
  Tb  Tb24  1  0.25000000  0.93830175  0.75000000  1
  Tb  Tb25  1  0.84648925  0.84648925  0.65351075  1
  Tb  Tb26  1  0.43830175  0.75000000  0.75000000  1
  Tb  Tb27  1  0.68854225  0.00000000  0.50000000  1
  Tb  Tb28  1  0.75000000  0.75000000  0.43830175  1
  Tb  Tb29  1  0.15351075  0.15351075  0.65351075  1
  Tb  Tb30  1  0.75000000  0.06169825  0.75000000  1
  Tb  Tb31  1  0.50000000  0.00000000  0.31145775  1
  Tb  Tb32  1  0.00000000  0.31145775  0.50000000  1
  Tb  Tb33  1  0.84648925  0.65351075  0.84648925  1
  Tb  Tb34  1  0.56169825  0.25000000  0.75000000  1
  Tb  Tb35  1  0.00000000  0.68854225  0.50000000  1
  Tb  Tb36  1  0.81145775  0.50000000  0.50000000  1
  Tb  Tb37  1  0.25000000  0.25000000  0.06169825  1
  Tb  Tb38  1  0.00000000  0.50000000  0.68854225  1
  Tb  Tb39  1  0.15351075  0.34648925  0.84648925  1
  Tb  Tb40  1  0.75000000  0.43830175  0.75000000  1
  Tb  Tb41  1  0.34648925  0.34648925  0.65351075  1
  Tb  Tb42  1  0.93830175  0.25000000  0.75000000  1
  Tb  Tb43  1  0.18854225  0.50000000  0.50000000  1
  Tb  Tb44  1  0.25000000  0.25000000  0.43830175  1
  Tb  Tb45  1  0.65351075  0.65351075  0.65351075  1
  Tb  Tb46  1  0.25000000  0.56169825  0.75000000  1
  Tb  Tb47  1  0.00000000  0.50000000  0.31145775  1
  Tb  Tb48  1  0.00000000  0.81145775  0.00000000  1
  Tb  Tb49  1  0.84648925  0.15351075  0.34648925  1
  Tb  Tb50  1  0.56169825  0.75000000  0.25000000  1
  Tb  Tb51  1  0.00000000  0.18854225  0.00000000  1
  Tb  Tb52  1  0.81145775  0.00000000  0.00000000  1
  Tb  Tb53  1  0.25000000  0.75000000  0.56169825  1
  Tb  Tb54  1  0.00000000  0.00000000  0.18854225  1
  Tb  Tb55  1  0.15351075  0.84648925  0.34648925  1
  Tb  Tb56  1  0.75000000  0.93830175  0.25000000  1
  Tb  Tb57  1  0.34648925  0.84648925  0.15351075  1
  Tb  Tb58  1  0.93830175  0.75000000  0.25000000  1
  Tb  Tb59  1  0.18854225  0.00000000  0.00000000  1
  Tb  Tb60  1  0.25000000  0.75000000  0.93830175  1
  Tb  Tb61  1  0.65351075  0.15351075  0.15351075  1
  Tb  Tb62  1  0.25000000  0.06169825  0.25000000  1
  Tb  Tb63  1  0.00000000  0.00000000  0.81145775  1
  Cd  Cd64  1  0.41967175  0.41967175  0.41967175  1
  Cd  Cd65  1  0.58032825  0.41967175  0.58032825  1
  Cd  Cd66  1  0.58032825  0.58032825  0.41967175  1
  Cd  Cd67  1  0.41967175  0.58032825  0.58032825  1
  Cd  Cd68  1  0.41967175  0.91967175  0.91967175  1
  Cd  Cd69  1  0.58032825  0.91967175  0.08032825  1
  Cd  Cd70  1  0.58032825  0.08032825  0.91967175  1
  Cd  Cd71  1  0.41967175  0.08032825  0.08032825  1
  Cd  Cd72  1  0.91967175  0.41967175  0.91967175  1
  Cd  Cd73  1  0.08032825  0.41967175  0.08032825  1
  Cd  Cd74  1  0.08032825  0.58032825  0.91967175  1
  Cd  Cd75  1  0.91967175  0.58032825  0.08032825  1
  Cd  Cd76  1  0.91967175  0.91967175  0.41967175  1
  Cd  Cd77  1  0.08032825  0.91967175  0.58032825  1
  Cd  Cd78  1  0.08032825  0.08032825  0.41967175  1
  Cd  Cd79  1  0.91967175  0.08032825  0.58032825  1
  Co  Co80  1  0.64103525  0.35896475  0.14103525  1
  Co  Co81  1  0.14103525  0.64103525  0.35896475  1
  Co  Co82  1  0.35896475  0.64103525  0.14103525  1
  Co  Co83  1  0.85896475  0.35896475  0.35896475  1
  Co  Co84  1  0.64103525  0.85896475  0.64103525  1
  Co  Co85  1  0.14103525  0.14103525  0.85896475  1
  Co  Co86  1  0.35896475  0.14103525  0.64103525  1
  Co  Co87  1  0.85896475  0.85896475  0.85896475  1
  Co  Co88  1  0.14103525  0.35896475  0.64103525  1
  Co  Co89  1  0.64103525  0.64103525  0.85896475  1
  Co  Co90  1  0.85896475  0.64103525  0.64103525  1
  Co  Co91  1  0.35896475  0.35896475  0.85896475  1
  Co  Co92  1  0.14103525  0.85896475  0.14103525  1
  Co  Co93  1  0.64103525  0.14103525  0.35896475  1
  Co  Co94  1  0.85896475  0.14103525  0.14103525  1
  Co  Co95  1  0.35896475  0.85896475  0.35896475  1
