# generated using pymatgen
data_Na3B5Pt9
_symmetry_space_group_name_H-M   'P 1'
_cell_length_a   5.61667800
_cell_length_b   11.52317000
_cell_length_c   15.27785000
_cell_angle_alpha   90.00000000
_cell_angle_beta   90.00000000
_cell_angle_gamma   90.00000000
_symmetry_Int_Tables_number   1
_chemical_formula_structural   Na3B5Pt9
_chemical_formula_sum   'Na12 B20 Pt36'
_cell_volume   988.81202120
_cell_formula_units_Z   4
loop_
 _symmetry_equiv_pos_site_id
 _symmetry_equiv_pos_as_xyz
  1  'x, y, z'
loop_
 _atom_site_type_symbol
 _atom_site_label
 _atom_site_symmetry_multiplicity
 _atom_site_fract_x
 _atom_site_fract_y
 _atom_site_fract_z
 _atom_site_occupancy
  Na  Na0  1  0.50000000  0.18595200  0.25000000  1
  Na  Na1  1  0.00000000  0.31404800  0.75000000  1
  Na  Na2  1  0.00000000  0.44104600  0.58673000  1
  Na  Na3  1  0.50000000  0.05895400  0.41327000  1
  Na  Na4  1  0.50000000  0.05895400  0.08673000  1
  Na  Na5  1  0.00000000  0.44104600  0.91327000  1
  Na  Na6  1  0.00000000  0.68595200  0.25000000  1
  Na  Na7  1  0.50000000  0.81404800  0.75000000  1
  Na  Na8  1  0.50000000  0.94104600  0.58673000  1
  Na  Na9  1  0.00000000  0.55895400  0.41327000  1
  Na  Na10  1  0.00000000  0.55895400  0.08673000  1
  Na  Na11  1  0.50000000  0.94104600  0.91327000  1
  B  B12  1  0.00000000  0.05584300  0.64654300  1
  B  B13  1  0.50000000  0.44415700  0.35345700  1
  B  B14  1  0.50000000  0.44415700  0.14654300  1
  B  B15  1  0.00000000  0.05584300  0.85345700  1
  B  B16  1  0.50000000  0.31041900  0.52777900  1
  B  B17  1  0.00000000  0.18958100  0.47222100  1
  B  B18  1  0.00000000  0.18958100  0.02777900  1
  B  B19  1  0.50000000  0.31041900  0.97222100  1
  B  B20  1  0.00000000  0.27249800  0.25000000  1
  B  B21  1  0.50000000  0.22750200  0.75000000  1
  B  B22  1  0.50000000  0.55584300  0.64654300  1
  B  B23  1  0.00000000  0.94415700  0.35345700  1
  B  B24  1  0.00000000  0.94415700  0.14654300  1
  B  B25  1  0.50000000  0.55584300  0.85345700  1
  B  B26  1  0.00000000  0.81041900  0.52777900  1
  B  B27  1  0.50000000  0.68958100  0.47222100  1
  B  B28  1  0.50000000  0.68958100  0.02777900  1
  B  B29  1  0.00000000  0.81041900  0.97222100  1
  B  B30  1  0.50000000  0.77249800  0.25000000  1
  B  B31  1  0.00000000  0.72750200  0.75000000  1
  Pt  Pt32  1  0.00000000  0.00000000  0.50000000  1
  Pt  Pt33  1  0.00000000  0.00000000  0.00000000  1
  Pt  Pt34  1  0.74637250  0.08697350  0.75000000  1
  Pt  Pt35  1  0.24637250  0.41302650  0.25000000  1
  Pt  Pt36  1  0.75362750  0.41302650  0.25000000  1
  Pt  Pt37  1  0.25362750  0.08697350  0.75000000  1
  Pt  Pt38  1  0.50000000  0.37221400  0.65697700  1
  Pt  Pt39  1  0.00000000  0.12778600  0.34302300  1
  Pt  Pt40  1  0.00000000  0.12778600  0.15697700  1
  Pt  Pt41  1  0.50000000  0.37221400  0.84302300  1
  Pt  Pt42  1  0.75237900  0.18396600  0.57897100  1
  Pt  Pt43  1  0.25237900  0.31603400  0.42102900  1
  Pt  Pt44  1  0.74762100  0.31603400  0.07897100  1
  Pt  Pt45  1  0.24762100  0.18396600  0.92102900  1
  Pt  Pt46  1  0.74762100  0.31603400  0.42102900  1
  Pt  Pt47  1  0.24762100  0.18396600  0.57897100  1
  Pt  Pt48  1  0.75237900  0.18396600  0.92102900  1
  Pt  Pt49  1  0.25237900  0.31603400  0.07897100  1
  Pt  Pt50  1  0.50000000  0.50000000  0.50000000  1
  Pt  Pt51  1  0.50000000  0.50000000  0.00000000  1
  Pt  Pt52  1  0.24637250  0.58697350  0.75000000  1
  Pt  Pt53  1  0.74637250  0.91302650  0.25000000  1
  Pt  Pt54  1  0.25362750  0.91302650  0.25000000  1
  Pt  Pt55  1  0.75362750  0.58697350  0.75000000  1
  Pt  Pt56  1  0.00000000  0.87221400  0.65697700  1
  Pt  Pt57  1  0.50000000  0.62778600  0.34302300  1
  Pt  Pt58  1  0.50000000  0.62778600  0.15697700  1
  Pt  Pt59  1  0.00000000  0.87221400  0.84302300  1
  Pt  Pt60  1  0.25237900  0.68396600  0.57897100  1
  Pt  Pt61  1  0.75237900  0.81603400  0.42102900  1
  Pt  Pt62  1  0.24762100  0.81603400  0.07897100  1
  Pt  Pt63  1  0.74762100  0.68396600  0.92102900  1
  Pt  Pt64  1  0.24762100  0.81603400  0.42102900  1
  Pt  Pt65  1  0.74762100  0.68396600  0.57897100  1
  Pt  Pt66  1  0.25237900  0.68396600  0.92102900  1
  Pt  Pt67  1  0.75237900  0.81603400  0.07897100  1
