# generated using pymatgen
data_NaCo3P3(HO6)2
_symmetry_space_group_name_H-M   'P 1'
_cell_length_a   11.98067600
_cell_length_b   12.20287000
_cell_length_c   6.61969551
_cell_angle_alpha   90.00000000
_cell_angle_beta   114.28388744
_cell_angle_gamma   90.00000000
_symmetry_Int_Tables_number   1
_chemical_formula_structural   NaCo3P3(HO6)2
_chemical_formula_sum   'Na4 Co12 P12 H8 O48'
_cell_volume   882.15932755
_cell_formula_units_Z   4
loop_
 _symmetry_equiv_pos_site_id
 _symmetry_equiv_pos_as_xyz
  1  'x, y, z'
loop_
 _atom_site_type_symbol
 _atom_site_label
 _atom_site_symmetry_multiplicity
 _atom_site_fract_x
 _atom_site_fract_y
 _atom_site_fract_z
 _atom_site_occupancy
  Na  Na0  1  0.50000000  0.54341900  0.25000000  1
  Na  Na1  1  0.50000000  0.45658100  0.75000000  1
  Na  Na2  1  0.00000000  0.04341900  0.25000000  1
  Na  Na3  1  0.00000000  0.95658100  0.75000000  1
  Co  Co4  1  0.50000000  0.77615100  0.75000000  1
  Co  Co5  1  0.50000000  0.22384900  0.25000000  1
  Co  Co6  1  0.21180650  0.16220650  0.62565800  1
  Co  Co7  1  0.78819350  0.16220650  0.87434200  1
  Co  Co8  1  0.78819350  0.83779350  0.37434200  1
  Co  Co9  1  0.21180650  0.83779350  0.12565800  1
  Co  Co10  1  0.00000000  0.27615100  0.75000000  1
  Co  Co11  1  0.00000000  0.72384900  0.25000000  1
  Co  Co12  1  0.71180650  0.66220650  0.62565800  1
  Co  Co13  1  0.28819350  0.66220650  0.87434200  1
  Co  Co14  1  0.28819350  0.33779350  0.37434200  1
  Co  Co15  1  0.71180650  0.33779350  0.12565800  1
  P  P16  1  0.50000000  0.18257400  0.75000000  1
  P  P17  1  0.50000000  0.81742600  0.25000000  1
  P  P18  1  0.78287900  0.88898100  0.88953800  1
  P  P19  1  0.21712100  0.88898100  0.61046200  1
  P  P20  1  0.21712100  0.11101900  0.11046200  1
  P  P21  1  0.78287900  0.11101900  0.38953800  1
  P  P22  1  0.00000000  0.68257400  0.75000000  1
  P  P23  1  0.00000000  0.31742600  0.25000000  1
  P  P24  1  0.28287900  0.38898100  0.88953800  1
  P  P25  1  0.71712100  0.38898100  0.61046200  1
  P  P26  1  0.71712100  0.61101900  0.11046200  1
  P  P27  1  0.28287900  0.61101900  0.38953800  1
  H  H28  1  0.61813300  0.99404600  0.81088700  1
  H  H29  1  0.38186700  0.99404600  0.68911300  1
  H  H30  1  0.38186700  0.00595400  0.18911300  1
  H  H31  1  0.61813300  0.00595400  0.31088700  1
  H  H32  1  0.11813300  0.49404600  0.81088700  1
  H  H33  1  0.88186700  0.49404600  0.68911300  1
  H  H34  1  0.88186700  0.50595400  0.18911300  1
  H  H35  1  0.11813300  0.50595400  0.31088700  1
  O  O36  1  0.53581450  0.74330150  0.46073300  1
  O  O37  1  0.46418550  0.74330150  0.03926700  1
  O  O38  1  0.46418550  0.25669850  0.53926700  1
  O  O39  1  0.53581450  0.25669850  0.96073300  1
  O  O40  1  0.39178500  0.10723900  0.73187300  1
  O  O41  1  0.60821500  0.10723900  0.76812700  1
  O  O42  1  0.60821500  0.89276100  0.26812700  1
  O  O43  1  0.39178500  0.89276100  0.23187300  1
  O  O44  1  0.65510900  0.67319300  0.88752500  1
  O  O45  1  0.34489100  0.67319300  0.61247500  1
  O  O46  1  0.34489100  0.32680700  0.11247500  1
  O  O47  1  0.65510900  0.32680700  0.38752500  1
  O  O48  1  0.35792050  0.90895050  0.65557900  1
  O  O49  1  0.64207950  0.90895050  0.84442100  1
  O  O50  1  0.64207950  0.09104950  0.34442100  1
  O  O51  1  0.35792050  0.09104950  0.15557900  1
  O  O52  1  0.78595250  0.82101650  0.69651900  1
  O  O53  1  0.21404750  0.82101650  0.80348100  1
  O  O54  1  0.21404750  0.17898350  0.30348100  1
  O  O55  1  0.78595250  0.17898350  0.19651900  1
  O  O56  1  0.15397200  0.00036000  0.59565100  1
  O  O57  1  0.84602800  0.00036000  0.90434900  1
  O  O58  1  0.84602800  0.99964000  0.40434900  1
  O  O59  1  0.15397200  0.99964000  0.09565100  1
  O  O60  1  0.03581450  0.24330150  0.46073300  1
  O  O61  1  0.96418550  0.24330150  0.03926700  1
  O  O62  1  0.96418550  0.75669850  0.53926700  1
  O  O63  1  0.03581450  0.75669850  0.96073300  1
  O  O64  1  0.89178500  0.60723900  0.73187300  1
  O  O65  1  0.10821500  0.60723900  0.76812700  1
  O  O66  1  0.10821500  0.39276100  0.26812700  1
  O  O67  1  0.89178500  0.39276100  0.23187300  1
  O  O68  1  0.15510900  0.17319300  0.88752500  1
  O  O69  1  0.84489100  0.17319300  0.61247500  1
  O  O70  1  0.84489100  0.82680700  0.11247500  1
  O  O71  1  0.15510900  0.82680700  0.38752500  1
  O  O72  1  0.85792050  0.40895050  0.65557900  1
  O  O73  1  0.14207950  0.40895050  0.84442100  1
  O  O74  1  0.14207950  0.59104950  0.34442100  1
  O  O75  1  0.85792050  0.59104950  0.15557900  1
  O  O76  1  0.28595250  0.32101650  0.69651900  1
  O  O77  1  0.71404750  0.32101650  0.80348100  1
  O  O78  1  0.71404750  0.67898350  0.30348100  1
  O  O79  1  0.28595250  0.67898350  0.19651900  1
  O  O80  1  0.65397200  0.50036000  0.59565100  1
  O  O81  1  0.34602800  0.50036000  0.90434900  1
  O  O82  1  0.34602800  0.49964000  0.40434900  1
  O  O83  1  0.65397200  0.49964000  0.09565100  1
