# generated using pymatgen
data_FePO4
_symmetry_space_group_name_H-M   'P 1'
_cell_length_a   7.50152010
_cell_length_b   7.50152010
_cell_length_c   9.38168300
_cell_angle_alpha   90.00000000
_cell_angle_beta   90.00000000
_cell_angle_gamma   120.00000000
_symmetry_Int_Tables_number   1
_chemical_formula_structural   FePO4
_chemical_formula_sum   'Fe6 P6 O24'
_cell_volume   457.20391480
_cell_formula_units_Z   6
loop_
 _symmetry_equiv_pos_site_id
 _symmetry_equiv_pos_as_xyz
  1  'x, y, z'
loop_
 _atom_site_type_symbol
 _atom_site_label
 _atom_site_symmetry_multiplicity
 _atom_site_fract_x
 _atom_site_fract_y
 _atom_site_fract_z
 _atom_site_occupancy
  Fe  Fe0  1  0.44511733  0.38487367  0.52733300  1
  Fe  Fe1  1  0.06024367  0.61512633  0.02733300  1
  Fe  Fe2  1  0.61512633  0.06024367  0.52733300  1
  Fe  Fe3  1  0.55488267  0.93975633  0.02733300  1
  Fe  Fe4  1  0.93975633  0.55488267  0.52733300  1
  Fe  Fe5  1  0.38487367  0.44511733  0.02733300  1
  P  P6  1  0.66666667  0.33333333  0.82560700  1
  P  P7  1  0.33333333  0.66666667  0.32560700  1
  P  P8  1  0.66666667  0.33333333  0.21729700  1
  P  P9  1  0.33333333  0.66666667  0.71729700  1
  P  P10  1  0.00000000  0.00000000  0.47696400  1
  P  P11  1  0.00000000  0.00000000  0.97696400  1
  O  O12  1  0.22481733  0.11996267  0.54336700  1
  O  O13  1  0.10485467  0.88003733  0.04336700  1
  O  O14  1  0.47803333  0.34495867  0.87412400  1
  O  O15  1  0.13307467  0.65504133  0.37412400  1
  O  O16  1  0.11155233  0.52832967  0.66642300  1
  O  O17  1  0.58322267  0.47167033  0.16642300  1
  O  O18  1  0.41677733  0.88844767  0.66642300  1
  O  O19  1  0.52832967  0.11155233  0.16642300  1
  O  O20  1  0.66666667  0.33333333  0.39066100  1
  O  O21  1  0.00000000  0.00000000  0.31936800  1
  O  O22  1  0.33333333  0.66666667  0.89066100  1
  O  O23  1  0.66666667  0.33333333  0.65248000  1
  O  O24  1  0.33333333  0.66666667  0.15248000  1
  O  O25  1  0.89514533  0.77518267  0.54336700  1
  O  O26  1  0.11996267  0.22481733  0.04336700  1
  O  O27  1  0.65504133  0.13307467  0.87412400  1
  O  O28  1  0.52196667  0.86692533  0.37412400  1
  O  O29  1  0.86692533  0.52196667  0.87412400  1
  O  O30  1  0.34495867  0.47803333  0.37412400  1
  O  O31  1  0.47167033  0.58322267  0.66642300  1
  O  O32  1  0.88844767  0.41677733  0.16642300  1
  O  O33  1  0.88003733  0.10485467  0.54336700  1
  O  O34  1  0.77518267  0.89514533  0.04336700  1
  O  O35  1  0.00000000  0.00000000  0.81936800  1
