# generated using pymatgen
data_YSbMo2O9
_symmetry_space_group_name_H-M   'P 1'
_cell_length_a   13.08771000
_cell_length_b   14.39624000
_cell_length_c   10.87354475
_cell_angle_alpha   90.00000000
_cell_angle_beta   123.59223310
_cell_angle_gamma   90.00000000
_symmetry_Int_Tables_number   1
_chemical_formula_structural   YSbMo2O9
_chemical_formula_sum   'Y8 Sb8 Mo16 O72'
_cell_volume   1706.58110870
_cell_formula_units_Z   8
loop_
 _symmetry_equiv_pos_site_id
 _symmetry_equiv_pos_as_xyz
  1  'x, y, z'
loop_
 _atom_site_type_symbol
 _atom_site_label
 _atom_site_symmetry_multiplicity
 _atom_site_fract_x
 _atom_site_fract_y
 _atom_site_fract_z
 _atom_site_occupancy
  Y  Y0  1  0.50000000  0.62582100  0.75000000  1
  Y  Y1  1  0.50000000  0.17193000  0.75000000  1
  Y  Y2  1  0.50000000  0.37417900  0.25000000  1
  Y  Y3  1  0.50000000  0.82807000  0.25000000  1
  Y  Y4  1  0.00000000  0.12582100  0.75000000  1
  Y  Y5  1  0.00000000  0.67193000  0.75000000  1
  Y  Y6  1  0.00000000  0.87417900  0.25000000  1
  Y  Y7  1  0.00000000  0.32807000  0.25000000  1
  Sb  Sb8  1  0.36476350  0.98472750  0.46424500  1
  Sb  Sb9  1  0.63523650  0.01527250  0.53575500  1
  Sb  Sb10  1  0.63523650  0.98472750  0.03575500  1
  Sb  Sb11  1  0.36476350  0.01527250  0.96424500  1
  Sb  Sb12  1  0.86476350  0.48472750  0.46424500  1
  Sb  Sb13  1  0.13523650  0.51527250  0.53575500  1
  Sb  Sb14  1  0.13523650  0.48472750  0.03575500  1
  Sb  Sb15  1  0.86476350  0.51527250  0.96424500  1
  Mo  Mo16  1  0.24606750  0.81204650  0.69313900  1
  Mo  Mo17  1  0.75393250  0.18795350  0.30686100  1
  Mo  Mo18  1  0.24606750  0.18795350  0.19313900  1
  Mo  Mo19  1  0.15275300  0.10638000  0.52507000  1
  Mo  Mo20  1  0.75393250  0.81204650  0.80686100  1
  Mo  Mo21  1  0.84724700  0.89362000  0.47493000  1
  Mo  Mo22  1  0.84724700  0.10638000  0.97493000  1
  Mo  Mo23  1  0.15275300  0.89362000  0.02507000  1
  Mo  Mo24  1  0.74606750  0.31204650  0.69313900  1
  Mo  Mo25  1  0.25393250  0.68795350  0.30686100  1
  Mo  Mo26  1  0.74606750  0.68795350  0.19313900  1
  Mo  Mo27  1  0.65275300  0.60638000  0.52507000  1
  Mo  Mo28  1  0.25393250  0.31204650  0.80686100  1
  Mo  Mo29  1  0.34724700  0.39362000  0.47493000  1
  Mo  Mo30  1  0.34724700  0.60638000  0.97493000  1
  Mo  Mo31  1  0.65275300  0.39362000  0.02507000  1
  O  O32  1  0.51748100  0.05942700  0.59956500  1
  O  O33  1  0.91865900  0.01420000  0.10198700  1
  O  O34  1  0.28642750  0.07770750  0.29734500  1
  O  O35  1  0.61718950  0.76186050  0.77279200  1
  O  O36  1  0.08134100  0.01420000  0.39801300  1
  O  O37  1  0.71357250  0.92229250  0.70265500  1
  O  O38  1  0.48251900  0.05942700  0.90043500  1
  O  O39  1  0.51748100  0.94057300  0.09956500  1
  O  O40  1  0.91865900  0.98580000  0.60198700  1
  O  O41  1  0.38281050  0.23813950  0.22720800  1
  O  O42  1  0.38281050  0.76186050  0.72720800  1
  O  O43  1  0.35663650  0.66323850  0.49791100  1
  O  O44  1  0.67461650  0.23191850  0.74804900  1
  O  O45  1  0.71357250  0.07770750  0.20265500  1
  O  O46  1  0.48251900  0.94057300  0.40043500  1
  O  O47  1  0.58456850  0.71357850  0.43173600  1
  O  O48  1  0.41543150  0.28642150  0.56826400  1
  O  O49  1  0.68651650  0.09208350  0.92067600  1
  O  O50  1  0.64336350  0.66323850  0.00208900  1
  O  O51  1  0.86815050  0.08933850  0.82637500  1
  O  O52  1  0.31348350  0.09208350  0.57932400  1
  O  O53  1  0.86815050  0.91066150  0.32637500  1
  O  O54  1  0.61718950  0.23813950  0.27279200  1
  O  O55  1  0.32538350  0.23191850  0.75195100  1
  O  O56  1  0.35663650  0.33676150  0.99791100  1
  O  O57  1  0.13184950  0.91066150  0.17362500  1
  O  O58  1  0.64336350  0.33676150  0.50208900  1
  O  O59  1  0.08134100  0.98580000  0.89801300  1
  O  O60  1  0.31348350  0.90791650  0.07932400  1
  O  O61  1  0.13184950  0.08933850  0.67362500  1
  O  O62  1  0.58456850  0.28642150  0.93173600  1
  O  O63  1  0.41543150  0.71357850  0.06826400  1
  O  O64  1  0.28642750  0.92229250  0.79734500  1
  O  O65  1  0.32538350  0.76808150  0.25195100  1
  O  O66  1  0.67461650  0.76808150  0.24804900  1
  O  O67  1  0.68651650  0.90791650  0.42067600  1
  O  O68  1  0.01748100  0.55942700  0.59956500  1
  O  O69  1  0.41865900  0.51420000  0.10198700  1
  O  O70  1  0.78642750  0.57770750  0.29734500  1
  O  O71  1  0.11718950  0.26186050  0.77279200  1
  O  O72  1  0.58134100  0.51420000  0.39801300  1
  O  O73  1  0.21357250  0.42229250  0.70265500  1
  O  O74  1  0.98251900  0.55942700  0.90043500  1
  O  O75  1  0.01748100  0.44057300  0.09956500  1
  O  O76  1  0.41865900  0.48580000  0.60198700  1
  O  O77  1  0.88281050  0.73813950  0.22720800  1
  O  O78  1  0.88281050  0.26186050  0.72720800  1
  O  O79  1  0.85663650  0.16323850  0.49791100  1
  O  O80  1  0.17461650  0.73191850  0.74804900  1
  O  O81  1  0.21357250  0.57770750  0.20265500  1
  O  O82  1  0.98251900  0.44057300  0.40043500  1
  O  O83  1  0.08456850  0.21357850  0.43173600  1
  O  O84  1  0.91543150  0.78642150  0.56826400  1
  O  O85  1  0.18651650  0.59208350  0.92067600  1
  O  O86  1  0.14336350  0.16323850  0.00208900  1
  O  O87  1  0.36815050  0.58933850  0.82637500  1
  O  O88  1  0.81348350  0.59208350  0.57932400  1
  O  O89  1  0.36815050  0.41066150  0.32637500  1
  O  O90  1  0.11718950  0.73813950  0.27279200  1
  O  O91  1  0.82538350  0.73191850  0.75195100  1
  O  O92  1  0.85663650  0.83676150  0.99791100  1
  O  O93  1  0.63184950  0.41066150  0.17362500  1
  O  O94  1  0.14336350  0.83676150  0.50208900  1
  O  O95  1  0.58134100  0.48580000  0.89801300  1
  O  O96  1  0.81348350  0.40791650  0.07932400  1
  O  O97  1  0.63184950  0.58933850  0.67362500  1
  O  O98  1  0.08456850  0.78642150  0.93173600  1
  O  O99  1  0.91543150  0.21357850  0.06826400  1
  O  O100  1  0.78642750  0.42229250  0.79734500  1
  O  O101  1  0.82538350  0.26808150  0.25195100  1
  O  O102  1  0.17461650  0.26808150  0.24804900  1
  O  O103  1  0.18651650  0.40791650  0.42067600  1
