# generated using pymatgen
data_SrFe3(PO4)3
_symmetry_space_group_name_H-M   'P 1'
_cell_length_a   6.61888000
_cell_length_b   10.58754600
_cell_length_c   13.61539400
_cell_angle_alpha   90.00000000
_cell_angle_beta   90.00000000
_cell_angle_gamma   90.00000000
_symmetry_Int_Tables_number   1
_chemical_formula_structural   SrFe3(PO4)3
_chemical_formula_sum   'Sr4 Fe12 P12 O48'
_cell_volume   954.13544803
_cell_formula_units_Z   4
loop_
 _symmetry_equiv_pos_site_id
 _symmetry_equiv_pos_as_xyz
  1  'x, y, z'
loop_
 _atom_site_type_symbol
 _atom_site_label
 _atom_site_symmetry_multiplicity
 _atom_site_fract_x
 _atom_site_fract_y
 _atom_site_fract_z
 _atom_site_occupancy
  Sr  Sr0  1  0.89976600  0.50000000  0.75000000  1
  Sr  Sr1  1  0.10023400  0.50000000  0.25000000  1
  Sr  Sr2  1  0.39976600  0.00000000  0.25000000  1
  Sr  Sr3  1  0.60023400  0.00000000  0.75000000  1
  Fe  Fe4  1  0.75000000  0.25000000  0.13244200  1
  Fe  Fe5  1  0.25000000  0.75000000  0.86755800  1
  Fe  Fe6  1  0.75000000  0.75000000  0.13244200  1
  Fe  Fe7  1  0.25000000  0.25000000  0.86755800  1
  Fe  Fe8  1  0.00000000  0.00000000  0.00000000  1
  Fe  Fe9  1  0.50000000  0.50000000  0.00000000  1
  Fe  Fe10  1  0.25000000  0.75000000  0.63244200  1
  Fe  Fe11  1  0.75000000  0.25000000  0.36755800  1
  Fe  Fe12  1  0.25000000  0.25000000  0.63244200  1
  Fe  Fe13  1  0.75000000  0.75000000  0.36755800  1
  Fe  Fe14  1  0.50000000  0.50000000  0.50000000  1
  Fe  Fe15  1  0.00000000  0.00000000  0.50000000  1
  P  P16  1  0.75000000  0.75000000  0.92651000  1
  P  P17  1  0.40560100  0.50000000  0.75000000  1
  P  P18  1  0.25000000  0.75000000  0.07349000  1
  P  P19  1  0.25000000  0.25000000  0.07349000  1
  P  P20  1  0.59439900  0.50000000  0.25000000  1
  P  P21  1  0.75000000  0.25000000  0.92651000  1
  P  P22  1  0.25000000  0.25000000  0.42651000  1
  P  P23  1  0.90560100  0.00000000  0.25000000  1
  P  P24  1  0.75000000  0.25000000  0.57349000  1
  P  P25  1  0.75000000  0.75000000  0.57349000  1
  P  P26  1  0.09439900  0.00000000  0.75000000  1
  P  P27  1  0.25000000  0.75000000  0.42651000  1
  O  O28  1  0.06786450  0.29031050  0.13618750  1
  O  O29  1  0.43213550  0.79031050  0.13618750  1
  O  O30  1  0.54142700  0.50000000  0.65753100  1
  O  O31  1  0.56786450  0.79031050  0.86381250  1
  O  O32  1  0.20352750  0.86132950  0.99920950  1
  O  O33  1  0.45857300  0.50000000  0.15753100  1
  O  O34  1  0.70352750  0.36132950  0.00079050  1
  O  O35  1  0.79647250  0.13867050  0.00079050  1
  O  O36  1  0.73957500  0.38383000  0.25000000  1
  O  O37  1  0.06786450  0.70968950  0.13618750  1
  O  O38  1  0.29647250  0.36132950  0.99920950  1
  O  O39  1  0.26042500  0.61617000  0.75000000  1
  O  O40  1  0.20352750  0.13867050  0.99920950  1
  O  O41  1  0.93213550  0.29031050  0.86381250  1
  O  O42  1  0.70352750  0.63867050  0.00079050  1
  O  O43  1  0.29647250  0.63867050  0.99920950  1
  O  O44  1  0.54142700  0.50000000  0.84246900  1
  O  O45  1  0.56786450  0.20968950  0.86381250  1
  O  O46  1  0.45857300  0.50000000  0.34246900  1
  O  O47  1  0.26042500  0.38383000  0.75000000  1
  O  O48  1  0.73957500  0.61617000  0.25000000  1
  O  O49  1  0.79647250  0.86132950  0.00079050  1
  O  O50  1  0.43213550  0.20968950  0.13618750  1
  O  O51  1  0.93213550  0.70968950  0.86381250  1
  O  O52  1  0.56786450  0.79031050  0.63618750  1
  O  O53  1  0.93213550  0.29031050  0.63618750  1
  O  O54  1  0.04142700  0.00000000  0.15753100  1
  O  O55  1  0.06786450  0.29031050  0.36381250  1
  O  O56  1  0.70352750  0.36132950  0.49920950  1
  O  O57  1  0.95857300  0.00000000  0.65753100  1
  O  O58  1  0.20352750  0.86132950  0.50079050  1
  O  O59  1  0.29647250  0.63867050  0.50079050  1
  O  O60  1  0.23957500  0.88383000  0.75000000  1
  O  O61  1  0.56786450  0.20968950  0.63618750  1
  O  O62  1  0.79647250  0.86132950  0.49920950  1
  O  O63  1  0.76042500  0.11617000  0.25000000  1
  O  O64  1  0.70352750  0.63867050  0.49920950  1
  O  O65  1  0.43213550  0.79031050  0.36381250  1
  O  O66  1  0.20352750  0.13867050  0.50079050  1
  O  O67  1  0.79647250  0.13867050  0.49920950  1
  O  O68  1  0.04142700  0.00000000  0.34246900  1
  O  O69  1  0.06786450  0.70968950  0.36381250  1
  O  O70  1  0.95857300  0.00000000  0.84246900  1
  O  O71  1  0.76042500  0.88383000  0.25000000  1
  O  O72  1  0.23957500  0.11617000  0.75000000  1
  O  O73  1  0.29647250  0.36132950  0.50079050  1
  O  O74  1  0.93213550  0.70968950  0.63618750  1
  O  O75  1  0.43213550  0.20968950  0.36381250  1
