# generated using pymatgen
data_Lu2Si5Ir3
_symmetry_space_group_name_H-M   'P 1'
_cell_length_a   5.76894600
_cell_length_b   10.02836600
_cell_length_c   11.34883200
_cell_angle_alpha   90.00000000
_cell_angle_beta   90.00000000
_cell_angle_gamma   90.00000000
_symmetry_Int_Tables_number   1
_chemical_formula_structural   Lu2Si5Ir3
_chemical_formula_sum   'Lu8 Si20 Ir12'
_cell_volume   656.56513439
_cell_formula_units_Z   4
loop_
 _symmetry_equiv_pos_site_id
 _symmetry_equiv_pos_as_xyz
  1  'x, y, z'
loop_
 _atom_site_type_symbol
 _atom_site_label
 _atom_site_symmetry_multiplicity
 _atom_site_fract_x
 _atom_site_fract_y
 _atom_site_fract_z
 _atom_site_occupancy
  Lu  Lu0  1  0.00000000  0.27212400  0.36866500  1
  Lu  Lu1  1  0.00000000  0.72787600  0.63133500  1
  Lu  Lu2  1  0.50000000  0.27212400  0.63133500  1
  Lu  Lu3  1  0.50000000  0.72787600  0.36866500  1
  Lu  Lu4  1  0.50000000  0.77212400  0.86866500  1
  Lu  Lu5  1  0.50000000  0.22787600  0.13133500  1
  Lu  Lu6  1  0.00000000  0.77212400  0.13133500  1
  Lu  Lu7  1  0.00000000  0.22787600  0.86866500  1
  Si  Si8  1  0.75000000  0.00000000  0.27451500  1
  Si  Si9  1  0.50000000  0.84408600  0.60610100  1
  Si  Si10  1  0.25000000  0.00000000  0.27451500  1
  Si  Si11  1  0.75000000  0.00000000  0.00000000  1
  Si  Si12  1  0.75000000  0.00000000  0.72548500  1
  Si  Si13  1  0.00000000  0.84408600  0.39389900  1
  Si  Si14  1  0.50000000  0.15591400  0.39389900  1
  Si  Si15  1  0.00000000  0.15591400  0.60610100  1
  Si  Si16  1  0.25000000  0.00000000  0.72548500  1
  Si  Si17  1  0.25000000  0.00000000  0.00000000  1
  Si  Si18  1  0.25000000  0.50000000  0.77451500  1
  Si  Si19  1  0.00000000  0.34408600  0.10610100  1
  Si  Si20  1  0.75000000  0.50000000  0.77451500  1
  Si  Si21  1  0.25000000  0.50000000  0.50000000  1
  Si  Si22  1  0.25000000  0.50000000  0.22548500  1
  Si  Si23  1  0.50000000  0.34408600  0.89389900  1
  Si  Si24  1  0.00000000  0.65591400  0.89389900  1
  Si  Si25  1  0.50000000  0.65591400  0.10610100  1
  Si  Si26  1  0.75000000  0.50000000  0.22548500  1
  Si  Si27  1  0.75000000  0.50000000  0.50000000  1
  Ir  Ir28  1  0.00000000  0.88388200  0.85992100  1
  Ir  Ir29  1  0.50000000  0.88388200  0.14007900  1
  Ir  Ir30  1  0.50000000  0.11611800  0.85992100  1
  Ir  Ir31  1  0.00000000  0.11611800  0.14007900  1
  Ir  Ir32  1  0.25000000  0.00000000  0.50000000  1
  Ir  Ir33  1  0.75000000  0.00000000  0.50000000  1
  Ir  Ir34  1  0.50000000  0.38388200  0.35992100  1
  Ir  Ir35  1  0.00000000  0.38388200  0.64007900  1
  Ir  Ir36  1  0.00000000  0.61611800  0.35992100  1
  Ir  Ir37  1  0.50000000  0.61611800  0.64007900  1
  Ir  Ir38  1  0.75000000  0.50000000  0.00000000  1
  Ir  Ir39  1  0.25000000  0.50000000  0.00000000  1
