# generated using pymatgen
data_Fe12PbO19
_symmetry_space_group_name_H-M   'P 1'
_cell_length_a   5.96577669
_cell_length_b   5.96577669
_cell_length_c   23.22228400
_cell_angle_alpha   90.00000000
_cell_angle_beta   90.00000000
_cell_angle_gamma   120.00000000
_symmetry_Int_Tables_number   1
_chemical_formula_structural   Fe12PbO19
_chemical_formula_sum   'Fe24 Pb2 O38'
_cell_volume   715.76350164
_cell_formula_units_Z   2
loop_
 _symmetry_equiv_pos_site_id
 _symmetry_equiv_pos_as_xyz
  1  'x, y, z'
loop_
 _atom_site_type_symbol
 _atom_site_label
 _atom_site_symmetry_multiplicity
 _atom_site_fract_x
 _atom_site_fract_y
 _atom_site_fract_z
 _atom_site_occupancy
  Fe  Fe0  1  0.33567600  0.16783800  0.39145300  1
  Fe  Fe1  1  0.66666667  0.33333333  0.69090500  1
  Fe  Fe2  1  0.66432400  0.83216200  0.60854700  1
  Fe  Fe3  1  0.83216200  0.16783800  0.10854700  1
  Fe  Fe4  1  0.83216200  0.66432400  0.39145300  1
  Fe  Fe5  1  0.66666667  0.33333333  0.97313500  1
  Fe  Fe6  1  0.16783800  0.83216200  0.60854700  1
  Fe  Fe7  1  0.33333333  0.66666667  0.47313500  1
  Fe  Fe8  1  0.16783800  0.33567600  0.60854700  1
  Fe  Fe9  1  0.33567600  0.16783800  0.10854700  1
  Fe  Fe10  1  0.33333333  0.66666667  0.30909500  1
  Fe  Fe11  1  0.66666667  0.33333333  0.80909500  1
  Fe  Fe12  1  0.16783800  0.33567600  0.89145300  1
  Fe  Fe13  1  0.00000000  0.00000000  0.50000000  1
  Fe  Fe14  1  0.66666667  0.33333333  0.52686500  1
  Fe  Fe15  1  0.33333333  0.66666667  0.02686500  1
  Fe  Fe16  1  0.83216200  0.16783800  0.39145300  1
  Fe  Fe17  1  0.83216200  0.66432400  0.10854700  1
  Fe  Fe18  1  0.66432400  0.83216200  0.89145300  1
  Fe  Fe19  1  0.00000000  0.00000000  0.75000000  1
  Fe  Fe20  1  0.16783800  0.83216200  0.89145300  1
  Fe  Fe21  1  0.33333333  0.66666667  0.19090500  1
  Fe  Fe22  1  0.00000000  0.00000000  0.00000000  1
  Fe  Fe23  1  0.00000000  0.00000000  0.25000000  1
  Pb  Pb24  1  0.66666667  0.33333333  0.25000000  1
  Pb  Pb25  1  0.33333333  0.66666667  0.75000000  1
  O  O26  1  0.84820000  0.69640000  0.55048300  1
  O  O27  1  0.00483300  0.50241650  0.64978900  1
  O  O28  1  0.49758350  0.50241650  0.85021100  1
  O  O29  1  0.84820000  0.15180000  0.55048300  1
  O  O30  1  0.66666667  0.33333333  0.05622100  1
  O  O31  1  0.50241650  0.49758350  0.35021100  1
  O  O32  1  0.63479900  0.81739950  0.25000000  1
  O  O33  1  0.49758350  0.99516700  0.64978900  1
  O  O34  1  0.36520100  0.18260050  0.75000000  1
  O  O35  1  0.30360000  0.15180000  0.94951700  1
  O  O36  1  0.30360000  0.15180000  0.55048300  1
  O  O37  1  0.69640000  0.84820000  0.05048300  1
  O  O38  1  0.15180000  0.30360000  0.05048300  1
  O  O39  1  0.50241650  0.00483300  0.35021100  1
  O  O40  1  0.33333333  0.66666667  0.55622100  1
  O  O41  1  0.18260050  0.36520100  0.25000000  1
  O  O42  1  0.00000000  0.00000000  0.84775800  1
  O  O43  1  0.18260050  0.81739950  0.25000000  1
  O  O44  1  0.00000000  0.00000000  0.34775800  1
  O  O45  1  0.84820000  0.15180000  0.94951700  1
  O  O46  1  0.50241650  0.00483300  0.14978900  1
  O  O47  1  0.00483300  0.50241650  0.85021100  1
  O  O48  1  0.81739950  0.18260050  0.75000000  1
  O  O49  1  0.00000000  0.00000000  0.65224200  1
  O  O50  1  0.66666667  0.33333333  0.44377900  1
  O  O51  1  0.33333333  0.66666667  0.94377900  1
  O  O52  1  0.50241650  0.49758350  0.14978900  1
  O  O53  1  0.49758350  0.50241650  0.64978900  1
  O  O54  1  0.81739950  0.63479900  0.75000000  1
  O  O55  1  0.99516700  0.49758350  0.14978900  1
  O  O56  1  0.69640000  0.84820000  0.44951700  1
  O  O57  1  0.49758350  0.99516700  0.85021100  1
  O  O58  1  0.15180000  0.84820000  0.44951700  1
  O  O59  1  0.15180000  0.30360000  0.44951700  1
  O  O60  1  0.15180000  0.84820000  0.05048300  1
  O  O61  1  0.00000000  0.00000000  0.15224200  1
  O  O62  1  0.99516700  0.49758350  0.35021100  1
  O  O63  1  0.84820000  0.69640000  0.94951700  1
