# generated using pymatgen
data_La12C6I17
_symmetry_space_group_name_H-M   'P 1'
_cell_length_a   20.49601000
_cell_length_b   12.83034400
_cell_length_c   19.69389275
_cell_angle_alpha   90.00000000
_cell_angle_beta   90.82058640
_cell_angle_gamma   90.00000000
_symmetry_Int_Tables_number   1
_chemical_formula_structural   La12C6I17
_chemical_formula_sum   'La48 C24 I68'
_cell_volume   5178.38875670
_cell_formula_units_Z   4
loop_
 _symmetry_equiv_pos_site_id
 _symmetry_equiv_pos_as_xyz
  1  'x, y, z'
loop_
 _atom_site_type_symbol
 _atom_site_label
 _atom_site_symmetry_multiplicity
 _atom_site_fract_x
 _atom_site_fract_y
 _atom_site_fract_z
 _atom_site_occupancy
  La  La0  1  0.42668000  0.23501600  0.28930900  1
  La  La1  1  0.64170000  0.00078900  0.04968700  1
  La  La2  1  0.64170000  0.99921100  0.54968700  1
  La  La3  1  0.54165700  0.99375600  0.37068100  1
  La  La4  1  0.66337900  0.76193100  0.88197800  1
  La  La5  1  0.45834300  0.99375600  0.12931900  1
  La  La6  1  0.50452000  0.79085600  0.97910600  1
  La  La7  1  0.45834300  0.00624400  0.62931900  1
  La  La8  1  0.57332000  0.76498400  0.71069100  1
  La  La9  1  0.35830000  0.99921100  0.95031300  1
  La  La10  1  0.95194800  0.97278100  0.15218400  1
  La  La11  1  0.49548000  0.20914400  0.02089400  1
  La  La12  1  0.33662100  0.76193100  0.61802200  1
  La  La13  1  0.95194800  0.02721900  0.65218400  1
  La  La14  1  0.33662100  0.23806900  0.11802200  1
  La  La15  1  0.54165700  0.00624400  0.87068100  1
  La  La16  1  0.35830000  0.00078900  0.45031300  1
  La  La17  1  0.66337900  0.23806900  0.38197800  1
  La  La18  1  0.04805200  0.02721900  0.84781600  1
  La  La19  1  0.50452000  0.20914400  0.47910600  1
  La  La20  1  0.42668000  0.76498400  0.78930900  1
  La  La21  1  0.04805200  0.97278100  0.34781600  1
  La  La22  1  0.49548000  0.79085600  0.52089400  1
  La  La23  1  0.57332000  0.23501600  0.21069100  1
  La  La24  1  0.92668000  0.73501600  0.28930900  1
  La  La25  1  0.14170000  0.50078900  0.04968700  1
  La  La26  1  0.14170000  0.49921100  0.54968700  1
  La  La27  1  0.04165700  0.49375600  0.37068100  1
  La  La28  1  0.16337900  0.26193100  0.88197800  1
  La  La29  1  0.95834300  0.49375600  0.12931900  1
  La  La30  1  0.00452000  0.29085600  0.97910600  1
  La  La31  1  0.95834300  0.50624400  0.62931900  1
  La  La32  1  0.07332000  0.26498400  0.71069100  1
  La  La33  1  0.85830000  0.49921100  0.95031300  1
  La  La34  1  0.45194800  0.47278100  0.15218400  1
  La  La35  1  0.99548000  0.70914400  0.02089400  1
  La  La36  1  0.83662100  0.26193100  0.61802200  1
  La  La37  1  0.45194800  0.52721900  0.65218400  1
  La  La38  1  0.83662100  0.73806900  0.11802200  1
  La  La39  1  0.04165700  0.50624400  0.87068100  1
  La  La40  1  0.85830000  0.50078900  0.45031300  1
  La  La41  1  0.16337900  0.73806900  0.38197800  1
  La  La42  1  0.54805200  0.52721900  0.84781600  1
  La  La43  1  0.00452000  0.70914400  0.47910600  1
  La  La44  1  0.92668000  0.26498400  0.78930900  1
  La  La45  1  0.54805200  0.47278100  0.34781600  1
  La  La46  1  0.99548000  0.29085600  0.52089400  1
  La  La47  1  0.07332000  0.73501600  0.21069100  1
  C  C48  1  0.54441300  0.17869000  0.35039300  1
  C  C49  1  0.45558700  0.82131000  0.64960700  1
  C  C50  1  0.45558700  0.17869000  0.14960700  1
  C  C51  1  0.46750600  0.00020400  0.98860700  1
  C  C52  1  0.54508050  0.71164950  0.84742100  1
  C  C53  1  0.53249400  0.99979600  0.01139300  1
  C  C54  1  0.45491950  0.28835050  0.15257900  1
  C  C55  1  0.53249400  0.00020400  0.51139300  1
  C  C56  1  0.45491950  0.71164950  0.65257900  1
  C  C57  1  0.54508050  0.28835050  0.34742100  1
  C  C58  1  0.54441300  0.82131000  0.85039300  1
  C  C59  1  0.46750600  0.99979600  0.48860700  1
  C  C60  1  0.04441300  0.67869000  0.35039300  1
  C  C61  1  0.95558700  0.32131000  0.64960700  1
  C  C62  1  0.95558700  0.67869000  0.14960700  1
  C  C63  1  0.96750600  0.50020400  0.98860700  1
  C  C64  1  0.04508050  0.21164950  0.84742100  1
  C  C65  1  0.03249400  0.49979600  0.01139300  1
  C  C66  1  0.95491950  0.78835050  0.15257900  1
  C  C67  1  0.03249400  0.50020400  0.51139300  1
  C  C68  1  0.95491950  0.21164950  0.65257900  1
  C  C69  1  0.04508050  0.78835050  0.34742100  1
  C  C70  1  0.04441300  0.32131000  0.85039300  1
  C  C71  1  0.96750600  0.49979600  0.48860700  1
  I  I72  1  0.70027150  0.99098950  0.39896700  1
  I  I73  1  0.64626900  0.74939900  0.55869300  1
  I  I74  1  0.26650300  0.23469000  0.25600100  1
  I  I75  1  0.10375250  0.98959350  0.19656400  1
  I  I76  1  0.29972850  0.99098950  0.10103300  1
  I  I77  1  0.45613600  0.26247700  0.63825200  1
  I  I78  1  0.89624750  0.98959350  0.30343600  1
  I  I79  1  0.80309000  0.98589100  0.10072500  1
  I  I80  1  0.35373100  0.74939900  0.94130700  1
  I  I81  1  0.65313200  0.25333200  0.54904300  1
  I  I82  1  0.65313200  0.74666800  0.04904300  1
  I  I83  1  0.19691000  0.01410900  0.89927500  1
  I  I84  1  0.39836850  0.97593050  0.29195400  1
  I  I85  1  0.10375250  0.01040650  0.69656400  1
  I  I86  1  0.73349700  0.23469000  0.24399900  1
  I  I87  1  0.80309000  0.01410900  0.60072500  1
  I  I88  1  0.54386400  0.73752300  0.36174800  1
  I  I89  1  0.89624750  0.01040650  0.80343600  1
  I  I90  1  0.39836850  0.02406950  0.79195400  1
  I  I91  1  0.00000000  0.00000000  0.00000000  1
  I  I92  1  0.35373100  0.25060100  0.44130700  1
  I  I93  1  0.60163150  0.97593050  0.20804600  1
  I  I94  1  0.70027150  0.00901050  0.89896700  1
  I  I95  1  0.60163150  0.02406950  0.70804600  1
  I  I96  1  0.19691000  0.98589100  0.39927500  1
  I  I97  1  0.73349700  0.76531000  0.74399900  1
  I  I98  1  0.29972850  0.00901050  0.60103300  1
  I  I99  1  0.54386400  0.26247700  0.86174800  1
  I  I100  1  0.34686800  0.25333200  0.95095700  1
  I  I101  1  0.34686800  0.74666800  0.45095700  1
  I  I102  1  0.64626900  0.25060100  0.05869300  1
  I  I103  1  0.26650300  0.76531000  0.75600100  1
  I  I104  1  0.45613600  0.73752300  0.13825200  1
  I  I105  1  0.00000000  0.00000000  0.50000000  1
  I  I106  1  0.20027150  0.49098950  0.39896700  1
  I  I107  1  0.14626900  0.24939900  0.55869300  1
  I  I108  1  0.76650300  0.73469000  0.25600100  1
  I  I109  1  0.60375250  0.48959350  0.19656400  1
  I  I110  1  0.79972850  0.49098950  0.10103300  1
  I  I111  1  0.95613600  0.76247700  0.63825200  1
  I  I112  1  0.39624750  0.48959350  0.30343600  1
  I  I113  1  0.30309000  0.48589100  0.10072500  1
  I  I114  1  0.85373100  0.24939900  0.94130700  1
  I  I115  1  0.15313200  0.75333200  0.54904300  1
  I  I116  1  0.15313200  0.24666800  0.04904300  1
  I  I117  1  0.69691000  0.51410900  0.89927500  1
  I  I118  1  0.89836850  0.47593050  0.29195400  1
  I  I119  1  0.60375250  0.51040650  0.69656400  1
  I  I120  1  0.23349700  0.73469000  0.24399900  1
  I  I121  1  0.30309000  0.51410900  0.60072500  1
  I  I122  1  0.04386400  0.23752300  0.36174800  1
  I  I123  1  0.39624750  0.51040650  0.80343600  1
  I  I124  1  0.89836850  0.52406950  0.79195400  1
  I  I125  1  0.50000000  0.50000000  0.00000000  1
  I  I126  1  0.85373100  0.75060100  0.44130700  1
  I  I127  1  0.10163150  0.47593050  0.20804600  1
  I  I128  1  0.20027150  0.50901050  0.89896700  1
  I  I129  1  0.10163150  0.52406950  0.70804600  1
  I  I130  1  0.69691000  0.48589100  0.39927500  1
  I  I131  1  0.23349700  0.26531000  0.74399900  1
  I  I132  1  0.79972850  0.50901050  0.60103300  1
  I  I133  1  0.04386400  0.76247700  0.86174800  1
  I  I134  1  0.84686800  0.75333200  0.95095700  1
  I  I135  1  0.84686800  0.24666800  0.45095700  1
  I  I136  1  0.14626900  0.75060100  0.05869300  1
  I  I137  1  0.76650300  0.26531000  0.75600100  1
  I  I138  1  0.95613600  0.23752300  0.13825200  1
  I  I139  1  0.50000000  0.50000000  0.50000000  1
