# generated using pymatgen
data_Sr3Ru2O7
_symmetry_space_group_name_H-M   'P 1'
_cell_length_a   3.99388000
_cell_length_b   3.99388000
_cell_length_c   20.47284400
_cell_angle_alpha   90.00000000
_cell_angle_beta   90.00000000
_cell_angle_gamma   90.00000000
_symmetry_Int_Tables_number   1
_chemical_formula_structural   Sr3Ru2O7
_chemical_formula_sum   'Sr6 Ru4 O14'
_cell_volume   326.56392036
_cell_formula_units_Z   2
loop_
 _symmetry_equiv_pos_site_id
 _symmetry_equiv_pos_as_xyz
  1  'x, y, z'
loop_
 _atom_site_type_symbol
 _atom_site_label
 _atom_site_symmetry_multiplicity
 _atom_site_fract_x
 _atom_site_fract_y
 _atom_site_fract_z
 _atom_site_occupancy
  Sr  Sr0  1  0.50000000  0.50000000  0.00000000  1
  Sr  Sr1  1  0.50000000  0.50000000  0.18372500  1
  Sr  Sr2  1  0.00000000  0.00000000  0.31627500  1
  Sr  Sr3  1  0.00000000  0.00000000  0.50000000  1
  Sr  Sr4  1  0.00000000  0.00000000  0.68372500  1
  Sr  Sr5  1  0.50000000  0.50000000  0.81627500  1
  Ru  Ru6  1  0.00000000  0.00000000  0.09808200  1
  Ru  Ru7  1  0.50000000  0.50000000  0.40191800  1
  Ru  Ru8  1  0.50000000  0.50000000  0.59808200  1
  Ru  Ru9  1  0.00000000  0.00000000  0.90191800  1
  O  O10  1  0.00000000  0.50000000  0.40331700  1
  O  O11  1  0.50000000  0.00000000  0.40331700  1
  O  O12  1  0.50000000  0.00000000  0.09668300  1
  O  O13  1  0.00000000  0.50000000  0.09668300  1
  O  O14  1  0.50000000  0.50000000  0.30364000  1
  O  O15  1  0.00000000  0.00000000  0.00000000  1
  O  O16  1  0.00000000  0.00000000  0.19636000  1
  O  O17  1  0.50000000  0.00000000  0.90331700  1
  O  O18  1  0.00000000  0.50000000  0.90331700  1
  O  O19  1  0.00000000  0.50000000  0.59668300  1
  O  O20  1  0.50000000  0.00000000  0.59668300  1
  O  O21  1  0.00000000  0.00000000  0.80364000  1
  O  O22  1  0.50000000  0.50000000  0.50000000  1
  O  O23  1  0.50000000  0.50000000  0.69636000  1
