# generated using pymatgen
data_Ti2CuS4
_symmetry_space_group_name_H-M   'P 1'
_cell_length_a   7.03400434
_cell_length_b   7.03400434
_cell_length_c   34.78665686
_cell_angle_alpha   90.00000000
_cell_angle_beta   90.00000000
_cell_angle_gamma   120.00000000
_symmetry_Int_Tables_number   1
_chemical_formula_structural   Ti2CuS4
_chemical_formula_sum   'Ti24 Cu12 S48'
_cell_volume   1490.55699986
_cell_formula_units_Z   12
loop_
 _symmetry_equiv_pos_site_id
 _symmetry_equiv_pos_as_xyz
  1  'x, y, z'
loop_
 _atom_site_type_symbol
 _atom_site_label
 _atom_site_symmetry_multiplicity
 _atom_site_fract_x
 _atom_site_fract_y
 _atom_site_fract_z
 _atom_site_occupancy
  Ti  Ti0  1  0.83365833  0.16634167  0.24892567  1
  Ti  Ti1  1  0.83300833  0.66601667  0.08440767  1
  Ti  Ti2  1  0.33333333  0.66666667  0.16666667  1
  Ti  Ti3  1  0.83365833  0.66731667  0.24892567  1
  Ti  Ti4  1  0.33398333  0.16699167  0.08440767  1
  Ti  Ti5  1  0.83300833  0.16699167  0.08440767  1
  Ti  Ti6  1  0.33268333  0.16634167  0.24892567  1
  Ti  Ti7  1  0.00000000  0.00000000  0.00000000  1
  Ti  Ti8  1  0.50032500  0.49967500  0.58225900  1
  Ti  Ti9  1  0.49967500  0.99935000  0.41774100  1
  Ti  Ti10  1  1.00000000  1.00000000  0.50000000  1
  Ti  Ti11  1  0.50032500  0.00065000  0.58225900  1
  Ti  Ti12  1  0.00065000  0.50032500  0.41774100  1
  Ti  Ti13  1  0.49967500  0.50032500  0.41774100  1
  Ti  Ti14  1  0.99935000  0.49967500  0.58225900  1
  Ti  Ti15  1  0.66666667  0.33333333  0.33333333  1
  Ti  Ti16  1  0.16699167  0.83300833  0.91559233  1
  Ti  Ti17  1  0.16634167  0.33268333  0.75107433  1
  Ti  Ti18  1  0.66666667  0.33333333  0.83333333  1
  Ti  Ti19  1  0.16699167  0.33398333  0.91559233  1
  Ti  Ti20  1  0.66731667  0.83365833  0.75107433  1
  Ti  Ti21  1  0.16634167  0.83365833  0.75107433  1
  Ti  Ti22  1  0.66601667  0.83300833  0.91559233  1
  Ti  Ti23  1  0.33333333  0.66666667  0.66666667  1
  Cu  Cu24  1  0.66666667  0.33333333  0.14546233  1
  Cu  Cu25  1  0.33333333  0.66666667  0.31306167  1
  Cu  Cu26  1  0.33333333  0.66666667  0.02027167  1
  Cu  Cu27  1  0.00000000  0.00000000  0.18787100  1
  Cu  Cu28  1  0.33333333  0.66666667  0.47879567  1
  Cu  Cu29  1  0.00000000  0.00000000  0.64639500  1
  Cu  Cu30  1  0.00000000  0.00000000  0.35360500  1
  Cu  Cu31  1  0.66666667  0.33333333  0.52120433  1
  Cu  Cu32  1  0.00000000  0.00000000  0.81212900  1
  Cu  Cu33  1  0.66666667  0.33333333  0.97972833  1
  Cu  Cu34  1  0.66666667  0.33333333  0.68693833  1
  Cu  Cu35  1  0.33333333  0.66666667  0.85453767  1
  S  S36  1  0.49239300  0.98478600  0.12277900  1
  S  S37  1  0.50748300  0.01496600  0.29100100  1
  S  S38  1  0.15918367  0.31836733  0.04233233  1
  S  S39  1  0.00000000  0.00000000  0.12350800  1
  S  S40  1  0.65145267  0.82572633  0.21055433  1
  S  S41  1  0.17427367  0.82572633  0.21055433  1
  S  S42  1  0.15918367  0.84081633  0.04233233  1
  S  S43  1  0.68163267  0.84081633  0.04233233  1
  S  S44  1  0.49239300  0.50760700  0.12277900  1
  S  S45  1  0.98503400  0.49251700  0.29100100  1
  S  S46  1  0.50748300  0.49251700  0.29100100  1
  S  S47  1  0.17427367  0.34854733  0.21055433  1
  S  S48  1  0.66666667  0.33333333  0.04478533  1
  S  S49  1  0.00000000  0.00000000  0.28854800  1
  S  S50  1  0.01521400  0.50760700  0.12277900  1
  S  S51  1  0.66666667  0.33333333  0.20982533  1
  S  S52  1  0.15905967  0.31811933  0.45611233  1
  S  S53  1  0.17414967  0.34829933  0.62433433  1
  S  S54  1  0.82585033  0.65170067  0.37566567  1
  S  S55  1  0.66666667  0.33333333  0.45684133  1
  S  S56  1  0.31811933  0.15905967  0.54388767  1
  S  S57  1  0.84094033  0.15905967  0.54388767  1
  S  S58  1  0.82585033  0.17414967  0.37566567  1
  S  S59  1  0.34829933  0.17414967  0.37566567  1
  S  S60  1  0.15905967  0.84094033  0.45611233  1
  S  S61  1  0.65170067  0.82585033  0.62433433  1
  S  S62  1  0.17414967  0.82585033  0.62433433  1
  S  S63  1  0.84094033  0.68188067  0.54388767  1
  S  S64  1  0.33333333  0.66666667  0.37811867  1
  S  S65  1  0.66666667  0.33333333  0.62188133  1
  S  S66  1  0.68188067  0.84094033  0.45611233  1
  S  S67  1  0.33333333  0.66666667  0.54315867  1
  S  S68  1  0.82572633  0.65145267  0.78944567  1
  S  S69  1  0.84081633  0.68163267  0.95766767  1
  S  S70  1  0.49251700  0.98503400  0.70899900  1
  S  S71  1  0.33333333  0.66666667  0.79017467  1
  S  S72  1  0.98478600  0.49239300  0.87722100  1
  S  S73  1  0.50760700  0.49239300  0.87722100  1
  S  S74  1  0.49251700  0.50748300  0.70899900  1
  S  S75  1  0.01496600  0.50748300  0.70899900  1
  S  S76  1  0.82572633  0.17427367  0.78944567  1
  S  S77  1  0.31836733  0.15918367  0.95766767  1
  S  S78  1  0.84081633  0.15918367  0.95766767  1
  S  S79  1  0.50760700  0.01521400  0.87722100  1
  S  S80  1  0.00000000  0.00000000  0.71145200  1
  S  S81  1  0.33333333  0.66666667  0.95521467  1
  S  S82  1  0.34854733  0.17427367  0.78944567  1
  S  S83  1  0.00000000  0.00000000  0.87649200  1
