# generated using pymatgen
data_Ho2MoO6
_symmetry_space_group_name_H-M   'P 1'
_cell_length_a   16.42861600
_cell_length_b   11.09613400
_cell_length_c   5.37794871
_cell_angle_alpha   90.00000000
_cell_angle_beta   108.17129031
_cell_angle_gamma   90.00000000
_symmetry_Int_Tables_number   1
_chemical_formula_structural   Ho2MoO6
_chemical_formula_sum   'Ho16 Mo8 O48'
_cell_volume   931.47594467
_cell_formula_units_Z   8
loop_
 _symmetry_equiv_pos_site_id
 _symmetry_equiv_pos_as_xyz
  1  'x, y, z'
loop_
 _atom_site_type_symbol
 _atom_site_label
 _atom_site_symmetry_multiplicity
 _atom_site_fract_x
 _atom_site_fract_y
 _atom_site_fract_z
 _atom_site_occupancy
  Ho  Ho0  1  0.33214000  0.88442100  0.62215600  1
  Ho  Ho1  1  0.66786000  0.88442100  0.87784400  1
  Ho  Ho2  1  0.66786000  0.11557900  0.37784400  1
  Ho  Ho3  1  0.33214000  0.11557900  0.12215600  1
  Ho  Ho4  1  0.50000000  0.63661700  0.75000000  1
  Ho  Ho5  1  0.50000000  0.36338300  0.25000000  1
  Ho  Ho6  1  0.50000000  0.10609200  0.75000000  1
  Ho  Ho7  1  0.50000000  0.89390800  0.25000000  1
  Ho  Ho8  1  0.83214000  0.38442100  0.62215600  1
  Ho  Ho9  1  0.16786000  0.38442100  0.87784400  1
  Ho  Ho10  1  0.16786000  0.61557900  0.37784400  1
  Ho  Ho11  1  0.83214000  0.61557900  0.12215600  1
  Ho  Ho12  1  0.00000000  0.13661700  0.75000000  1
  Ho  Ho13  1  0.00000000  0.86338300  0.25000000  1
  Ho  Ho14  1  0.00000000  0.60609200  0.75000000  1
  Ho  Ho15  1  0.00000000  0.39390800  0.25000000  1
  Mo  Mo16  1  0.15392500  0.85755100  0.93861100  1
  Mo  Mo17  1  0.84607500  0.85755100  0.56138900  1
  Mo  Mo18  1  0.84607500  0.14244900  0.06138900  1
  Mo  Mo19  1  0.15392500  0.14244900  0.43861100  1
  Mo  Mo20  1  0.65392500  0.35755100  0.93861100  1
  Mo  Mo21  1  0.34607500  0.35755100  0.56138900  1
  Mo  Mo22  1  0.34607500  0.64244900  0.06138900  1
  Mo  Mo23  1  0.65392500  0.64244900  0.43861100  1
  O  O24  1  0.59125250  0.98176550  0.07782400  1
  O  O25  1  0.40874750  0.98176550  0.42217600  1
  O  O26  1  0.40874750  0.01823450  0.92217600  1
  O  O27  1  0.59125250  0.01823450  0.57782400  1
  O  O28  1  0.57245650  0.23454650  0.08186000  1
  O  O29  1  0.42754350  0.23454650  0.41814000  1
  O  O30  1  0.42754350  0.76545350  0.91814000  1
  O  O31  1  0.57245650  0.76545350  0.58186000  1
  O  O32  1  0.60476950  0.27911450  0.62528000  1
  O  O33  1  0.39523050  0.27911450  0.87472000  1
  O  O34  1  0.39523050  0.72088550  0.37472000  1
  O  O35  1  0.60476950  0.72088550  0.12528000  1
  O  O36  1  0.23666700  0.05245300  0.36288500  1
  O  O37  1  0.76333300  0.05245300  0.13711500  1
  O  O38  1  0.76333300  0.94754700  0.63711500  1
  O  O39  1  0.23666700  0.94754700  0.86288500  1
  O  O40  1  0.07904150  0.03105950  0.48539500  1
  O  O41  1  0.92095850  0.03105950  0.01460500  1
  O  O42  1  0.92095850  0.96894050  0.51460500  1
  O  O43  1  0.07904150  0.96894050  0.98539500  1
  O  O44  1  0.22889800  0.20398300  0.74551700  1
  O  O45  1  0.77110200  0.20398300  0.75448300  1
  O  O46  1  0.77110200  0.79601700  0.25448300  1
  O  O47  1  0.22889800  0.79601700  0.24551700  1
  O  O48  1  0.09125250  0.48176550  0.07782400  1
  O  O49  1  0.90874750  0.48176550  0.42217600  1
  O  O50  1  0.90874750  0.51823450  0.92217600  1
  O  O51  1  0.09125250  0.51823450  0.57782400  1
  O  O52  1  0.07245650  0.73454650  0.08186000  1
  O  O53  1  0.92754350  0.73454650  0.41814000  1
  O  O54  1  0.92754350  0.26545350  0.91814000  1
  O  O55  1  0.07245650  0.26545350  0.58186000  1
  O  O56  1  0.10476950  0.77911450  0.62528000  1
  O  O57  1  0.89523050  0.77911450  0.87472000  1
  O  O58  1  0.89523050  0.22088550  0.37472000  1
  O  O59  1  0.10476950  0.22088550  0.12528000  1
  O  O60  1  0.73666700  0.55245300  0.36288500  1
  O  O61  1  0.26333300  0.55245300  0.13711500  1
  O  O62  1  0.26333300  0.44754700  0.63711500  1
  O  O63  1  0.73666700  0.44754700  0.86288500  1
  O  O64  1  0.57904150  0.53105950  0.48539500  1
  O  O65  1  0.42095850  0.53105950  0.01460500  1
  O  O66  1  0.42095850  0.46894050  0.51460500  1
  O  O67  1  0.57904150  0.46894050  0.98539500  1
  O  O68  1  0.72889800  0.70398300  0.74551700  1
  O  O69  1  0.27110200  0.70398300  0.75448300  1
  O  O70  1  0.27110200  0.29601700  0.25448300  1
  O  O71  1  0.72889800  0.29601700  0.24551700  1
