# generated using pymatgen
data_NaVBP2H3O10
_symmetry_space_group_name_H-M   'P 1'
_cell_length_a   10.52037000
_cell_length_b   8.39744000
_cell_length_c   9.28061230
_cell_angle_alpha   90.00000000
_cell_angle_beta   115.95352986
_cell_angle_gamma   90.00000000
_symmetry_Int_Tables_number   1
_chemical_formula_structural   NaVBP2H3O10
_chemical_formula_sum   'Na4 V4 B4 P8 H12 O40'
_cell_volume   737.20175710
_cell_formula_units_Z   4
loop_
 _symmetry_equiv_pos_site_id
 _symmetry_equiv_pos_as_xyz
  1  'x, y, z'
loop_
 _atom_site_type_symbol
 _atom_site_label
 _atom_site_symmetry_multiplicity
 _atom_site_fract_x
 _atom_site_fract_y
 _atom_site_fract_z
 _atom_site_occupancy
  Na  Na0  1  0.00000000  0.63019900  0.25000000  1
  Na  Na1  1  0.00000000  0.36980100  0.75000000  1
  Na  Na2  1  0.50000000  0.13019900  0.25000000  1
  Na  Na3  1  0.50000000  0.86980100  0.75000000  1
  V  V4  1  0.25000000  0.75000000  0.00000000  1
  V  V5  1  0.75000000  0.75000000  0.50000000  1
  V  V6  1  0.75000000  0.25000000  0.00000000  1
  V  V7  1  0.25000000  0.25000000  0.50000000  1
  B  B8  1  0.00000000  0.97238300  0.75000000  1
  B  B9  1  0.00000000  0.02761700  0.25000000  1
  B  B10  1  0.50000000  0.47238300  0.75000000  1
  B  B11  1  0.50000000  0.52761700  0.25000000  1
  P  P12  1  0.22316750  0.56854050  0.67681800  1
  P  P13  1  0.77683250  0.56854050  0.82318200  1
  P  P14  1  0.77683250  0.43145950  0.32318200  1
  P  P15  1  0.22316750  0.43145950  0.17681800  1
  P  P16  1  0.72316750  0.06854050  0.67681800  1
  P  P17  1  0.27683250  0.06854050  0.82318200  1
  P  P18  1  0.27683250  0.93145950  0.32318200  1
  P  P19  1  0.72316750  0.93145950  0.17681800  1
  H  H20  1  0.98608400  0.82657300  0.92407400  1
  H  H21  1  0.01391600  0.82657300  0.57592600  1
  H  H22  1  0.01391600  0.17342700  0.07592600  1
  H  H23  1  0.98608400  0.17342700  0.42407400  1
  H  H24  1  0.25000000  0.75000000  0.50000000  1
  H  H25  1  0.75000000  0.75000000  0.00000000  1
  H  H26  1  0.48608400  0.32657300  0.92407400  1
  H  H27  1  0.51391600  0.32657300  0.57592600  1
  H  H28  1  0.51391600  0.67342700  0.07592600  1
  H  H29  1  0.48608400  0.67342700  0.42407400  1
  H  H30  1  0.75000000  0.25000000  0.50000000  1
  H  H31  1  0.25000000  0.25000000  0.00000000  1
  O  O32  1  0.05917600  0.87419600  0.89830800  1
  O  O33  1  0.94082400  0.87419600  0.60169200  1
  O  O34  1  0.94082400  0.12580400  0.10169200  1
  O  O35  1  0.05917600  0.12580400  0.39830800  1
  O  O36  1  0.17484400  0.60431000  0.80746600  1
  O  O37  1  0.82515600  0.60431000  0.69253400  1
  O  O38  1  0.82515600  0.39569000  0.19253400  1
  O  O39  1  0.17484400  0.39569000  0.30746600  1
  O  O40  1  0.38906550  0.57907550  0.75016600  1
  O  O41  1  0.61093450  0.57907550  0.74983400  1
  O  O42  1  0.61093450  0.42092450  0.24983400  1
  O  O43  1  0.38906550  0.42092450  0.25016600  1
  O  O44  1  0.82918550  0.40066550  0.88812800  1
  O  O45  1  0.17081450  0.40066550  0.61187200  1
  O  O46  1  0.17081450  0.59933450  0.11187200  1
  O  O47  1  0.82918550  0.59933450  0.38812800  1
  O  O48  1  0.16431950  0.69758650  0.54247300  1
  O  O49  1  0.83568050  0.69758650  0.95752700  1
  O  O50  1  0.83568050  0.30241350  0.45752700  1
  O  O51  1  0.16431950  0.30241350  0.04247300  1
  O  O52  1  0.55917600  0.37419600  0.89830800  1
  O  O53  1  0.44082400  0.37419600  0.60169200  1
  O  O54  1  0.44082400  0.62580400  0.10169200  1
  O  O55  1  0.55917600  0.62580400  0.39830800  1
  O  O56  1  0.67484400  0.10431000  0.80746600  1
  O  O57  1  0.32515600  0.10431000  0.69253400  1
  O  O58  1  0.32515600  0.89569000  0.19253400  1
  O  O59  1  0.67484400  0.89569000  0.30746600  1
  O  O60  1  0.88906550  0.07907550  0.75016600  1
  O  O61  1  0.11093450  0.07907550  0.74983400  1
  O  O62  1  0.11093450  0.92092450  0.24983400  1
  O  O63  1  0.88906550  0.92092450  0.25016600  1
  O  O64  1  0.32918550  0.90066550  0.88812800  1
  O  O65  1  0.67081450  0.90066550  0.61187200  1
  O  O66  1  0.67081450  0.09933450  0.11187200  1
  O  O67  1  0.32918550  0.09933450  0.38812800  1
  O  O68  1  0.66431950  0.19758650  0.54247300  1
  O  O69  1  0.33568050  0.19758650  0.95752700  1
  O  O70  1  0.33568050  0.80241350  0.45752700  1
  O  O71  1  0.66431950  0.80241350  0.04247300  1
