# generated using pymatgen
data_Ag9Ge2IO8
_symmetry_space_group_name_H-M   'P 1'
_cell_length_a   17.96828200
_cell_length_b   7.01107000
_cell_length_c   5.77899579
_cell_angle_alpha   90.00000000
_cell_angle_beta   105.77302235
_cell_angle_gamma   90.00000000
_symmetry_Int_Tables_number   1
_chemical_formula_structural   Ag9Ge2IO8
_chemical_formula_sum   'Ag18 Ge4 I2 O16'
_cell_volume   700.60708060
_cell_formula_units_Z   2
loop_
 _symmetry_equiv_pos_site_id
 _symmetry_equiv_pos_as_xyz
  1  'x, y, z'
loop_
 _atom_site_type_symbol
 _atom_site_label
 _atom_site_symmetry_multiplicity
 _atom_site_fract_x
 _atom_site_fract_y
 _atom_site_fract_z
 _atom_site_occupancy
  Ag  Ag0  1  0.17868600  0.00000000  0.71616300  1
  Ag  Ag1  1  0.00000000  0.28099900  0.50000000  1
  Ag  Ag2  1  0.32131400  0.50000000  0.28383700  1
  Ag  Ag3  1  0.32256900  0.27607600  0.70885400  1
  Ag  Ag4  1  0.32256900  0.72392400  0.70885400  1
  Ag  Ag5  1  0.00000000  0.50000000  0.00000000  1
  Ag  Ag6  1  0.17743100  0.77607600  0.29114600  1
  Ag  Ag7  1  0.17743100  0.22392400  0.29114600  1
  Ag  Ag8  1  0.00000000  0.71900100  0.50000000  1
  Ag  Ag9  1  0.67868600  0.50000000  0.71616300  1
  Ag  Ag10  1  0.50000000  0.78099900  0.50000000  1
  Ag  Ag11  1  0.82131400  0.00000000  0.28383700  1
  Ag  Ag12  1  0.82256900  0.77607600  0.70885400  1
  Ag  Ag13  1  0.82256900  0.22392400  0.70885400  1
  Ag  Ag14  1  0.50000000  0.00000000  0.00000000  1
  Ag  Ag15  1  0.67743100  0.27607600  0.29114600  1
  Ag  Ag16  1  0.67743100  0.72392400  0.29114600  1
  Ag  Ag17  1  0.50000000  0.21900100  0.50000000  1
  Ge  Ge18  1  0.15905500  0.50000000  0.78490000  1
  Ge  Ge19  1  0.34094500  0.00000000  0.21510000  1
  Ge  Ge20  1  0.65905500  0.00000000  0.78490000  1
  Ge  Ge21  1  0.84094500  0.50000000  0.21510000  1
  I  I22  1  0.00000000  0.00000000  0.00000000  1
  I  I23  1  0.50000000  0.50000000  0.00000000  1
  O  O24  1  0.23783800  0.00000000  0.12573800  1
  O  O25  1  0.26216200  0.50000000  0.87426200  1
  O  O26  1  0.12476850  0.29516850  0.60201700  1
  O  O27  1  0.37523150  0.79516850  0.39798300  1
  O  O28  1  0.37396200  0.00000000  0.95147900  1
  O  O29  1  0.12476850  0.70483150  0.60201700  1
  O  O30  1  0.12603800  0.50000000  0.04852100  1
  O  O31  1  0.37523150  0.20483150  0.39798300  1
  O  O32  1  0.73783800  0.50000000  0.12573800  1
  O  O33  1  0.76216200  0.00000000  0.87426200  1
  O  O34  1  0.62476850  0.79516850  0.60201700  1
  O  O35  1  0.87523150  0.29516850  0.39798300  1
  O  O36  1  0.87396200  0.50000000  0.95147900  1
  O  O37  1  0.62476850  0.20483150  0.60201700  1
  O  O38  1  0.62603800  0.00000000  0.04852100  1
  O  O39  1  0.87523150  0.70483150  0.39798300  1
