# generated using pymatgen
data_Sm2B5
_symmetry_space_group_name_H-M   'P 1'
_cell_length_a   7.21330300
_cell_length_b   7.22120700
_cell_length_c   7.24964856
_cell_angle_alpha   90.00000000
_cell_angle_beta   102.06412346
_cell_angle_gamma   90.00000000
_symmetry_Int_Tables_number   1
_chemical_formula_structural   Sm2B5
_chemical_formula_sum   'Sm8 B20'
_cell_volume   369.28504542
_cell_formula_units_Z   4
loop_
 _symmetry_equiv_pos_site_id
 _symmetry_equiv_pos_as_xyz
  1  'x, y, z'
loop_
 _atom_site_type_symbol
 _atom_site_label
 _atom_site_symmetry_multiplicity
 _atom_site_fract_x
 _atom_site_fract_y
 _atom_site_fract_z
 _atom_site_occupancy
  Sm  Sm0  1  0.24121100  0.81559700  0.75711200  1
  Sm  Sm1  1  0.75878900  0.18440300  0.24288800  1
  Sm  Sm2  1  0.24121100  0.68440300  0.25711200  1
  Sm  Sm3  1  0.23370700  0.19143200  0.13123600  1
  Sm  Sm4  1  0.23370700  0.30856800  0.63123600  1
  Sm  Sm5  1  0.75878900  0.31559700  0.74288800  1
  Sm  Sm6  1  0.76629300  0.69143200  0.36876400  1
  Sm  Sm7  1  0.76629300  0.80856800  0.86876400  1
  B  B8  1  0.49746100  0.32737500  0.96041600  1
  B  B9  1  0.50287800  0.46162800  0.17316200  1
  B  B10  1  0.50253900  0.82737500  0.53958400  1
  B  B11  1  0.49746100  0.17262500  0.46041600  1
  B  B12  1  0.49909100  0.58998300  0.58996600  1
  B  B13  1  0.31629700  0.50172800  0.96232200  1
  B  B14  1  0.92155400  0.49244400  0.06892900  1
  B  B15  1  0.68370300  0.49827200  0.03767800  1
  B  B16  1  0.49712200  0.53837200  0.82683800  1
  B  B17  1  0.07844600  0.99244400  0.43107100  1
  B  B18  1  0.07844600  0.50755600  0.93107100  1
  B  B19  1  0.92155400  0.00755600  0.56892900  1
  B  B20  1  0.49909100  0.91001700  0.08996600  1
  B  B21  1  0.50090900  0.41001700  0.41003400  1
  B  B22  1  0.49712200  0.96162800  0.32683800  1
  B  B23  1  0.50287800  0.03837200  0.67316200  1
  B  B24  1  0.68370300  0.00172800  0.53767800  1
  B  B25  1  0.31629700  0.99827200  0.46232200  1
  B  B26  1  0.50090900  0.08998300  0.91003400  1
  B  B27  1  0.50253900  0.67262500  0.03958400  1
