# generated using pymatgen
data_V3SiNi2
_symmetry_space_group_name_H-M   'P 1'
_cell_length_a   10.61398600
_cell_length_b   10.61398600
_cell_length_c   10.61398600
_cell_angle_alpha   90.00000000
_cell_angle_beta   90.00000000
_cell_angle_gamma   90.00000000
_symmetry_Int_Tables_number   1
_chemical_formula_structural   V3SiNi2
_chemical_formula_sum   'V48 Si16 Ni32'
_cell_volume   1195.73662396
_cell_formula_units_Z   16
loop_
 _symmetry_equiv_pos_site_id
 _symmetry_equiv_pos_as_xyz
  1  'x, y, z'
loop_
 _atom_site_type_symbol
 _atom_site_label
 _atom_site_symmetry_multiplicity
 _atom_site_fract_x
 _atom_site_fract_y
 _atom_site_fract_z
 _atom_site_occupancy
  V  V0  1  0.00000000  0.00000000  0.30246800  1
  V  V1  1  0.50000000  0.00000000  0.19753200  1
  V  V2  1  0.50000000  0.30246800  0.50000000  1
  V  V3  1  0.50000000  0.69753200  0.50000000  1
  V  V4  1  0.80246800  0.00000000  0.50000000  1
  V  V5  1  0.19753200  0.00000000  0.50000000  1
  V  V6  1  0.25000000  0.75000000  0.44753200  1
  V  V7  1  0.25000000  0.75000000  0.05246800  1
  V  V8  1  0.25000000  0.94753200  0.25000000  1
  V  V9  1  0.25000000  0.55246800  0.25000000  1
  V  V10  1  0.44753200  0.75000000  0.25000000  1
  V  V11  1  0.05246800  0.75000000  0.25000000  1
  V  V12  1  0.00000000  0.50000000  0.80246800  1
  V  V13  1  0.50000000  0.50000000  0.69753200  1
  V  V14  1  0.50000000  0.80246800  0.00000000  1
  V  V15  1  0.50000000  0.19753200  0.00000000  1
  V  V16  1  0.80246800  0.50000000  0.00000000  1
  V  V17  1  0.19753200  0.50000000  0.00000000  1
  V  V18  1  0.25000000  0.25000000  0.94753200  1
  V  V19  1  0.25000000  0.25000000  0.55246800  1
  V  V20  1  0.25000000  0.44753200  0.75000000  1
  V  V21  1  0.25000000  0.05246800  0.75000000  1
  V  V22  1  0.44753200  0.25000000  0.75000000  1
  V  V23  1  0.05246800  0.25000000  0.75000000  1
  V  V24  1  0.50000000  0.00000000  0.80246800  1
  V  V25  1  0.00000000  0.00000000  0.69753200  1
  V  V26  1  0.00000000  0.30246800  0.00000000  1
  V  V27  1  0.00000000  0.69753200  0.00000000  1
  V  V28  1  0.30246800  0.00000000  0.00000000  1
  V  V29  1  0.69753200  0.00000000  0.00000000  1
  V  V30  1  0.75000000  0.75000000  0.94753200  1
  V  V31  1  0.75000000  0.75000000  0.55246800  1
  V  V32  1  0.75000000  0.94753200  0.75000000  1
  V  V33  1  0.75000000  0.55246800  0.75000000  1
  V  V34  1  0.94753200  0.75000000  0.75000000  1
  V  V35  1  0.55246800  0.75000000  0.75000000  1
  V  V36  1  0.50000000  0.50000000  0.30246800  1
  V  V37  1  0.00000000  0.50000000  0.19753200  1
  V  V38  1  0.00000000  0.80246800  0.50000000  1
  V  V39  1  0.00000000  0.19753200  0.50000000  1
  V  V40  1  0.30246800  0.50000000  0.50000000  1
  V  V41  1  0.69753200  0.50000000  0.50000000  1
  V  V42  1  0.75000000  0.25000000  0.44753200  1
  V  V43  1  0.75000000  0.25000000  0.05246800  1
  V  V44  1  0.75000000  0.44753200  0.25000000  1
  V  V45  1  0.75000000  0.05246800  0.25000000  1
  V  V46  1  0.94753200  0.25000000  0.25000000  1
  V  V47  1  0.55246800  0.25000000  0.25000000  1
  Si  Si48  1  0.62500000  0.87500000  0.37500000  1
  Si  Si49  1  0.37500000  0.12500000  0.37500000  1
  Si  Si50  1  0.87500000  0.87500000  0.12500000  1
  Si  Si51  1  0.12500000  0.12500000  0.12500000  1
  Si  Si52  1  0.62500000  0.37500000  0.87500000  1
  Si  Si53  1  0.37500000  0.62500000  0.87500000  1
  Si  Si54  1  0.87500000  0.37500000  0.62500000  1
  Si  Si55  1  0.12500000  0.62500000  0.62500000  1
  Si  Si56  1  0.12500000  0.87500000  0.87500000  1
  Si  Si57  1  0.87500000  0.12500000  0.87500000  1
  Si  Si58  1  0.37500000  0.87500000  0.62500000  1
  Si  Si59  1  0.62500000  0.12500000  0.62500000  1
  Si  Si60  1  0.12500000  0.37500000  0.37500000  1
  Si  Si61  1  0.87500000  0.62500000  0.37500000  1
  Si  Si62  1  0.37500000  0.37500000  0.12500000  1
  Si  Si63  1  0.62500000  0.62500000  0.12500000  1
  Ni  Ni64  1  0.91346600  0.08653400  0.08653400  1
  Ni  Ni65  1  0.08653400  0.91346600  0.08653400  1
  Ni  Ni66  1  0.58653400  0.08653400  0.41346600  1
  Ni  Ni67  1  0.41346600  0.91346600  0.41346600  1
  Ni  Ni68  1  0.33653400  0.16346600  0.16346600  1
  Ni  Ni69  1  0.16346600  0.33653400  0.16346600  1
  Ni  Ni70  1  0.16346600  0.16346600  0.33653400  1
  Ni  Ni71  1  0.33653400  0.33653400  0.33653400  1
  Ni  Ni72  1  0.91346600  0.58653400  0.58653400  1
  Ni  Ni73  1  0.08653400  0.41346600  0.58653400  1
  Ni  Ni74  1  0.58653400  0.58653400  0.91346600  1
  Ni  Ni75  1  0.41346600  0.41346600  0.91346600  1
  Ni  Ni76  1  0.33653400  0.66346600  0.66346600  1
  Ni  Ni77  1  0.16346600  0.83653400  0.66346600  1
  Ni  Ni78  1  0.16346600  0.66346600  0.83653400  1
  Ni  Ni79  1  0.33653400  0.83653400  0.83653400  1
  Ni  Ni80  1  0.41346600  0.08653400  0.58653400  1
  Ni  Ni81  1  0.58653400  0.91346600  0.58653400  1
  Ni  Ni82  1  0.08653400  0.08653400  0.91346600  1
  Ni  Ni83  1  0.91346600  0.91346600  0.91346600  1
  Ni  Ni84  1  0.83653400  0.16346600  0.66346600  1
  Ni  Ni85  1  0.66346600  0.33653400  0.66346600  1
  Ni  Ni86  1  0.66346600  0.16346600  0.83653400  1
  Ni  Ni87  1  0.83653400  0.33653400  0.83653400  1
  Ni  Ni88  1  0.41346600  0.58653400  0.08653400  1
  Ni  Ni89  1  0.58653400  0.41346600  0.08653400  1
  Ni  Ni90  1  0.08653400  0.58653400  0.41346600  1
  Ni  Ni91  1  0.91346600  0.41346600  0.41346600  1
  Ni  Ni92  1  0.83653400  0.66346600  0.16346600  1
  Ni  Ni93  1  0.66346600  0.83653400  0.16346600  1
  Ni  Ni94  1  0.66346600  0.66346600  0.33653400  1
  Ni  Ni95  1  0.83653400  0.83653400  0.33653400  1
