# generated using pymatgen
data_La4Ti5(Si2O11)2
_symmetry_space_group_name_H-M   'P 1'
_cell_length_a   13.76253400
_cell_length_b   5.70809000
_cell_length_c   11.21155477
_cell_angle_alpha   90.00000000
_cell_angle_beta   100.60420800
_cell_angle_gamma   90.00000000
_symmetry_Int_Tables_number   1
_chemical_formula_structural   La4Ti5(Si2O11)2
_chemical_formula_sum   'La8 Ti10 Si8 O44'
_cell_volume   865.71320709
_cell_formula_units_Z   2
loop_
 _symmetry_equiv_pos_site_id
 _symmetry_equiv_pos_as_xyz
  1  'x, y, z'
loop_
 _atom_site_type_symbol
 _atom_site_label
 _atom_site_symmetry_multiplicity
 _atom_site_fract_x
 _atom_site_fract_y
 _atom_site_fract_z
 _atom_site_occupancy
  La  La0  1  0.56915500  0.00000000  0.74779400  1
  La  La1  1  0.85809500  0.00000000  0.74221300  1
  La  La2  1  0.64190500  0.50000000  0.25778700  1
  La  La3  1  0.93084500  0.50000000  0.25220600  1
  La  La4  1  0.06915500  0.50000000  0.74779400  1
  La  La5  1  0.35809500  0.50000000  0.74221300  1
  La  La6  1  0.14190500  0.00000000  0.25778700  1
  La  La7  1  0.43084500  0.00000000  0.25220600  1
  Ti  Ti8  1  0.00000000  0.00000000  0.50000000  1
  Ti  Ti9  1  0.00000000  0.50000000  0.00000000  1
  Ti  Ti10  1  0.00000000  0.00000000  0.00000000  1
  Ti  Ti11  1  0.75000000  0.25000000  0.00000000  1
  Ti  Ti12  1  0.75000000  0.75000000  0.00000000  1
  Ti  Ti13  1  0.50000000  0.50000000  0.50000000  1
  Ti  Ti14  1  0.50000000  0.00000000  0.00000000  1
  Ti  Ti15  1  0.50000000  0.50000000  0.00000000  1
  Ti  Ti16  1  0.25000000  0.75000000  0.00000000  1
  Ti  Ti17  1  0.25000000  0.25000000  0.00000000  1
  Si  Si18  1  0.86142300  0.50000000  0.54353000  1
  Si  Si19  1  0.79573000  0.00000000  0.27047500  1
  Si  Si20  1  0.63857700  0.00000000  0.45647000  1
  Si  Si21  1  0.70427000  0.50000000  0.72952500  1
  Si  Si22  1  0.36142300  0.00000000  0.54353000  1
  Si  Si23  1  0.29573000  0.50000000  0.27047500  1
  Si  Si24  1  0.13857700  0.50000000  0.45647000  1
  Si  Si25  1  0.20427000  0.00000000  0.72952500  1
  O  O26  1  0.68875200  0.00000000  0.59742500  1
  O  O27  1  0.90834000  0.00000000  0.34345600  1
  O  O28  1  0.77580200  0.76383000  0.18615000  1
  O  O29  1  0.71621700  0.00000000  0.36087200  1
  O  O30  1  0.97892650  0.74938750  0.86744300  1
  O  O31  1  0.78378300  0.50000000  0.63912800  1
  O  O32  1  0.92983700  0.73428900  0.58694400  1
  O  O33  1  0.85021500  0.00000000  0.98244400  1
  O  O34  1  0.52107350  0.75061250  0.13255700  1
  O  O35  1  0.64978500  0.50000000  0.01755600  1
  O  O36  1  0.72419800  0.26383000  0.81385000  1
  O  O37  1  0.77580200  0.23617000  0.18615000  1
  O  O38  1  0.64372300  0.00000000  0.97804100  1
  O  O39  1  0.52107350  0.24938750  0.13255700  1
  O  O40  1  0.97892650  0.25061250  0.86744300  1
  O  O41  1  0.92983700  0.26571100  0.58694400  1
  O  O42  1  0.59166000  0.50000000  0.65654400  1
  O  O43  1  0.85627700  0.50000000  0.02195900  1
  O  O44  1  0.81124800  0.50000000  0.40257500  1
  O  O45  1  0.57016300  0.23428900  0.41305600  1
  O  O46  1  0.72419800  0.73617000  0.81385000  1
  O  O47  1  0.57016300  0.76571100  0.41305600  1
  O  O48  1  0.18875200  0.50000000  0.59742500  1
  O  O49  1  0.40834000  0.50000000  0.34345600  1
  O  O50  1  0.27580200  0.26383000  0.18615000  1
  O  O51  1  0.21621700  0.50000000  0.36087200  1
  O  O52  1  0.47892650  0.24938750  0.86744300  1
  O  O53  1  0.28378300  0.00000000  0.63912800  1
  O  O54  1  0.42983700  0.23428900  0.58694400  1
  O  O55  1  0.35021500  0.50000000  0.98244400  1
  O  O56  1  0.02107350  0.25061250  0.13255700  1
  O  O57  1  0.14978500  0.00000000  0.01755600  1
  O  O58  1  0.22419800  0.76383000  0.81385000  1
  O  O59  1  0.27580200  0.73617000  0.18615000  1
  O  O60  1  0.14372300  0.50000000  0.97804100  1
  O  O61  1  0.02107350  0.74938750  0.13255700  1
  O  O62  1  0.47892650  0.75061250  0.86744300  1
  O  O63  1  0.42983700  0.76571100  0.58694400  1
  O  O64  1  0.09166000  0.00000000  0.65654400  1
  O  O65  1  0.35627700  0.00000000  0.02195900  1
  O  O66  1  0.31124800  0.00000000  0.40257500  1
  O  O67  1  0.07016300  0.73428900  0.41305600  1
  O  O68  1  0.22419800  0.23617000  0.81385000  1
  O  O69  1  0.07016300  0.26571100  0.41305600  1
