# generated using pymatgen
data_Yb2Ag7
_symmetry_space_group_name_H-M   'P 1'
_cell_length_a   5.54020800
_cell_length_b   9.53230800
_cell_length_c   14.17867300
_cell_angle_alpha   90.00000000
_cell_angle_beta   90.00000000
_cell_angle_gamma   90.00000000
_symmetry_Int_Tables_number   1
_chemical_formula_structural   Yb2Ag7
_chemical_formula_sum   'Yb8 Ag28'
_cell_volume   748.78946083
_cell_formula_units_Z   4
loop_
 _symmetry_equiv_pos_site_id
 _symmetry_equiv_pos_as_xyz
  1  'x, y, z'
loop_
 _atom_site_type_symbol
 _atom_site_label
 _atom_site_symmetry_multiplicity
 _atom_site_fract_x
 _atom_site_fract_y
 _atom_site_fract_z
 _atom_site_occupancy
  Yb  Yb0  1  0.82093400  0.00000000  0.11551600  1
  Yb  Yb1  1  0.17906600  0.00000000  0.88448400  1
  Yb  Yb2  1  0.82093400  0.00000000  0.38448400  1
  Yb  Yb3  1  0.17906600  0.00000000  0.61551600  1
  Yb  Yb4  1  0.32093400  0.50000000  0.11551600  1
  Yb  Yb5  1  0.67906600  0.50000000  0.88448400  1
  Yb  Yb6  1  0.32093400  0.50000000  0.38448400  1
  Yb  Yb7  1  0.67906600  0.50000000  0.61551600  1
  Ag  Ag8  1  0.32734050  0.83662250  0.07579500  1
  Ag  Ag9  1  0.67265950  0.83662250  0.92420500  1
  Ag  Ag10  1  0.42157650  0.74876150  0.75000000  1
  Ag  Ag11  1  0.32734050  0.16337750  0.07579500  1
  Ag  Ag12  1  0.67265950  0.16337750  0.57579500  1
  Ag  Ag13  1  0.32734050  0.16337750  0.42420500  1
  Ag  Ag14  1  0.67265950  0.16337750  0.92420500  1
  Ag  Ag15  1  0.42157650  0.25123850  0.75000000  1
  Ag  Ag16  1  0.67043900  0.00000000  0.75000000  1
  Ag  Ag17  1  0.57842350  0.74876150  0.25000000  1
  Ag  Ag18  1  0.57842350  0.25123850  0.25000000  1
  Ag  Ag19  1  0.67265950  0.83662250  0.57579500  1
  Ag  Ag20  1  0.32734050  0.83662250  0.42420500  1
  Ag  Ag21  1  0.32956100  0.00000000  0.25000000  1
  Ag  Ag22  1  0.82734050  0.33662250  0.07579500  1
  Ag  Ag23  1  0.17265950  0.33662250  0.92420500  1
  Ag  Ag24  1  0.92157650  0.24876150  0.75000000  1
  Ag  Ag25  1  0.82734050  0.66337750  0.07579500  1
  Ag  Ag26  1  0.17265950  0.66337750  0.57579500  1
  Ag  Ag27  1  0.82734050  0.66337750  0.42420500  1
  Ag  Ag28  1  0.17265950  0.66337750  0.92420500  1
  Ag  Ag29  1  0.92157650  0.75123850  0.75000000  1
  Ag  Ag30  1  0.17043900  0.50000000  0.75000000  1
  Ag  Ag31  1  0.07842350  0.24876150  0.25000000  1
  Ag  Ag32  1  0.07842350  0.75123850  0.25000000  1
  Ag  Ag33  1  0.17265950  0.33662250  0.57579500  1
  Ag  Ag34  1  0.82734050  0.33662250  0.42420500  1
  Ag  Ag35  1  0.82956100  0.50000000  0.25000000  1
