# generated using pymatgen
data_U4Al18Ni5
_symmetry_space_group_name_H-M   'P 1'
_cell_length_a   15.62054200
_cell_length_b   4.03715000
_cell_length_c   16.06312378
_cell_angle_alpha   90.00000000
_cell_angle_beta   117.26244905
_cell_angle_gamma   90.00000000
_symmetry_Int_Tables_number   1
_chemical_formula_structural   U4Al18Ni5
_chemical_formula_sum   'U8 Al36 Ni10'
_cell_volume   900.45603447
_cell_formula_units_Z   2
loop_
 _symmetry_equiv_pos_site_id
 _symmetry_equiv_pos_as_xyz
  1  'x, y, z'
loop_
 _atom_site_type_symbol
 _atom_site_label
 _atom_site_symmetry_multiplicity
 _atom_site_fract_x
 _atom_site_fract_y
 _atom_site_fract_z
 _atom_site_occupancy
  U  U0  1  0.26805700  0.50000000  0.33886800  1
  U  U1  1  0.56227800  0.00000000  0.89103700  1
  U  U2  1  0.73200400  0.50000000  0.66446700  1
  U  U3  1  0.44259700  0.00000000  0.11188000  1
  U  U4  1  0.76805700  0.00000000  0.33886800  1
  U  U5  1  0.06227800  0.50000000  0.89103700  1
  U  U6  1  0.23200400  0.00000000  0.66446700  1
  U  U7  1  0.94259700  0.50000000  0.11188000  1
  Al  Al8  1  0.87012000  0.50000000  0.89007300  1
  Al  Al9  1  0.60451100  0.50000000  0.22525400  1
  Al  Al10  1  0.39700400  0.50000000  0.77953700  1
  Al  Al11  1  0.43057500  0.00000000  0.67865300  1
  Al  Al12  1  0.56506300  0.00000000  0.33282100  1
  Al  Al13  1  0.29497300  0.00000000  0.21290100  1
  Al  Al14  1  0.47664900  0.50000000  0.54695300  1
  Al  Al15  1  0.71284600  0.00000000  0.79528000  1
  Al  Al16  1  0.20471900  0.00000000  0.02836300  1
  Al  Al17  1  0.42688000  0.00000000  0.39990000  1
  Al  Al18  1  0.30242100  0.50000000  0.56074200  1
  Al  Al19  1  0.43586200  0.50000000  0.26011000  1
  Al  Al20  1  0.57154100  0.50000000  0.74343500  1
  Al  Al21  1  0.00331700  0.00000000  0.00272000  1
  Al  Al22  1  0.13500100  0.50000000  0.11654200  1
  Al  Al23  1  0.61089900  0.00000000  0.52093200  1
  Al  Al24  1  0.68694800  0.50000000  0.43488200  1
  Al  Al25  1  0.80044200  0.00000000  0.97926700  1
  Al  Al26  1  0.37012000  0.00000000  0.89007300  1
  Al  Al27  1  0.10451100  0.00000000  0.22525400  1
  Al  Al28  1  0.89700400  0.00000000  0.77953700  1
  Al  Al29  1  0.93057500  0.50000000  0.67865300  1
  Al  Al30  1  0.06506300  0.50000000  0.33282100  1
  Al  Al31  1  0.79497300  0.50000000  0.21290100  1
  Al  Al32  1  0.97664900  0.00000000  0.54695300  1
  Al  Al33  1  0.21284600  0.50000000  0.79528000  1
  Al  Al34  1  0.70471900  0.50000000  0.02836300  1
  Al  Al35  1  0.92688000  0.50000000  0.39990000  1
  Al  Al36  1  0.80242100  0.00000000  0.56074200  1
  Al  Al37  1  0.93586200  0.00000000  0.26011000  1
  Al  Al38  1  0.07154100  0.00000000  0.74343500  1
  Al  Al39  1  0.50331700  0.50000000  0.00272000  1
  Al  Al40  1  0.63500100  0.00000000  0.11654200  1
  Al  Al41  1  0.11089900  0.50000000  0.52093200  1
  Al  Al42  1  0.18694800  0.00000000  0.43488200  1
  Al  Al43  1  0.30044200  0.50000000  0.97926700  1
  Ni  Ni44  1  0.35861700  0.00000000  0.51255800  1
  Ni  Ni45  1  0.71917900  0.50000000  0.88637600  1
  Ni  Ni46  1  0.28739100  0.50000000  0.12265400  1
  Ni  Ni47  1  0.52963600  0.50000000  0.42689200  1
  Ni  Ni48  1  0.56603100  0.00000000  0.65010300  1
  Ni  Ni49  1  0.85861700  0.50000000  0.51255800  1
  Ni  Ni50  1  0.21917900  0.00000000  0.88637600  1
  Ni  Ni51  1  0.78739100  0.00000000  0.12265400  1
  Ni  Ni52  1  0.02963600  0.00000000  0.42689200  1
  Ni  Ni53  1  0.06603100  0.50000000  0.65010300  1
