# generated using pymatgen
data_Er2Ni12As7
_symmetry_space_group_name_H-M   'P 1'
_cell_length_a   9.33925964
_cell_length_b   9.33925964
_cell_length_c   3.81687000
_cell_angle_alpha   90.00000000
_cell_angle_beta   90.00000000
_cell_angle_gamma   120.00000000
_symmetry_Int_Tables_number   1
_chemical_formula_structural   Er2Ni12As7
_chemical_formula_sum   'Er2 Ni12 As7'
_cell_volume   288.31211970
_cell_formula_units_Z   1
loop_
 _symmetry_equiv_pos_site_id
 _symmetry_equiv_pos_as_xyz
  1  'x, y, z'
loop_
 _atom_site_type_symbol
 _atom_site_label
 _atom_site_symmetry_multiplicity
 _atom_site_fract_x
 _atom_site_fract_y
 _atom_site_fract_z
 _atom_site_occupancy
  Er  Er0  1  0.66666667  0.33333333  0.50000000  1
  Er  Er1  1  0.33333333  0.66666667  0.00000000  1
  Ni  Ni2  1  0.43799467  0.05594633  0.00000000  1
  Ni  Ni3  1  0.61795167  0.56200533  0.00000000  1
  Ni  Ni4  1  0.94405367  0.38204833  0.00000000  1
  Ni  Ni5  1  0.15312367  0.28038633  0.00000000  1
  Ni  Ni6  1  0.12726267  0.84687633  0.00000000  1
  Ni  Ni7  1  0.71961367  0.87273733  0.00000000  1
  Ni  Ni8  1  0.37925467  0.42668033  0.50000000  1
  Ni  Ni9  1  0.04742567  0.62074533  0.50000000  1
  Ni  Ni10  1  0.57331967  0.95257433  0.50000000  1
  Ni  Ni11  1  0.21178567  0.09563333  0.50000000  1
  Ni  Ni12  1  0.88384767  0.78821433  0.50000000  1
  Ni  Ni13  1  0.90436667  0.11615233  0.50000000  1
  As  As14  1  0.00000000  0.00000000  0.00000000  1
  As  As15  1  0.40520167  0.28631633  0.00000000  1
  As  As16  1  0.88111467  0.59479833  0.00000000  1
  As  As17  1  0.71368367  0.11888533  0.00000000  1
  As  As18  1  0.11136367  0.40776633  0.50000000  1
  As  As19  1  0.29640267  0.88863633  0.50000000  1
  As  As20  1  0.59223367  0.70359733  0.50000000  1
