# generated using pymatgen
data_MnH2SO4
_symmetry_space_group_name_H-M   'P 1'
_cell_length_a   4.91344050
_cell_length_b   12.37846500
_cell_length_c   7.53269248
_cell_angle_alpha   90.00000000
_cell_angle_beta   127.05523859
_cell_angle_gamma   90.00000000
_symmetry_Int_Tables_number   1
_chemical_formula_structural   MnH2SO4
_chemical_formula_sum   'Mn4 H8 S4 O16'
_cell_volume   365.62469212
_cell_formula_units_Z   4
loop_
 _symmetry_equiv_pos_site_id
 _symmetry_equiv_pos_as_xyz
  1  'x, y, z'
loop_
 _atom_site_type_symbol
 _atom_site_label
 _atom_site_symmetry_multiplicity
 _atom_site_fract_x
 _atom_site_fract_y
 _atom_site_fract_z
 _atom_site_occupancy
  Mn  Mn0  1  0.82645200  0.72476600  0.19826150  1
  Mn  Mn1  1  0.17354800  0.27523400  0.80173850  1
  Mn  Mn2  1  0.17354800  0.22476600  0.30173850  1
  Mn  Mn3  1  0.82645200  0.77523400  0.69826150  1
  H  H4  1  0.82939400  0.10427200  0.42444050  1
  H  H5  1  0.17060600  0.60427200  0.07555950  1
  H  H6  1  0.17060600  0.89572800  0.57555950  1
  H  H7  1  0.82939400  0.39572800  0.92444050  1
  H  H8  1  0.77210700  0.02672100  0.23864250  1
  H  H9  1  0.22789300  0.52672100  0.26135750  1
  H  H10  1  0.22789300  0.97327900  0.76135750  1
  H  H11  1  0.77210700  0.47327900  0.73864250  1
  S  S12  1  0.73536100  0.10474800  0.79533050  1
  S  S13  1  0.26463900  0.60474800  0.70466950  1
  S  S14  1  0.26463900  0.89525200  0.20466950  1
  S  S15  1  0.73536100  0.39525200  0.29533050  1
  O  O16  1  0.04071600  0.32346200  0.48374850  1
  O  O17  1  0.95928400  0.82346200  0.01625150  1
  O  O18  1  0.95928400  0.67653800  0.51625150  1
  O  O19  1  0.04071600  0.17653800  0.98374850  1
  O  O20  1  0.66819300  0.16253200  0.58523950  1
  O  O21  1  0.33180700  0.66253200  0.91476050  1
  O  O22  1  0.33180700  0.83746800  0.41476050  1
  O  O23  1  0.66819300  0.33746800  0.08523950  1
  O  O24  1  0.43292800  0.13042000  0.79587950  1
  O  O25  1  0.56707200  0.63042000  0.70412050  1
  O  O26  1  0.56707200  0.86958000  0.20412050  1
  O  O27  1  0.43292800  0.36958000  0.29587950  1
  O  O28  1  0.88211200  0.40586400  0.81844950  1
  O  O29  1  0.11788800  0.90586400  0.68155050  1
  O  O30  1  0.11788800  0.59413600  0.18155050  1
  O  O31  1  0.88211200  0.09413600  0.31844950  1
