# generated using pymatgen
data_Sr2NdGaCu2O7
_symmetry_space_group_name_H-M   'P 1'
_cell_length_a   5.46934800
_cell_length_b   5.58918800
_cell_length_c   23.28687800
_cell_angle_alpha   90.00000000
_cell_angle_beta   90.00000000
_cell_angle_gamma   90.00000000
_symmetry_Int_Tables_number   1
_chemical_formula_structural   Sr2NdGaCu2O7
_chemical_formula_sum   'Sr8 Nd4 Ga4 Cu8 O28'
_cell_volume   711.86156185
_cell_formula_units_Z   4
loop_
 _symmetry_equiv_pos_site_id
 _symmetry_equiv_pos_as_xyz
  1  'x, y, z'
loop_
 _atom_site_type_symbol
 _atom_site_label
 _atom_site_symmetry_multiplicity
 _atom_site_fract_x
 _atom_site_fract_y
 _atom_site_fract_z
 _atom_site_occupancy
  Sr  Sr0  1  0.99958650  0.98091650  0.65261950  1
  Sr  Sr1  1  0.49958650  0.51908350  0.84738050  1
  Sr  Sr2  1  0.49958650  0.51908350  0.65261950  1
  Sr  Sr3  1  0.99958650  0.98091650  0.84738050  1
  Sr  Sr4  1  0.49958650  0.48091650  0.15261950  1
  Sr  Sr5  1  0.99958650  0.01908350  0.34738050  1
  Sr  Sr6  1  0.99958650  0.01908350  0.15261950  1
  Sr  Sr7  1  0.49958650  0.48091650  0.34738050  1
  Nd  Nd8  1  0.50080300  0.50000000  0.00000000  1
  Nd  Nd9  1  0.00080300  0.00000000  0.00000000  1
  Nd  Nd10  1  0.00080300  0.00000000  0.50000000  1
  Nd  Nd11  1  0.50080300  0.50000000  0.50000000  1
  Ga  Ga12  1  0.46746200  0.07082000  0.75000000  1
  Ga  Ga13  1  0.96746200  0.42918000  0.75000000  1
  Ga  Ga14  1  0.96746200  0.57082000  0.25000000  1
  Ga  Ga15  1  0.46746200  0.92918000  0.25000000  1
  Cu  Cu16  1  0.50161800  0.00130700  0.57520500  1
  Cu  Cu17  1  0.00161800  0.49869300  0.92479500  1
  Cu  Cu18  1  0.00161800  0.49869300  0.57520500  1
  Cu  Cu19  1  0.50161800  0.00130700  0.92479500  1
  Cu  Cu20  1  0.00161800  0.50130700  0.07520500  1
  Cu  Cu21  1  0.50161800  0.99869300  0.42479500  1
  Cu  Cu22  1  0.50161800  0.99869300  0.07520500  1
  Cu  Cu23  1  0.00161800  0.50130700  0.42479500  1
  O  O24  1  0.61899900  0.38005200  0.75000000  1
  O  O25  1  0.11899900  0.11994800  0.75000000  1
  O  O26  1  0.75127800  0.25041200  0.56759800  1
  O  O27  1  0.25127800  0.24958800  0.93240200  1
  O  O28  1  0.25127800  0.24958800  0.56759800  1
  O  O29  1  0.75127800  0.25041200  0.93240200  1
  O  O30  1  0.25058000  0.75178000  0.56534100  1
  O  O31  1  0.75058000  0.74822000  0.93465900  1
  O  O32  1  0.75058000  0.74822000  0.56534100  1
  O  O33  1  0.25058000  0.75178000  0.93465900  1
  O  O34  1  0.03371700  0.54682500  0.67745700  1
  O  O35  1  0.53371700  0.95317500  0.82254300  1
  O  O36  1  0.53371700  0.95317500  0.67745700  1
  O  O37  1  0.03371700  0.54682500  0.82254300  1
  O  O38  1  0.11899900  0.88005200  0.25000000  1
  O  O39  1  0.61899900  0.61994800  0.25000000  1
  O  O40  1  0.25127800  0.75041200  0.06759800  1
  O  O41  1  0.75127800  0.74958800  0.43240200  1
  O  O42  1  0.75127800  0.74958800  0.06759800  1
  O  O43  1  0.25127800  0.75041200  0.43240200  1
  O  O44  1  0.75058000  0.25178000  0.06534100  1
  O  O45  1  0.25058000  0.24822000  0.43465900  1
  O  O46  1  0.25058000  0.24822000  0.06534100  1
  O  O47  1  0.75058000  0.25178000  0.43465900  1
  O  O48  1  0.53371700  0.04682500  0.17745700  1
  O  O49  1  0.03371700  0.45317500  0.32254300  1
  O  O50  1  0.03371700  0.45317500  0.17745700  1
  O  O51  1  0.53371700  0.04682500  0.32254300  1
