# generated using pymatgen
data_Pr4V5(Si2O11)2
_symmetry_space_group_name_H-M   'P 1'
_cell_length_a   13.57366000
_cell_length_b   5.71078200
_cell_length_c   11.18415732
_cell_angle_alpha   90.00000000
_cell_angle_beta   100.46163047
_cell_angle_gamma   90.00000000
_symmetry_Int_Tables_number   1
_chemical_formula_structural   Pr4V5(Si2O11)2
_chemical_formula_sum   'Pr8 V10 Si8 O44'
_cell_volume   852.54191669
_cell_formula_units_Z   2
loop_
 _symmetry_equiv_pos_site_id
 _symmetry_equiv_pos_as_xyz
  1  'x, y, z'
loop_
 _atom_site_type_symbol
 _atom_site_label
 _atom_site_symmetry_multiplicity
 _atom_site_fract_x
 _atom_site_fract_y
 _atom_site_fract_z
 _atom_site_occupancy
  Pr  Pr0  1  0.57332800  0.50000000  0.74886000  1
  Pr  Pr1  1  0.92667200  0.00000000  0.25114000  1
  Pr  Pr2  1  0.85625200  0.50000000  0.74364200  1
  Pr  Pr3  1  0.64374800  0.00000000  0.25635800  1
  Pr  Pr4  1  0.07332800  0.00000000  0.74886000  1
  Pr  Pr5  1  0.42667200  0.50000000  0.25114000  1
  Pr  Pr6  1  0.35625200  0.00000000  0.74364200  1
  Pr  Pr7  1  0.14374800  0.50000000  0.25635800  1
  V  V8  1  0.00000000  0.50000000  0.50000000  1
  V  V9  1  0.75000000  0.75000000  0.00000000  1
  V  V10  1  0.00000000  0.50000000  0.00000000  1
  V  V11  1  0.00000000  0.00000000  0.00000000  1
  V  V12  1  0.75000000  0.25000000  0.00000000  1
  V  V13  1  0.50000000  0.00000000  0.50000000  1
  V  V14  1  0.25000000  0.25000000  0.00000000  1
  V  V15  1  0.50000000  0.00000000  0.00000000  1
  V  V16  1  0.50000000  0.50000000  0.00000000  1
  V  V17  1  0.25000000  0.75000000  0.00000000  1
  Si  Si18  1  0.86146500  0.00000000  0.54236600  1
  Si  Si19  1  0.63853500  0.50000000  0.45763400  1
  Si  Si20  1  0.70341300  0.00000000  0.72923900  1
  Si  Si21  1  0.79658700  0.50000000  0.27076100  1
  Si  Si22  1  0.36146500  0.50000000  0.54236600  1
  Si  Si23  1  0.13853500  0.00000000  0.45763400  1
  Si  Si24  1  0.20341300  0.50000000  0.72923900  1
  Si  Si25  1  0.29658700  0.00000000  0.27076100  1
  O  O26  1  0.77859000  0.00000000  0.63178000  1
  O  O27  1  0.72141000  0.50000000  0.36822000  1
  O  O28  1  0.57022200  0.26432900  0.41237800  1
  O  O29  1  0.92977800  0.76432900  0.58762200  1
  O  O30  1  0.92977800  0.23567100  0.58762200  1
  O  O31  1  0.57022200  0.73567100  0.41237800  1
  O  O32  1  0.68712600  0.50000000  0.59958600  1
  O  O33  1  0.81287400  0.00000000  0.40041400  1
  O  O34  1  0.58803500  0.00000000  0.66269300  1
  O  O35  1  0.91196500  0.50000000  0.33730700  1
  O  O36  1  0.77337950  0.26187250  0.18853900  1
  O  O37  1  0.72662050  0.76187250  0.81146100  1
  O  O38  1  0.72662050  0.23812750  0.81146100  1
  O  O39  1  0.65006000  0.00000000  0.01720100  1
  O  O40  1  0.84994000  0.50000000  0.98279900  1
  O  O41  1  0.85727200  0.00000000  0.02377000  1
  O  O42  1  0.64272800  0.50000000  0.97623000  1
  O  O43  1  0.77337950  0.73812750  0.18853900  1
  O  O44  1  0.97733900  0.24112700  0.86940000  1
  O  O45  1  0.97733900  0.75887300  0.86940000  1
  O  O46  1  0.52266100  0.25887300  0.13060000  1
  O  O47  1  0.52266100  0.74112700  0.13060000  1
  O  O48  1  0.27859000  0.50000000  0.63178000  1
  O  O49  1  0.22141000  0.00000000  0.36822000  1
  O  O50  1  0.07022200  0.76432900  0.41237800  1
  O  O51  1  0.42977800  0.26432900  0.58762200  1
  O  O52  1  0.42977800  0.73567100  0.58762200  1
  O  O53  1  0.07022200  0.23567100  0.41237800  1
  O  O54  1  0.18712600  0.00000000  0.59958600  1
  O  O55  1  0.31287400  0.50000000  0.40041400  1
  O  O56  1  0.08803500  0.50000000  0.66269300  1
  O  O57  1  0.41196500  0.00000000  0.33730700  1
  O  O58  1  0.27337950  0.76187250  0.18853900  1
  O  O59  1  0.22662050  0.26187250  0.81146100  1
  O  O60  1  0.22662050  0.73812750  0.81146100  1
  O  O61  1  0.15006000  0.50000000  0.01720100  1
  O  O62  1  0.34994000  0.00000000  0.98279900  1
  O  O63  1  0.35727200  0.50000000  0.02377000  1
  O  O64  1  0.14272800  0.00000000  0.97623000  1
  O  O65  1  0.27337950  0.23812750  0.18853900  1
  O  O66  1  0.47733900  0.74112700  0.86940000  1
  O  O67  1  0.47733900  0.25887300  0.86940000  1
  O  O68  1  0.02266100  0.75887300  0.13060000  1
  O  O69  1  0.02266100  0.24112700  0.13060000  1
