# generated using pymatgen
data_Sm4Al23Ni6
_symmetry_space_group_name_H-M   'P 1'
_cell_length_a   15.94172600
_cell_length_b   4.10807400
_cell_length_c   18.33628783
_cell_angle_alpha   90.00000000
_cell_angle_beta   113.08703631
_cell_angle_gamma   90.00000000
_symmetry_Int_Tables_number   1
_chemical_formula_structural   Sm4Al23Ni6
_chemical_formula_sum   'Sm8 Al46 Ni12'
_cell_volume   1104.66468650
_cell_formula_units_Z   2
loop_
 _symmetry_equiv_pos_site_id
 _symmetry_equiv_pos_as_xyz
  1  'x, y, z'
loop_
 _atom_site_type_symbol
 _atom_site_label
 _atom_site_symmetry_multiplicity
 _atom_site_fract_x
 _atom_site_fract_y
 _atom_site_fract_z
 _atom_site_occupancy
  Sm  Sm0  1  0.76478700  0.50000000  0.21834200  1
  Sm  Sm1  1  0.07096400  0.50000000  0.40681400  1
  Sm  Sm2  1  0.23521300  0.50000000  0.78165800  1
  Sm  Sm3  1  0.92903600  0.50000000  0.59318600  1
  Sm  Sm4  1  0.26478700  0.00000000  0.21834200  1
  Sm  Sm5  1  0.57096400  0.00000000  0.40681400  1
  Sm  Sm6  1  0.73521300  0.00000000  0.78165800  1
  Sm  Sm7  1  0.42903600  0.00000000  0.59318600  1
  Al  Al8  1  0.96781400  0.50000000  0.21781600  1
  Al  Al9  1  0.08162800  0.00000000  0.68649100  1
  Al  Al10  1  0.60902300  0.00000000  0.16153700  1
  Al  Al11  1  0.75533200  0.50000000  0.04587300  1
  Al  Al12  1  0.12338600  0.50000000  0.59520600  1
  Al  Al13  1  0.58994500  0.50000000  0.04969800  1
  Al  Al14  1  0.03218600  0.50000000  0.78218400  1
  Al  Al15  1  0.20225000  0.00000000  0.52083400  1
  Al  Al16  1  0.90976200  0.00000000  0.72030500  1
  Al  Al17  1  0.39097700  0.00000000  0.83846300  1
  Al  Al18  1  0.41005500  0.50000000  0.95030200  1
  Al  Al19  1  0.24466800  0.50000000  0.95412700  1
  Al  Al20  1  0.87661400  0.50000000  0.40479400  1
  Al  Al21  1  0.27585300  0.00000000  0.67571400  1
  Al  Al22  1  0.85575000  0.00000000  0.14231700  1
  Al  Al23  1  0.14425000  0.00000000  0.85768300  1
  Al  Al24  1  0.93254100  0.50000000  0.05985500  1
  Al  Al25  1  0.79775000  0.00000000  0.47916600  1
  Al  Al26  1  0.06745900  0.50000000  0.94014500  1
  Al  Al27  1  0.72414700  0.00000000  0.32428600  1
  Al  Al28  1  0.91837200  0.00000000  0.31350900  1
  Al  Al29  1  0.09023800  0.00000000  0.27969500  1
  Al  Al30  1  0.00000000  0.00000000  0.50000000  1
  Al  Al31  1  0.46781400  0.00000000  0.21781600  1
  Al  Al32  1  0.58162800  0.50000000  0.68649100  1
  Al  Al33  1  0.10902300  0.50000000  0.16153700  1
  Al  Al34  1  0.25533200  0.00000000  0.04587300  1
  Al  Al35  1  0.62338600  0.00000000  0.59520600  1
  Al  Al36  1  0.08994500  0.00000000  0.04969800  1
  Al  Al37  1  0.53218600  0.00000000  0.78218400  1
  Al  Al38  1  0.70225000  0.50000000  0.52083400  1
  Al  Al39  1  0.40976200  0.50000000  0.72030500  1
  Al  Al40  1  0.89097700  0.50000000  0.83846300  1
  Al  Al41  1  0.91005500  0.00000000  0.95030200  1
  Al  Al42  1  0.74466800  0.00000000  0.95412700  1
  Al  Al43  1  0.37661400  0.00000000  0.40479400  1
  Al  Al44  1  0.77585300  0.50000000  0.67571400  1
  Al  Al45  1  0.35575000  0.50000000  0.14231700  1
  Al  Al46  1  0.64425000  0.50000000  0.85768300  1
  Al  Al47  1  0.43254100  0.00000000  0.05985500  1
  Al  Al48  1  0.29775000  0.50000000  0.47916600  1
  Al  Al49  1  0.56745900  0.00000000  0.94014500  1
  Al  Al50  1  0.22414700  0.50000000  0.32428600  1
  Al  Al51  1  0.41837200  0.50000000  0.31350900  1
  Al  Al52  1  0.59023800  0.50000000  0.27969500  1
  Al  Al53  1  0.50000000  0.50000000  0.50000000  1
  Ni  Ni54  1  0.99232400  0.00000000  0.86440700  1
  Ni  Ni55  1  0.00767600  0.00000000  0.13559300  1
  Ni  Ni56  1  0.31044800  0.00000000  0.93279600  1
  Ni  Ni57  1  0.68955200  0.00000000  0.06720400  1
  Ni  Ni58  1  0.27305000  0.50000000  0.60168200  1
  Ni  Ni59  1  0.72695000  0.50000000  0.39831800  1
  Ni  Ni60  1  0.49232400  0.50000000  0.86440700  1
  Ni  Ni61  1  0.50767600  0.50000000  0.13559300  1
  Ni  Ni62  1  0.81044800  0.50000000  0.93279600  1
  Ni  Ni63  1  0.18955200  0.50000000  0.06720400  1
  Ni  Ni64  1  0.77305000  0.00000000  0.60168200  1
  Ni  Ni65  1  0.22695000  0.00000000  0.39831800  1
