# generated using pymatgen
data_LiNi(PO3)4
_symmetry_space_group_name_H-M   'P 1'
_cell_length_a   12.06691800
_cell_length_b   8.43856800
_cell_length_c   9.89229975
_cell_angle_alpha   90.00000000
_cell_angle_beta   118.22840935
_cell_angle_gamma   90.00000000
_symmetry_Int_Tables_number   1
_chemical_formula_structural   LiNi(PO3)4
_chemical_formula_sum   'Li4 Ni4 P16 O48'
_cell_volume   887.50809321
_cell_formula_units_Z   4
loop_
 _symmetry_equiv_pos_site_id
 _symmetry_equiv_pos_as_xyz
  1  'x, y, z'
loop_
 _atom_site_type_symbol
 _atom_site_label
 _atom_site_symmetry_multiplicity
 _atom_site_fract_x
 _atom_site_fract_y
 _atom_site_fract_z
 _atom_site_occupancy
  Li  Li0  1  0.00000000  0.94412300  0.25000000  1
  Li  Li1  1  0.50000000  0.55587700  0.75000000  1
  Li  Li2  1  0.50000000  0.44412300  0.25000000  1
  Li  Li3  1  0.00000000  0.05587700  0.75000000  1
  Ni  Ni4  1  0.75000000  0.75000000  0.00000000  1
  Ni  Ni5  1  0.25000000  0.75000000  0.50000000  1
  Ni  Ni6  1  0.25000000  0.25000000  0.00000000  1
  Ni  Ni7  1  0.75000000  0.25000000  0.50000000  1
  P  P8  1  0.19327700  0.50367000  0.19668200  1
  P  P9  1  0.50669600  0.76744700  0.47543600  1
  P  P10  1  0.69327700  0.99633000  0.69668200  1
  P  P11  1  0.99330400  0.26744700  0.02456400  1
  P  P12  1  0.30672300  0.99633000  0.80331800  1
  P  P13  1  0.50669600  0.23255300  0.97543600  1
  P  P14  1  0.99330400  0.73255300  0.52456400  1
  P  P15  1  0.80672300  0.50367000  0.30331800  1
  P  P16  1  0.69327700  0.00367000  0.19668200  1
  P  P17  1  0.00669600  0.26744700  0.47543600  1
  P  P18  1  0.19327700  0.49633000  0.69668200  1
  P  P19  1  0.49330400  0.76744700  0.02456400  1
  P  P20  1  0.80672300  0.49633000  0.80331800  1
  P  P21  1  0.00669600  0.73255300  0.97543600  1
  P  P22  1  0.49330400  0.23255300  0.52456400  1
  P  P23  1  0.30672300  0.00367000  0.30331800  1
  O  O24  1  0.52930200  0.62345800  0.40432200  1
  O  O25  1  0.42591900  0.89172200  0.34066400  1
  O  O26  1  0.21010250  0.08809050  0.82720000  1
  O  O27  1  0.42591900  0.10827800  0.84066400  1
  O  O28  1  0.76603600  0.57371700  0.14915000  1
  O  O29  1  0.97069800  0.87654200  0.59567800  1
  O  O30  1  0.26603600  0.92628300  0.64915000  1
  O  O31  1  0.23396400  0.57371700  0.35085000  1
  O  O32  1  0.07408100  0.60827800  0.65933600  1
  O  O33  1  0.86231300  0.63842800  0.43501700  1
  O  O34  1  0.28989750  0.41190950  0.17280000  1
  O  O35  1  0.73396400  0.92628300  0.85085000  1
  O  O36  1  0.94665350  0.75380250  0.07842700  1
  O  O37  1  0.36231300  0.86157200  0.93501700  1
  O  O38  1  0.02930200  0.87654200  0.90432200  1
  O  O39  1  0.05334650  0.75380250  0.42157300  1
  O  O40  1  0.55334650  0.74619750  0.92157300  1
  O  O41  1  0.21010250  0.91190950  0.32720000  1
  O  O42  1  0.28989750  0.58809050  0.67280000  1
  O  O43  1  0.44665350  0.74619750  0.57842700  1
  O  O44  1  0.07408100  0.39172200  0.15933600  1
  O  O45  1  0.63768700  0.86157200  0.56498300  1
  O  O46  1  0.47069800  0.62345800  0.09567800  1
  O  O47  1  0.13768700  0.63842800  0.06498300  1
  O  O48  1  0.02930200  0.12345800  0.40432200  1
  O  O49  1  0.92591900  0.39172200  0.34066400  1
  O  O50  1  0.71010250  0.58809050  0.82720000  1
  O  O51  1  0.92591900  0.60827800  0.84066400  1
  O  O52  1  0.26603600  0.07371700  0.14915000  1
  O  O53  1  0.47069800  0.37654200  0.59567800  1
  O  O54  1  0.76603600  0.42628300  0.64915000  1
  O  O55  1  0.73396400  0.07371700  0.35085000  1
  O  O56  1  0.57408100  0.10827800  0.65933600  1
  O  O57  1  0.36231300  0.13842800  0.43501700  1
  O  O58  1  0.78989750  0.91190950  0.17280000  1
  O  O59  1  0.23396400  0.42628300  0.85085000  1
  O  O60  1  0.44665350  0.25380250  0.07842700  1
  O  O61  1  0.86231300  0.36157200  0.93501700  1
  O  O62  1  0.52930200  0.37654200  0.90432200  1
  O  O63  1  0.55334650  0.25380250  0.42157300  1
  O  O64  1  0.05334650  0.24619750  0.92157300  1
  O  O65  1  0.71010250  0.41190950  0.32720000  1
  O  O66  1  0.78989750  0.08809050  0.67280000  1
  O  O67  1  0.94665350  0.24619750  0.57842700  1
  O  O68  1  0.57408100  0.89172200  0.15933600  1
  O  O69  1  0.13768700  0.36157200  0.56498300  1
  O  O70  1  0.97069800  0.12345800  0.09567800  1
  O  O71  1  0.63768700  0.13842800  0.06498300  1
