# generated using pymatgen
data_Nb3Co3C
_symmetry_space_group_name_H-M   'P 1'
_cell_length_a   11.35629800
_cell_length_b   11.35629800
_cell_length_c   11.35629800
_cell_angle_alpha   90.00000000
_cell_angle_beta   90.00000000
_cell_angle_gamma   90.00000000
_symmetry_Int_Tables_number   1
_chemical_formula_structural   Nb3Co3C
_chemical_formula_sum   'Nb48 Co48 C16'
_cell_volume   1464.57069815
_cell_formula_units_Z   16
loop_
 _symmetry_equiv_pos_site_id
 _symmetry_equiv_pos_as_xyz
  1  'x, y, z'
loop_
 _atom_site_type_symbol
 _atom_site_label
 _atom_site_symmetry_multiplicity
 _atom_site_fract_x
 _atom_site_fract_y
 _atom_site_fract_z
 _atom_site_occupancy
  Nb  Nb0  1  0.50000000  0.19934100  0.50000000  1
  Nb  Nb1  1  0.05065900  0.25000000  0.25000000  1
  Nb  Nb2  1  0.44934100  0.25000000  0.25000000  1
  Nb  Nb3  1  0.25000000  0.44934100  0.25000000  1
  Nb  Nb4  1  0.25000000  0.25000000  0.05065900  1
  Nb  Nb5  1  0.25000000  0.25000000  0.44934100  1
  Nb  Nb6  1  0.00000000  0.00000000  0.19934100  1
  Nb  Nb7  1  0.69934100  0.00000000  0.50000000  1
  Nb  Nb8  1  0.30065900  0.00000000  0.50000000  1
  Nb  Nb9  1  0.50000000  0.00000000  0.30065900  1
  Nb  Nb10  1  0.25000000  0.05065900  0.25000000  1
  Nb  Nb11  1  0.50000000  0.80065900  0.50000000  1
  Nb  Nb12  1  0.50000000  0.69934100  0.00000000  1
  Nb  Nb13  1  0.05065900  0.75000000  0.75000000  1
  Nb  Nb14  1  0.44934100  0.75000000  0.75000000  1
  Nb  Nb15  1  0.25000000  0.94934100  0.75000000  1
  Nb  Nb16  1  0.25000000  0.75000000  0.55065900  1
  Nb  Nb17  1  0.25000000  0.75000000  0.94934100  1
  Nb  Nb18  1  0.00000000  0.50000000  0.69934100  1
  Nb  Nb19  1  0.69934100  0.50000000  0.00000000  1
  Nb  Nb20  1  0.30065900  0.50000000  0.00000000  1
  Nb  Nb21  1  0.50000000  0.50000000  0.80065900  1
  Nb  Nb22  1  0.25000000  0.55065900  0.75000000  1
  Nb  Nb23  1  0.50000000  0.30065900  0.00000000  1
  Nb  Nb24  1  0.00000000  0.19934100  0.00000000  1
  Nb  Nb25  1  0.55065900  0.25000000  0.75000000  1
  Nb  Nb26  1  0.94934100  0.25000000  0.75000000  1
  Nb  Nb27  1  0.75000000  0.44934100  0.75000000  1
  Nb  Nb28  1  0.75000000  0.25000000  0.55065900  1
  Nb  Nb29  1  0.75000000  0.25000000  0.94934100  1
  Nb  Nb30  1  0.50000000  0.00000000  0.69934100  1
  Nb  Nb31  1  0.19934100  0.00000000  0.00000000  1
  Nb  Nb32  1  0.80065900  0.00000000  0.00000000  1
  Nb  Nb33  1  0.00000000  0.00000000  0.80065900  1
  Nb  Nb34  1  0.75000000  0.05065900  0.75000000  1
  Nb  Nb35  1  0.00000000  0.80065900  0.00000000  1
  Nb  Nb36  1  0.00000000  0.69934100  0.50000000  1
  Nb  Nb37  1  0.55065900  0.75000000  0.25000000  1
  Nb  Nb38  1  0.94934100  0.75000000  0.25000000  1
  Nb  Nb39  1  0.75000000  0.94934100  0.25000000  1
  Nb  Nb40  1  0.75000000  0.75000000  0.05065900  1
  Nb  Nb41  1  0.75000000  0.75000000  0.44934100  1
  Nb  Nb42  1  0.50000000  0.50000000  0.19934100  1
  Nb  Nb43  1  0.19934100  0.50000000  0.50000000  1
  Nb  Nb44  1  0.80065900  0.50000000  0.50000000  1
  Nb  Nb45  1  0.00000000  0.50000000  0.30065900  1
  Nb  Nb46  1  0.75000000  0.55065900  0.25000000  1
  Nb  Nb47  1  0.00000000  0.30065900  0.50000000  1
  Co  Co48  1  0.12500000  0.62500000  0.12500000  1
  Co  Co49  1  0.12500000  0.87500000  0.37500000  1
  Co  Co50  1  0.37500000  0.62500000  0.37500000  1
  Co  Co51  1  0.37500000  0.87500000  0.12500000  1
  Co  Co52  1  0.32715900  0.82715900  0.32715900  1
  Co  Co53  1  0.42284100  0.07715900  0.07715900  1
  Co  Co54  1  0.07715900  0.42284100  0.07715900  1
  Co  Co55  1  0.07715900  0.07715900  0.42284100  1
  Co  Co56  1  0.17284100  0.82715900  0.17284100  1
  Co  Co57  1  0.17284100  0.67284100  0.32715900  1
  Co  Co58  1  0.32715900  0.67284100  0.17284100  1
  Co  Co59  1  0.42284100  0.42284100  0.42284100  1
  Co  Co60  1  0.12500000  0.12500000  0.62500000  1
  Co  Co61  1  0.12500000  0.37500000  0.87500000  1
  Co  Co62  1  0.37500000  0.12500000  0.87500000  1
  Co  Co63  1  0.37500000  0.37500000  0.62500000  1
  Co  Co64  1  0.32715900  0.32715900  0.82715900  1
  Co  Co65  1  0.42284100  0.57715900  0.57715900  1
  Co  Co66  1  0.07715900  0.92284100  0.57715900  1
  Co  Co67  1  0.07715900  0.57715900  0.92284100  1
  Co  Co68  1  0.17284100  0.32715900  0.67284100  1
  Co  Co69  1  0.17284100  0.17284100  0.82715900  1
  Co  Co70  1  0.32715900  0.17284100  0.67284100  1
  Co  Co71  1  0.42284100  0.92284100  0.92284100  1
  Co  Co72  1  0.62500000  0.62500000  0.62500000  1
  Co  Co73  1  0.62500000  0.87500000  0.87500000  1
  Co  Co74  1  0.87500000  0.62500000  0.87500000  1
  Co  Co75  1  0.87500000  0.87500000  0.62500000  1
  Co  Co76  1  0.82715900  0.82715900  0.82715900  1
  Co  Co77  1  0.92284100  0.07715900  0.57715900  1
  Co  Co78  1  0.57715900  0.42284100  0.57715900  1
  Co  Co79  1  0.57715900  0.07715900  0.92284100  1
  Co  Co80  1  0.67284100  0.82715900  0.67284100  1
  Co  Co81  1  0.67284100  0.67284100  0.82715900  1
  Co  Co82  1  0.82715900  0.67284100  0.67284100  1
  Co  Co83  1  0.92284100  0.42284100  0.92284100  1
  Co  Co84  1  0.62500000  0.12500000  0.12500000  1
  Co  Co85  1  0.62500000  0.37500000  0.37500000  1
  Co  Co86  1  0.87500000  0.12500000  0.37500000  1
  Co  Co87  1  0.87500000  0.37500000  0.12500000  1
  Co  Co88  1  0.82715900  0.32715900  0.32715900  1
  Co  Co89  1  0.92284100  0.57715900  0.07715900  1
  Co  Co90  1  0.57715900  0.92284100  0.07715900  1
  Co  Co91  1  0.57715900  0.57715900  0.42284100  1
  Co  Co92  1  0.67284100  0.32715900  0.17284100  1
  Co  Co93  1  0.67284100  0.17284100  0.32715900  1
  Co  Co94  1  0.82715900  0.17284100  0.17284100  1
  Co  Co95  1  0.92284100  0.92284100  0.42284100  1
  C  C96  1  0.12500000  0.12500000  0.12500000  1
  C  C97  1  0.62500000  0.87500000  0.37500000  1
  C  C98  1  0.37500000  0.12500000  0.37500000  1
  C  C99  1  0.87500000  0.87500000  0.12500000  1
  C  C100  1  0.12500000  0.62500000  0.62500000  1
  C  C101  1  0.62500000  0.37500000  0.87500000  1
  C  C102  1  0.37500000  0.62500000  0.87500000  1
  C  C103  1  0.87500000  0.37500000  0.62500000  1
  C  C104  1  0.62500000  0.12500000  0.62500000  1
  C  C105  1  0.12500000  0.87500000  0.87500000  1
  C  C106  1  0.87500000  0.12500000  0.87500000  1
  C  C107  1  0.37500000  0.87500000  0.62500000  1
  C  C108  1  0.62500000  0.62500000  0.12500000  1
  C  C109  1  0.12500000  0.37500000  0.37500000  1
  C  C110  1  0.87500000  0.62500000  0.37500000  1
  C  C111  1  0.37500000  0.37500000  0.12500000  1
