# generated using pymatgen
data_KMnPO4
_symmetry_space_group_name_H-M   'P 1'
_cell_length_a   5.56653770
_cell_length_b   8.78321256
_cell_length_c   9.05735215
_cell_angle_alpha   88.03092912
_cell_angle_beta   89.14462778
_cell_angle_gamma   87.71850980
_symmetry_Int_Tables_number   1
_chemical_formula_structural   KMnPO4
_chemical_formula_sum   'K4 Mn4 P4 O16'
_cell_volume   442.17973951
_cell_formula_units_Z   4
loop_
 _symmetry_equiv_pos_site_id
 _symmetry_equiv_pos_as_xyz
  1  'x, y, z'
loop_
 _atom_site_type_symbol
 _atom_site_label
 _atom_site_symmetry_multiplicity
 _atom_site_fract_x
 _atom_site_fract_y
 _atom_site_fract_z
 _atom_site_occupancy
  K  K0  1  0.76127600  0.99915700  0.67921200  1
  K  K1  1  0.23872400  0.00084300  0.32078800  1
  K  K2  1  0.78240800  0.49490000  0.82332400  1
  K  K3  1  0.21759200  0.50510000  0.17667600  1
  Mn  Mn4  1  0.72747600  0.82383600  0.10379000  1
  Mn  Mn5  1  0.69032400  0.34196000  0.42107100  1
  Mn  Mn6  1  0.27252400  0.17616400  0.89621000  1
  Mn  Mn7  1  0.30967600  0.65804000  0.57892900  1
  P  P8  1  0.76649200  0.20329200  0.09288400  1
  P  P9  1  0.23350800  0.79670800  0.90711600  1
  P  P10  1  0.78109100  0.70385800  0.44364900  1
  P  P11  1  0.21890900  0.29614200  0.55635100  1
  O  O12  1  0.24377500  0.95686700  0.82966300  1
  O  O13  1  0.75622500  0.04313300  0.17033700  1
  O  O14  1  0.00183000  0.21952900  0.48814500  1
  O  O15  1  0.99817000  0.78047100  0.51185500  1
  O  O16  1  0.34986900  0.67408700  0.80564600  1
  O  O17  1  0.65013100  0.32591300  0.19435400  1
  O  O18  1  0.73522000  0.54821000  0.52711300  1
  O  O19  1  0.26478000  0.45179000  0.47288700  1
  O  O20  1  0.96581800  0.75682100  0.93882400  1
  O  O21  1  0.03418200  0.24317900  0.06117600  1
  O  O22  1  0.63009400  0.20785200  0.94304200  1
  O  O23  1  0.36990600  0.79214800  0.05695800  1
  O  O24  1  0.17144600  0.32303700  0.72313200  1
  O  O25  1  0.82855400  0.67696300  0.27686800  1
  O  O26  1  0.45055500  0.19412800  0.53325500  1
  O  O27  1  0.54944500  0.80587200  0.46674500  1
