# generated using pymatgen
data_U6Co
_symmetry_space_group_name_H-M   'P 1'
_cell_length_a   10.21377600
_cell_length_b   10.21377600
_cell_length_c   5.15966800
_cell_angle_alpha   90.00000000
_cell_angle_beta   90.00000000
_cell_angle_gamma   90.00000000
_symmetry_Int_Tables_number   1
_chemical_formula_structural   U6Co
_chemical_formula_sum   'U24 Co4'
_cell_volume   538.26286147
_cell_formula_units_Z   4
loop_
 _symmetry_equiv_pos_site_id
 _symmetry_equiv_pos_as_xyz
  1  'x, y, z'
loop_
 _atom_site_type_symbol
 _atom_site_label
 _atom_site_symmetry_multiplicity
 _atom_site_fract_x
 _atom_site_fract_y
 _atom_site_fract_z
 _atom_site_occupancy
  U  U0  1  0.39520850  0.71676450  0.00000000  1
  U  U1  1  0.40596350  0.90596350  0.50000000  1
  U  U2  1  0.59403650  0.90596350  0.00000000  1
  U  U3  1  0.60479150  0.28323550  0.00000000  1
  U  U4  1  0.59403650  0.09403650  0.50000000  1
  U  U5  1  0.21676450  0.10479150  0.50000000  1
  U  U6  1  0.78323550  0.89520850  0.50000000  1
  U  U7  1  0.60479150  0.71676450  0.50000000  1
  U  U8  1  0.21676450  0.89520850  0.00000000  1
  U  U9  1  0.39520850  0.28323550  0.50000000  1
  U  U10  1  0.40596350  0.09403650  0.00000000  1
  U  U11  1  0.78323550  0.10479150  0.00000000  1
  U  U12  1  0.89520850  0.21676450  0.50000000  1
  U  U13  1  0.90596350  0.40596350  0.00000000  1
  U  U14  1  0.09403650  0.40596350  0.50000000  1
  U  U15  1  0.10479150  0.78323550  0.50000000  1
  U  U16  1  0.09403650  0.59403650  0.00000000  1
  U  U17  1  0.71676450  0.60479150  0.00000000  1
  U  U18  1  0.28323550  0.39520850  0.00000000  1
  U  U19  1  0.10479150  0.21676450  0.00000000  1
  U  U20  1  0.71676450  0.39520850  0.50000000  1
  U  U21  1  0.89520850  0.78323550  0.00000000  1
  U  U22  1  0.90596350  0.59403650  0.50000000  1
  U  U23  1  0.28323550  0.60479150  0.50000000  1
  Co  Co24  1  0.00000000  0.00000000  0.75000000  1
  Co  Co25  1  0.00000000  0.00000000  0.25000000  1
  Co  Co26  1  0.50000000  0.50000000  0.25000000  1
  Co  Co27  1  0.50000000  0.50000000  0.75000000  1
