# generated using pymatgen
data_Ho4InIr
_symmetry_space_group_name_H-M   'P 1'
_cell_length_a   13.62168600
_cell_length_b   13.62168600
_cell_length_c   13.62168600
_cell_angle_alpha   90.00000000
_cell_angle_beta   90.00000000
_cell_angle_gamma   90.00000000
_symmetry_Int_Tables_number   1
_chemical_formula_structural   Ho4InIr
_chemical_formula_sum   'Ho64 In16 Ir16'
_cell_volume   2527.50832541
_cell_formula_units_Z   16
loop_
 _symmetry_equiv_pos_site_id
 _symmetry_equiv_pos_as_xyz
  1  'x, y, z'
loop_
 _atom_site_type_symbol
 _atom_site_label
 _atom_site_symmetry_multiplicity
 _atom_site_fract_x
 _atom_site_fract_y
 _atom_site_fract_z
 _atom_site_occupancy
  Ho  Ho0  1  0.75000000  0.06011425  0.25000000  1
  Ho  Ho1  1  0.34903325  0.34903325  0.34903325  1
  Ho  Ho2  1  0.00000000  0.00000000  0.19100675  1
  Ho  Ho3  1  0.75000000  0.25000000  0.06011425  1
  Ho  Ho4  1  0.30899325  0.00000000  0.50000000  1
  Ho  Ho5  1  0.93988575  0.25000000  0.25000000  1
  Ho  Ho6  1  0.69100675  0.00000000  0.50000000  1
  Ho  Ho7  1  0.65096675  0.34903325  0.65096675  1
  Ho  Ho8  1  0.00000000  0.00000000  0.80899325  1
  Ho  Ho9  1  0.00000000  0.30899325  0.50000000  1
  Ho  Ho10  1  0.15096675  0.15096675  0.34903325  1
  Ho  Ho11  1  0.56011425  0.25000000  0.25000000  1
  Ho  Ho12  1  0.75000000  0.43988575  0.25000000  1
  Ho  Ho13  1  0.84903325  0.15096675  0.65096675  1
  Ho  Ho14  1  0.50000000  0.19100675  0.50000000  1
  Ho  Ho15  1  0.75000000  0.25000000  0.43988575  1
  Ho  Ho16  1  0.75000000  0.56011425  0.75000000  1
  Ho  Ho17  1  0.34903325  0.84903325  0.84903325  1
  Ho  Ho18  1  0.00000000  0.50000000  0.69100675  1
  Ho  Ho19  1  0.75000000  0.75000000  0.56011425  1
  Ho  Ho20  1  0.30899325  0.50000000  0.00000000  1
  Ho  Ho21  1  0.93988575  0.75000000  0.75000000  1
  Ho  Ho22  1  0.69100675  0.50000000  0.00000000  1
  Ho  Ho23  1  0.65096675  0.84903325  0.15096675  1
  Ho  Ho24  1  0.00000000  0.50000000  0.30899325  1
  Ho  Ho25  1  0.00000000  0.80899325  0.00000000  1
  Ho  Ho26  1  0.15096675  0.65096675  0.84903325  1
  Ho  Ho27  1  0.56011425  0.75000000  0.75000000  1
  Ho  Ho28  1  0.75000000  0.93988575  0.75000000  1
  Ho  Ho29  1  0.84903325  0.65096675  0.15096675  1
  Ho  Ho30  1  0.50000000  0.69100675  0.00000000  1
  Ho  Ho31  1  0.75000000  0.75000000  0.93988575  1
  Ho  Ho32  1  0.25000000  0.06011425  0.75000000  1
  Ho  Ho33  1  0.84903325  0.34903325  0.84903325  1
  Ho  Ho34  1  0.50000000  0.00000000  0.69100675  1
  Ho  Ho35  1  0.25000000  0.25000000  0.56011425  1
  Ho  Ho36  1  0.80899325  0.00000000  0.00000000  1
  Ho  Ho37  1  0.43988575  0.25000000  0.75000000  1
  Ho  Ho38  1  0.19100675  0.00000000  0.00000000  1
  Ho  Ho39  1  0.15096675  0.34903325  0.15096675  1
  Ho  Ho40  1  0.50000000  0.00000000  0.30899325  1
  Ho  Ho41  1  0.50000000  0.30899325  0.00000000  1
  Ho  Ho42  1  0.65096675  0.15096675  0.84903325  1
  Ho  Ho43  1  0.06011425  0.25000000  0.75000000  1
  Ho  Ho44  1  0.25000000  0.43988575  0.75000000  1
  Ho  Ho45  1  0.34903325  0.15096675  0.15096675  1
  Ho  Ho46  1  0.00000000  0.19100675  0.00000000  1
  Ho  Ho47  1  0.25000000  0.25000000  0.93988575  1
  Ho  Ho48  1  0.25000000  0.56011425  0.25000000  1
  Ho  Ho49  1  0.84903325  0.84903325  0.34903325  1
  Ho  Ho50  1  0.50000000  0.50000000  0.19100675  1
  Ho  Ho51  1  0.25000000  0.75000000  0.06011425  1
  Ho  Ho52  1  0.80899325  0.50000000  0.50000000  1
  Ho  Ho53  1  0.43988575  0.75000000  0.25000000  1
  Ho  Ho54  1  0.19100675  0.50000000  0.50000000  1
  Ho  Ho55  1  0.15096675  0.84903325  0.65096675  1
  Ho  Ho56  1  0.50000000  0.50000000  0.80899325  1
  Ho  Ho57  1  0.50000000  0.80899325  0.50000000  1
  Ho  Ho58  1  0.65096675  0.65096675  0.34903325  1
  Ho  Ho59  1  0.06011425  0.75000000  0.25000000  1
  Ho  Ho60  1  0.25000000  0.93988575  0.25000000  1
  Ho  Ho61  1  0.34903325  0.65096675  0.65096675  1
  Ho  Ho62  1  0.00000000  0.69100675  0.50000000  1
  Ho  Ho63  1  0.25000000  0.75000000  0.43988575  1
  In  In64  1  0.91703275  0.08296725  0.41703275  1
  In  In65  1  0.08296725  0.08296725  0.58296725  1
  In  In66  1  0.58296725  0.41703275  0.41703275  1
  In  In67  1  0.41703275  0.41703275  0.58296725  1
  In  In68  1  0.91703275  0.58296725  0.91703275  1
  In  In69  1  0.08296725  0.58296725  0.08296725  1
  In  In70  1  0.58296725  0.91703275  0.91703275  1
  In  In71  1  0.41703275  0.91703275  0.08296725  1
  In  In72  1  0.41703275  0.08296725  0.91703275  1
  In  In73  1  0.58296725  0.08296725  0.08296725  1
  In  In74  1  0.08296725  0.41703275  0.91703275  1
  In  In75  1  0.91703275  0.41703275  0.08296725  1
  In  In76  1  0.41703275  0.58296725  0.41703275  1
  In  In77  1  0.58296725  0.58296725  0.58296725  1
  In  In78  1  0.08296725  0.91703275  0.41703275  1
  In  In79  1  0.91703275  0.91703275  0.58296725  1
  Ir  Ir80  1  0.85870142  0.35870142  0.64129858  1
  Ir  Ir81  1  0.85870142  0.14129858  0.85870142  1
  Ir  Ir82  1  0.64129858  0.35870142  0.85870142  1
  Ir  Ir83  1  0.64129858  0.14129858  0.64129858  1
  Ir  Ir84  1  0.85870142  0.85870142  0.14129858  1
  Ir  Ir85  1  0.85870142  0.64129858  0.35870142  1
  Ir  Ir86  1  0.64129858  0.85870142  0.35870142  1
  Ir  Ir87  1  0.64129858  0.64129858  0.14129858  1
  Ir  Ir88  1  0.35870142  0.35870142  0.14129858  1
  Ir  Ir89  1  0.35870142  0.14129858  0.35870142  1
  Ir  Ir90  1  0.14129858  0.35870142  0.35870142  1
  Ir  Ir91  1  0.14129858  0.14129858  0.14129858  1
  Ir  Ir92  1  0.35870142  0.85870142  0.64129858  1
  Ir  Ir93  1  0.35870142  0.64129858  0.85870142  1
  Ir  Ir94  1  0.14129858  0.85870142  0.85870142  1
  Ir  Ir95  1  0.14129858  0.64129858  0.64129858  1
