# generated using pymatgen
data_Na2FeNiF7
_symmetry_space_group_name_H-M   'P 1'
_cell_length_a   7.29354800
_cell_length_b   7.55249400
_cell_length_c   10.42181800
_cell_angle_alpha   90.00000000
_cell_angle_beta   90.00000000
_cell_angle_gamma   90.00000000
_symmetry_Int_Tables_number   1
_chemical_formula_structural   Na2FeNiF7
_chemical_formula_sum   'Na8 Fe4 Ni4 F28'
_cell_volume   574.08039922
_cell_formula_units_Z   4
loop_
 _symmetry_equiv_pos_site_id
 _symmetry_equiv_pos_as_xyz
  1  'x, y, z'
loop_
 _atom_site_type_symbol
 _atom_site_label
 _atom_site_symmetry_multiplicity
 _atom_site_fract_x
 _atom_site_fract_y
 _atom_site_fract_z
 _atom_site_occupancy
  Na  Na0  1  0.00000000  0.00000000  0.50000000  1
  Na  Na1  1  0.00000000  0.00000000  0.00000000  1
  Na  Na2  1  0.75000000  0.75000000  0.25000000  1
  Na  Na3  1  0.25000000  0.75000000  0.25000000  1
  Na  Na4  1  0.50000000  0.50000000  0.00000000  1
  Na  Na5  1  0.50000000  0.50000000  0.50000000  1
  Na  Na6  1  0.25000000  0.25000000  0.75000000  1
  Na  Na7  1  0.75000000  0.25000000  0.75000000  1
  Fe  Fe8  1  0.50000000  0.00000000  0.00000000  1
  Fe  Fe9  1  0.50000000  0.00000000  0.50000000  1
  Fe  Fe10  1  0.00000000  0.50000000  0.50000000  1
  Fe  Fe11  1  0.00000000  0.50000000  0.00000000  1
  Ni  Ni12  1  0.75000000  0.25000000  0.25000000  1
  Ni  Ni13  1  0.25000000  0.25000000  0.25000000  1
  Ni  Ni14  1  0.25000000  0.75000000  0.75000000  1
  Ni  Ni15  1  0.75000000  0.75000000  0.75000000  1
  F  F16  1  0.69987550  0.93696350  0.88408350  1
  F  F17  1  0.69987550  0.06303650  0.11591650  1
  F  F18  1  0.30012450  0.93696350  0.61591650  1
  F  F19  1  0.30012450  0.06303650  0.38408350  1
  F  F20  1  0.30012450  0.06303650  0.11591650  1
  F  F21  1  0.30012450  0.93696350  0.88408350  1
  F  F22  1  0.69987550  0.06303650  0.38408350  1
  F  F23  1  0.69987550  0.93696350  0.61591650  1
  F  F24  1  0.00000000  0.14710500  0.25000000  1
  F  F25  1  0.00000000  0.85289500  0.75000000  1
  F  F26  1  0.50000000  0.23014850  0.59128650  1
  F  F27  1  0.50000000  0.76985150  0.40871350  1
  F  F28  1  0.00000000  0.73014850  0.40871350  1
  F  F29  1  0.00000000  0.26985150  0.59128650  1
  F  F30  1  0.19987550  0.43696350  0.38408350  1
  F  F31  1  0.19987550  0.56303650  0.61591650  1
  F  F32  1  0.80012450  0.43696350  0.11591650  1
  F  F33  1  0.80012450  0.56303650  0.88408350  1
  F  F34  1  0.80012450  0.56303650  0.61591650  1
  F  F35  1  0.80012450  0.43696350  0.38408350  1
  F  F36  1  0.19987550  0.56303650  0.88408350  1
  F  F37  1  0.19987550  0.43696350  0.11591650  1
  F  F38  1  0.50000000  0.64710500  0.75000000  1
  F  F39  1  0.50000000  0.35289500  0.25000000  1
  F  F40  1  0.00000000  0.73014850  0.09128650  1
  F  F41  1  0.00000000  0.26985150  0.90871350  1
  F  F42  1  0.50000000  0.23014850  0.90871350  1
  F  F43  1  0.50000000  0.76985150  0.09128650  1
