# generated using pymatgen
data_Li2Ni(PO4)2
_symmetry_space_group_name_H-M   'P 1'
_cell_length_a   4.90913631
_cell_length_b   17.60255700
_cell_length_c   6.58876073
_cell_angle_alpha   90.00000000
_cell_angle_beta   93.58072688
_cell_angle_gamma   90.00000000
_symmetry_Int_Tables_number   1
_chemical_formula_structural   Li2Ni(PO4)2
_chemical_formula_sum   'Li8 Ni4 P8 O32'
_cell_volume   568.24539676
_cell_formula_units_Z   4
loop_
 _symmetry_equiv_pos_site_id
 _symmetry_equiv_pos_as_xyz
  1  'x, y, z'
loop_
 _atom_site_type_symbol
 _atom_site_label
 _atom_site_symmetry_multiplicity
 _atom_site_fract_x
 _atom_site_fract_y
 _atom_site_fract_z
 _atom_site_occupancy
  Li  Li0  1  0.01797900  0.44338300  0.02985500  1
  Li  Li1  1  0.47471900  0.88476300  0.72797300  1
  Li  Li2  1  0.52528100  0.38476300  0.27202700  1
  Li  Li3  1  0.03798600  0.11594900  0.72816900  1
  Li  Li4  1  0.43744000  0.69718700  0.05383600  1
  Li  Li5  1  0.98202100  0.94338300  0.97014500  1
  Li  Li6  1  0.96201400  0.61594900  0.27183100  1
  Li  Li7  1  0.56256000  0.19718700  0.94616400  1
  Ni  Ni8  1  0.94828900  0.62770700  0.75951000  1
  Ni  Ni9  1  0.54605600  0.37022400  0.73367700  1
  Ni  Ni10  1  0.05171100  0.12770700  0.24049000  1
  Ni  Ni11  1  0.45394400  0.87022400  0.26632300  1
  P  P12  1  0.07068500  0.28468200  0.96829100  1
  P  P13  1  0.47114600  0.53498400  0.97278700  1
  P  P14  1  0.42738600  0.71546100  0.53410500  1
  P  P15  1  0.52885400  0.03498400  0.02721300  1
  P  P16  1  0.92931500  0.78468200  0.03170900  1
  P  P17  1  0.96752900  0.96559500  0.47216300  1
  P  P18  1  0.03247100  0.46559500  0.52783700  1
  P  P19  1  0.57261400  0.21546100  0.46589500  1
  O  O20  1  0.88814300  0.44400100  0.31991300  1
  O  O21  1  0.75858900  0.29820400  0.93786700  1
  O  O22  1  0.60812000  0.30267000  0.48639700  1
  O  O23  1  0.60882300  0.56704000  0.78679300  1
  O  O24  1  0.18544000  0.33683100  0.13904500  1
  O  O25  1  0.83409800  0.06010400  0.02947300  1
  O  O26  1  0.10544200  0.93196800  0.28765300  1
  O  O27  1  0.86295500  0.69860300  0.99615500  1
  O  O28  1  0.61980400  0.56689600  0.16625400  1
  O  O29  1  0.30289800  0.67723700  0.33876300  1
  O  O30  1  0.78314700  0.80384500  0.22711000  1
  O  O31  1  0.24141100  0.79820400  0.06213300  1
  O  O32  1  0.13704500  0.19860300  0.00384500  1
  O  O33  1  0.39117700  0.06704000  0.21320700  1
  O  O34  1  0.38019600  0.06689600  0.83374600  1
  O  O35  1  0.96615100  0.05376800  0.46565700  1
  O  O36  1  0.69710200  0.17723700  0.66123700  1
  O  O37  1  0.71021900  0.19077900  0.27021900  1
  O  O38  1  0.73494000  0.69442800  0.55454300  1
  O  O39  1  0.39188000  0.80267000  0.51360300  1
  O  O40  1  0.66905300  0.93665900  0.47328400  1
  O  O41  1  0.03384900  0.55376800  0.53434300  1
  O  O42  1  0.11185700  0.94400100  0.68008700  1
  O  O43  1  0.28978100  0.69077900  0.72978100  1
  O  O44  1  0.33094700  0.43665900  0.52671600  1
  O  O45  1  0.47467800  0.44661600  0.97274400  1
  O  O46  1  0.16590200  0.56010400  0.97052700  1
  O  O47  1  0.26506000  0.19442800  0.44545700  1
  O  O48  1  0.52532200  0.94661600  0.02725600  1
  O  O49  1  0.89455800  0.43196800  0.71234700  1
  O  O50  1  0.81456000  0.83683100  0.86095500  1
  O  O51  1  0.21685300  0.30384500  0.77289000  1
