# generated using pymatgen
data_SmSbMo2O9
_symmetry_space_group_name_H-M   'P 1'
_cell_length_a   13.19690600
_cell_length_b   14.57903600
_cell_length_c   10.99193003
_cell_angle_alpha   90.00000000
_cell_angle_beta   123.54144257
_cell_angle_gamma   90.00000000
_symmetry_Int_Tables_number   1
_chemical_formula_structural   SmSbMo2O9
_chemical_formula_sum   'Sm8 Sb8 Mo16 O72'
_cell_volume   1762.67967041
_cell_formula_units_Z   8
loop_
 _symmetry_equiv_pos_site_id
 _symmetry_equiv_pos_as_xyz
  1  'x, y, z'
loop_
 _atom_site_type_symbol
 _atom_site_label
 _atom_site_symmetry_multiplicity
 _atom_site_fract_x
 _atom_site_fract_y
 _atom_site_fract_z
 _atom_site_occupancy
  Sm  Sm0  1  0.50000000  0.82656800  0.75000000  1
  Sm  Sm1  1  0.50000000  0.62494200  0.25000000  1
  Sm  Sm2  1  0.50000000  0.37505800  0.75000000  1
  Sm  Sm3  1  0.50000000  0.17343200  0.25000000  1
  Sm  Sm4  1  0.00000000  0.32656800  0.75000000  1
  Sm  Sm5  1  0.00000000  0.12494200  0.25000000  1
  Sm  Sm6  1  0.00000000  0.87505800  0.75000000  1
  Sm  Sm7  1  0.00000000  0.67343200  0.25000000  1
  Sb  Sb8  1  0.36521500  0.01354400  0.46286000  1
  Sb  Sb9  1  0.63478500  0.98645600  0.53714000  1
  Sb  Sb10  1  0.63478500  0.01354400  0.03714000  1
  Sb  Sb11  1  0.36521500  0.98645600  0.96286000  1
  Sb  Sb12  1  0.86521500  0.51354400  0.46286000  1
  Sb  Sb13  1  0.13478500  0.48645600  0.53714000  1
  Sb  Sb14  1  0.13478500  0.51354400  0.03714000  1
  Sb  Sb15  1  0.86521500  0.48645600  0.96286000  1
  Mo  Mo16  1  0.24686850  0.81234150  0.19453400  1
  Mo  Mo17  1  0.75313150  0.18765850  0.80546600  1
  Mo  Mo18  1  0.15349400  0.89455600  0.52587300  1
  Mo  Mo19  1  0.84650600  0.89455600  0.97412700  1
  Mo  Mo20  1  0.75313150  0.81234150  0.30546600  1
  Mo  Mo21  1  0.84650600  0.10544400  0.47412700  1
  Mo  Mo22  1  0.24686850  0.18765850  0.69453400  1
  Mo  Mo23  1  0.15349400  0.10544400  0.02587300  1
  Mo  Mo24  1  0.74686850  0.31234150  0.19453400  1
  Mo  Mo25  1  0.25313150  0.68765850  0.80546600  1
  Mo  Mo26  1  0.65349400  0.39455600  0.52587300  1
  Mo  Mo27  1  0.34650600  0.39455600  0.97412700  1
  Mo  Mo28  1  0.25313150  0.31234150  0.30546600  1
  Mo  Mo29  1  0.34650600  0.60544400  0.47412700  1
  Mo  Mo30  1  0.74686850  0.68765850  0.69453400  1
  Mo  Mo31  1  0.65349400  0.60544400  0.02587300  1
  O  O32  1  0.41451450  0.28840450  0.06450200  1
  O  O33  1  0.48244000  0.94129100  0.90138200  1
  O  O34  1  0.31216000  0.90789600  0.57701800  1
  O  O35  1  0.51756000  0.94129100  0.59861800  1
  O  O36  1  0.91972250  0.98497950  0.10059300  1
  O  O37  1  0.13621600  0.08823000  0.17539400  1
  O  O38  1  0.32430250  0.76609550  0.75055800  1
  O  O39  1  0.35572800  0.66214200  0.99359200  1
  O  O40  1  0.29061050  0.07926150  0.79958100  1
  O  O41  1  0.61975700  0.23898100  0.77585000  1
  O  O42  1  0.67569750  0.23390450  0.24944200  1
  O  O43  1  0.64427200  0.66214200  0.50640800  1
  O  O44  1  0.51756000  0.05870900  0.09861800  1
  O  O45  1  0.91972250  0.01502050  0.60059300  1
  O  O46  1  0.38024300  0.23898100  0.72415000  1
  O  O47  1  0.58548550  0.28840450  0.43549800  1
  O  O48  1  0.67569750  0.76609550  0.74944200  1
  O  O49  1  0.48244000  0.05870900  0.40138200  1
  O  O50  1  0.31216000  0.09210400  0.07701800  1
  O  O51  1  0.58548550  0.71159550  0.93549800  1
  O  O52  1  0.08027750  0.98497950  0.39940700  1
  O  O53  1  0.35572800  0.33785800  0.49359200  1
  O  O54  1  0.32430250  0.23390450  0.25055800  1
  O  O55  1  0.68784000  0.90789600  0.92298200  1
  O  O56  1  0.68784000  0.09210400  0.42298200  1
  O  O57  1  0.61975700  0.76101900  0.27585000  1
  O  O58  1  0.13621600  0.91177000  0.67539400  1
  O  O59  1  0.29061050  0.92073850  0.29958100  1
  O  O60  1  0.70938950  0.07926150  0.70041900  1
  O  O61  1  0.41451450  0.71159550  0.56450200  1
  O  O62  1  0.08027750  0.01502050  0.89940700  1
  O  O63  1  0.38024300  0.76101900  0.22415000  1
  O  O64  1  0.86378400  0.08823000  0.32460600  1
  O  O65  1  0.70938950  0.92073850  0.20041900  1
  O  O66  1  0.64427200  0.33785800  0.00640800  1
  O  O67  1  0.86378400  0.91177000  0.82460600  1
  O  O68  1  0.91451450  0.78840450  0.06450200  1
  O  O69  1  0.98244000  0.44129100  0.90138200  1
  O  O70  1  0.81216000  0.40789600  0.57701800  1
  O  O71  1  0.01756000  0.44129100  0.59861800  1
  O  O72  1  0.41972250  0.48497950  0.10059300  1
  O  O73  1  0.63621600  0.58823000  0.17539400  1
  O  O74  1  0.82430250  0.26609550  0.75055800  1
  O  O75  1  0.85572800  0.16214200  0.99359200  1
  O  O76  1  0.79061050  0.57926150  0.79958100  1
  O  O77  1  0.11975700  0.73898100  0.77585000  1
  O  O78  1  0.17569750  0.73390450  0.24944200  1
  O  O79  1  0.14427200  0.16214200  0.50640800  1
  O  O80  1  0.01756000  0.55870900  0.09861800  1
  O  O81  1  0.41972250  0.51502050  0.60059300  1
  O  O82  1  0.88024300  0.73898100  0.72415000  1
  O  O83  1  0.08548550  0.78840450  0.43549800  1
  O  O84  1  0.17569750  0.26609550  0.74944200  1
  O  O85  1  0.98244000  0.55870900  0.40138200  1
  O  O86  1  0.81216000  0.59210400  0.07701800  1
  O  O87  1  0.08548550  0.21159550  0.93549800  1
  O  O88  1  0.58027750  0.48497950  0.39940700  1
  O  O89  1  0.85572800  0.83785800  0.49359200  1
  O  O90  1  0.82430250  0.73390450  0.25055800  1
  O  O91  1  0.18784000  0.40789600  0.92298200  1
  O  O92  1  0.18784000  0.59210400  0.42298200  1
  O  O93  1  0.11975700  0.26101900  0.27585000  1
  O  O94  1  0.63621600  0.41177000  0.67539400  1
  O  O95  1  0.79061050  0.42073850  0.29958100  1
  O  O96  1  0.20938950  0.57926150  0.70041900  1
  O  O97  1  0.91451450  0.21159550  0.56450200  1
  O  O98  1  0.58027750  0.51502050  0.89940700  1
  O  O99  1  0.88024300  0.26101900  0.22415000  1
  O  O100  1  0.36378400  0.58823000  0.32460600  1
  O  O101  1  0.20938950  0.42073850  0.20041900  1
  O  O102  1  0.14427200  0.83785800  0.00640800  1
  O  O103  1  0.36378400  0.41177000  0.82460600  1
