# generated using pymatgen
data_CsFe(SO4)2
_symmetry_space_group_name_H-M   'P 1'
_cell_length_a   4.97423933
_cell_length_b   4.97423933
_cell_length_c   9.06374225
_cell_angle_alpha   90.00000000
_cell_angle_beta   90.00000000
_cell_angle_gamma   120.00000000
_symmetry_Int_Tables_number   1
_chemical_formula_structural   CsFe(SO4)2
_chemical_formula_sum   'Cs1 Fe1 S2 O8'
_cell_volume   194.21891897
_cell_formula_units_Z   1
loop_
 _symmetry_equiv_pos_site_id
 _symmetry_equiv_pos_as_xyz
  1  'x, y, z'
loop_
 _atom_site_type_symbol
 _atom_site_label
 _atom_site_symmetry_multiplicity
 _atom_site_fract_x
 _atom_site_fract_y
 _atom_site_fract_z
 _atom_site_occupancy
  Cs  Cs0  1  0.00000000  0.00000000  0.50000000  1
  Fe  Fe1  1  0.00000000  0.00000000  0.00000000  1
  S  S2  1  0.33333333  0.66666667  0.81289050  1
  S  S3  1  0.66666667  0.33333333  0.18710950  1
  O  O4  1  0.66666667  0.33333333  0.34874200  1
  O  O5  1  0.33333333  0.66666667  0.65125800  1
  O  O6  1  0.71949500  0.63951225  0.13174425  1
  O  O7  1  0.36048775  0.07998275  0.13174425  1
  O  O8  1  0.07998275  0.71949500  0.86825575  1
  O  O9  1  0.28050500  0.36048775  0.86825575  1
  O  O10  1  0.92001725  0.28050500  0.13174425  1
  O  O11  1  0.63951225  0.92001725  0.86825575  1
