# generated using pymatgen
data_CoBiO3
_symmetry_space_group_name_H-M   'P 1'
_cell_length_a   3.75080700
_cell_length_b   3.75080700
_cell_length_c   4.87235500
_cell_angle_alpha   90.00000000
_cell_angle_beta   90.00000000
_cell_angle_gamma   90.00000000
_symmetry_Int_Tables_number   1
_chemical_formula_structural   CoBiO3
_chemical_formula_sum   'Co1 Bi1 O3'
_cell_volume   68.54698529
_cell_formula_units_Z   1
loop_
 _symmetry_equiv_pos_site_id
 _symmetry_equiv_pos_as_xyz
  1  'x, y, z'
loop_
 _atom_site_type_symbol
 _atom_site_label
 _atom_site_symmetry_multiplicity
 _atom_site_fract_x
 _atom_site_fract_y
 _atom_site_fract_z
 _atom_site_occupancy
  Co  Co0  1  0.50000000  0.50000000  0.42839800  1
  Bi  Bi1  1  0.00000000  0.00000000  0.00562500  1
  O  O2  1  0.50000000  0.50000000  0.78864850  1
  O  O3  1  0.00000000  0.50000000  0.27441600  1
  O  O4  1  0.50000000  0.00000000  0.27441600  1
