# generated using pymatgen
data_MnPbO3
_symmetry_space_group_name_H-M   'P 1'
_cell_length_a   5.60775409
_cell_length_b   9.68137800
_cell_length_c   13.85591761
_cell_angle_alpha   90.00000000
_cell_angle_beta   92.10207895
_cell_angle_gamma   90.00000000
_symmetry_Int_Tables_number   1
_chemical_formula_structural   MnPbO3
_chemical_formula_sum   'Mn12 Pb12 O36'
_cell_volume   751.74245668
_cell_formula_units_Z   12
loop_
 _symmetry_equiv_pos_site_id
 _symmetry_equiv_pos_as_xyz
  1  'x, y, z'
loop_
 _atom_site_type_symbol
 _atom_site_label
 _atom_site_symmetry_multiplicity
 _atom_site_fract_x
 _atom_site_fract_y
 _atom_site_fract_z
 _atom_site_occupancy
  Mn  Mn0  1  0.00000000  0.00000000  0.00000000  1
  Mn  Mn1  1  0.00000000  0.00000000  0.50000000  1
  Mn  Mn2  1  0.48257950  0.83704150  0.84509700  1
  Mn  Mn3  1  0.51742050  0.83704150  0.65490300  1
  Mn  Mn4  1  0.51742050  0.16295850  0.15490300  1
  Mn  Mn5  1  0.48257950  0.16295850  0.34509700  1
  Mn  Mn6  1  0.50000000  0.50000000  0.00000000  1
  Mn  Mn7  1  0.50000000  0.50000000  0.50000000  1
  Mn  Mn8  1  0.98257950  0.33704150  0.84509700  1
  Mn  Mn9  1  0.01742050  0.33704150  0.65490300  1
  Mn  Mn10  1  0.01742050  0.66295850  0.15490300  1
  Mn  Mn11  1  0.98257950  0.66295850  0.34509700  1
  Pb  Pb12  1  0.50000000  0.48927050  0.25000000  1
  Pb  Pb13  1  0.50000000  0.51072950  0.75000000  1
  Pb  Pb14  1  0.50054800  0.82984900  0.08932200  1
  Pb  Pb15  1  0.49945200  0.82984900  0.41067800  1
  Pb  Pb16  1  0.49945200  0.17015100  0.91067800  1
  Pb  Pb17  1  0.50054800  0.17015100  0.58932200  1
  Pb  Pb18  1  0.00000000  0.98927050  0.25000000  1
  Pb  Pb19  1  0.00000000  0.01072950  0.75000000  1
  Pb  Pb20  1  0.00054800  0.32984900  0.08932200  1
  Pb  Pb21  1  0.99945200  0.32984900  0.41067800  1
  Pb  Pb22  1  0.99945200  0.67015100  0.91067800  1
  Pb  Pb23  1  0.00054800  0.67015100  0.58932200  1
  O  O24  1  0.50000000  0.01267750  0.25000000  1
  O  O25  1  0.50000000  0.98732250  0.75000000  1
  O  O26  1  0.72225350  0.23750750  0.26493400  1
  O  O27  1  0.27774650  0.23750750  0.23506600  1
  O  O28  1  0.27774650  0.76249250  0.73506600  1
  O  O29  1  0.72225350  0.76249250  0.76493400  1
  O  O30  1  0.56176950  0.33200750  0.07992000  1
  O  O31  1  0.43823050  0.33200750  0.42008000  1
  O  O32  1  0.43823050  0.66799250  0.92008000  1
  O  O33  1  0.56176950  0.66799250  0.57992000  1
  O  O34  1  0.80963000  0.08451100  0.10049300  1
  O  O35  1  0.19037000  0.08451100  0.39950700  1
  O  O36  1  0.19037000  0.91548900  0.89950700  1
  O  O37  1  0.80963000  0.91548900  0.60049300  1
  O  O38  1  0.30310800  0.08243400  0.05832400  1
  O  O39  1  0.69689200  0.08243400  0.44167600  1
  O  O40  1  0.69689200  0.91756600  0.94167600  1
  O  O41  1  0.30310800  0.91756600  0.55832400  1
  O  O42  1  0.00000000  0.51267750  0.25000000  1
  O  O43  1  0.00000000  0.48732250  0.75000000  1
  O  O44  1  0.22225350  0.73750750  0.26493400  1
  O  O45  1  0.77774650  0.73750750  0.23506600  1
  O  O46  1  0.77774650  0.26249250  0.73506600  1
  O  O47  1  0.22225350  0.26249250  0.76493400  1
  O  O48  1  0.06176950  0.83200750  0.07992000  1
  O  O49  1  0.93823050  0.83200750  0.42008000  1
  O  O50  1  0.93823050  0.16799250  0.92008000  1
  O  O51  1  0.06176950  0.16799250  0.57992000  1
  O  O52  1  0.30963000  0.58451100  0.10049300  1
  O  O53  1  0.69037000  0.58451100  0.39950700  1
  O  O54  1  0.69037000  0.41548900  0.89950700  1
  O  O55  1  0.30963000  0.41548900  0.60049300  1
  O  O56  1  0.80310800  0.58243400  0.05832400  1
  O  O57  1  0.19689200  0.58243400  0.44167600  1
  O  O58  1  0.19689200  0.41756600  0.94167600  1
  O  O59  1  0.80310800  0.41756600  0.55832400  1
