# generated using pymatgen
data_Ce2Ti2SiO9
_symmetry_space_group_name_H-M   'P 1'
_cell_length_a   17.00607957
_cell_length_b   5.79254027
_cell_length_c   7.69977735
_cell_angle_alpha   90.00000000
_cell_angle_beta   111.20343291
_cell_angle_gamma   90.00000000
_symmetry_Int_Tables_number   1
_chemical_formula_structural   Ce2Ti2SiO9
_chemical_formula_sum   'Ce8 Ti8 Si4 O36'
_cell_volume   707.14441182
_cell_formula_units_Z   4
loop_
 _symmetry_equiv_pos_site_id
 _symmetry_equiv_pos_as_xyz
  1  'x, y, z'
loop_
 _atom_site_type_symbol
 _atom_site_label
 _atom_site_symmetry_multiplicity
 _atom_site_fract_x
 _atom_site_fract_y
 _atom_site_fract_z
 _atom_site_occupancy
  Ce  Ce0  1  0.89551450  0.00000000  0.30543000  1
  Ce  Ce1  1  0.60448550  0.50000000  0.69457000  1
  Ce  Ce2  1  0.78813450  0.00000000  0.68517500  1
  Ce  Ce3  1  0.71186550  0.50000000  0.31482500  1
  Ce  Ce4  1  0.39551450  0.50000000  0.30543000  1
  Ce  Ce5  1  0.10448550  0.00000000  0.69457000  1
  Ce  Ce6  1  0.28813450  0.50000000  0.68517500  1
  Ce  Ce7  1  0.21186550  0.00000000  0.31482500  1
  Ti  Ti8  1  0.58143850  0.00000000  0.44815800  1
  Ti  Ti9  1  0.00000000  0.76016500  0.00000000  1
  Ti  Ti10  1  0.00000000  0.23983500  0.00000000  1
  Ti  Ti11  1  0.91856150  0.50000000  0.55184200  1
  Ti  Ti12  1  0.08143850  0.50000000  0.44815800  1
  Ti  Ti13  1  0.50000000  0.26016500  0.00000000  1
  Ti  Ti14  1  0.50000000  0.73983500  0.00000000  1
  Ti  Ti15  1  0.41856150  0.00000000  0.55184200  1
  Si  Si16  1  0.66431400  0.00000000  0.98265000  1
  Si  Si17  1  0.83568600  0.50000000  0.01735000  1
  Si  Si18  1  0.16431400  0.50000000  0.98265000  1
  Si  Si19  1  0.33568600  0.00000000  0.01735000  1
  O  O20  1  0.97182600  0.50000000  0.80939300  1
  O  O21  1  0.66329800  0.24325900  0.48399900  1
  O  O22  1  0.84312250  0.50000000  0.23509200  1
  O  O23  1  0.52294750  0.50000000  0.18407000  1
  O  O24  1  0.83670200  0.74325900  0.51600100  1
  O  O25  1  0.61971750  0.75532950  0.01577200  1
  O  O26  1  0.00000000  0.72803800  0.50000000  1
  O  O27  1  0.97705250  0.00000000  0.81593000  1
  O  O28  1  0.66329800  0.75674100  0.48399900  1
  O  O29  1  0.00000000  0.27196200  0.50000000  1
  O  O30  1  0.65687750  0.00000000  0.76490800  1
  O  O31  1  0.88028250  0.74467050  0.98422800  1
  O  O32  1  0.75890350  0.00000000  0.13653800  1
  O  O33  1  0.83670200  0.25674100  0.51600100  1
  O  O34  1  0.61971750  0.24467050  0.01577200  1
  O  O35  1  0.74109650  0.50000000  0.86346200  1
  O  O36  1  0.52817400  0.00000000  0.19060700  1
  O  O37  1  0.88028250  0.25532950  0.98422800  1
  O  O38  1  0.47182600  0.00000000  0.80939300  1
  O  O39  1  0.16329800  0.74325900  0.48399900  1
  O  O40  1  0.34312250  0.00000000  0.23509200  1
  O  O41  1  0.02294750  0.00000000  0.18407000  1
  O  O42  1  0.33670200  0.24325900  0.51600100  1
  O  O43  1  0.11971750  0.25532950  0.01577200  1
  O  O44  1  0.50000000  0.22803800  0.50000000  1
  O  O45  1  0.47705250  0.50000000  0.81593000  1
  O  O46  1  0.16329800  0.25674100  0.48399900  1
  O  O47  1  0.50000000  0.77196200  0.50000000  1
  O  O48  1  0.15687750  0.50000000  0.76490800  1
  O  O49  1  0.38028250  0.24467050  0.98422800  1
  O  O50  1  0.25890350  0.50000000  0.13653800  1
  O  O51  1  0.33670200  0.75674100  0.51600100  1
  O  O52  1  0.11971750  0.74467050  0.01577200  1
  O  O53  1  0.24109650  0.00000000  0.86346200  1
  O  O54  1  0.02817400  0.50000000  0.19060700  1
  O  O55  1  0.38028250  0.75532950  0.98422800  1
