# generated using pymatgen
data_Ba3Cr2WO9
_symmetry_space_group_name_H-M   'P 1'
_cell_length_a   5.80815968
_cell_length_b   5.80815968
_cell_length_c   14.29720400
_cell_angle_alpha   90.00000000
_cell_angle_beta   90.00000000
_cell_angle_gamma   120.00000000
_symmetry_Int_Tables_number   1
_chemical_formula_structural   Ba3Cr2WO9
_chemical_formula_sum   'Ba6 Cr4 W2 O18'
_cell_volume   417.69458167
_cell_formula_units_Z   2
loop_
 _symmetry_equiv_pos_site_id
 _symmetry_equiv_pos_as_xyz
  1  'x, y, z'
loop_
 _atom_site_type_symbol
 _atom_site_label
 _atom_site_symmetry_multiplicity
 _atom_site_fract_x
 _atom_site_fract_y
 _atom_site_fract_z
 _atom_site_occupancy
  Ba  Ba0  1  0.00000000  0.00000000  0.25000000  1
  Ba  Ba1  1  0.00000000  0.00000000  0.75000000  1
  Ba  Ba2  1  0.33333333  0.66666667  0.10359800  1
  Ba  Ba3  1  0.33333333  0.66666667  0.39640200  1
  Ba  Ba4  1  0.66666667  0.33333333  0.89640200  1
  Ba  Ba5  1  0.66666667  0.33333333  0.60359800  1
  Cr  Cr6  1  0.33333333  0.66666667  0.65966300  1
  Cr  Cr7  1  0.66666667  0.33333333  0.15966300  1
  Cr  Cr8  1  0.33333333  0.66666667  0.84033700  1
  Cr  Cr9  1  0.66666667  0.33333333  0.34033700  1
  W  W10  1  0.00000000  0.00000000  0.50000000  1
  W  W11  1  0.00000000  0.00000000  0.00000000  1
  O  O12  1  0.51573350  0.03146700  0.25000000  1
  O  O13  1  0.51573350  0.48426650  0.25000000  1
  O  O14  1  0.96853300  0.48426650  0.25000000  1
  O  O15  1  0.48426650  0.96853300  0.75000000  1
  O  O16  1  0.48426650  0.51573350  0.75000000  1
  O  O17  1  0.03146700  0.51573350  0.75000000  1
  O  O18  1  0.16025850  0.32051700  0.92170500  1
  O  O19  1  0.16025850  0.83974150  0.57829500  1
  O  O20  1  0.67948300  0.83974150  0.57829500  1
  O  O21  1  0.67948300  0.83974150  0.92170500  1
  O  O22  1  0.16025850  0.83974150  0.92170500  1
  O  O23  1  0.83974150  0.67948300  0.07829500  1
  O  O24  1  0.83974150  0.16025850  0.07829500  1
  O  O25  1  0.32051700  0.16025850  0.07829500  1
  O  O26  1  0.16025850  0.32051700  0.57829500  1
  O  O27  1  0.32051700  0.16025850  0.42170500  1
  O  O28  1  0.83974150  0.67948300  0.42170500  1
  O  O29  1  0.83974150  0.16025850  0.42170500  1
