# generated using pymatgen
data_Ca2TaMnO6
_symmetry_space_group_name_H-M   'P 1'
_cell_length_a   5.52133002
_cell_length_b   7.70880400
_cell_length_c   5.74148212
_cell_angle_alpha   90.00000000
_cell_angle_beta   93.88629723
_cell_angle_gamma   90.00000000
_symmetry_Int_Tables_number   1
_chemical_formula_structural   Ca2TaMnO6
_chemical_formula_sum   'Ca4 Ta2 Mn2 O12'
_cell_volume   243.81191399
_cell_formula_units_Z   2
loop_
 _symmetry_equiv_pos_site_id
 _symmetry_equiv_pos_as_xyz
  1  'x, y, z'
loop_
 _atom_site_type_symbol
 _atom_site_label
 _atom_site_symmetry_multiplicity
 _atom_site_fract_x
 _atom_site_fract_y
 _atom_site_fract_z
 _atom_site_occupancy
  Ca  Ca0  1  0.98204700  0.75000000  0.95259600  1
  Ca  Ca1  1  0.01795300  0.25000000  0.04740400  1
  Ca  Ca2  1  0.50597300  0.75000000  0.43369200  1
  Ca  Ca3  1  0.49402700  0.25000000  0.56630800  1
  Ta  Ta4  1  0.00000000  0.00000000  0.50000000  1
  Ta  Ta5  1  0.00000000  0.50000000  0.50000000  1
  Mn  Mn6  1  0.50000000  0.00000000  0.00000000  1
  Mn  Mn7  1  0.50000000  0.50000000  0.00000000  1
  O  O8  1  0.90228500  0.25000000  0.47200200  1
  O  O9  1  0.09771500  0.75000000  0.52799800  1
  O  O10  1  0.40489200  0.75000000  0.02792400  1
  O  O11  1  0.59510800  0.25000000  0.97207600  1
  O  O12  1  0.20190600  0.45165000  0.79716200  1
  O  O13  1  0.79809400  0.54835000  0.20283800  1
  O  O14  1  0.20190600  0.04835000  0.79716200  1
  O  O15  1  0.79809400  0.95165000  0.20283800  1
  O  O16  1  0.71916600  0.54853000  0.68515400  1
  O  O17  1  0.28083400  0.04853000  0.31484600  1
  O  O18  1  0.28083400  0.45147000  0.31484600  1
  O  O19  1  0.71916600  0.95147000  0.68515400  1
