# generated using pymatgen
data_Dy4Ni12Sn25
_symmetry_space_group_name_H-M   'P 1'
_cell_length_a   11.95127600
_cell_length_b   11.95127600
_cell_length_c   11.95127600
_cell_angle_alpha   90.00000000
_cell_angle_beta   90.00000000
_cell_angle_gamma   90.00000000
_symmetry_Int_Tables_number   1
_chemical_formula_structural   Dy4Ni12Sn25
_chemical_formula_sum   'Dy8 Ni24 Sn50'
_cell_volume   1707.03658134
_cell_formula_units_Z   2
loop_
 _symmetry_equiv_pos_site_id
 _symmetry_equiv_pos_as_xyz
  1  'x, y, z'
loop_
 _atom_site_type_symbol
 _atom_site_label
 _atom_site_symmetry_multiplicity
 _atom_site_fract_x
 _atom_site_fract_y
 _atom_site_fract_z
 _atom_site_occupancy
  Dy  Dy0  1  0.25000000  0.25000000  0.25000000  1
  Dy  Dy1  1  0.25000000  0.75000000  0.25000000  1
  Dy  Dy2  1  0.75000000  0.25000000  0.25000000  1
  Dy  Dy3  1  0.25000000  0.25000000  0.75000000  1
  Dy  Dy4  1  0.75000000  0.75000000  0.75000000  1
  Dy  Dy5  1  0.75000000  0.25000000  0.75000000  1
  Dy  Dy6  1  0.25000000  0.75000000  0.75000000  1
  Dy  Dy7  1  0.75000000  0.75000000  0.25000000  1
  Ni  Ni8  1  0.33710500  0.50000000  0.81995500  1
  Ni  Ni9  1  0.16289500  0.00000000  0.31995500  1
  Ni  Ni10  1  0.00000000  0.31995500  0.16289500  1
  Ni  Ni11  1  0.50000000  0.18004500  0.33710500  1
  Ni  Ni12  1  0.81995500  0.33710500  0.50000000  1
  Ni  Ni13  1  0.18004500  0.33710500  0.50000000  1
  Ni  Ni14  1  0.16289500  0.00000000  0.68004500  1
  Ni  Ni15  1  0.68004500  0.16289500  0.00000000  1
  Ni  Ni16  1  0.50000000  0.81995500  0.33710500  1
  Ni  Ni17  1  0.33710500  0.50000000  0.18004500  1
  Ni  Ni18  1  0.00000000  0.68004500  0.16289500  1
  Ni  Ni19  1  0.31995500  0.16289500  0.00000000  1
  Ni  Ni20  1  0.83710500  0.00000000  0.31995500  1
  Ni  Ni21  1  0.66289500  0.50000000  0.81995500  1
  Ni  Ni22  1  0.50000000  0.81995500  0.66289500  1
  Ni  Ni23  1  0.00000000  0.68004500  0.83710500  1
  Ni  Ni24  1  0.31995500  0.83710500  0.00000000  1
  Ni  Ni25  1  0.68004500  0.83710500  0.00000000  1
  Ni  Ni26  1  0.66289500  0.50000000  0.18004500  1
  Ni  Ni27  1  0.18004500  0.66289500  0.50000000  1
  Ni  Ni28  1  0.00000000  0.31995500  0.83710500  1
  Ni  Ni29  1  0.83710500  0.00000000  0.68004500  1
  Ni  Ni30  1  0.50000000  0.18004500  0.66289500  1
  Ni  Ni31  1  0.81995500  0.66289500  0.50000000  1
  Sn  Sn32  1  0.25139700  0.50000000  0.37342300  1
  Sn  Sn33  1  0.50000000  0.37342300  0.25139700  1
  Sn  Sn34  1  0.37071400  0.00000000  0.37257900  1
  Sn  Sn35  1  0.12928600  0.50000000  0.87257900  1
  Sn  Sn36  1  0.75139700  0.00000000  0.12657700  1
  Sn  Sn37  1  0.12657700  0.24860300  0.00000000  1
  Sn  Sn38  1  0.00000000  0.12657700  0.24860300  1
  Sn  Sn39  1  0.62742100  0.37071400  0.00000000  1
  Sn  Sn40  1  0.12928600  0.50000000  0.12742100  1
  Sn  Sn41  1  0.74860300  0.50000000  0.37342300  1
  Sn  Sn42  1  0.00000000  0.62742100  0.37071400  1
  Sn  Sn43  1  0.37342300  0.74860300  0.50000000  1
  Sn  Sn44  1  0.24860300  0.00000000  0.12657700  1
  Sn  Sn45  1  0.12742100  0.12928600  0.50000000  1
  Sn  Sn46  1  0.12657700  0.75139700  0.00000000  1
  Sn  Sn47  1  0.00000000  0.00000000  0.00000000  1
  Sn  Sn48  1  0.37342300  0.25139700  0.50000000  1
  Sn  Sn49  1  0.87257900  0.12928600  0.50000000  1
  Sn  Sn50  1  0.50000000  0.87257900  0.12928600  1
  Sn  Sn51  1  0.00000000  0.12657700  0.75139700  1
  Sn  Sn52  1  0.37257900  0.37071400  0.00000000  1
  Sn  Sn53  1  0.50000000  0.12742100  0.12928600  1
  Sn  Sn54  1  0.00000000  0.37257900  0.37071400  1
  Sn  Sn55  1  0.50000000  0.37342300  0.74860300  1
  Sn  Sn56  1  0.37071400  0.00000000  0.62742100  1
  Sn  Sn57  1  0.75139700  0.00000000  0.87342300  1
  Sn  Sn58  1  0.00000000  0.87342300  0.75139700  1
  Sn  Sn59  1  0.87071400  0.50000000  0.87257900  1
  Sn  Sn60  1  0.62928600  0.00000000  0.37257900  1
  Sn  Sn61  1  0.25139700  0.50000000  0.62657700  1
  Sn  Sn62  1  0.62657700  0.74860300  0.50000000  1
  Sn  Sn63  1  0.50000000  0.62657700  0.74860300  1
  Sn  Sn64  1  0.12742100  0.87071400  0.50000000  1
  Sn  Sn65  1  0.62928600  0.00000000  0.62742100  1
  Sn  Sn66  1  0.24860300  0.00000000  0.87342300  1
  Sn  Sn67  1  0.50000000  0.12742100  0.87071400  1
  Sn  Sn68  1  0.87342300  0.24860300  0.00000000  1
  Sn  Sn69  1  0.74860300  0.50000000  0.62657700  1
  Sn  Sn70  1  0.62742100  0.62928600  0.00000000  1
  Sn  Sn71  1  0.62657700  0.25139700  0.50000000  1
  Sn  Sn72  1  0.50000000  0.50000000  0.50000000  1
  Sn  Sn73  1  0.87342300  0.75139700  0.00000000  1
  Sn  Sn74  1  0.37257900  0.62928600  0.00000000  1
  Sn  Sn75  1  0.00000000  0.37257900  0.62928600  1
  Sn  Sn76  1  0.50000000  0.62657700  0.25139700  1
  Sn  Sn77  1  0.87257900  0.87071400  0.50000000  1
  Sn  Sn78  1  0.00000000  0.62742100  0.62928600  1
  Sn  Sn79  1  0.50000000  0.87257900  0.87071400  1
  Sn  Sn80  1  0.00000000  0.87342300  0.24860300  1
  Sn  Sn81  1  0.87071400  0.50000000  0.12742100  1
