# generated using pymatgen
data_MnNi(BiO3)2
_symmetry_space_group_name_H-M   'P 1'
_cell_length_a   5.44189000
_cell_length_b   5.66115800
_cell_length_c   9.46130836
_cell_angle_alpha   90.00000000
_cell_angle_beta   124.84858806
_cell_angle_gamma   90.00000000
_symmetry_Int_Tables_number   1
_chemical_formula_structural   MnNi(BiO3)2
_chemical_formula_sum   'Mn2 Ni2 Bi4 O12'
_cell_volume   239.20602259
_cell_formula_units_Z   2
loop_
 _symmetry_equiv_pos_site_id
 _symmetry_equiv_pos_as_xyz
  1  'x, y, z'
loop_
 _atom_site_type_symbol
 _atom_site_label
 _atom_site_symmetry_multiplicity
 _atom_site_fract_x
 _atom_site_fract_y
 _atom_site_fract_z
 _atom_site_occupancy
  Mn  Mn0  1  0.00000000  0.50000000  0.00000000  1
  Mn  Mn1  1  0.00000000  0.00000000  0.50000000  1
  Ni  Ni2  1  0.50000000  0.00000000  0.00000000  1
  Ni  Ni3  1  0.50000000  0.50000000  0.50000000  1
  Bi  Bi4  1  0.74002650  0.44343700  0.25004100  1
  Bi  Bi5  1  0.25997350  0.94343700  0.24995900  1
  Bi  Bi6  1  0.74002650  0.05656300  0.75004100  1
  Bi  Bi7  1  0.25997350  0.55656300  0.74995900  1
  O  O8  1  0.23368450  0.28832300  0.54494300  1
  O  O9  1  0.66547750  0.30681800  0.95647000  1
  O  O10  1  0.84866850  0.02639900  0.25778300  1
  O  O11  1  0.76631550  0.71167700  0.45505700  1
  O  O12  1  0.84866850  0.47360100  0.75778300  1
  O  O13  1  0.76631550  0.78832300  0.95505700  1
  O  O14  1  0.33452250  0.80681800  0.54353000  1
  O  O15  1  0.33452250  0.69318200  0.04353000  1
  O  O16  1  0.15133150  0.52639900  0.24221700  1
  O  O17  1  0.23368450  0.21167700  0.04494300  1
  O  O18  1  0.66547750  0.19318200  0.45647000  1
  O  O19  1  0.15133150  0.97360100  0.74221700  1
