# generated using pymatgen
data_Mn13Al4Si2(SbO14)2
_symmetry_space_group_name_H-M   'P 1'
_cell_length_a   5.65602400
_cell_length_b   23.26145800
_cell_length_c   9.20199800
_cell_angle_alpha   90.00000000
_cell_angle_beta   100.78364981
_cell_angle_gamma   90.00000000
_symmetry_Int_Tables_number   1
_chemical_formula_structural   Mn13Al4Si2(SbO14)2
_chemical_formula_sum   'Mn26 Al8 Si4 Sb4 O56'
_cell_volume   1189.30279871
_cell_formula_units_Z   2
loop_
 _symmetry_equiv_pos_site_id
 _symmetry_equiv_pos_as_xyz
  1  'x, y, z'
loop_
 _atom_site_type_symbol
 _atom_site_label
 _atom_site_symmetry_multiplicity
 _atom_site_fract_x
 _atom_site_fract_y
 _atom_site_fract_z
 _atom_site_occupancy
  Mn  Mn0  1  0.71651400  0.35344200  0.64395700  1
  Mn  Mn1  1  0.27726750  0.07033550  0.34901800  1
  Mn  Mn2  1  0.28348600  0.35344200  0.35604300  1
  Mn  Mn3  1  0.78348600  0.14655800  0.35604300  1
  Mn  Mn4  1  0.22273250  0.42966450  0.65098200  1
  Mn  Mn5  1  0.50000000  0.21313900  0.00000000  1
  Mn  Mn6  1  0.72273250  0.07033550  0.65098200  1
  Mn  Mn7  1  0.00000000  0.00000000  0.00000000  1
  Mn  Mn8  1  0.50000000  0.07268100  0.00000000  1
  Mn  Mn9  1  0.77726750  0.42966450  0.34901800  1
  Mn  Mn10  1  0.21651400  0.14655800  0.64395700  1
  Mn  Mn11  1  0.00000000  0.42731900  0.00000000  1
  Mn  Mn12  1  0.00000000  0.28686100  0.00000000  1
  Mn  Mn13  1  0.21651400  0.85344200  0.64395700  1
  Mn  Mn14  1  0.77726750  0.57033550  0.34901800  1
  Mn  Mn15  1  0.78348600  0.85344200  0.35604300  1
  Mn  Mn16  1  0.28348600  0.64655800  0.35604300  1
  Mn  Mn17  1  0.72273250  0.92966450  0.65098200  1
  Mn  Mn18  1  0.00000000  0.71313900  0.00000000  1
  Mn  Mn19  1  0.22273250  0.57033550  0.65098200  1
  Mn  Mn20  1  0.50000000  0.50000000  0.00000000  1
  Mn  Mn21  1  0.00000000  0.57268100  0.00000000  1
  Mn  Mn22  1  0.27726750  0.92966450  0.34901800  1
  Mn  Mn23  1  0.71651400  0.64655800  0.64395700  1
  Mn  Mn24  1  0.50000000  0.92731900  0.00000000  1
  Mn  Mn25  1  0.50000000  0.78686100  0.00000000  1
  Al  Al26  1  0.73682250  0.21513150  0.68135800  1
  Al  Al27  1  0.26317750  0.21513150  0.31864200  1
  Al  Al28  1  0.76317750  0.28486850  0.31864200  1
  Al  Al29  1  0.23682250  0.28486850  0.68135800  1
  Al  Al30  1  0.23682250  0.71513150  0.68135800  1
  Al  Al31  1  0.76317750  0.71513150  0.31864200  1
  Al  Al32  1  0.26317750  0.78486850  0.31864200  1
  Al  Al33  1  0.73682250  0.78486850  0.68135800  1
  Si  Si34  1  0.76447700  0.00000000  0.31056500  1
  Si  Si35  1  0.23552300  0.00000000  0.68943500  1
  Si  Si36  1  0.26447700  0.50000000  0.31056500  1
  Si  Si37  1  0.73552300  0.50000000  0.68943500  1
  Sb  Sb38  1  0.00000000  0.14107100  0.00000000  1
  Sb  Sb39  1  0.50000000  0.35892900  0.00000000  1
  Sb  Sb40  1  0.50000000  0.64107100  0.00000000  1
  Sb  Sb41  1  0.00000000  0.85892900  0.00000000  1
  O  O42  1  0.17222950  0.15205050  0.40067700  1
  O  O43  1  0.58102400  0.22578100  0.35281100  1
  O  O44  1  0.05817600  0.00000000  0.35084800  1
  O  O45  1  0.68608800  0.00000000  0.12820700  1
  O  O46  1  0.91897600  0.27421900  0.64718900  1
  O  O47  1  0.32777050  0.34794950  0.59932300  1
  O  O48  1  0.68877600  0.29259000  0.11834300  1
  O  O49  1  0.81122400  0.20741000  0.88165700  1
  O  O50  1  0.31391200  0.00000000  0.87179300  1
  O  O51  1  0.80630750  0.07787550  0.88514700  1
  O  O52  1  0.65556200  0.05860500  0.37942300  1
  O  O53  1  0.82777050  0.15205050  0.59932300  1
  O  O54  1  0.31122400  0.29259000  0.88165700  1
  O  O55  1  0.19369250  0.07787550  0.11485300  1
  O  O56  1  0.34443800  0.05860500  0.62057700  1
  O  O57  1  0.94182400  0.00000000  0.64915200  1
  O  O58  1  0.30630750  0.42212450  0.88514700  1
  O  O59  1  0.69369250  0.42212450  0.11485300  1
  O  O60  1  0.18877600  0.20741000  0.11834300  1
  O  O61  1  0.73725900  0.14538000  0.12022000  1
  O  O62  1  0.76274100  0.35462000  0.87978000  1
  O  O63  1  0.15556200  0.44139500  0.37942300  1
  O  O64  1  0.23725900  0.35462000  0.12022000  1
  O  O65  1  0.08102400  0.27421900  0.35281100  1
  O  O66  1  0.84443800  0.44139500  0.62057700  1
  O  O67  1  0.26274100  0.14538000  0.87978000  1
  O  O68  1  0.67222950  0.34794950  0.40067700  1
  O  O69  1  0.41897600  0.22578100  0.64718900  1
  O  O70  1  0.67222950  0.65205050  0.40067700  1
  O  O71  1  0.08102400  0.72578100  0.35281100  1
  O  O72  1  0.55817600  0.50000000  0.35084800  1
  O  O73  1  0.18608800  0.50000000  0.12820700  1
  O  O74  1  0.41897600  0.77421900  0.64718900  1
  O  O75  1  0.82777050  0.84794950  0.59932300  1
  O  O76  1  0.18877600  0.79259000  0.11834300  1
  O  O77  1  0.31122400  0.70741000  0.88165700  1
  O  O78  1  0.81391200  0.50000000  0.87179300  1
  O  O79  1  0.30630750  0.57787550  0.88514700  1
  O  O80  1  0.15556200  0.55860500  0.37942300  1
  O  O81  1  0.32777050  0.65205050  0.59932300  1
  O  O82  1  0.81122400  0.79259000  0.88165700  1
  O  O83  1  0.69369250  0.57787550  0.11485300  1
  O  O84  1  0.84443800  0.55860500  0.62057700  1
  O  O85  1  0.44182400  0.50000000  0.64915200  1
  O  O86  1  0.80630750  0.92212450  0.88514700  1
  O  O87  1  0.19369250  0.92212450  0.11485300  1
  O  O88  1  0.68877600  0.70741000  0.11834300  1
  O  O89  1  0.23725900  0.64538000  0.12022000  1
  O  O90  1  0.26274100  0.85462000  0.87978000  1
  O  O91  1  0.65556200  0.94139500  0.37942300  1
  O  O92  1  0.73725900  0.85462000  0.12022000  1
  O  O93  1  0.58102400  0.77421900  0.35281100  1
  O  O94  1  0.34443800  0.94139500  0.62057700  1
  O  O95  1  0.76274100  0.64538000  0.87978000  1
  O  O96  1  0.17222950  0.84794950  0.40067700  1
  O  O97  1  0.91897600  0.72578100  0.64718900  1
