# generated using pymatgen
data_Y2Ni7
_symmetry_space_group_name_H-M   'P 1'
_cell_length_a   4.93788403
_cell_length_b   4.93788403
_cell_length_c   36.10684356
_cell_angle_alpha   90.00000000
_cell_angle_beta   90.00000000
_cell_angle_gamma   120.00000000
_symmetry_Int_Tables_number   1
_chemical_formula_structural   Y2Ni7
_chemical_formula_sum   'Y12 Ni42'
_cell_volume   762.43342650
_cell_formula_units_Z   6
loop_
 _symmetry_equiv_pos_site_id
 _symmetry_equiv_pos_as_xyz
  1  'x, y, z'
loop_
 _atom_site_type_symbol
 _atom_site_label
 _atom_site_symmetry_multiplicity
 _atom_site_fract_x
 _atom_site_fract_y
 _atom_site_fract_z
 _atom_site_occupancy
  Y  Y0  1  0.00000000  0.00000000  0.05043600  1
  Y  Y1  1  0.66666667  0.33333333  0.18617133  1
  Y  Y2  1  0.66666667  0.33333333  0.28289733  1
  Y  Y3  1  0.00000000  0.00000000  0.14716200  1
  Y  Y4  1  0.66666667  0.33333333  0.38376933  1
  Y  Y5  1  0.33333333  0.66666667  0.51950467  1
  Y  Y6  1  0.33333333  0.66666667  0.61623067  1
  Y  Y7  1  0.66666667  0.33333333  0.48049533  1
  Y  Y8  1  0.33333333  0.66666667  0.71710267  1
  Y  Y9  1  0.00000000  0.00000000  0.85283800  1
  Y  Y10  1  0.00000000  0.00000000  0.94956400  1
  Y  Y11  1  0.33333333  0.66666667  0.81382867  1
  Ni  Ni12  1  0.00000000  0.00000000  0.27818100  1
  Ni  Ni13  1  0.33333333  0.66666667  0.27840167  1
  Ni  Ni14  1  0.50038200  0.49961800  0.10963000  1
  Ni  Ni15  1  0.33333333  0.66666667  0.05493167  1
  Ni  Ni16  1  0.50000000  0.00000000  0.00000000  1
  Ni  Ni17  1  0.66743067  0.83371533  0.22370333  1
  Ni  Ni18  1  0.33333333  0.66666667  0.16666667  1
  Ni  Ni19  1  0.99923600  0.49961800  0.10963000  1
  Ni  Ni20  1  0.66666667  0.33333333  0.05515233  1
  Ni  Ni21  1  0.16628467  0.83371533  0.22370333  1
  Ni  Ni22  1  0.50038200  0.00076400  0.10963000  1
  Ni  Ni23  1  0.50000000  0.50000000  0.00000000  1
  Ni  Ni24  1  0.00000000  0.50000000  0.00000000  1
  Ni  Ni25  1  0.16628467  0.33256933  0.22370333  1
  Ni  Ni26  1  0.66666667  0.33333333  0.61151433  1
  Ni  Ni27  1  0.00000000  0.00000000  0.61173500  1
  Ni  Ni28  1  0.16704867  0.83295133  0.44296333  1
  Ni  Ni29  1  0.00000000  0.00000000  0.38826500  1
  Ni  Ni30  1  0.16666667  0.33333333  0.33333333  1
  Ni  Ni31  1  0.33409733  0.16704867  0.55703667  1
  Ni  Ni32  1  1.00000000  1.00000000  0.50000000  1
  Ni  Ni33  1  0.66590267  0.83295133  0.44296333  1
  Ni  Ni34  1  0.33333333  0.66666667  0.38848567  1
  Ni  Ni35  1  0.83295133  0.16704867  0.55703667  1
  Ni  Ni36  1  0.16704867  0.33409733  0.44296333  1
  Ni  Ni37  1  0.16666667  0.83333333  0.33333333  1
  Ni  Ni38  1  0.66666667  0.83333333  0.33333333  1
  Ni  Ni39  1  0.83295133  0.66590267  0.55703667  1
  Ni  Ni40  1  0.33333333  0.66666667  0.94484767  1
  Ni  Ni41  1  0.66666667  0.33333333  0.94506833  1
  Ni  Ni42  1  0.83371533  0.16628467  0.77629667  1
  Ni  Ni43  1  0.66666667  0.33333333  0.72159833  1
  Ni  Ni44  1  0.83333333  0.66666667  0.66666667  1
  Ni  Ni45  1  0.00076400  0.50038200  0.89037000  1
  Ni  Ni46  1  0.66666667  0.33333333  0.83333333  1
  Ni  Ni47  1  0.33256933  0.16628467  0.77629667  1
  Ni  Ni48  1  0.00000000  0.00000000  0.72181900  1
  Ni  Ni49  1  0.49961800  0.50038200  0.89037000  1
  Ni  Ni50  1  0.83371533  0.66743067  0.77629667  1
  Ni  Ni51  1  0.83333333  0.16666667  0.66666667  1
  Ni  Ni52  1  0.33333333  0.16666667  0.66666667  1
  Ni  Ni53  1  0.49961800  0.99923600  0.89037000  1
