# generated using pymatgen
data_Ho10Si17
_symmetry_space_group_name_H-M   'P 1'
_cell_length_a   6.67952800
_cell_length_b   8.23263600
_cell_length_c   19.13072000
_cell_angle_alpha   90.00000000
_cell_angle_beta   90.00000000
_cell_angle_gamma   90.00000000
_symmetry_Int_Tables_number   1
_chemical_formula_structural   Ho10Si17
_chemical_formula_sum   'Ho20 Si34'
_cell_volume   1052.00063968
_cell_formula_units_Z   2
loop_
 _symmetry_equiv_pos_site_id
 _symmetry_equiv_pos_as_xyz
  1  'x, y, z'
loop_
 _atom_site_type_symbol
 _atom_site_label
 _atom_site_symmetry_multiplicity
 _atom_site_fract_x
 _atom_site_fract_y
 _atom_site_fract_z
 _atom_site_occupancy
  Ho  Ho0  1  0.23634450  0.25205050  0.69981000  1
  Ho  Ho1  1  0.23156500  0.75221000  0.89958850  1
  Ho  Ho2  1  0.73156500  0.25221000  0.60041150  1
  Ho  Ho3  1  0.73634450  0.75205050  0.80019000  1
  Ho  Ho4  1  0.73156500  0.74779000  0.60041150  1
  Ho  Ho5  1  0.73634450  0.24794950  0.80019000  1
  Ho  Ho6  1  0.23156500  0.24779000  0.89958850  1
  Ho  Ho7  1  0.23634450  0.74794950  0.69981000  1
  Ho  Ho8  1  0.23893400  0.24459100  0.50000000  1
  Ho  Ho9  1  0.23893400  0.75540900  0.50000000  1
  Ho  Ho10  1  0.73634450  0.75205050  0.19981000  1
  Ho  Ho11  1  0.73156500  0.25221000  0.39958850  1
  Ho  Ho12  1  0.23156500  0.75221000  0.10041150  1
  Ho  Ho13  1  0.23634450  0.25205050  0.30019000  1
  Ho  Ho14  1  0.23156500  0.24779000  0.10041150  1
  Ho  Ho15  1  0.23634450  0.74794950  0.30019000  1
  Ho  Ho16  1  0.73156500  0.74779000  0.39958850  1
  Ho  Ho17  1  0.73634450  0.24794950  0.19981000  1
  Ho  Ho18  1  0.73893400  0.74459100  0.00000000  1
  Ho  Ho19  1  0.73893400  0.25540900  0.00000000  1
  Si  Si20  1  0.38936400  0.00000000  0.60443950  1
  Si  Si21  1  0.53307850  0.50000000  0.87847700  1
  Si  Si22  1  0.62212500  0.00000000  0.69911050  1
  Si  Si23  1  0.90297700  0.50000000  0.69942550  1
  Si  Si24  1  0.39795600  0.50000000  0.60018450  1
  Si  Si25  1  0.03307850  0.00000000  0.62152300  1
  Si  Si26  1  0.88936400  0.50000000  0.89556050  1
  Si  Si27  1  0.12212500  0.50000000  0.80088950  1
  Si  Si28  1  0.40297700  0.00000000  0.80057450  1
  Si  Si29  1  0.56820500  0.00000000  0.50000000  1
  Si  Si30  1  0.04331100  0.00000000  0.78484750  1
  Si  Si31  1  0.89795600  0.00000000  0.89981550  1
  Si  Si32  1  0.91891400  0.00000000  0.50000000  1
  Si  Si33  1  0.61177600  0.50000000  0.50000000  1
  Si  Si34  1  0.54331100  0.50000000  0.71515250  1
  Si  Si35  1  0.54252850  0.00000000  0.91816400  1
  Si  Si36  1  0.04252850  0.50000000  0.58183600  1
  Si  Si37  1  0.88936400  0.50000000  0.10443950  1
  Si  Si38  1  0.03307850  0.00000000  0.37847700  1
  Si  Si39  1  0.12212500  0.50000000  0.19911050  1
  Si  Si40  1  0.40297700  0.00000000  0.19942550  1
  Si  Si41  1  0.89795600  0.00000000  0.10018450  1
  Si  Si42  1  0.53307850  0.50000000  0.12152300  1
  Si  Si43  1  0.38936400  0.00000000  0.39556050  1
  Si  Si44  1  0.62212500  0.00000000  0.30088950  1
  Si  Si45  1  0.90297700  0.50000000  0.30057450  1
  Si  Si46  1  0.06820500  0.50000000  0.00000000  1
  Si  Si47  1  0.54331100  0.50000000  0.28484750  1
  Si  Si48  1  0.39795600  0.50000000  0.39981550  1
  Si  Si49  1  0.41891400  0.50000000  0.00000000  1
  Si  Si50  1  0.11177600  0.00000000  0.00000000  1
  Si  Si51  1  0.04331100  0.00000000  0.21515250  1
  Si  Si52  1  0.04252850  0.50000000  0.41816400  1
  Si  Si53  1  0.54252850  0.00000000  0.08183600  1
