# generated using pymatgen
data_U4Re7Si6
_symmetry_space_group_name_H-M   'P 1'
_cell_length_a   8.25480200
_cell_length_b   8.25480200
_cell_length_c   8.25480200
_cell_angle_alpha   90.00000000
_cell_angle_beta   90.00000000
_cell_angle_gamma   90.00000000
_symmetry_Int_Tables_number   1
_chemical_formula_structural   U4Re7Si6
_chemical_formula_sum   'U8 Re14 Si12'
_cell_volume   562.49670420
_cell_formula_units_Z   2
loop_
 _symmetry_equiv_pos_site_id
 _symmetry_equiv_pos_as_xyz
  1  'x, y, z'
loop_
 _atom_site_type_symbol
 _atom_site_label
 _atom_site_symmetry_multiplicity
 _atom_site_fract_x
 _atom_site_fract_y
 _atom_site_fract_z
 _atom_site_occupancy
  U  U0  1  0.25000000  0.25000000  0.25000000  1
  U  U1  1  0.25000000  0.25000000  0.75000000  1
  U  U2  1  0.75000000  0.25000000  0.25000000  1
  U  U3  1  0.25000000  0.75000000  0.25000000  1
  U  U4  1  0.75000000  0.75000000  0.75000000  1
  U  U5  1  0.75000000  0.75000000  0.25000000  1
  U  U6  1  0.25000000  0.75000000  0.75000000  1
  U  U7  1  0.75000000  0.25000000  0.75000000  1
  Re  Re8  1  0.00000000  0.50000000  0.25000000  1
  Re  Re9  1  0.25000000  0.50000000  0.00000000  1
  Re  Re10  1  0.25000000  0.00000000  0.50000000  1
  Re  Re11  1  0.50000000  0.25000000  0.00000000  1
  Re  Re12  1  0.00000000  0.25000000  0.50000000  1
  Re  Re13  1  0.50000000  0.00000000  0.25000000  1
  Re  Re14  1  0.00000000  0.00000000  0.00000000  1
  Re  Re15  1  0.50000000  0.00000000  0.75000000  1
  Re  Re16  1  0.75000000  0.00000000  0.50000000  1
  Re  Re17  1  0.75000000  0.50000000  0.00000000  1
  Re  Re18  1  0.00000000  0.75000000  0.50000000  1
  Re  Re19  1  0.50000000  0.75000000  0.00000000  1
  Re  Re20  1  0.00000000  0.50000000  0.75000000  1
  Re  Re21  1  0.50000000  0.50000000  0.50000000  1
  Si  Si22  1  0.00000000  0.00000000  0.30958600  1
  Si  Si23  1  0.30958600  0.00000000  0.00000000  1
  Si  Si24  1  0.69041400  0.00000000  0.00000000  1
  Si  Si25  1  0.00000000  0.69041400  0.00000000  1
  Si  Si26  1  0.00000000  0.30958600  0.00000000  1
  Si  Si27  1  0.00000000  0.00000000  0.69041400  1
  Si  Si28  1  0.50000000  0.50000000  0.80958600  1
  Si  Si29  1  0.80958600  0.50000000  0.50000000  1
  Si  Si30  1  0.19041400  0.50000000  0.50000000  1
  Si  Si31  1  0.50000000  0.19041400  0.50000000  1
  Si  Si32  1  0.50000000  0.80958600  0.50000000  1
  Si  Si33  1  0.50000000  0.50000000  0.19041400  1
