# generated using pymatgen
data_K(RuO2)4
_symmetry_space_group_name_H-M   'P 1'
_cell_length_a   9.98499400
_cell_length_b   9.98499400
_cell_length_c   3.18430200
_cell_angle_alpha   90.00000000
_cell_angle_beta   90.00000000
_cell_angle_gamma   90.00000000
_symmetry_Int_Tables_number   1
_chemical_formula_structural   K(RuO2)4
_chemical_formula_sum   'K2 Ru8 O16'
_cell_volume   317.47524432
_cell_formula_units_Z   2
loop_
 _symmetry_equiv_pos_site_id
 _symmetry_equiv_pos_as_xyz
  1  'x, y, z'
loop_
 _atom_site_type_symbol
 _atom_site_label
 _atom_site_symmetry_multiplicity
 _atom_site_fract_x
 _atom_site_fract_y
 _atom_site_fract_z
 _atom_site_occupancy
  K  K0  1  0.00000000  0.00000000  0.50000000  1
  K  K1  1  0.50000000  0.50000000  0.00000000  1
  Ru  Ru2  1  0.35195400  0.16670000  0.00000000  1
  Ru  Ru3  1  0.64804600  0.83330000  0.00000000  1
  Ru  Ru4  1  0.33330000  0.85195400  0.50000000  1
  Ru  Ru5  1  0.66670000  0.14804600  0.50000000  1
  Ru  Ru6  1  0.85195400  0.66670000  0.50000000  1
  Ru  Ru7  1  0.14804600  0.33330000  0.50000000  1
  Ru  Ru8  1  0.83330000  0.35195400  0.00000000  1
  Ru  Ru9  1  0.16670000  0.64804600  0.00000000  1
  O  O10  1  0.65613100  0.95339100  0.50000000  1
  O  O11  1  0.54660900  0.15613100  0.00000000  1
  O  O12  1  0.45339100  0.84386900  0.00000000  1
  O  O13  1  0.34386900  0.04660900  0.50000000  1
  O  O14  1  0.20026400  0.84953000  0.00000000  1
  O  O15  1  0.79973600  0.15047000  0.00000000  1
  O  O16  1  0.34953000  0.29973600  0.50000000  1
  O  O17  1  0.65047000  0.70026400  0.50000000  1
  O  O18  1  0.15613100  0.45339100  0.00000000  1
  O  O19  1  0.04660900  0.65613100  0.50000000  1
  O  O20  1  0.95339100  0.34386900  0.50000000  1
  O  O21  1  0.84386900  0.54660900  0.00000000  1
  O  O22  1  0.70026400  0.34953000  0.50000000  1
  O  O23  1  0.29973600  0.65047000  0.50000000  1
  O  O24  1  0.84953000  0.79973600  0.00000000  1
  O  O25  1  0.15047000  0.20026400  0.00000000  1
