# generated using pymatgen
data_Ta3(BiS3)2
_symmetry_space_group_name_H-M   'P 1'
_cell_length_a   5.75922051
_cell_length_b   5.75922051
_cell_length_c   17.58442900
_cell_angle_alpha   90.00000000
_cell_angle_beta   90.00000000
_cell_angle_gamma   120.00000000
_symmetry_Int_Tables_number   1
_chemical_formula_structural   Ta3(BiS3)2
_chemical_formula_sum   'Ta6 Bi4 S12'
_cell_volume   505.11040675
_cell_formula_units_Z   2
loop_
 _symmetry_equiv_pos_site_id
 _symmetry_equiv_pos_as_xyz
  1  'x, y, z'
loop_
 _atom_site_type_symbol
 _atom_site_label
 _atom_site_symmetry_multiplicity
 _atom_site_fract_x
 _atom_site_fract_y
 _atom_site_fract_z
 _atom_site_occupancy
  Ta  Ta0  1  0.67350500  0.00000000  0.25000000  1
  Ta  Ta1  1  0.00000000  0.67350500  0.25000000  1
  Ta  Ta2  1  0.32649500  0.32649500  0.25000000  1
  Ta  Ta3  1  0.32649500  0.00000000  0.75000000  1
  Ta  Ta4  1  0.00000000  0.32649500  0.75000000  1
  Ta  Ta5  1  0.67350500  0.67350500  0.75000000  1
  Bi  Bi6  1  0.33333333  0.66666667  0.50000000  1
  Bi  Bi7  1  0.66666667  0.33333333  0.50000000  1
  Bi  Bi8  1  0.66666667  0.33333333  0.00000000  1
  Bi  Bi9  1  0.33333333  0.66666667  0.00000000  1
  S  S10  1  0.00000000  0.00000000  0.34110100  1
  S  S11  1  0.00000000  0.00000000  0.65889900  1
  S  S12  1  0.00000000  0.00000000  0.84110100  1
  S  S13  1  0.00000000  0.00000000  0.15889900  1
  S  S14  1  0.33333333  0.66666667  0.33760400  1
  S  S15  1  0.66666667  0.33333333  0.33760400  1
  S  S16  1  0.66666667  0.33333333  0.66239600  1
  S  S17  1  0.33333333  0.66666667  0.66239600  1
  S  S18  1  0.66666667  0.33333333  0.83760400  1
  S  S19  1  0.33333333  0.66666667  0.83760400  1
  S  S20  1  0.33333333  0.66666667  0.16239600  1
  S  S21  1  0.66666667  0.33333333  0.16239600  1
