# generated using pymatgen
data_K2CoS2
_symmetry_space_group_name_H-M   'P 1'
_cell_length_a   5.94081200
_cell_length_b   6.81663400
_cell_length_c   12.70249800
_cell_angle_alpha   90.00000000
_cell_angle_beta   90.00000000
_cell_angle_gamma   90.00000000
_symmetry_Int_Tables_number   1
_chemical_formula_structural   K2CoS2
_chemical_formula_sum   'K8 Co4 S8'
_cell_volume   514.40469141
_cell_formula_units_Z   4
loop_
 _symmetry_equiv_pos_site_id
 _symmetry_equiv_pos_as_xyz
  1  'x, y, z'
loop_
 _atom_site_type_symbol
 _atom_site_label
 _atom_site_symmetry_multiplicity
 _atom_site_fract_x
 _atom_site_fract_y
 _atom_site_fract_z
 _atom_site_occupancy
  K  K0  1  0.50000000  0.33324700  0.14627900  1
  K  K1  1  0.00000000  0.16675300  0.35372100  1
  K  K2  1  0.00000000  0.66675300  0.14627900  1
  K  K3  1  0.50000000  0.83324700  0.35372100  1
  K  K4  1  0.00000000  0.83324700  0.64627900  1
  K  K5  1  0.50000000  0.66675300  0.85372100  1
  K  K6  1  0.50000000  0.16675300  0.64627900  1
  K  K7  1  0.00000000  0.33324700  0.85372100  1
  Co  Co8  1  0.25000000  0.00000000  0.00000000  1
  Co  Co9  1  0.75000000  0.00000000  0.00000000  1
  Co  Co10  1  0.75000000  0.50000000  0.50000000  1
  Co  Co11  1  0.25000000  0.50000000  0.50000000  1
  S  S12  1  0.50000000  0.81863500  0.09891900  1
  S  S13  1  0.00000000  0.68136500  0.40108100  1
  S  S14  1  0.50000000  0.31863500  0.40108100  1
  S  S15  1  0.00000000  0.18136500  0.09891900  1
  S  S16  1  0.00000000  0.31863500  0.59891900  1
  S  S17  1  0.50000000  0.18136500  0.90108100  1
  S  S18  1  0.00000000  0.81863500  0.90108100  1
  S  S19  1  0.50000000  0.68136500  0.59891900  1
