# generated using pymatgen
data_Mg44Ir7
_symmetry_space_group_name_H-M   'P 1'
_cell_length_a   20.09835800
_cell_length_b   20.09835800
_cell_length_c   20.09835800
_cell_angle_alpha   90.00000000
_cell_angle_beta   90.00000000
_cell_angle_gamma   90.00000000
_symmetry_Int_Tables_number   1
_chemical_formula_structural   Mg44Ir7
_chemical_formula_sum   'Mg352 Ir56'
_cell_volume   8118.61100931
_cell_formula_units_Z   8
loop_
 _symmetry_equiv_pos_site_id
 _symmetry_equiv_pos_as_xyz
  1  'x, y, z'
loop_
 _atom_site_type_symbol
 _atom_site_label
 _atom_site_symmetry_multiplicity
 _atom_site_fract_x
 _atom_site_fract_y
 _atom_site_fract_z
 _atom_site_occupancy
  Mg  Mg0  1  0.98018200  0.30602350  0.80602350  1
  Mg  Mg1  1  0.94786975  0.44786975  0.83829050  1
  Mg  Mg2  1  0.14417000  0.25000000  0.25000000  1
  Mg  Mg3  1  0.89229200  0.21551200  0.89229200  1
  Mg  Mg4  1  0.44786975  0.05213025  0.16170950  1
  Mg  Mg5  1  0.80602350  0.48018200  0.80602350  1
  Mg  Mg6  1  0.83829050  0.44786975  0.94786975  1
  Mg  Mg7  1  0.55213025  0.16170950  0.94786975  1
  Mg  Mg8  1  0.06173900  0.43826100  0.93826100  1
  Mg  Mg9  1  0.09716750  0.40283250  0.78057600  1
  Mg  Mg10  1  0.05189300  0.44810700  0.55189300  1
  Mg  Mg11  1  0.81955100  0.00000000  0.00000000  1
  Mg  Mg12  1  0.30358600  0.30358600  0.69641400  1
  Mg  Mg13  1  0.01981800  0.30602350  0.19397650  1
  Mg  Mg14  1  0.66170950  0.05213025  0.94786975  1
  Mg  Mg15  1  0.15708475  0.15708475  0.97957250  1
  Mg  Mg16  1  0.09716750  0.28057600  0.90283250  1
  Mg  Mg17  1  0.05213025  0.44786975  0.16170950  1
  Mg  Mg18  1  0.51981800  0.19397650  0.80602350  1
  Mg  Mg19  1  0.34291525  0.02042750  0.65708475  1
  Mg  Mg20  1  0.71551200  0.39229200  0.89229200  1
  Mg  Mg21  1  0.93826100  0.43826100  0.06173900  1
  Mg  Mg22  1  0.05189300  0.05189300  0.94810700  1
  Mg  Mg23  1  0.19397650  0.48018200  0.19397650  1
  Mg  Mg24  1  0.50000000  0.00000000  0.68044900  1
  Mg  Mg25  1  0.55213025  0.05213025  0.83829050  1
  Mg  Mg26  1  0.44810700  0.05189300  0.55189300  1
  Mg  Mg27  1  0.43826100  0.06173900  0.93826100  1
  Mg  Mg28  1  0.69397650  0.19397650  0.98018200  1
  Mg  Mg29  1  0.30602350  0.01981800  0.19397650  1
  Mg  Mg30  1  0.05213025  0.33829050  0.05213025  1
  Mg  Mg31  1  0.34291525  0.15708475  0.52042750  1
  Mg  Mg32  1  0.56173900  0.06173900  0.06173900  1
  Mg  Mg33  1  0.34291525  0.34291525  0.97957250  1
  Mg  Mg34  1  0.15708475  0.02042750  0.84291525  1
  Mg  Mg35  1  0.16717733  0.16717733  0.83282267  1
  Mg  Mg36  1  0.39229200  0.10770800  0.28448800  1
  Mg  Mg37  1  0.28448800  0.39229200  0.10770800  1
  Mg  Mg38  1  0.60770800  0.28448800  0.89229200  1
  Mg  Mg39  1  0.19641400  0.30358600  0.80358600  1
  Mg  Mg40  1  0.10770800  0.21551200  0.10770800  1
  Mg  Mg41  1  0.21942400  0.40283250  0.90283250  1
  Mg  Mg42  1  0.18044900  0.00000000  0.00000000  1
  Mg  Mg43  1  0.25000000  0.14417000  0.25000000  1
  Mg  Mg44  1  0.89229200  0.39229200  0.71551200  1
  Mg  Mg45  1  0.00000000  0.18044900  0.00000000  1
  Mg  Mg46  1  0.16717733  0.33282267  0.66717733  1
  Mg  Mg47  1  0.25000000  0.35583000  0.25000000  1
  Mg  Mg48  1  0.19641400  0.19641400  0.69641400  1
  Mg  Mg49  1  0.40283250  0.09716750  0.78057600  1
  Mg  Mg50  1  0.21551200  0.10770800  0.10770800  1
  Mg  Mg51  1  0.30602350  0.19397650  0.01981800  1
  Mg  Mg52  1  0.33282267  0.16717733  0.66717733  1
  Mg  Mg53  1  0.02042750  0.34291525  0.65708475  1
  Mg  Mg54  1  0.15708475  0.47957250  0.65708475  1
  Mg  Mg55  1  0.59716750  0.09716750  0.21942400  1
  Mg  Mg56  1  0.50000000  0.00000000  0.31955100  1
  Mg  Mg57  1  0.15708475  0.34291525  0.52042750  1
  Mg  Mg58  1  0.33829050  0.05213025  0.05213025  1
  Mg  Mg59  1  0.02042750  0.15708475  0.84291525  1
  Mg  Mg60  1  0.34291525  0.47957250  0.84291525  1
  Mg  Mg61  1  0.71942400  0.09716750  0.09716750  1
  Mg  Mg62  1  0.80602350  0.30602350  0.98018200  1
  Mg  Mg63  1  0.35583000  0.25000000  0.25000000  1
  Mg  Mg64  1  0.48018200  0.19397650  0.19397650  1
  Mg  Mg65  1  0.59716750  0.21942400  0.09716750  1
  Mg  Mg66  1  0.78057600  0.40283250  0.09716750  1
  Mg  Mg67  1  0.90283250  0.40283250  0.21942400  1
  Mg  Mg68  1  0.28057600  0.09716750  0.90283250  1
  Mg  Mg69  1  0.33282267  0.33282267  0.83282267  1
  Mg  Mg70  1  0.47957250  0.34291525  0.84291525  1
  Mg  Mg71  1  0.16170950  0.44786975  0.05213025  1
  Mg  Mg72  1  0.47957250  0.15708475  0.65708475  1
  Mg  Mg73  1  0.25000000  0.25000000  0.35583000  1
  Mg  Mg74  1  0.10770800  0.39229200  0.28448800  1
  Mg  Mg75  1  0.78448800  0.10770800  0.89229200  1
  Mg  Mg76  1  0.25000000  0.25000000  0.14417000  1
  Mg  Mg77  1  0.50000000  0.31955100  0.00000000  1
  Mg  Mg78  1  0.44810700  0.44810700  0.94810700  1
  Mg  Mg79  1  0.39229200  0.28448800  0.10770800  1
  Mg  Mg80  1  0.40283250  0.21942400  0.90283250  1
  Mg  Mg81  1  0.69397650  0.01981800  0.80602350  1
  Mg  Mg82  1  0.94786975  0.33829050  0.94786975  1
  Mg  Mg83  1  0.90283250  0.28057600  0.09716750  1
  Mg  Mg84  1  0.44786975  0.16170950  0.05213025  1
  Mg  Mg85  1  0.19397650  0.30602350  0.01981800  1
  Mg  Mg86  1  0.60770800  0.10770800  0.71551200  1
  Mg  Mg87  1  0.30358600  0.19641400  0.80358600  1
  Mg  Mg88  1  0.98018200  0.80602350  0.30602350  1
  Mg  Mg89  1  0.94786975  0.94786975  0.33829050  1
  Mg  Mg90  1  0.14417000  0.75000000  0.75000000  1
  Mg  Mg91  1  0.89229200  0.71551200  0.39229200  1
  Mg  Mg92  1  0.44786975  0.55213025  0.66170950  1
  Mg  Mg93  1  0.80602350  0.98018200  0.30602350  1
  Mg  Mg94  1  0.83829050  0.94786975  0.44786975  1
  Mg  Mg95  1  0.55213025  0.66170950  0.44786975  1
  Mg  Mg96  1  0.06173900  0.93826100  0.43826100  1
  Mg  Mg97  1  0.09716750  0.90283250  0.28057600  1
  Mg  Mg98  1  0.05189300  0.94810700  0.05189300  1
  Mg  Mg99  1  0.81955100  0.50000000  0.50000000  1
  Mg  Mg100  1  0.30358600  0.80358600  0.19641400  1
  Mg  Mg101  1  0.01981800  0.80602350  0.69397650  1
  Mg  Mg102  1  0.66170950  0.55213025  0.44786975  1
  Mg  Mg103  1  0.15708475  0.65708475  0.47957250  1
  Mg  Mg104  1  0.09716750  0.78057600  0.40283250  1
  Mg  Mg105  1  0.05213025  0.94786975  0.66170950  1
  Mg  Mg106  1  0.51981800  0.69397650  0.30602350  1
  Mg  Mg107  1  0.34291525  0.52042750  0.15708475  1
  Mg  Mg108  1  0.71551200  0.89229200  0.39229200  1
  Mg  Mg109  1  0.93826100  0.93826100  0.56173900  1
  Mg  Mg110  1  0.05189300  0.55189300  0.44810700  1
  Mg  Mg111  1  0.19397650  0.98018200  0.69397650  1
  Mg  Mg112  1  0.50000000  0.50000000  0.18044900  1
  Mg  Mg113  1  0.55213025  0.55213025  0.33829050  1
  Mg  Mg114  1  0.44810700  0.55189300  0.05189300  1
  Mg  Mg115  1  0.43826100  0.56173900  0.43826100  1
  Mg  Mg116  1  0.69397650  0.69397650  0.48018200  1
  Mg  Mg117  1  0.30602350  0.51981800  0.69397650  1
  Mg  Mg118  1  0.05213025  0.83829050  0.55213025  1
  Mg  Mg119  1  0.34291525  0.65708475  0.02042750  1
  Mg  Mg120  1  0.56173900  0.56173900  0.56173900  1
  Mg  Mg121  1  0.34291525  0.84291525  0.47957250  1
  Mg  Mg122  1  0.15708475  0.52042750  0.34291525  1
  Mg  Mg123  1  0.16717733  0.66717733  0.33282267  1
  Mg  Mg124  1  0.39229200  0.60770800  0.78448800  1
  Mg  Mg125  1  0.28448800  0.89229200  0.60770800  1
  Mg  Mg126  1  0.60770800  0.78448800  0.39229200  1
  Mg  Mg127  1  0.19641400  0.80358600  0.30358600  1
  Mg  Mg128  1  0.10770800  0.71551200  0.60770800  1
  Mg  Mg129  1  0.21942400  0.90283250  0.40283250  1
  Mg  Mg130  1  0.18044900  0.50000000  0.50000000  1
  Mg  Mg131  1  0.25000000  0.64417000  0.75000000  1
  Mg  Mg132  1  0.89229200  0.89229200  0.21551200  1
  Mg  Mg133  1  0.00000000  0.68044900  0.50000000  1
  Mg  Mg134  1  0.16717733  0.83282267  0.16717733  1
  Mg  Mg135  1  0.25000000  0.85583000  0.75000000  1
  Mg  Mg136  1  0.19641400  0.69641400  0.19641400  1
  Mg  Mg137  1  0.40283250  0.59716750  0.28057600  1
  Mg  Mg138  1  0.21551200  0.60770800  0.60770800  1
  Mg  Mg139  1  0.30602350  0.69397650  0.51981800  1
  Mg  Mg140  1  0.33282267  0.66717733  0.16717733  1
  Mg  Mg141  1  0.02042750  0.84291525  0.15708475  1
  Mg  Mg142  1  0.15708475  0.97957250  0.15708475  1
  Mg  Mg143  1  0.59716750  0.59716750  0.71942400  1
  Mg  Mg144  1  0.50000000  0.50000000  0.81955100  1
  Mg  Mg145  1  0.15708475  0.84291525  0.02042750  1
  Mg  Mg146  1  0.33829050  0.55213025  0.55213025  1
  Mg  Mg147  1  0.02042750  0.65708475  0.34291525  1
  Mg  Mg148  1  0.34291525  0.97957250  0.34291525  1
  Mg  Mg149  1  0.71942400  0.59716750  0.59716750  1
  Mg  Mg150  1  0.80602350  0.80602350  0.48018200  1
  Mg  Mg151  1  0.35583000  0.75000000  0.75000000  1
  Mg  Mg152  1  0.48018200  0.69397650  0.69397650  1
  Mg  Mg153  1  0.59716750  0.71942400  0.59716750  1
  Mg  Mg154  1  0.78057600  0.90283250  0.59716750  1
  Mg  Mg155  1  0.90283250  0.90283250  0.71942400  1
  Mg  Mg156  1  0.28057600  0.59716750  0.40283250  1
  Mg  Mg157  1  0.33282267  0.83282267  0.33282267  1
  Mg  Mg158  1  0.47957250  0.84291525  0.34291525  1
  Mg  Mg159  1  0.16170950  0.94786975  0.55213025  1
  Mg  Mg160  1  0.47957250  0.65708475  0.15708475  1
  Mg  Mg161  1  0.25000000  0.75000000  0.85583000  1
  Mg  Mg162  1  0.10770800  0.89229200  0.78448800  1
  Mg  Mg163  1  0.78448800  0.60770800  0.39229200  1
  Mg  Mg164  1  0.25000000  0.75000000  0.64417000  1
  Mg  Mg165  1  0.50000000  0.81955100  0.50000000  1
  Mg  Mg166  1  0.44810700  0.94810700  0.44810700  1
  Mg  Mg167  1  0.39229200  0.78448800  0.60770800  1
  Mg  Mg168  1  0.40283250  0.71942400  0.40283250  1
  Mg  Mg169  1  0.69397650  0.51981800  0.30602350  1
  Mg  Mg170  1  0.94786975  0.83829050  0.44786975  1
  Mg  Mg171  1  0.90283250  0.78057600  0.59716750  1
  Mg  Mg172  1  0.44786975  0.66170950  0.55213025  1
  Mg  Mg173  1  0.19397650  0.80602350  0.51981800  1
  Mg  Mg174  1  0.60770800  0.60770800  0.21551200  1
  Mg  Mg175  1  0.30358600  0.69641400  0.30358600  1
  Mg  Mg176  1  0.48018200  0.30602350  0.30602350  1
  Mg  Mg177  1  0.44786975  0.44786975  0.33829050  1
  Mg  Mg178  1  0.64417000  0.25000000  0.75000000  1
  Mg  Mg179  1  0.39229200  0.21551200  0.39229200  1
  Mg  Mg180  1  0.94786975  0.05213025  0.66170950  1
  Mg  Mg181  1  0.30602350  0.48018200  0.30602350  1
  Mg  Mg182  1  0.33829050  0.44786975  0.44786975  1
  Mg  Mg183  1  0.05213025  0.16170950  0.44786975  1
  Mg  Mg184  1  0.56173900  0.43826100  0.43826100  1
  Mg  Mg185  1  0.59716750  0.40283250  0.28057600  1
  Mg  Mg186  1  0.55189300  0.44810700  0.05189300  1
  Mg  Mg187  1  0.31955100  0.00000000  0.50000000  1
  Mg  Mg188  1  0.80358600  0.30358600  0.19641400  1
  Mg  Mg189  1  0.51981800  0.30602350  0.69397650  1
  Mg  Mg190  1  0.16170950  0.05213025  0.44786975  1
  Mg  Mg191  1  0.65708475  0.15708475  0.47957250  1
  Mg  Mg192  1  0.59716750  0.28057600  0.40283250  1
  Mg  Mg193  1  0.55213025  0.44786975  0.66170950  1
  Mg  Mg194  1  0.01981800  0.19397650  0.30602350  1
  Mg  Mg195  1  0.84291525  0.02042750  0.15708475  1
  Mg  Mg196  1  0.21551200  0.39229200  0.39229200  1
  Mg  Mg197  1  0.43826100  0.43826100  0.56173900  1
  Mg  Mg198  1  0.55189300  0.05189300  0.44810700  1
  Mg  Mg199  1  0.69397650  0.48018200  0.69397650  1
  Mg  Mg200  1  0.00000000  0.00000000  0.18044900  1
  Mg  Mg201  1  0.05213025  0.05213025  0.33829050  1
  Mg  Mg202  1  0.94810700  0.05189300  0.05189300  1
  Mg  Mg203  1  0.93826100  0.06173900  0.43826100  1
  Mg  Mg204  1  0.19397650  0.19397650  0.48018200  1
  Mg  Mg205  1  0.80602350  0.01981800  0.69397650  1
  Mg  Mg206  1  0.55213025  0.33829050  0.55213025  1
  Mg  Mg207  1  0.84291525  0.15708475  0.02042750  1
  Mg  Mg208  1  0.06173900  0.06173900  0.56173900  1
  Mg  Mg209  1  0.84291525  0.34291525  0.47957250  1
  Mg  Mg210  1  0.65708475  0.02042750  0.34291525  1
  Mg  Mg211  1  0.66717733  0.16717733  0.33282267  1
  Mg  Mg212  1  0.89229200  0.10770800  0.78448800  1
  Mg  Mg213  1  0.78448800  0.39229200  0.60770800  1
  Mg  Mg214  1  0.10770800  0.28448800  0.39229200  1
  Mg  Mg215  1  0.69641400  0.30358600  0.30358600  1
  Mg  Mg216  1  0.60770800  0.21551200  0.60770800  1
  Mg  Mg217  1  0.71942400  0.40283250  0.40283250  1
  Mg  Mg218  1  0.68044900  0.00000000  0.50000000  1
  Mg  Mg219  1  0.75000000  0.14417000  0.75000000  1
  Mg  Mg220  1  0.39229200  0.39229200  0.21551200  1
  Mg  Mg221  1  0.50000000  0.18044900  0.50000000  1
  Mg  Mg222  1  0.66717733  0.33282267  0.16717733  1
  Mg  Mg223  1  0.75000000  0.35583000  0.75000000  1
  Mg  Mg224  1  0.69641400  0.19641400  0.19641400  1
  Mg  Mg225  1  0.90283250  0.09716750  0.28057600  1
  Mg  Mg226  1  0.71551200  0.10770800  0.60770800  1
  Mg  Mg227  1  0.80602350  0.19397650  0.51981800  1
  Mg  Mg228  1  0.83282267  0.16717733  0.16717733  1
  Mg  Mg229  1  0.52042750  0.34291525  0.15708475  1
  Mg  Mg230  1  0.65708475  0.47957250  0.15708475  1
  Mg  Mg231  1  0.09716750  0.09716750  0.71942400  1
  Mg  Mg232  1  0.00000000  0.00000000  0.81955100  1
  Mg  Mg233  1  0.65708475  0.34291525  0.02042750  1
  Mg  Mg234  1  0.83829050  0.05213025  0.55213025  1
  Mg  Mg235  1  0.52042750  0.15708475  0.34291525  1
  Mg  Mg236  1  0.84291525  0.47957250  0.34291525  1
  Mg  Mg237  1  0.21942400  0.09716750  0.59716750  1
  Mg  Mg238  1  0.30602350  0.30602350  0.48018200  1
  Mg  Mg239  1  0.85583000  0.25000000  0.75000000  1
  Mg  Mg240  1  0.98018200  0.19397650  0.69397650  1
  Mg  Mg241  1  0.09716750  0.21942400  0.59716750  1
  Mg  Mg242  1  0.28057600  0.40283250  0.59716750  1
  Mg  Mg243  1  0.40283250  0.40283250  0.71942400  1
  Mg  Mg244  1  0.78057600  0.09716750  0.40283250  1
  Mg  Mg245  1  0.83282267  0.33282267  0.33282267  1
  Mg  Mg246  1  0.97957250  0.34291525  0.34291525  1
  Mg  Mg247  1  0.66170950  0.44786975  0.55213025  1
  Mg  Mg248  1  0.97957250  0.15708475  0.15708475  1
  Mg  Mg249  1  0.75000000  0.25000000  0.85583000  1
  Mg  Mg250  1  0.60770800  0.39229200  0.78448800  1
  Mg  Mg251  1  0.28448800  0.10770800  0.39229200  1
  Mg  Mg252  1  0.75000000  0.25000000  0.64417000  1
  Mg  Mg253  1  0.00000000  0.31955100  0.50000000  1
  Mg  Mg254  1  0.94810700  0.44810700  0.44810700  1
  Mg  Mg255  1  0.89229200  0.28448800  0.60770800  1
  Mg  Mg256  1  0.90283250  0.21942400  0.40283250  1
  Mg  Mg257  1  0.19397650  0.01981800  0.30602350  1
  Mg  Mg258  1  0.44786975  0.33829050  0.44786975  1
  Mg  Mg259  1  0.40283250  0.28057600  0.59716750  1
  Mg  Mg260  1  0.94786975  0.16170950  0.55213025  1
  Mg  Mg261  1  0.69397650  0.30602350  0.51981800  1
  Mg  Mg262  1  0.10770800  0.10770800  0.21551200  1
  Mg  Mg263  1  0.80358600  0.19641400  0.30358600  1
  Mg  Mg264  1  0.48018200  0.80602350  0.80602350  1
  Mg  Mg265  1  0.44786975  0.94786975  0.83829050  1
  Mg  Mg266  1  0.64417000  0.75000000  0.25000000  1
  Mg  Mg267  1  0.39229200  0.71551200  0.89229200  1
  Mg  Mg268  1  0.94786975  0.55213025  0.16170950  1
  Mg  Mg269  1  0.30602350  0.98018200  0.80602350  1
  Mg  Mg270  1  0.33829050  0.94786975  0.94786975  1
  Mg  Mg271  1  0.05213025  0.66170950  0.94786975  1
  Mg  Mg272  1  0.56173900  0.93826100  0.93826100  1
  Mg  Mg273  1  0.59716750  0.90283250  0.78057600  1
  Mg  Mg274  1  0.55189300  0.94810700  0.55189300  1
  Mg  Mg275  1  0.31955100  0.50000000  0.00000000  1
  Mg  Mg276  1  0.80358600  0.80358600  0.69641400  1
  Mg  Mg277  1  0.51981800  0.80602350  0.19397650  1
  Mg  Mg278  1  0.16170950  0.55213025  0.94786975  1
  Mg  Mg279  1  0.65708475  0.65708475  0.97957250  1
  Mg  Mg280  1  0.59716750  0.78057600  0.90283250  1
  Mg  Mg281  1  0.55213025  0.94786975  0.16170950  1
  Mg  Mg282  1  0.01981800  0.69397650  0.80602350  1
  Mg  Mg283  1  0.84291525  0.52042750  0.65708475  1
  Mg  Mg284  1  0.21551200  0.89229200  0.89229200  1
  Mg  Mg285  1  0.43826100  0.93826100  0.06173900  1
  Mg  Mg286  1  0.55189300  0.55189300  0.94810700  1
  Mg  Mg287  1  0.69397650  0.98018200  0.19397650  1
  Mg  Mg288  1  0.00000000  0.50000000  0.68044900  1
  Mg  Mg289  1  0.05213025  0.55213025  0.83829050  1
  Mg  Mg290  1  0.94810700  0.55189300  0.55189300  1
  Mg  Mg291  1  0.93826100  0.56173900  0.93826100  1
  Mg  Mg292  1  0.19397650  0.69397650  0.98018200  1
  Mg  Mg293  1  0.80602350  0.51981800  0.19397650  1
  Mg  Mg294  1  0.55213025  0.83829050  0.05213025  1
  Mg  Mg295  1  0.84291525  0.65708475  0.52042750  1
  Mg  Mg296  1  0.06173900  0.56173900  0.06173900  1
  Mg  Mg297  1  0.84291525  0.84291525  0.97957250  1
  Mg  Mg298  1  0.65708475  0.52042750  0.84291525  1
  Mg  Mg299  1  0.66717733  0.66717733  0.83282267  1
  Mg  Mg300  1  0.89229200  0.60770800  0.28448800  1
  Mg  Mg301  1  0.78448800  0.89229200  0.10770800  1
  Mg  Mg302  1  0.10770800  0.78448800  0.89229200  1
  Mg  Mg303  1  0.69641400  0.80358600  0.80358600  1
  Mg  Mg304  1  0.60770800  0.71551200  0.10770800  1
  Mg  Mg305  1  0.71942400  0.90283250  0.90283250  1
  Mg  Mg306  1  0.68044900  0.50000000  0.00000000  1
  Mg  Mg307  1  0.75000000  0.64417000  0.25000000  1
  Mg  Mg308  1  0.39229200  0.89229200  0.71551200  1
  Mg  Mg309  1  0.50000000  0.68044900  0.00000000  1
  Mg  Mg310  1  0.66717733  0.83282267  0.66717733  1
  Mg  Mg311  1  0.75000000  0.85583000  0.25000000  1
  Mg  Mg312  1  0.69641400  0.69641400  0.69641400  1
  Mg  Mg313  1  0.90283250  0.59716750  0.78057600  1
  Mg  Mg314  1  0.71551200  0.60770800  0.10770800  1
  Mg  Mg315  1  0.80602350  0.69397650  0.01981800  1
  Mg  Mg316  1  0.83282267  0.66717733  0.66717733  1
  Mg  Mg317  1  0.52042750  0.84291525  0.65708475  1
  Mg  Mg318  1  0.65708475  0.97957250  0.65708475  1
  Mg  Mg319  1  0.09716750  0.59716750  0.21942400  1
  Mg  Mg320  1  0.00000000  0.50000000  0.31955100  1
  Mg  Mg321  1  0.65708475  0.84291525  0.52042750  1
  Mg  Mg322  1  0.83829050  0.55213025  0.05213025  1
  Mg  Mg323  1  0.52042750  0.65708475  0.84291525  1
  Mg  Mg324  1  0.84291525  0.97957250  0.84291525  1
  Mg  Mg325  1  0.21942400  0.59716750  0.09716750  1
  Mg  Mg326  1  0.30602350  0.80602350  0.98018200  1
  Mg  Mg327  1  0.85583000  0.75000000  0.25000000  1
  Mg  Mg328  1  0.98018200  0.69397650  0.19397650  1
  Mg  Mg329  1  0.09716750  0.71942400  0.09716750  1
  Mg  Mg330  1  0.28057600  0.90283250  0.09716750  1
  Mg  Mg331  1  0.40283250  0.90283250  0.21942400  1
  Mg  Mg332  1  0.78057600  0.59716750  0.90283250  1
  Mg  Mg333  1  0.83282267  0.83282267  0.83282267  1
  Mg  Mg334  1  0.97957250  0.84291525  0.84291525  1
  Mg  Mg335  1  0.66170950  0.94786975  0.05213025  1
  Mg  Mg336  1  0.97957250  0.65708475  0.65708475  1
  Mg  Mg337  1  0.75000000  0.75000000  0.35583000  1
  Mg  Mg338  1  0.60770800  0.89229200  0.28448800  1
  Mg  Mg339  1  0.28448800  0.60770800  0.89229200  1
  Mg  Mg340  1  0.75000000  0.75000000  0.14417000  1
  Mg  Mg341  1  0.00000000  0.81955100  0.00000000  1
  Mg  Mg342  1  0.94810700  0.94810700  0.94810700  1
  Mg  Mg343  1  0.89229200  0.78448800  0.10770800  1
  Mg  Mg344  1  0.90283250  0.71942400  0.90283250  1
  Mg  Mg345  1  0.19397650  0.51981800  0.80602350  1
  Mg  Mg346  1  0.44786975  0.83829050  0.94786975  1
  Mg  Mg347  1  0.40283250  0.78057600  0.09716750  1
  Mg  Mg348  1  0.94786975  0.66170950  0.05213025  1
  Mg  Mg349  1  0.69397650  0.80602350  0.01981800  1
  Mg  Mg350  1  0.10770800  0.60770800  0.71551200  1
  Mg  Mg351  1  0.80358600  0.69641400  0.80358600  1
  Ir  Ir352  1  0.25000000  0.25000000  0.91367300  1
  Ir  Ir353  1  0.41681167  0.41681167  0.08318833  1
  Ir  Ir354  1  0.84884833  0.34884833  0.84884833  1
  Ir  Ir355  1  0.34884833  0.15115167  0.15115167  1
  Ir  Ir356  1  0.08318833  0.08318833  0.08318833  1
  Ir  Ir357  1  0.41681167  0.08318833  0.41681167  1
  Ir  Ir358  1  0.08318833  0.41681167  0.41681167  1
  Ir  Ir359  1  0.25000000  0.41367300  0.75000000  1
  Ir  Ir360  1  0.25000000  0.25000000  0.58632700  1
  Ir  Ir361  1  0.65115167  0.15115167  0.84884833  1
  Ir  Ir362  1  0.15115167  0.34884833  0.15115167  1
  Ir  Ir363  1  0.25000000  0.08632700  0.75000000  1
  Ir  Ir364  1  0.08632700  0.25000000  0.75000000  1
  Ir  Ir365  1  0.41367300  0.25000000  0.75000000  1
  Ir  Ir366  1  0.25000000  0.75000000  0.41367300  1
  Ir  Ir367  1  0.41681167  0.91681167  0.58318833  1
  Ir  Ir368  1  0.84884833  0.84884833  0.34884833  1
  Ir  Ir369  1  0.34884833  0.65115167  0.65115167  1
  Ir  Ir370  1  0.08318833  0.58318833  0.58318833  1
  Ir  Ir371  1  0.41681167  0.58318833  0.91681167  1
  Ir  Ir372  1  0.08318833  0.91681167  0.91681167  1
  Ir  Ir373  1  0.25000000  0.91367300  0.25000000  1
  Ir  Ir374  1  0.25000000  0.75000000  0.08632700  1
  Ir  Ir375  1  0.65115167  0.65115167  0.34884833  1
  Ir  Ir376  1  0.15115167  0.84884833  0.65115167  1
  Ir  Ir377  1  0.25000000  0.58632700  0.25000000  1
  Ir  Ir378  1  0.08632700  0.75000000  0.25000000  1
  Ir  Ir379  1  0.41367300  0.75000000  0.25000000  1
  Ir  Ir380  1  0.75000000  0.25000000  0.41367300  1
  Ir  Ir381  1  0.91681167  0.41681167  0.58318833  1
  Ir  Ir382  1  0.34884833  0.34884833  0.34884833  1
  Ir  Ir383  1  0.84884833  0.15115167  0.65115167  1
  Ir  Ir384  1  0.58318833  0.08318833  0.58318833  1
  Ir  Ir385  1  0.91681167  0.08318833  0.91681167  1
  Ir  Ir386  1  0.58318833  0.41681167  0.91681167  1
  Ir  Ir387  1  0.75000000  0.41367300  0.25000000  1
  Ir  Ir388  1  0.75000000  0.25000000  0.08632700  1
  Ir  Ir389  1  0.15115167  0.15115167  0.34884833  1
  Ir  Ir390  1  0.65115167  0.34884833  0.65115167  1
  Ir  Ir391  1  0.75000000  0.08632700  0.25000000  1
  Ir  Ir392  1  0.58632700  0.25000000  0.25000000  1
  Ir  Ir393  1  0.91367300  0.25000000  0.25000000  1
  Ir  Ir394  1  0.75000000  0.75000000  0.91367300  1
  Ir  Ir395  1  0.91681167  0.91681167  0.08318833  1
  Ir  Ir396  1  0.34884833  0.84884833  0.84884833  1
  Ir  Ir397  1  0.84884833  0.65115167  0.15115167  1
  Ir  Ir398  1  0.58318833  0.58318833  0.08318833  1
  Ir  Ir399  1  0.91681167  0.58318833  0.41681167  1
  Ir  Ir400  1  0.58318833  0.91681167  0.41681167  1
  Ir  Ir401  1  0.75000000  0.91367300  0.75000000  1
  Ir  Ir402  1  0.75000000  0.75000000  0.58632700  1
  Ir  Ir403  1  0.15115167  0.65115167  0.84884833  1
  Ir  Ir404  1  0.65115167  0.84884833  0.15115167  1
  Ir  Ir405  1  0.75000000  0.58632700  0.75000000  1
  Ir  Ir406  1  0.58632700  0.75000000  0.75000000  1
  Ir  Ir407  1  0.91367300  0.75000000  0.75000000  1
