# generated using pymatgen
data_CaFe5O7
_symmetry_space_group_name_H-M   'P 1'
_cell_length_a   3.09413000
_cell_length_b   10.28135000
_cell_length_c   18.37853900
_cell_angle_alpha   90.00000000
_cell_angle_beta   90.00000000
_cell_angle_gamma   90.00000000
_symmetry_Int_Tables_number   1
_chemical_formula_structural   CaFe5O7
_chemical_formula_sum   'Ca4 Fe20 O28'
_cell_volume   584.65502219
_cell_formula_units_Z   4
loop_
 _symmetry_equiv_pos_site_id
 _symmetry_equiv_pos_as_xyz
  1  'x, y, z'
loop_
 _atom_site_type_symbol
 _atom_site_label
 _atom_site_symmetry_multiplicity
 _atom_site_fract_x
 _atom_site_fract_y
 _atom_site_fract_z
 _atom_site_occupancy
  Ca  Ca0  1  0.50000000  0.28916800  0.25000000  1
  Ca  Ca1  1  0.00000000  0.21083200  0.75000000  1
  Ca  Ca2  1  0.00000000  0.78916800  0.25000000  1
  Ca  Ca3  1  0.50000000  0.71083200  0.75000000  1
  Fe  Fe4  1  0.00000000  0.27322700  0.07469900  1
  Fe  Fe5  1  0.00000000  0.00000000  0.00000000  1
  Fe  Fe6  1  0.00000000  0.00000000  0.50000000  1
  Fe  Fe7  1  0.50000000  0.22677300  0.92530100  1
  Fe  Fe8  1  0.50000000  0.22677300  0.57469900  1
  Fe  Fe9  1  0.00000000  0.27322700  0.42530100  1
  Fe  Fe10  1  0.00000000  0.45953400  0.65622800  1
  Fe  Fe11  1  0.50000000  0.04046600  0.34377200  1
  Fe  Fe12  1  0.50000000  0.04046600  0.15622800  1
  Fe  Fe13  1  0.00000000  0.45953400  0.84377200  1
  Fe  Fe14  1  0.50000000  0.77322700  0.07469900  1
  Fe  Fe15  1  0.50000000  0.50000000  0.00000000  1
  Fe  Fe16  1  0.50000000  0.50000000  0.50000000  1
  Fe  Fe17  1  0.00000000  0.72677300  0.92530100  1
  Fe  Fe18  1  0.00000000  0.72677300  0.57469900  1
  Fe  Fe19  1  0.50000000  0.77322700  0.42530100  1
  Fe  Fe20  1  0.50000000  0.95953400  0.65622800  1
  Fe  Fe21  1  0.00000000  0.54046600  0.34377200  1
  Fe  Fe22  1  0.00000000  0.54046600  0.15622800  1
  Fe  Fe23  1  0.50000000  0.95953400  0.84377200  1
  O  O24  1  0.50000000  0.14979600  0.46667600  1
  O  O25  1  0.00000000  0.35020400  0.53332400  1
  O  O26  1  0.00000000  0.35020400  0.96667600  1
  O  O27  1  0.50000000  0.14979600  0.03332400  1
  O  O28  1  0.00000000  0.18265100  0.33401800  1
  O  O29  1  0.50000000  0.31734900  0.66598200  1
  O  O30  1  0.50000000  0.31734900  0.83401800  1
  O  O31  1  0.00000000  0.18265100  0.16598200  1
  O  O32  1  0.50000000  0.40313400  0.40209700  1
  O  O33  1  0.00000000  0.09686600  0.59790300  1
  O  O34  1  0.00000000  0.09686600  0.90209700  1
  O  O35  1  0.50000000  0.40313400  0.09790300  1
  O  O36  1  0.00000000  0.44995600  0.25000000  1
  O  O37  1  0.50000000  0.05004400  0.75000000  1
  O  O38  1  0.00000000  0.64979600  0.46667600  1
  O  O39  1  0.50000000  0.85020400  0.53332400  1
  O  O40  1  0.50000000  0.85020400  0.96667600  1
  O  O41  1  0.00000000  0.64979600  0.03332400  1
  O  O42  1  0.50000000  0.68265100  0.33401800  1
  O  O43  1  0.00000000  0.81734900  0.66598200  1
  O  O44  1  0.00000000  0.81734900  0.83401800  1
  O  O45  1  0.50000000  0.68265100  0.16598200  1
  O  O46  1  0.00000000  0.90313400  0.40209700  1
  O  O47  1  0.50000000  0.59686600  0.59790300  1
  O  O48  1  0.50000000  0.59686600  0.90209700  1
  O  O49  1  0.00000000  0.90313400  0.09790300  1
  O  O50  1  0.50000000  0.94995600  0.25000000  1
  O  O51  1  0.00000000  0.55004400  0.75000000  1
