# generated using pymatgen
data_BaMn2O8
_symmetry_space_group_name_H-M   'P 1'
_cell_length_a   8.54739400
_cell_length_b   11.66690400
_cell_length_c   16.03441400
_cell_angle_alpha   90.00000000
_cell_angle_beta   90.00000000
_cell_angle_gamma   90.00000000
_symmetry_Int_Tables_number   1
_chemical_formula_structural   BaMn2O8
_chemical_formula_sum   'Ba8 Mn16 O64'
_cell_volume   1598.97782398
_cell_formula_units_Z   8
loop_
 _symmetry_equiv_pos_site_id
 _symmetry_equiv_pos_as_xyz
  1  'x, y, z'
loop_
 _atom_site_type_symbol
 _atom_site_label
 _atom_site_symmetry_multiplicity
 _atom_site_fract_x
 _atom_site_fract_y
 _atom_site_fract_z
 _atom_site_occupancy
  Ba  Ba0  1  0.50000000  0.00000000  0.00000000  1
  Ba  Ba1  1  0.75000000  0.25000000  0.25000000  1
  Ba  Ba2  1  0.50000000  0.50000000  0.50000000  1
  Ba  Ba3  1  0.75000000  0.75000000  0.75000000  1
  Ba  Ba4  1  0.00000000  0.00000000  0.50000000  1
  Ba  Ba5  1  0.25000000  0.25000000  0.75000000  1
  Ba  Ba6  1  0.00000000  0.50000000  0.00000000  1
  Ba  Ba7  1  0.25000000  0.75000000  0.25000000  1
  Mn  Mn8  1  0.75000000  0.25000000  0.47765600  1
  Mn  Mn9  1  0.75000000  0.25000000  0.02234400  1
  Mn  Mn10  1  0.00000000  0.00000000  0.27234400  1
  Mn  Mn11  1  0.50000000  0.00000000  0.22765600  1
  Mn  Mn12  1  0.75000000  0.75000000  0.97765600  1
  Mn  Mn13  1  0.75000000  0.75000000  0.52234400  1
  Mn  Mn14  1  0.00000000  0.50000000  0.77234400  1
  Mn  Mn15  1  0.50000000  0.50000000  0.72765600  1
  Mn  Mn16  1  0.25000000  0.25000000  0.97765600  1
  Mn  Mn17  1  0.25000000  0.25000000  0.52234400  1
  Mn  Mn18  1  0.50000000  0.00000000  0.77234400  1
  Mn  Mn19  1  0.00000000  0.00000000  0.72765600  1
  Mn  Mn20  1  0.25000000  0.75000000  0.47765600  1
  Mn  Mn21  1  0.25000000  0.75000000  0.02234400  1
  Mn  Mn22  1  0.50000000  0.50000000  0.27234400  1
  Mn  Mn23  1  0.00000000  0.50000000  0.22765600  1
  O  O24  1  0.34798650  0.98180050  0.16817600  1
  O  O25  1  0.40201350  0.76819950  0.08182400  1
  O  O26  1  0.90201350  0.23180050  0.41817600  1
  O  O27  1  0.73253900  0.86298100  0.46508000  1
  O  O28  1  0.15201350  0.98180050  0.33182400  1
  O  O29  1  0.84798650  0.01819950  0.33182400  1
  O  O30  1  0.23253900  0.13701900  0.03492000  1
  O  O31  1  0.76746100  0.86298100  0.03492000  1
  O  O32  1  0.59798650  0.23180050  0.08182400  1
  O  O33  1  0.48253900  0.11298100  0.28492000  1
  O  O34  1  0.26746100  0.13701900  0.46508000  1
  O  O35  1  0.51746100  0.88701900  0.28492000  1
  O  O36  1  0.01746100  0.11298100  0.21508000  1
  O  O37  1  0.65201350  0.01819950  0.16817600  1
  O  O38  1  0.98253900  0.88701900  0.21508000  1
  O  O39  1  0.09798650  0.76819950  0.41817600  1
  O  O40  1  0.34798650  0.48180050  0.66817600  1
  O  O41  1  0.40201350  0.26819950  0.58182400  1
  O  O42  1  0.90201350  0.73180050  0.91817600  1
  O  O43  1  0.73253900  0.36298100  0.96508000  1
  O  O44  1  0.15201350  0.48180050  0.83182400  1
  O  O45  1  0.84798650  0.51819950  0.83182400  1
  O  O46  1  0.23253900  0.63701900  0.53492000  1
  O  O47  1  0.76746100  0.36298100  0.53492000  1
  O  O48  1  0.59798650  0.73180050  0.58182400  1
  O  O49  1  0.48253900  0.61298100  0.78492000  1
  O  O50  1  0.26746100  0.63701900  0.96508000  1
  O  O51  1  0.51746100  0.38701900  0.78492000  1
  O  O52  1  0.01746100  0.61298100  0.71508000  1
  O  O53  1  0.65201350  0.51819950  0.66817600  1
  O  O54  1  0.98253900  0.38701900  0.71508000  1
  O  O55  1  0.09798650  0.26819950  0.91817600  1
  O  O56  1  0.84798650  0.98180050  0.66817600  1
  O  O57  1  0.90201350  0.76819950  0.58182400  1
  O  O58  1  0.40201350  0.23180050  0.91817600  1
  O  O59  1  0.23253900  0.86298100  0.96508000  1
  O  O60  1  0.65201350  0.98180050  0.83182400  1
  O  O61  1  0.34798650  0.01819950  0.83182400  1
  O  O62  1  0.73253900  0.13701900  0.53492000  1
  O  O63  1  0.26746100  0.86298100  0.53492000  1
  O  O64  1  0.09798650  0.23180050  0.58182400  1
  O  O65  1  0.98253900  0.11298100  0.78492000  1
  O  O66  1  0.76746100  0.13701900  0.96508000  1
  O  O67  1  0.01746100  0.88701900  0.78492000  1
  O  O68  1  0.51746100  0.11298100  0.71508000  1
  O  O69  1  0.15201350  0.01819950  0.66817600  1
  O  O70  1  0.48253900  0.88701900  0.71508000  1
  O  O71  1  0.59798650  0.76819950  0.91817600  1
  O  O72  1  0.84798650  0.48180050  0.16817600  1
  O  O73  1  0.90201350  0.26819950  0.08182400  1
  O  O74  1  0.40201350  0.73180050  0.41817600  1
  O  O75  1  0.23253900  0.36298100  0.46508000  1
  O  O76  1  0.65201350  0.48180050  0.33182400  1
  O  O77  1  0.34798650  0.51819950  0.33182400  1
  O  O78  1  0.73253900  0.63701900  0.03492000  1
  O  O79  1  0.26746100  0.36298100  0.03492000  1
  O  O80  1  0.09798650  0.73180050  0.08182400  1
  O  O81  1  0.98253900  0.61298100  0.28492000  1
  O  O82  1  0.76746100  0.63701900  0.46508000  1
  O  O83  1  0.01746100  0.38701900  0.28492000  1
  O  O84  1  0.51746100  0.61298100  0.21508000  1
  O  O85  1  0.15201350  0.51819950  0.16817600  1
  O  O86  1  0.48253900  0.38701900  0.21508000  1
  O  O87  1  0.59798650  0.26819950  0.41817600  1
