# generated using pymatgen
data_Ba3(CdSb2)2
_symmetry_space_group_name_H-M   'P 1'
_cell_length_a   18.15730400
_cell_length_b   4.93841200
_cell_length_c   7.82919625
_cell_angle_alpha   90.00000000
_cell_angle_beta   112.06438534
_cell_angle_gamma   90.00000000
_symmetry_Int_Tables_number   1
_chemical_formula_structural   Ba3(CdSb2)2
_chemical_formula_sum   'Ba6 Cd4 Sb8'
_cell_volume   650.61523223
_cell_formula_units_Z   2
loop_
 _symmetry_equiv_pos_site_id
 _symmetry_equiv_pos_as_xyz
  1  'x, y, z'
loop_
 _atom_site_type_symbol
 _atom_site_label
 _atom_site_symmetry_multiplicity
 _atom_site_fract_x
 _atom_site_fract_y
 _atom_site_fract_z
 _atom_site_occupancy
  Ba  Ba0  1  0.35790900  0.50000000  0.40935100  1
  Ba  Ba1  1  0.14209100  0.00000000  0.59064900  1
  Ba  Ba2  1  0.00000000  0.00000000  0.00000000  1
  Ba  Ba3  1  0.85790900  0.00000000  0.40935100  1
  Ba  Ba4  1  0.64209100  0.50000000  0.59064900  1
  Ba  Ba5  1  0.50000000  0.50000000  0.00000000  1
  Cd  Cd6  1  0.33186900  0.00000000  0.02834100  1
  Cd  Cd7  1  0.16813100  0.50000000  0.97165900  1
  Cd  Cd8  1  0.83186900  0.50000000  0.02834100  1
  Cd  Cd9  1  0.66813100  0.00000000  0.97165900  1
  Sb  Sb10  1  0.49787700  0.00000000  0.31450100  1
  Sb  Sb11  1  0.29244800  0.50000000  0.80263900  1
  Sb  Sb12  1  0.00212300  0.50000000  0.68549900  1
  Sb  Sb13  1  0.20755200  0.00000000  0.19736100  1
  Sb  Sb14  1  0.99787700  0.50000000  0.31450100  1
  Sb  Sb15  1  0.79244800  0.00000000  0.80263900  1
  Sb  Sb16  1  0.50212300  0.00000000  0.68549900  1
  Sb  Sb17  1  0.70755200  0.50000000  0.19736100  1
