# generated using pymatgen
data_K4Th(MoO4)4
_symmetry_space_group_name_H-M   'P 1'
_cell_length_a   11.83137600
_cell_length_b   11.83137600
_cell_length_c   13.32090000
_cell_angle_alpha   90.00000000
_cell_angle_beta   90.00000000
_cell_angle_gamma   90.00000000
_symmetry_Int_Tables_number   1
_chemical_formula_structural   K4Th(MoO4)4
_chemical_formula_sum   'K16 Th4 Mo16 O64'
_cell_volume   1864.67900458
_cell_formula_units_Z   4
loop_
 _symmetry_equiv_pos_site_id
 _symmetry_equiv_pos_as_xyz
  1  'x, y, z'
loop_
 _atom_site_type_symbol
 _atom_site_label
 _atom_site_symmetry_multiplicity
 _atom_site_fract_x
 _atom_site_fract_y
 _atom_site_fract_z
 _atom_site_occupancy
  K  K0  1  0.26195700  0.90316600  0.51834200  1
  K  K1  1  0.59683400  0.26195700  0.26834200  1
  K  K2  1  0.23804300  0.59683400  0.01834200  1
  K  K3  1  0.40316600  0.73804300  0.26834200  1
  K  K4  1  0.40316600  0.23804300  0.98165800  1
  K  K5  1  0.09683400  0.26195700  0.48165800  1
  K  K6  1  0.23804300  0.09683400  0.23165800  1
  K  K7  1  0.76195700  0.90316600  0.23165800  1
  K  K8  1  0.76195700  0.40316600  0.01834200  1
  K  K9  1  0.09683400  0.76195700  0.76834200  1
  K  K10  1  0.73804300  0.09683400  0.51834200  1
  K  K11  1  0.90316600  0.23804300  0.76834200  1
  K  K12  1  0.90316600  0.73804300  0.48165800  1
  K  K13  1  0.59683400  0.76195700  0.98165800  1
  K  K14  1  0.73804300  0.59683400  0.73165800  1
  K  K15  1  0.26195700  0.40316600  0.73165800  1
  Th  Th16  1  0.00000000  0.00000000  0.00000000  1
  Th  Th17  1  0.00000000  0.50000000  0.25000000  1
  Th  Th18  1  0.50000000  0.50000000  0.50000000  1
  Th  Th19  1  0.50000000  0.00000000  0.75000000  1
  Mo  Mo20  1  0.67796750  0.08995650  0.99099650  1
  Mo  Mo21  1  0.82203250  0.41004350  0.49099650  1
  Mo  Mo22  1  0.17796750  0.08995650  0.75900350  1
  Mo  Mo23  1  0.08995650  0.32203250  0.00900350  1
  Mo  Mo24  1  0.32203250  0.41004350  0.25900350  1
  Mo  Mo25  1  0.91004350  0.17796750  0.24099650  1
  Mo  Mo26  1  0.58995650  0.32203250  0.74099650  1
  Mo  Mo27  1  0.41004350  0.17796750  0.50900350  1
  Mo  Mo28  1  0.17796750  0.58995650  0.49099650  1
  Mo  Mo29  1  0.32203250  0.91004350  0.99099650  1
  Mo  Mo30  1  0.67796750  0.58995650  0.25900350  1
  Mo  Mo31  1  0.58995650  0.82203250  0.50900350  1
  Mo  Mo32  1  0.82203250  0.91004350  0.75900350  1
  Mo  Mo33  1  0.41004350  0.67796750  0.74099650  1
  Mo  Mo34  1  0.08995650  0.82203250  0.24099650  1
  Mo  Mo35  1  0.91004350  0.67796750  0.00900350  1
  O  O36  1  0.39616350  0.57080750  0.64259650  1
  O  O37  1  0.84463800  0.29253100  0.57169500  1
  O  O38  1  0.65242200  0.96562100  0.06057400  1
  O  O39  1  0.17678450  0.41026950  0.30810750  1
  O  O40  1  0.42919250  0.39616350  0.35740350  1
  O  O41  1  0.92919250  0.39616350  0.39259650  1
  O  O42  1  0.53437900  0.15242200  0.43942600  1
  O  O43  1  0.65536200  0.20746900  0.07169500  1
  O  O44  1  0.20746900  0.34463800  0.92830500  1
  O  O45  1  0.34463800  0.29253100  0.17830500  1
  O  O46  1  0.89616350  0.57080750  0.10740350  1
  O  O47  1  0.20746900  0.84463800  0.32169500  1
  O  O48  1  0.67678450  0.41026950  0.44189250  1
  O  O49  1  0.10383650  0.42919250  0.10740350  1
  O  O50  1  0.82321550  0.58973050  0.30810750  1
  O  O51  1  0.08973050  0.67678450  0.19189250  1
  O  O52  1  0.34757800  0.53437900  0.18942600  1
  O  O53  1  0.15242200  0.96562100  0.68942600  1
  O  O54  1  0.41026950  0.32321550  0.55810750  1
  O  O55  1  0.07080750  0.60383650  0.39259650  1
  O  O56  1  0.34757800  0.03437900  0.06057400  1
  O  O57  1  0.10383650  0.92919250  0.14259650  1
  O  O58  1  0.91026950  0.32321550  0.19189250  1
  O  O59  1  0.15536200  0.20746900  0.67830500  1
  O  O60  1  0.03437900  0.15242200  0.31057400  1
  O  O61  1  0.29253100  0.65536200  0.82169500  1
  O  O62  1  0.07080750  0.10383650  0.85740350  1
  O  O63  1  0.46562100  0.34757800  0.81057400  1
  O  O64  1  0.82321550  0.08973050  0.94189250  1
  O  O65  1  0.46562100  0.84757800  0.43942600  1
  O  O66  1  0.08973050  0.17678450  0.05810750  1
  O  O67  1  0.29253100  0.15536200  0.42830500  1
  O  O68  1  0.89616350  0.07080750  0.14259650  1
  O  O69  1  0.34463800  0.79253100  0.07169500  1
  O  O70  1  0.15242200  0.46562100  0.56057400  1
  O  O71  1  0.67678450  0.91026950  0.80810750  1
  O  O72  1  0.92919250  0.89616350  0.85740350  1
  O  O73  1  0.42919250  0.89616350  0.89259650  1
  O  O74  1  0.03437900  0.65242200  0.93942600  1
  O  O75  1  0.15536200  0.70746900  0.57169500  1
  O  O76  1  0.70746900  0.84463800  0.42830500  1
  O  O77  1  0.84463800  0.79253100  0.67830500  1
  O  O78  1  0.39616350  0.07080750  0.60740350  1
  O  O79  1  0.70746900  0.34463800  0.82169500  1
  O  O80  1  0.17678450  0.91026950  0.94189250  1
  O  O81  1  0.60383650  0.92919250  0.60740350  1
  O  O82  1  0.32321550  0.08973050  0.80810750  1
  O  O83  1  0.58973050  0.17678450  0.69189250  1
  O  O84  1  0.84757800  0.03437900  0.68942600  1
  O  O85  1  0.65242200  0.46562100  0.18942600  1
  O  O86  1  0.91026950  0.82321550  0.05810750  1
  O  O87  1  0.57080750  0.10383650  0.89259650  1
  O  O88  1  0.84757800  0.53437900  0.56057400  1
  O  O89  1  0.60383650  0.42919250  0.64259650  1
  O  O90  1  0.41026950  0.82321550  0.69189250  1
  O  O91  1  0.65536200  0.70746900  0.17830500  1
  O  O92  1  0.53437900  0.65242200  0.81057400  1
  O  O93  1  0.79253100  0.15536200  0.32169500  1
  O  O94  1  0.57080750  0.60383650  0.35740350  1
  O  O95  1  0.96562100  0.84757800  0.31057400  1
  O  O96  1  0.32321550  0.58973050  0.44189250  1
  O  O97  1  0.96562100  0.34757800  0.93942600  1
  O  O98  1  0.58973050  0.67678450  0.55810750  1
  O  O99  1  0.79253100  0.65536200  0.92830500  1
