# generated using pymatgen
data_Rb5ErHf(MoO4)6
_symmetry_space_group_name_H-M   'P 1'
_cell_length_a   10.96458731
_cell_length_b   10.96458731
_cell_length_c   39.71234431
_cell_angle_alpha   90.00000000
_cell_angle_beta   90.00000000
_cell_angle_gamma   120.00000000
_symmetry_Int_Tables_number   1
_chemical_formula_structural   Rb5ErHf(MoO4)6
_chemical_formula_sum   'Rb30 Er6 Hf6 Mo36 O144'
_cell_volume   4134.66889981
_cell_formula_units_Z   6
loop_
 _symmetry_equiv_pos_site_id
 _symmetry_equiv_pos_as_xyz
  1  'x, y, z'
loop_
 _atom_site_type_symbol
 _atom_site_label
 _atom_site_symmetry_multiplicity
 _atom_site_fract_x
 _atom_site_fract_y
 _atom_site_fract_z
 _atom_site_occupancy
  Rb  Rb0  1  0.66666667  0.72301933  0.08333333  1
  Rb  Rb1  1  0.05635267  0.33333333  0.08333333  1
  Rb  Rb2  1  0.27698067  0.94364733  0.08333333  1
  Rb  Rb3  1  0.00000000  0.00000000  0.14669600  1
  Rb  Rb4  1  0.61031400  0.00000000  0.25000000  1
  Rb  Rb5  1  0.38968600  0.38968600  0.25000000  1
  Rb  Rb6  1  0.00000000  0.61031400  0.25000000  1
  Rb  Rb7  1  0.33333333  0.66666667  0.31336267  1
  Rb  Rb8  1  0.66666667  0.33333333  0.18663733  1
  Rb  Rb9  1  0.33333333  0.66666667  0.01997067  1
  Rb  Rb10  1  0.33333333  0.05635267  0.41666667  1
  Rb  Rb11  1  0.72301933  0.66666667  0.41666667  1
  Rb  Rb12  1  0.94364733  0.27698067  0.41666667  1
  Rb  Rb13  1  0.66666667  0.33333333  0.48002933  1
  Rb  Rb14  1  0.27698067  0.33333333  0.58333333  1
  Rb  Rb15  1  0.05635267  0.72301933  0.58333333  1
  Rb  Rb16  1  0.66666667  0.94364733  0.58333333  1
  Rb  Rb17  1  0.00000000  0.00000000  0.64669600  1
  Rb  Rb18  1  0.33333333  0.66666667  0.51997067  1
  Rb  Rb19  1  0.00000000  0.00000000  0.35330400  1
  Rb  Rb20  1  0.00000000  0.38968600  0.75000000  1
  Rb  Rb21  1  0.38968600  0.00000000  0.75000000  1
  Rb  Rb22  1  0.61031400  0.61031400  0.75000000  1
  Rb  Rb23  1  0.33333333  0.66666667  0.81336267  1
  Rb  Rb24  1  0.94364733  0.66666667  0.91666667  1
  Rb  Rb25  1  0.72301933  0.05635267  0.91666667  1
  Rb  Rb26  1  0.33333333  0.27698067  0.91666667  1
  Rb  Rb27  1  0.66666667  0.33333333  0.98002933  1
  Rb  Rb28  1  0.00000000  0.00000000  0.85330400  1
  Rb  Rb29  1  0.66666667  0.33333333  0.68663733  1
  Er  Er30  1  0.00000000  0.00000000  0.00000000  1
  Er  Er31  1  0.33333333  0.66666667  0.16666667  1
  Er  Er32  1  0.66666667  0.33333333  0.33333333  1
  Er  Er33  1  0.00000000  0.00000000  0.50000000  1
  Er  Er34  1  0.33333333  0.66666667  0.66666667  1
  Er  Er35  1  0.66666667  0.33333333  0.83333333  1
  Hf  Hf36  1  0.66666667  0.33333333  0.08333333  1
  Hf  Hf37  1  0.00000000  0.00000000  0.25000000  1
  Hf  Hf38  1  0.33333333  0.66666667  0.41666667  1
  Hf  Hf39  1  0.66666667  0.33333333  0.58333333  1
  Hf  Hf40  1  0.00000000  0.00000000  0.75000000  1
  Hf  Hf41  1  0.33333333  0.66666667  0.91666667  1
  Mo  Mo42  1  0.97937567  0.60573033  0.13320333  1
  Mo  Mo43  1  0.72760300  0.68729100  0.29987000  1
  Mo  Mo44  1  0.27239700  0.95968800  0.20013000  1
  Mo  Mo45  1  0.31270900  0.04031200  0.29987000  1
  Mo  Mo46  1  0.62635467  0.02062433  0.13320333  1
  Mo  Mo47  1  0.35395767  0.29302133  0.03346333  1
  Mo  Mo48  1  0.39426967  0.37364533  0.13320333  1
  Mo  Mo49  1  0.95968800  0.27239700  0.29987000  1
  Mo  Mo50  1  0.93906367  0.64604233  0.03346333  1
  Mo  Mo51  1  0.70697867  0.06093633  0.03346333  1
  Mo  Mo52  1  0.04031200  0.31270900  0.20013000  1
  Mo  Mo53  1  0.68729100  0.72760300  0.20013000  1
  Mo  Mo54  1  0.64604233  0.93906367  0.46653667  1
  Mo  Mo55  1  0.39426967  0.02062433  0.63320333  1
  Mo  Mo56  1  0.93906367  0.29302133  0.53346333  1
  Mo  Mo57  1  0.97937567  0.37364533  0.63320333  1
  Mo  Mo58  1  0.29302133  0.35395767  0.46653667  1
  Mo  Mo59  1  0.02062433  0.62635467  0.36679667  1
  Mo  Mo60  1  0.06093633  0.70697867  0.46653667  1
  Mo  Mo61  1  0.62635467  0.60573033  0.63320333  1
  Mo  Mo62  1  0.60573033  0.97937567  0.36679667  1
  Mo  Mo63  1  0.37364533  0.39426967  0.36679667  1
  Mo  Mo64  1  0.70697867  0.64604233  0.53346333  1
  Mo  Mo65  1  0.35395767  0.06093633  0.53346333  1
  Mo  Mo66  1  0.31270900  0.27239700  0.79987000  1
  Mo  Mo67  1  0.06093633  0.35395767  0.96653667  1
  Mo  Mo68  1  0.60573033  0.62635467  0.86679667  1
  Mo  Mo69  1  0.64604233  0.70697867  0.96653667  1
  Mo  Mo70  1  0.95968800  0.68729100  0.79987000  1
  Mo  Mo71  1  0.68729100  0.95968800  0.70013000  1
  Mo  Mo72  1  0.72760300  0.04031200  0.79987000  1
  Mo  Mo73  1  0.29302133  0.93906367  0.96653667  1
  Mo  Mo74  1  0.27239700  0.31270900  0.70013000  1
  Mo  Mo75  1  0.04031200  0.72760300  0.70013000  1
  Mo  Mo76  1  0.37364533  0.97937567  0.86679667  1
  Mo  Mo77  1  0.02062433  0.39426967  0.86679667  1
  O  O78  1  0.66772167  0.06508033  0.17578833  1
  O  O79  1  0.68465867  0.58205633  0.22001333  1
  O  O80  1  0.41794367  0.10260233  0.22001333  1
  O  O81  1  0.93491967  0.60264133  0.17578833  1
  O  O82  1  0.56413633  0.40923867  0.11372167  1
  O  O83  1  0.51262000  0.70786100  0.20117700  1
  O  O84  1  0.26930800  0.00105500  0.15754500  1
  O  O85  1  0.70786100  0.51262000  0.29882300  1
  O  O86  1  0.98200800  0.75127700  0.11332000  1
  O  O87  1  0.10260233  0.41794367  0.27998667  1
  O  O88  1  0.24872300  0.23073100  0.11332000  1
  O  O89  1  0.47142567  0.84595333  0.13215633  1
  O  O90  1  0.56406433  0.91538967  0.05334667  1
  O  O91  1  0.73174700  0.73069200  0.15754500  1
  O  O92  1  0.17928667  0.13809233  0.03451033  1
  O  O93  1  0.82156433  0.89746967  0.21961167  1
  O  O94  1  0.06508033  0.66772167  0.32421167  1
  O  O95  1  0.89739767  0.31534133  0.22001333  1
  O  O96  1  0.31534133  0.89739767  0.27998667  1
  O  O97  1  0.06402533  0.39841367  0.00912167  1
  O  O98  1  0.99894500  0.26825300  0.15754500  1
  O  O99  1  0.39735867  0.33227833  0.17578833  1
  O  O100  1  0.48738000  0.19524100  0.29882300  1
  O  O101  1  0.59076133  0.15489767  0.11372167  1
  O  O102  1  0.10253033  0.92409467  0.21961167  1
  O  O103  1  0.89746967  0.82156433  0.28038833  1
  O  O104  1  0.35132533  0.43593567  0.05334667  1
  O  O105  1  0.58205633  0.68465867  0.27998667  1
  O  O106  1  0.92409467  0.10253033  0.28038833  1
  O  O107  1  0.74257200  0.23080300  0.05294500  1
  O  O108  1  0.48823100  0.25742800  0.05294500  1
  O  O109  1  0.95880567  0.82071333  0.03451033  1
  O  O110  1  0.08461033  0.64867467  0.05334667  1
  O  O111  1  0.76926900  0.01799200  0.11332000  1
  O  O112  1  0.15404667  0.62547233  0.13215633  1
  O  O113  1  0.60158633  0.66561167  0.00912167  1
  O  O114  1  0.29213900  0.80475900  0.20117700  1
  O  O115  1  0.60264133  0.93491967  0.32421167  1
  O  O116  1  0.33227833  0.39735867  0.32421167  1
  O  O117  1  0.86190767  0.04119433  0.03451033  1
  O  O118  1  0.84510233  0.43586367  0.11372167  1
  O  O119  1  0.37452767  0.52857433  0.13215633  1
  O  O120  1  0.07590533  0.17843567  0.21961167  1
  O  O121  1  0.33438833  0.93597467  0.00912167  1
  O  O122  1  0.17843567  0.07590533  0.28038833  1
  O  O123  1  0.80475900  0.29213900  0.29882300  1
  O  O124  1  0.19524100  0.48738000  0.20117700  1
  O  O125  1  0.76919700  0.51176900  0.05294500  1
  O  O126  1  0.33438833  0.39841367  0.50912167  1
  O  O127  1  0.35132533  0.91538967  0.55334667  1
  O  O128  1  0.08461033  0.43593567  0.55334667  1
  O  O129  1  0.60158633  0.93597467  0.50912167  1
  O  O130  1  0.23080300  0.74257200  0.44705500  1
  O  O131  1  0.17928667  0.04119433  0.53451033  1
  O  O132  1  0.93597467  0.33438833  0.49087833  1
  O  O133  1  0.37452767  0.84595333  0.63215633  1
  O  O134  1  0.64867467  0.08461033  0.44665333  1
  O  O135  1  0.76926900  0.75127700  0.61332000  1
  O  O136  1  0.91538967  0.56406433  0.44665333  1
  O  O137  1  0.13809233  0.17928667  0.46548967  1
  O  O138  1  0.23073100  0.24872300  0.38668000  1
  O  O139  1  0.39841367  0.06402533  0.49087833  1
  O  O140  1  0.84595333  0.47142567  0.36784367  1
  O  O141  1  0.48823100  0.23080300  0.55294500  1
  O  O142  1  0.73174700  0.00105500  0.65754500  1
  O  O143  1  0.56406433  0.64867467  0.55334667  1
  O  O144  1  0.98200800  0.23073100  0.61332000  1
  O  O145  1  0.73069200  0.73174700  0.34245500  1
  O  O146  1  0.66561167  0.60158633  0.49087833  1
  O  O147  1  0.06402533  0.66561167  0.50912167  1
  O  O148  1  0.15404667  0.52857433  0.63215633  1
  O  O149  1  0.25742800  0.48823100  0.44705500  1
  O  O150  1  0.76919700  0.25742800  0.55294500  1
  O  O151  1  0.56413633  0.15489767  0.61372167  1
  O  O152  1  0.01799200  0.76926900  0.38668000  1
  O  O153  1  0.24872300  0.01799200  0.61332000  1
  O  O154  1  0.59076133  0.43586367  0.61372167  1
  O  O155  1  0.40923867  0.56413633  0.38627833  1
  O  O156  1  0.15489767  0.59076133  0.38627833  1
  O  O157  1  0.62547233  0.15404667  0.36784367  1
  O  O158  1  0.75127700  0.98200800  0.38668000  1
  O  O159  1  0.43593567  0.35132533  0.44665333  1
  O  O160  1  0.82071333  0.95880567  0.46548967  1
  O  O161  1  0.26825300  0.99894500  0.34245500  1
  O  O162  1  0.95880567  0.13809233  0.53451033  1
  O  O163  1  0.26930800  0.26825300  0.65754500  1
  O  O164  1  0.99894500  0.73069200  0.65754500  1
  O  O165  1  0.52857433  0.37452767  0.36784367  1
  O  O166  1  0.51176900  0.76919700  0.44705500  1
  O  O167  1  0.04119433  0.86190767  0.46548967  1
  O  O168  1  0.74257200  0.51176900  0.55294500  1
  O  O169  1  0.00105500  0.26930800  0.34245500  1
  O  O170  1  0.84510233  0.40923867  0.61372167  1
  O  O171  1  0.47142567  0.62547233  0.63215633  1
  O  O172  1  0.86190767  0.82071333  0.53451033  1
  O  O173  1  0.43586367  0.84510233  0.38627833  1
  O  O174  1  0.00105500  0.73174700  0.84245500  1
  O  O175  1  0.01799200  0.24872300  0.88668000  1
  O  O176  1  0.75127700  0.76926900  0.88668000  1
  O  O177  1  0.26825300  0.26930800  0.84245500  1
  O  O178  1  0.89746967  0.07590533  0.78038833  1
  O  O179  1  0.84595333  0.37452767  0.86784367  1
  O  O180  1  0.60264133  0.66772167  0.82421167  1
  O  O181  1  0.04119433  0.17928667  0.96548967  1
  O  O182  1  0.31534133  0.41794367  0.77998667  1
  O  O183  1  0.43593567  0.08461033  0.94665333  1
  O  O184  1  0.58205633  0.89739767  0.77998667  1
  O  O185  1  0.80475900  0.51262000  0.79882300  1
  O  O186  1  0.89739767  0.58205633  0.72001333  1
  O  O187  1  0.06508033  0.39735867  0.82421167  1
  O  O188  1  0.51262000  0.80475900  0.70117700  1
  O  O189  1  0.15489767  0.56413633  0.88627833  1
  O  O190  1  0.39841367  0.33438833  0.99087833  1
  O  O191  1  0.23073100  0.98200800  0.88668000  1
  O  O192  1  0.64867467  0.56406433  0.94665333  1
  O  O193  1  0.39735867  0.06508033  0.67578833  1
  O  O194  1  0.33227833  0.93491967  0.82421167  1
  O  O195  1  0.73069200  0.99894500  0.84245500  1
  O  O196  1  0.82071333  0.86190767  0.96548967  1
  O  O197  1  0.92409467  0.82156433  0.78038833  1
  O  O198  1  0.43586367  0.59076133  0.88627833  1
  O  O199  1  0.23080300  0.48823100  0.94705500  1
  O  O200  1  0.68465867  0.10260233  0.72001333  1
  O  O201  1  0.91538967  0.35132533  0.94665333  1
  O  O202  1  0.25742800  0.76919700  0.94705500  1
  O  O203  1  0.07590533  0.89746967  0.71961167  1
  O  O204  1  0.82156433  0.92409467  0.71961167  1
  O  O205  1  0.29213900  0.48738000  0.70117700  1
  O  O206  1  0.41794367  0.31534133  0.72001333  1
  O  O207  1  0.10260233  0.68465867  0.77998667  1
  O  O208  1  0.48738000  0.29213900  0.79882300  1
  O  O209  1  0.93491967  0.33227833  0.67578833  1
  O  O210  1  0.62547233  0.47142567  0.86784367  1
  O  O211  1  0.93597467  0.60158633  0.99087833  1
  O  O212  1  0.66561167  0.06402533  0.99087833  1
  O  O213  1  0.19524100  0.70786100  0.70117700  1
  O  O214  1  0.17843567  0.10253033  0.78038833  1
  O  O215  1  0.70786100  0.19524100  0.79882300  1
  O  O216  1  0.40923867  0.84510233  0.88627833  1
  O  O217  1  0.66772167  0.60264133  0.67578833  1
  O  O218  1  0.51176900  0.74257200  0.94705500  1
  O  O219  1  0.13809233  0.95880567  0.96548967  1
  O  O220  1  0.52857433  0.15404667  0.86784367  1
  O  O221  1  0.10253033  0.17843567  0.71961167  1
