# generated using pymatgen
data_Pr2Co3Ge5
_symmetry_space_group_name_H-M   'P 1'
_cell_length_a   5.93920000
_cell_length_b   9.85617600
_cell_length_c   11.90055800
_cell_angle_alpha   90.00000000
_cell_angle_beta   90.00000000
_cell_angle_gamma   90.00000000
_symmetry_Int_Tables_number   1
_chemical_formula_structural   Pr2Co3Ge5
_chemical_formula_sum   'Pr8 Co12 Ge20'
_cell_volume   696.63249003
_cell_formula_units_Z   4
loop_
 _symmetry_equiv_pos_site_id
 _symmetry_equiv_pos_as_xyz
  1  'x, y, z'
loop_
 _atom_site_type_symbol
 _atom_site_label
 _atom_site_symmetry_multiplicity
 _atom_site_fract_x
 _atom_site_fract_y
 _atom_site_fract_z
 _atom_site_occupancy
  Pr  Pr0  1  0.00000000  0.73816700  0.13334200  1
  Pr  Pr1  1  0.00000000  0.26183300  0.86665800  1
  Pr  Pr2  1  0.50000000  0.73816700  0.86665800  1
  Pr  Pr3  1  0.50000000  0.26183300  0.13334200  1
  Pr  Pr4  1  0.50000000  0.23816700  0.63334200  1
  Pr  Pr5  1  0.50000000  0.76183300  0.36665800  1
  Pr  Pr6  1  0.00000000  0.23816700  0.36665800  1
  Pr  Pr7  1  0.00000000  0.76183300  0.63334200  1
  Co  Co8  1  0.50000000  0.39098450  0.86435550  1
  Co  Co9  1  0.50000000  0.60901550  0.13564450  1
  Co  Co10  1  0.00000000  0.39098450  0.13564450  1
  Co  Co11  1  0.00000000  0.60901550  0.86435550  1
  Co  Co12  1  0.75000000  0.00000000  0.00000000  1
  Co  Co13  1  0.25000000  0.00000000  0.00000000  1
  Co  Co14  1  0.00000000  0.89098450  0.36435550  1
  Co  Co15  1  0.00000000  0.10901550  0.63564450  1
  Co  Co16  1  0.50000000  0.89098450  0.63564450  1
  Co  Co17  1  0.50000000  0.10901550  0.36435550  1
  Co  Co18  1  0.25000000  0.50000000  0.50000000  1
  Co  Co19  1  0.75000000  0.50000000  0.50000000  1
  Ge  Ge20  1  0.25000000  0.50000000  0.73590000  1
  Ge  Ge21  1  0.25000000  0.50000000  0.26410000  1
  Ge  Ge22  1  0.75000000  0.50000000  0.26410000  1
  Ge  Ge23  1  0.75000000  0.50000000  0.73590000  1
  Ge  Ge24  1  0.50000000  0.15587100  0.90138600  1
  Ge  Ge25  1  0.50000000  0.84412900  0.09861400  1
  Ge  Ge26  1  0.00000000  0.15587100  0.09861400  1
  Ge  Ge27  1  0.00000000  0.84412900  0.90138600  1
  Ge  Ge28  1  0.75000000  0.50000000  0.00000000  1
  Ge  Ge29  1  0.25000000  0.50000000  0.00000000  1
  Ge  Ge30  1  0.75000000  0.00000000  0.23590000  1
  Ge  Ge31  1  0.75000000  0.00000000  0.76410000  1
  Ge  Ge32  1  0.25000000  0.00000000  0.76410000  1
  Ge  Ge33  1  0.25000000  0.00000000  0.23590000  1
  Ge  Ge34  1  0.00000000  0.65587100  0.40138600  1
  Ge  Ge35  1  0.00000000  0.34412900  0.59861400  1
  Ge  Ge36  1  0.50000000  0.65587100  0.59861400  1
  Ge  Ge37  1  0.50000000  0.34412900  0.40138600  1
  Ge  Ge38  1  0.25000000  0.00000000  0.50000000  1
  Ge  Ge39  1  0.75000000  0.00000000  0.50000000  1
