# generated using pymatgen
data_Ni3(AsO4)2
_symmetry_space_group_name_H-M   'P 1'
_cell_length_a   6.02000700
_cell_length_b   11.39256601
_cell_length_c   8.28697801
_cell_angle_alpha   90.00000000
_cell_angle_beta   90.00000000
_cell_angle_gamma   90.00000000
_symmetry_Int_Tables_number   1
_chemical_formula_structural   Ni3(AsO4)2
_chemical_formula_sum   'Ni12 As8 O32'
_cell_volume   568.34852337
_cell_formula_units_Z   4
loop_
 _symmetry_equiv_pos_site_id
 _symmetry_equiv_pos_as_xyz
  1  'x, y, z'
loop_
 _atom_site_type_symbol
 _atom_site_label
 _atom_site_symmetry_multiplicity
 _atom_site_fract_x
 _atom_site_fract_y
 _atom_site_fract_z
 _atom_site_occupancy
  Ni  Ni0  1  0.50000000  0.50000000  0.00000000  1
  Ni  Ni1  1  0.25000000  0.36618500  0.75000000  1
  Ni  Ni2  1  0.75000000  0.13381500  0.25000000  1
  Ni  Ni3  1  0.50000000  0.00000000  0.50000000  1
  Ni  Ni4  1  0.25000000  0.13381500  0.25000000  1
  Ni  Ni5  1  0.75000000  0.36618500  0.75000000  1
  Ni  Ni6  1  0.00000000  0.00000000  0.00000000  1
  Ni  Ni7  1  0.75000000  0.86618500  0.75000000  1
  Ni  Ni8  1  0.25000000  0.63381500  0.25000000  1
  Ni  Ni9  1  0.00000000  0.50000000  0.50000000  1
  Ni  Ni10  1  0.75000000  0.63381500  0.25000000  1
  Ni  Ni11  1  0.25000000  0.86618500  0.75000000  1
  As  As12  1  0.50000000  0.37651850  0.38498250  1
  As  As13  1  0.00000000  0.12348150  0.61501750  1
  As  As14  1  0.50000000  0.12348150  0.88498250  1
  As  As15  1  0.00000000  0.37651850  0.11501750  1
  As  As16  1  0.00000000  0.87651850  0.38498250  1
  As  As17  1  0.50000000  0.62348150  0.61501750  1
  As  As18  1  0.00000000  0.62348150  0.88498250  1
  As  As19  1  0.50000000  0.87651850  0.11501750  1
  O  O20  1  0.50000000  0.25259400  0.26677750  1
  O  O21  1  0.00000000  0.24740600  0.73322250  1
  O  O22  1  0.50000000  0.24740600  0.76677750  1
  O  O23  1  0.00000000  0.25259400  0.23322250  1
  O  O24  1  0.00000000  0.49929000  0.24964550  1
  O  O25  1  0.50000000  0.00071000  0.75035450  1
  O  O26  1  0.00000000  0.00071000  0.74964550  1
  O  O27  1  0.50000000  0.49929000  0.25035450  1
  O  O28  1  0.23719050  0.12072750  0.49912050  1
  O  O29  1  0.73719050  0.37927250  0.50087950  1
  O  O30  1  0.76280950  0.37927250  0.99912050  1
  O  O31  1  0.26280950  0.12072750  0.00087950  1
  O  O32  1  0.26280950  0.37927250  0.50087950  1
  O  O33  1  0.76280950  0.12072750  0.49912050  1
  O  O34  1  0.73719050  0.12072750  0.00087950  1
  O  O35  1  0.23719050  0.37927250  0.99912050  1
  O  O36  1  0.00000000  0.75259400  0.26677750  1
  O  O37  1  0.50000000  0.74740600  0.73322250  1
  O  O38  1  0.00000000  0.74740600  0.76677750  1
  O  O39  1  0.50000000  0.75259400  0.23322250  1
  O  O40  1  0.50000000  0.99929000  0.24964550  1
  O  O41  1  0.00000000  0.50071000  0.75035450  1
  O  O42  1  0.50000000  0.50071000  0.74964550  1
  O  O43  1  0.00000000  0.99929000  0.25035450  1
  O  O44  1  0.73719050  0.62072750  0.49912050  1
  O  O45  1  0.23719050  0.87927250  0.50087950  1
  O  O46  1  0.26280950  0.87927250  0.99912050  1
  O  O47  1  0.76280950  0.62072750  0.00087950  1
  O  O48  1  0.76280950  0.87927250  0.50087950  1
  O  O49  1  0.26280950  0.62072750  0.49912050  1
  O  O50  1  0.23719050  0.62072750  0.00087950  1
  O  O51  1  0.73719050  0.87927250  0.99912050  1
