# generated using pymatgen
data_Cu5As2
_symmetry_space_group_name_H-M   'P 1'
_cell_length_a   5.56577200
_cell_length_b   6.00252800
_cell_length_c   11.56306400
_cell_angle_alpha   90.00000000
_cell_angle_beta   90.00000000
_cell_angle_gamma   90.00000000
_symmetry_Int_Tables_number   1
_chemical_formula_structural   Cu5As2
_chemical_formula_sum   'Cu20 As8'
_cell_volume   386.30696252
_cell_formula_units_Z   4
loop_
 _symmetry_equiv_pos_site_id
 _symmetry_equiv_pos_as_xyz
  1  'x, y, z'
loop_
 _atom_site_type_symbol
 _atom_site_label
 _atom_site_symmetry_multiplicity
 _atom_site_fract_x
 _atom_site_fract_y
 _atom_site_fract_z
 _atom_site_occupancy
  Cu  Cu0  1  0.00000000  0.80940050  0.10354350  1
  Cu  Cu1  1  0.50000000  0.69059950  0.39645650  1
  Cu  Cu2  1  0.00000000  0.30940050  0.39645650  1
  Cu  Cu3  1  0.50000000  0.19059950  0.10354350  1
  Cu  Cu4  1  0.75000000  0.50000000  0.23121000  1
  Cu  Cu5  1  0.25000000  0.00000000  0.26879000  1
  Cu  Cu6  1  0.75000000  0.00000000  0.26879000  1
  Cu  Cu7  1  0.25000000  0.50000000  0.23121000  1
  Cu  Cu8  1  0.25000000  0.50000000  0.00000000  1
  Cu  Cu9  1  0.75000000  0.50000000  0.00000000  1
  Cu  Cu10  1  0.50000000  0.30940050  0.60354350  1
  Cu  Cu11  1  0.00000000  0.19059950  0.89645650  1
  Cu  Cu12  1  0.50000000  0.80940050  0.89645650  1
  Cu  Cu13  1  0.00000000  0.69059950  0.60354350  1
  Cu  Cu14  1  0.25000000  0.00000000  0.73121000  1
  Cu  Cu15  1  0.75000000  0.50000000  0.76879000  1
  Cu  Cu16  1  0.25000000  0.50000000  0.76879000  1
  Cu  Cu17  1  0.75000000  0.00000000  0.73121000  1
  Cu  Cu18  1  0.75000000  0.00000000  0.50000000  1
  Cu  Cu19  1  0.25000000  0.00000000  0.50000000  1
  As  As20  1  0.00000000  0.72308700  0.38337600  1
  As  As21  1  0.50000000  0.77691300  0.11662400  1
  As  As22  1  0.00000000  0.22308700  0.11662400  1
  As  As23  1  0.50000000  0.27691300  0.38337600  1
  As  As24  1  0.50000000  0.22308700  0.88337600  1
  As  As25  1  0.00000000  0.27691300  0.61662400  1
  As  As26  1  0.50000000  0.72308700  0.61662400  1
  As  As27  1  0.00000000  0.77691300  0.88337600  1
