# generated using pymatgen
data_Eu(Al10V)2
_symmetry_space_group_name_H-M   'P 1'
_cell_length_a   14.55705800
_cell_length_b   14.55705800
_cell_length_c   14.55705800
_cell_angle_alpha   90.00000000
_cell_angle_beta   90.00000000
_cell_angle_gamma   90.00000000
_symmetry_Int_Tables_number   1
_chemical_formula_structural   Eu(Al10V)2
_chemical_formula_sum   'Eu8 Al160 V16'
_cell_volume   3084.75613853
_cell_formula_units_Z   8
loop_
 _symmetry_equiv_pos_site_id
 _symmetry_equiv_pos_as_xyz
  1  'x, y, z'
loop_
 _atom_site_type_symbol
 _atom_site_label
 _atom_site_symmetry_multiplicity
 _atom_site_fract_x
 _atom_site_fract_y
 _atom_site_fract_z
 _atom_site_occupancy
  Eu  Eu0  1  0.00000000  0.00000000  0.50000000  1
  Eu  Eu1  1  0.25000000  0.75000000  0.25000000  1
  Eu  Eu2  1  0.00000000  0.50000000  0.00000000  1
  Eu  Eu3  1  0.25000000  0.25000000  0.75000000  1
  Eu  Eu4  1  0.50000000  0.00000000  0.00000000  1
  Eu  Eu5  1  0.75000000  0.75000000  0.75000000  1
  Eu  Eu6  1  0.50000000  0.50000000  0.50000000  1
  Eu  Eu7  1  0.75000000  0.25000000  0.25000000  1
  Al  Al8  1  0.79938000  0.93386200  0.43386200  1
  Al  Al9  1  0.04938000  0.81613800  0.18386200  1
  Al  Al10  1  0.06613800  0.29938000  0.06613800  1
  Al  Al11  1  0.18386200  0.95062000  0.18386200  1
  Al  Al12  1  0.45062000  0.81613800  0.31613800  1
  Al  Al13  1  0.18386200  0.81613800  0.04938000  1
  Al  Al14  1  0.43386200  0.06613800  0.20062000  1
  Al  Al15  1  0.20062000  0.06613800  0.43386200  1
  Al  Al16  1  0.25000000  0.11112500  0.25000000  1
  Al  Al17  1  0.63887500  0.00000000  0.50000000  1
  Al  Al18  1  0.81613800  0.18386200  0.04938000  1
  Al  Al19  1  0.95062000  0.18386200  0.18386200  1
  Al  Al20  1  0.31613800  0.81613800  0.45062000  1
  Al  Al21  1  0.36112500  0.00000000  0.50000000  1
  Al  Al22  1  0.25000000  0.38887500  0.25000000  1
  Al  Al23  1  0.50000000  0.86112500  0.50000000  1
  Al  Al24  1  0.11112500  0.25000000  0.25000000  1
  Al  Al25  1  0.93386200  0.70062000  0.06613800  1
  Al  Al26  1  0.56613800  0.70062000  0.43386200  1
  Al  Al27  1  0.50000000  0.13887500  0.50000000  1
  Al  Al28  1  0.68386200  0.18386200  0.45062000  1
  Al  Al29  1  0.06613800  0.06613800  0.29938000  1
  Al  Al30  1  0.56613800  0.93386200  0.20062000  1
  Al  Al31  1  0.00000000  0.00000000  0.13887500  1
  Al  Al32  1  0.37500000  0.87500000  0.12500000  1
  Al  Al33  1  0.29938000  0.06613800  0.06613800  1
  Al  Al34  1  0.50000000  0.00000000  0.36112500  1
  Al  Al35  1  0.38887500  0.25000000  0.25000000  1
  Al  Al36  1  0.25000000  0.25000000  0.11112500  1
  Al  Al37  1  0.81613800  0.04938000  0.18386200  1
  Al  Al38  1  0.43386200  0.29938000  0.43386200  1
  Al  Al39  1  0.25000000  0.25000000  0.38887500  1
  Al  Al40  1  0.70062000  0.93386200  0.06613800  1
  Al  Al41  1  0.12500000  0.62500000  0.12500000  1
  Al  Al42  1  0.31613800  0.95062000  0.31613800  1
  Al  Al43  1  0.54938000  0.18386200  0.31613800  1
  Al  Al44  1  0.68386200  0.04938000  0.31613800  1
  Al  Al45  1  0.12500000  0.87500000  0.37500000  1
  Al  Al46  1  0.93386200  0.93386200  0.29938000  1
  Al  Al47  1  0.37500000  0.62500000  0.37500000  1
  Al  Al48  1  0.79938000  0.43386200  0.93386200  1
  Al  Al49  1  0.04938000  0.31613800  0.68386200  1
  Al  Al50  1  0.06613800  0.79938000  0.56613800  1
  Al  Al51  1  0.18386200  0.45062000  0.68386200  1
  Al  Al52  1  0.45062000  0.31613800  0.81613800  1
  Al  Al53  1  0.18386200  0.31613800  0.54938000  1
  Al  Al54  1  0.43386200  0.56613800  0.70062000  1
  Al  Al55  1  0.20062000  0.56613800  0.93386200  1
  Al  Al56  1  0.25000000  0.61112500  0.75000000  1
  Al  Al57  1  0.63887500  0.50000000  0.00000000  1
  Al  Al58  1  0.81613800  0.68386200  0.54938000  1
  Al  Al59  1  0.95062000  0.68386200  0.68386200  1
  Al  Al60  1  0.31613800  0.31613800  0.95062000  1
  Al  Al61  1  0.36112500  0.50000000  0.00000000  1
  Al  Al62  1  0.25000000  0.88887500  0.75000000  1
  Al  Al63  1  0.50000000  0.36112500  0.00000000  1
  Al  Al64  1  0.11112500  0.75000000  0.75000000  1
  Al  Al65  1  0.93386200  0.20062000  0.56613800  1
  Al  Al66  1  0.56613800  0.20062000  0.93386200  1
  Al  Al67  1  0.50000000  0.63887500  0.00000000  1
  Al  Al68  1  0.68386200  0.68386200  0.95062000  1
  Al  Al69  1  0.06613800  0.56613800  0.79938000  1
  Al  Al70  1  0.56613800  0.43386200  0.70062000  1
  Al  Al71  1  0.00000000  0.50000000  0.63887500  1
  Al  Al72  1  0.37500000  0.37500000  0.62500000  1
  Al  Al73  1  0.29938000  0.56613800  0.56613800  1
  Al  Al74  1  0.50000000  0.50000000  0.86112500  1
  Al  Al75  1  0.38887500  0.75000000  0.75000000  1
  Al  Al76  1  0.25000000  0.75000000  0.61112500  1
  Al  Al77  1  0.81613800  0.54938000  0.68386200  1
  Al  Al78  1  0.43386200  0.79938000  0.93386200  1
  Al  Al79  1  0.25000000  0.75000000  0.88887500  1
  Al  Al80  1  0.70062000  0.43386200  0.56613800  1
  Al  Al81  1  0.12500000  0.12500000  0.62500000  1
  Al  Al82  1  0.31613800  0.45062000  0.81613800  1
  Al  Al83  1  0.54938000  0.68386200  0.81613800  1
  Al  Al84  1  0.68386200  0.54938000  0.81613800  1
  Al  Al85  1  0.12500000  0.37500000  0.87500000  1
  Al  Al86  1  0.93386200  0.43386200  0.79938000  1
  Al  Al87  1  0.37500000  0.12500000  0.87500000  1
  Al  Al88  1  0.29938000  0.93386200  0.93386200  1
  Al  Al89  1  0.54938000  0.81613800  0.68386200  1
  Al  Al90  1  0.56613800  0.29938000  0.56613800  1
  Al  Al91  1  0.68386200  0.95062000  0.68386200  1
  Al  Al92  1  0.95062000  0.81613800  0.81613800  1
  Al  Al93  1  0.68386200  0.81613800  0.54938000  1
  Al  Al94  1  0.93386200  0.06613800  0.70062000  1
  Al  Al95  1  0.70062000  0.06613800  0.93386200  1
  Al  Al96  1  0.75000000  0.11112500  0.75000000  1
  Al  Al97  1  0.13887500  0.00000000  0.00000000  1
  Al  Al98  1  0.31613800  0.18386200  0.54938000  1
  Al  Al99  1  0.45062000  0.18386200  0.68386200  1
  Al  Al100  1  0.81613800  0.81613800  0.95062000  1
  Al  Al101  1  0.86112500  0.00000000  0.00000000  1
  Al  Al102  1  0.75000000  0.38887500  0.75000000  1
  Al  Al103  1  0.00000000  0.86112500  0.00000000  1
  Al  Al104  1  0.61112500  0.25000000  0.75000000  1
  Al  Al105  1  0.43386200  0.70062000  0.56613800  1
  Al  Al106  1  0.06613800  0.70062000  0.93386200  1
  Al  Al107  1  0.00000000  0.13887500  0.00000000  1
  Al  Al108  1  0.18386200  0.18386200  0.95062000  1
  Al  Al109  1  0.56613800  0.06613800  0.79938000  1
  Al  Al110  1  0.06613800  0.93386200  0.70062000  1
  Al  Al111  1  0.50000000  0.00000000  0.63887500  1
  Al  Al112  1  0.87500000  0.87500000  0.62500000  1
  Al  Al113  1  0.79938000  0.06613800  0.56613800  1
  Al  Al114  1  0.00000000  0.00000000  0.86112500  1
  Al  Al115  1  0.88887500  0.25000000  0.75000000  1
  Al  Al116  1  0.75000000  0.25000000  0.61112500  1
  Al  Al117  1  0.31613800  0.04938000  0.68386200  1
  Al  Al118  1  0.93386200  0.29938000  0.93386200  1
  Al  Al119  1  0.75000000  0.25000000  0.88887500  1
  Al  Al120  1  0.20062000  0.93386200  0.56613800  1
  Al  Al121  1  0.62500000  0.62500000  0.62500000  1
  Al  Al122  1  0.81613800  0.95062000  0.81613800  1
  Al  Al123  1  0.04938000  0.18386200  0.81613800  1
  Al  Al124  1  0.18386200  0.04938000  0.81613800  1
  Al  Al125  1  0.62500000  0.87500000  0.87500000  1
  Al  Al126  1  0.43386200  0.93386200  0.79938000  1
  Al  Al127  1  0.87500000  0.62500000  0.87500000  1
  Al  Al128  1  0.29938000  0.43386200  0.43386200  1
  Al  Al129  1  0.54938000  0.31613800  0.18386200  1
  Al  Al130  1  0.56613800  0.79938000  0.06613800  1
  Al  Al131  1  0.68386200  0.45062000  0.18386200  1
  Al  Al132  1  0.95062000  0.31613800  0.31613800  1
  Al  Al133  1  0.68386200  0.31613800  0.04938000  1
  Al  Al134  1  0.93386200  0.56613800  0.20062000  1
  Al  Al135  1  0.70062000  0.56613800  0.43386200  1
  Al  Al136  1  0.75000000  0.61112500  0.25000000  1
  Al  Al137  1  0.13887500  0.50000000  0.50000000  1
  Al  Al138  1  0.31613800  0.68386200  0.04938000  1
  Al  Al139  1  0.45062000  0.68386200  0.18386200  1
  Al  Al140  1  0.81613800  0.31613800  0.45062000  1
  Al  Al141  1  0.86112500  0.50000000  0.50000000  1
  Al  Al142  1  0.75000000  0.88887500  0.25000000  1
  Al  Al143  1  0.00000000  0.36112500  0.50000000  1
  Al  Al144  1  0.61112500  0.75000000  0.25000000  1
  Al  Al145  1  0.43386200  0.20062000  0.06613800  1
  Al  Al146  1  0.06613800  0.20062000  0.43386200  1
  Al  Al147  1  0.00000000  0.63887500  0.50000000  1
  Al  Al148  1  0.18386200  0.68386200  0.45062000  1
  Al  Al149  1  0.56613800  0.56613800  0.29938000  1
  Al  Al150  1  0.06613800  0.43386200  0.20062000  1
  Al  Al151  1  0.50000000  0.50000000  0.13887500  1
  Al  Al152  1  0.87500000  0.37500000  0.12500000  1
  Al  Al153  1  0.79938000  0.56613800  0.06613800  1
  Al  Al154  1  0.00000000  0.50000000  0.36112500  1
  Al  Al155  1  0.88887500  0.75000000  0.25000000  1
  Al  Al156  1  0.75000000  0.75000000  0.11112500  1
  Al  Al157  1  0.31613800  0.54938000  0.18386200  1
  Al  Al158  1  0.93386200  0.79938000  0.43386200  1
  Al  Al159  1  0.75000000  0.75000000  0.38887500  1
  Al  Al160  1  0.20062000  0.43386200  0.06613800  1
  Al  Al161  1  0.62500000  0.12500000  0.12500000  1
  Al  Al162  1  0.81613800  0.45062000  0.31613800  1
  Al  Al163  1  0.04938000  0.68386200  0.31613800  1
  Al  Al164  1  0.18386200  0.54938000  0.31613800  1
  Al  Al165  1  0.62500000  0.37500000  0.37500000  1
  Al  Al166  1  0.43386200  0.43386200  0.29938000  1
  Al  Al167  1  0.87500000  0.12500000  0.37500000  1
  V  V168  1  0.87500000  0.87500000  0.12500000  1
  V  V169  1  0.37500000  0.12500000  0.37500000  1
  V  V170  1  0.62500000  0.87500000  0.37500000  1
  V  V171  1  0.12500000  0.12500000  0.12500000  1
  V  V172  1  0.87500000  0.37500000  0.62500000  1
  V  V173  1  0.37500000  0.62500000  0.87500000  1
  V  V174  1  0.62500000  0.37500000  0.87500000  1
  V  V175  1  0.12500000  0.62500000  0.62500000  1
  V  V176  1  0.37500000  0.87500000  0.62500000  1
  V  V177  1  0.87500000  0.12500000  0.87500000  1
  V  V178  1  0.12500000  0.87500000  0.87500000  1
  V  V179  1  0.62500000  0.12500000  0.62500000  1
  V  V180  1  0.37500000  0.37500000  0.12500000  1
  V  V181  1  0.87500000  0.62500000  0.37500000  1
  V  V182  1  0.12500000  0.37500000  0.37500000  1
  V  V183  1  0.62500000  0.62500000  0.12500000  1
