# generated using pymatgen
data_Gd3(AlNi3)2
_symmetry_space_group_name_H-M   'P 1'
_cell_length_a   8.96532400
_cell_length_b   8.96532400
_cell_length_c   8.96532400
_cell_angle_alpha   90.00000000
_cell_angle_beta   90.00000000
_cell_angle_gamma   90.00000000
_symmetry_Int_Tables_number   1
_chemical_formula_structural   Gd3(AlNi3)2
_chemical_formula_sum   'Gd12 Al8 Ni24'
_cell_volume   720.60615578
_cell_formula_units_Z   4
loop_
 _symmetry_equiv_pos_site_id
 _symmetry_equiv_pos_as_xyz
  1  'x, y, z'
loop_
 _atom_site_type_symbol
 _atom_site_label
 _atom_site_symmetry_multiplicity
 _atom_site_fract_x
 _atom_site_fract_y
 _atom_site_fract_z
 _atom_site_occupancy
  Gd  Gd0  1  0.00000000  0.00000000  0.29242000  1
  Gd  Gd1  1  0.29242000  0.00000000  0.00000000  1
  Gd  Gd2  1  0.70758000  0.00000000  0.00000000  1
  Gd  Gd3  1  0.00000000  0.70758000  0.00000000  1
  Gd  Gd4  1  0.00000000  0.00000000  0.70758000  1
  Gd  Gd5  1  0.00000000  0.29242000  0.00000000  1
  Gd  Gd6  1  0.50000000  0.50000000  0.79242000  1
  Gd  Gd7  1  0.79242000  0.50000000  0.50000000  1
  Gd  Gd8  1  0.20758000  0.50000000  0.50000000  1
  Gd  Gd9  1  0.50000000  0.20758000  0.50000000  1
  Gd  Gd10  1  0.50000000  0.50000000  0.20758000  1
  Gd  Gd11  1  0.50000000  0.79242000  0.50000000  1
  Al  Al12  1  0.25000000  0.25000000  0.75000000  1
  Al  Al13  1  0.75000000  0.25000000  0.25000000  1
  Al  Al14  1  0.25000000  0.75000000  0.25000000  1
  Al  Al15  1  0.25000000  0.25000000  0.25000000  1
  Al  Al16  1  0.75000000  0.75000000  0.25000000  1
  Al  Al17  1  0.25000000  0.75000000  0.75000000  1
  Al  Al18  1  0.75000000  0.25000000  0.75000000  1
  Al  Al19  1  0.75000000  0.75000000  0.75000000  1
  Ni  Ni20  1  0.16643000  0.83357000  0.50000000  1
  Ni  Ni21  1  0.50000000  0.83357000  0.16643000  1
  Ni  Ni22  1  0.16643000  0.50000000  0.83357000  1
  Ni  Ni23  1  0.83357000  0.50000000  0.16643000  1
  Ni  Ni24  1  0.16643000  0.50000000  0.16643000  1
  Ni  Ni25  1  0.83357000  0.16643000  0.50000000  1
  Ni  Ni26  1  0.33357000  0.00000000  0.33357000  1
  Ni  Ni27  1  0.50000000  0.16643000  0.83357000  1
  Ni  Ni28  1  0.33357000  0.33357000  0.00000000  1
  Ni  Ni29  1  0.00000000  0.33357000  0.33357000  1
  Ni  Ni30  1  0.16643000  0.16643000  0.50000000  1
  Ni  Ni31  1  0.50000000  0.16643000  0.16643000  1
  Ni  Ni32  1  0.66643000  0.33357000  0.00000000  1
  Ni  Ni33  1  0.00000000  0.33357000  0.66643000  1
  Ni  Ni34  1  0.66643000  0.00000000  0.33357000  1
  Ni  Ni35  1  0.33357000  0.00000000  0.66643000  1
  Ni  Ni36  1  0.66643000  0.00000000  0.66643000  1
  Ni  Ni37  1  0.33357000  0.66643000  0.00000000  1
  Ni  Ni38  1  0.83357000  0.50000000  0.83357000  1
  Ni  Ni39  1  0.00000000  0.66643000  0.33357000  1
  Ni  Ni40  1  0.83357000  0.83357000  0.50000000  1
  Ni  Ni41  1  0.50000000  0.83357000  0.83357000  1
  Ni  Ni42  1  0.66643000  0.66643000  0.00000000  1
  Ni  Ni43  1  0.00000000  0.66643000  0.66643000  1
