# generated using pymatgen
data_YMoClO4
_symmetry_space_group_name_H-M   'P 1'
_cell_length_a   10.32655600
_cell_length_b   7.34928200
_cell_length_c   6.95026674
_cell_angle_alpha   90.00000000
_cell_angle_beta   107.33415440
_cell_angle_gamma   90.00000000
_symmetry_Int_Tables_number   1
_chemical_formula_structural   YMoClO4
_chemical_formula_sum   'Y4 Mo4 Cl4 O16'
_cell_volume   503.51886903
_cell_formula_units_Z   4
loop_
 _symmetry_equiv_pos_site_id
 _symmetry_equiv_pos_as_xyz
  1  'x, y, z'
loop_
 _atom_site_type_symbol
 _atom_site_label
 _atom_site_symmetry_multiplicity
 _atom_site_fract_x
 _atom_site_fract_y
 _atom_site_fract_z
 _atom_site_occupancy
  Y  Y0  1  0.77841200  0.00000000  0.88616100  1
  Y  Y1  1  0.22158800  0.00000000  0.11383900  1
  Y  Y2  1  0.27841200  0.50000000  0.88616100  1
  Y  Y3  1  0.72158800  0.50000000  0.11383900  1
  Mo  Mo4  1  0.36205100  0.00000000  0.73147800  1
  Mo  Mo5  1  0.63794900  0.00000000  0.26852200  1
  Mo  Mo6  1  0.86205100  0.50000000  0.73147800  1
  Mo  Mo7  1  0.13794900  0.50000000  0.26852200  1
  Cl  Cl8  1  0.98907000  0.00000000  0.23191800  1
  Cl  Cl9  1  0.01093000  0.00000000  0.76808200  1
  Cl  Cl10  1  0.48907000  0.50000000  0.23191800  1
  Cl  Cl11  1  0.51093000  0.50000000  0.76808200  1
  O  O12  1  0.69941700  0.19053600  0.15351700  1
  O  O13  1  0.30058300  0.80946400  0.84648300  1
  O  O14  1  0.45750400  0.00000000  0.20199700  1
  O  O15  1  0.29347400  0.00000000  0.46580600  1
  O  O16  1  0.54249600  0.00000000  0.79800300  1
  O  O17  1  0.70652600  0.00000000  0.53419400  1
  O  O18  1  0.30058300  0.19053600  0.84648300  1
  O  O19  1  0.69941700  0.80946400  0.15351700  1
  O  O20  1  0.19941700  0.69053600  0.15351700  1
  O  O21  1  0.80058300  0.30946400  0.84648300  1
  O  O22  1  0.95750400  0.50000000  0.20199700  1
  O  O23  1  0.79347400  0.50000000  0.46580600  1
  O  O24  1  0.04249600  0.50000000  0.79800300  1
  O  O25  1  0.20652600  0.50000000  0.53419400  1
  O  O26  1  0.80058300  0.69053600  0.84648300  1
  O  O27  1  0.19941700  0.30946400  0.15351700  1
