# generated using pymatgen
data_CoPtF6
_symmetry_space_group_name_H-M   'P 1'
_cell_length_a   5.19234318
_cell_length_b   5.19234318
_cell_length_c   13.77119547
_cell_angle_alpha   90.00000000
_cell_angle_beta   90.00000000
_cell_angle_gamma   120.00000000
_symmetry_Int_Tables_number   1
_chemical_formula_structural   CoPtF6
_chemical_formula_sum   'Co3 Pt3 F18'
_cell_volume   321.53559126
_cell_formula_units_Z   3
loop_
 _symmetry_equiv_pos_site_id
 _symmetry_equiv_pos_as_xyz
  1  'x, y, z'
loop_
 _atom_site_type_symbol
 _atom_site_label
 _atom_site_symmetry_multiplicity
 _atom_site_fract_x
 _atom_site_fract_y
 _atom_site_fract_z
 _atom_site_occupancy
  Co  Co0  1  0.33333333  0.66666667  0.16666667  1
  Co  Co1  1  1.00000000  0.00000000  0.50000000  1
  Co  Co2  1  0.66666667  0.33333333  0.83333333  1
  Pt  Pt3  1  0.00000000  0.00000000  0.00000000  1
  Pt  Pt4  1  0.66666667  0.33333333  0.33333333  1
  Pt  Pt5  1  0.33333333  0.66666667  0.66666667  1
  F  F6  1  0.36958733  0.00478167  0.25160667  1
  F  F7  1  0.63519433  0.63041267  0.25160667  1
  F  F8  1  0.03147233  0.70292067  0.08172667  1
  F  F9  1  0.29707933  0.32855167  0.08172667  1
  F  F10  1  0.99521833  0.36480567  0.25160667  1
  F  F11  1  0.67144833  0.96852767  0.08172667  1
  F  F12  1  0.03625400  0.33811500  0.58494000  1
  F  F13  1  0.30186100  0.96374600  0.58494000  1
  F  F14  1  0.69813900  0.03625400  0.41506000  1
  F  F15  1  0.96374600  0.66188500  0.41506000  1
  F  F16  1  0.66188500  0.69813900  0.58494000  1
  F  F17  1  0.33811500  0.30186100  0.41506000  1
  F  F18  1  0.70292067  0.67144833  0.91827333  1
  F  F19  1  0.96852767  0.29707933  0.91827333  1
  F  F20  1  0.36480567  0.36958733  0.74839333  1
  F  F21  1  0.63041267  0.99521833  0.74839333  1
  F  F22  1  0.32855167  0.03147233  0.91827333  1
  F  F23  1  0.00478167  0.63519433  0.74839333  1
