# generated using pymatgen
data_FeP2O7
_symmetry_space_group_name_H-M   'P 1'
_cell_length_a   10.06558000
_cell_length_b   8.43723000
_cell_length_c   6.98355695
_cell_angle_alpha   90.00000000
_cell_angle_beta   118.98281076
_cell_angle_gamma   90.00000000
_symmetry_Int_Tables_number   1
_chemical_formula_structural   FeP2O7
_chemical_formula_sum   'Fe4 P8 O28'
_cell_volume   518.80819522
_cell_formula_units_Z   4
loop_
 _symmetry_equiv_pos_site_id
 _symmetry_equiv_pos_as_xyz
  1  'x, y, z'
loop_
 _atom_site_type_symbol
 _atom_site_label
 _atom_site_symmetry_multiplicity
 _atom_site_fract_x
 _atom_site_fract_y
 _atom_site_fract_z
 _atom_site_occupancy
  Fe  Fe0  1  0.00000000  0.69390600  0.50000000  1
  Fe  Fe1  1  0.00000000  0.30609400  0.50000000  1
  Fe  Fe2  1  0.50000000  0.19390600  0.50000000  1
  Fe  Fe3  1  0.50000000  0.80609400  0.50000000  1
  P  P4  1  0.73428200  0.50000000  0.57495200  1
  P  P5  1  0.19027200  0.50000000  0.94868300  1
  P  P6  1  0.26571800  0.50000000  0.42504800  1
  P  P7  1  0.80972800  0.50000000  0.05131700  1
  P  P8  1  0.23428200  0.00000000  0.57495200  1
  P  P9  1  0.69027200  0.00000000  0.94868300  1
  P  P10  1  0.76571800  0.00000000  0.42504800  1
  P  P11  1  0.30972800  0.00000000  0.05131700  1
  O  O12  1  0.11542650  0.65308350  0.82534300  1
  O  O13  1  0.11542650  0.34691650  0.82534300  1
  O  O14  1  0.13827100  0.50000000  0.49037300  1
  O  O15  1  0.14053500  0.15020000  0.49964000  1
  O  O16  1  0.14053500  0.84980000  0.49964000  1
  O  O17  1  0.16851900  0.50000000  0.16108700  1
  O  O18  1  0.64057500  0.50000000  0.98645000  1
  O  O19  1  0.85946500  0.15020000  0.50036000  1
  O  O20  1  0.85946500  0.84980000  0.50036000  1
  O  O21  1  0.86172900  0.50000000  0.50962700  1
  O  O22  1  0.88457350  0.65308350  0.17465700  1
  O  O23  1  0.88457350  0.34691650  0.17465700  1
  O  O24  1  0.35942500  0.50000000  0.01355000  1
  O  O25  1  0.83148100  0.50000000  0.83891300  1
  O  O26  1  0.61542650  0.15308350  0.82534300  1
  O  O27  1  0.61542650  0.84691650  0.82534300  1
  O  O28  1  0.63827100  0.00000000  0.49037300  1
  O  O29  1  0.64053500  0.65020000  0.49964000  1
  O  O30  1  0.64053500  0.34980000  0.49964000  1
  O  O31  1  0.66851900  0.00000000  0.16108700  1
  O  O32  1  0.14057500  0.00000000  0.98645000  1
  O  O33  1  0.35946500  0.65020000  0.50036000  1
  O  O34  1  0.35946500  0.34980000  0.50036000  1
  O  O35  1  0.36172900  0.00000000  0.50962700  1
  O  O36  1  0.38457350  0.15308350  0.17465700  1
  O  O37  1  0.38457350  0.84691650  0.17465700  1
  O  O38  1  0.85942500  0.00000000  0.01355000  1
  O  O39  1  0.33148100  0.00000000  0.83891300  1
