# generated using pymatgen
data_Ca4Fe9O17
_symmetry_space_group_name_H-M   'P 1'
_cell_length_a   10.55893800
_cell_length_b   6.09026800
_cell_length_c   11.57264123
_cell_angle_alpha   90.00000000
_cell_angle_beta   98.64543427
_cell_angle_gamma   90.00000000
_symmetry_Int_Tables_number   1
_chemical_formula_structural   Ca4Fe9O17
_chemical_formula_sum   'Ca8 Fe18 O34'
_cell_volume   735.74311960
_cell_formula_units_Z   2
loop_
 _symmetry_equiv_pos_site_id
 _symmetry_equiv_pos_as_xyz
  1  'x, y, z'
loop_
 _atom_site_type_symbol
 _atom_site_label
 _atom_site_symmetry_multiplicity
 _atom_site_fract_x
 _atom_site_fract_y
 _atom_site_fract_z
 _atom_site_occupancy
  Ca  Ca0  1  0.54020850  0.00106750  0.24928400  1
  Ca  Ca1  1  0.95979150  0.50106750  0.75071600  1
  Ca  Ca2  1  0.79375050  0.00003350  0.75964200  1
  Ca  Ca3  1  0.70624950  0.50003350  0.24035800  1
  Ca  Ca4  1  0.04020850  0.50106750  0.24928400  1
  Ca  Ca5  1  0.45979150  0.00106750  0.75071600  1
  Ca  Ca6  1  0.29375050  0.50003350  0.75964200  1
  Ca  Ca7  1  0.20624950  0.00003350  0.24035800  1
  Fe  Fe8  1  0.83577750  0.33194050  0.99969800  1
  Fe  Fe9  1  0.66422250  0.83194050  0.00030200  1
  Fe  Fe10  1  0.00000000  0.84152000  0.00000000  1
  Fe  Fe11  1  0.87013600  0.00045300  0.22456000  1
  Fe  Fe12  1  0.62986400  0.50045300  0.77544000  1
  Fe  Fe13  1  0.75150850  0.49673350  0.50786700  1
  Fe  Fe14  1  0.74849150  0.99673350  0.49213300  1
  Fe  Fe15  1  0.00000000  0.25155800  0.50000000  1
  Fe  Fe16  1  0.00000000  0.74831600  0.50000000  1
  Fe  Fe17  1  0.33577750  0.83194050  0.99969800  1
  Fe  Fe18  1  0.16422250  0.33194050  0.00030200  1
  Fe  Fe19  1  0.50000000  0.34152000  0.00000000  1
  Fe  Fe20  1  0.37013600  0.50045300  0.22456000  1
  Fe  Fe21  1  0.12986400  0.00045300  0.77544000  1
  Fe  Fe22  1  0.25150850  0.99673350  0.50786700  1
  Fe  Fe23  1  0.24849150  0.49673350  0.49213300  1
  Fe  Fe24  1  0.50000000  0.75155800  0.50000000  1
  Fe  Fe25  1  0.50000000  0.24831600  0.50000000  1
  O  O26  1  0.66930700  0.49463400  0.02042600  1
  O  O27  1  0.83069300  0.99463400  0.97957400  1
  O  O28  1  0.50859250  0.34762950  0.17715800  1
  O  O29  1  0.99140750  0.84762950  0.82284200  1
  O  O30  1  0.71212550  0.85854650  0.17808600  1
  O  O31  1  0.78787450  0.35854650  0.82191400  1
  O  O32  1  0.86693500  0.29637000  0.17758100  1
  O  O33  1  0.63306500  0.79637000  0.82241900  1
  O  O34  1  0.00000000  0.51066100  0.00000000  1
  O  O35  1  0.65349050  0.24908850  0.40531000  1
  O  O36  1  0.84650950  0.74908850  0.59469000  1
  O  O37  1  0.64756550  0.74354750  0.40569500  1
  O  O38  1  0.85243450  0.24354750  0.59430500  1
  O  O39  1  0.59837800  0.49817700  0.59882800  1
  O  O40  1  0.90162200  0.99817700  0.40117200  1
  O  O41  1  0.59932350  0.00425150  0.59327300  1
  O  O42  1  0.90067650  0.50425150  0.40672700  1
  O  O43  1  0.16930700  0.99463400  0.02042600  1
  O  O44  1  0.33069300  0.49463400  0.97957400  1
  O  O45  1  0.00859250  0.84762950  0.17715800  1
  O  O46  1  0.49140750  0.34762950  0.82284200  1
  O  O47  1  0.21212550  0.35854650  0.17808600  1
  O  O48  1  0.28787450  0.85854650  0.82191400  1
  O  O49  1  0.36693500  0.79637000  0.17758100  1
  O  O50  1  0.13306500  0.29637000  0.82241900  1
  O  O51  1  0.50000000  0.01066100  0.00000000  1
  O  O52  1  0.15349050  0.74908850  0.40531000  1
  O  O53  1  0.34650950  0.24908850  0.59469000  1
  O  O54  1  0.14756550  0.24354750  0.40569500  1
  O  O55  1  0.35243450  0.74354750  0.59430500  1
  O  O56  1  0.09837800  0.99817700  0.59882800  1
  O  O57  1  0.40162200  0.49817700  0.40117200  1
  O  O58  1  0.09932350  0.50425150  0.59327300  1
  O  O59  1  0.40067650  0.00425150  0.40672700  1
