# generated using pymatgen
data_BaVSi2O7
_symmetry_space_group_name_H-M   'P 1'
_cell_length_a   7.16572846
_cell_length_b   7.16572846
_cell_length_c   11.63563151
_cell_angle_alpha   90.00000000
_cell_angle_beta   90.00000000
_cell_angle_gamma   90.00000000
_symmetry_Int_Tables_number   1
_chemical_formula_structural   BaVSi2O7
_chemical_formula_sum   'Ba4 V4 Si8 O28'
_cell_volume   597.46250092
_cell_formula_units_Z   4
loop_
 _symmetry_equiv_pos_site_id
 _symmetry_equiv_pos_as_xyz
  1  'x, y, z'
loop_
 _atom_site_type_symbol
 _atom_site_label
 _atom_site_symmetry_multiplicity
 _atom_site_fract_x
 _atom_site_fract_y
 _atom_site_fract_z
 _atom_site_occupancy
  Ba  Ba0  1  0.50000000  0.00000000  0.25000000  1
  Ba  Ba1  1  0.00000000  0.50000000  0.25000000  1
  Ba  Ba2  1  0.00000000  0.50000000  0.75000000  1
  Ba  Ba3  1  0.50000000  0.00000000  0.75000000  1
  V  V4  1  0.50000000  0.50000000  0.15784900  1
  V  V5  1  0.00000000  0.00000000  0.34215100  1
  V  V6  1  0.00000000  0.00000000  0.65784900  1
  V  V7  1  0.50000000  0.50000000  0.84215100  1
  Si  Si8  1  0.78361350  0.76844250  0.00000000  1
  Si  Si9  1  0.76844250  0.21638650  0.00000000  1
  Si  Si10  1  0.73155750  0.28361350  0.50000000  1
  Si  Si11  1  0.21638650  0.23155750  0.00000000  1
  Si  Si12  1  0.28361350  0.26844250  0.50000000  1
  Si  Si13  1  0.26844250  0.71638650  0.50000000  1
  Si  Si14  1  0.23155750  0.78361350  0.00000000  1
  Si  Si15  1  0.71638650  0.73155750  0.50000000  1
  O  O16  1  0.50000000  0.50000000  0.29929250  1
  O  O17  1  0.00000000  0.00000000  0.20070750  1
  O  O18  1  0.27058800  0.00927400  0.00000000  1
  O  O19  1  0.72941200  0.99072600  0.00000000  1
  O  O20  1  0.50927400  0.22941200  0.50000000  1
  O  O21  1  0.99072600  0.27058800  0.00000000  1
  O  O22  1  0.82197850  0.20219750  0.38179800  1
  O  O23  1  0.32197850  0.70219750  0.11820200  1
  O  O24  1  0.70219750  0.67802150  0.11820200  1
  O  O25  1  0.79780250  0.82197850  0.38179800  1
  O  O26  1  0.17802150  0.79780250  0.38179800  1
  O  O27  1  0.20219750  0.17802150  0.38179800  1
  O  O28  1  0.67802150  0.29780250  0.11820200  1
  O  O29  1  0.29780250  0.32197850  0.11820200  1
  O  O30  1  0.00000000  0.00000000  0.79929250  1
  O  O31  1  0.50000000  0.50000000  0.70070750  1
  O  O32  1  0.77058800  0.50927400  0.50000000  1
  O  O33  1  0.22941200  0.49072600  0.50000000  1
  O  O34  1  0.00927400  0.72941200  0.00000000  1
  O  O35  1  0.49072600  0.77058800  0.50000000  1
  O  O36  1  0.32197850  0.70219750  0.88179800  1
  O  O37  1  0.82197850  0.20219750  0.61820200  1
  O  O38  1  0.20219750  0.17802150  0.61820200  1
  O  O39  1  0.29780250  0.32197850  0.88179800  1
  O  O40  1  0.67802150  0.29780250  0.88179800  1
  O  O41  1  0.70219750  0.67802150  0.88179800  1
  O  O42  1  0.17802150  0.79780250  0.61820200  1
  O  O43  1  0.79780250  0.82197850  0.61820200  1
