# generated using pymatgen
data_V2Cd(PO5)2
_symmetry_space_group_name_H-M   'P 1'
_cell_length_a   7.27305400
_cell_length_b   11.60485200
_cell_length_c   16.23310200
_cell_angle_alpha   90.00000000
_cell_angle_beta   90.00000000
_cell_angle_gamma   90.00000000
_symmetry_Int_Tables_number   1
_chemical_formula_structural   V2Cd(PO5)2
_chemical_formula_sum   'V16 Cd8 P16 O80'
_cell_volume   1370.11788586
_cell_formula_units_Z   8
loop_
 _symmetry_equiv_pos_site_id
 _symmetry_equiv_pos_as_xyz
  1  'x, y, z'
loop_
 _atom_site_type_symbol
 _atom_site_label
 _atom_site_symmetry_multiplicity
 _atom_site_fract_x
 _atom_site_fract_y
 _atom_site_fract_z
 _atom_site_occupancy
  V  V0  1  0.85943200  0.86434350  0.63014150  1
  V  V1  1  0.60943200  0.88565650  0.88014150  1
  V  V2  1  0.35943200  0.13565650  0.86985850  1
  V  V3  1  0.10943200  0.11434350  0.61985850  1
  V  V4  1  0.35943200  0.86434350  0.13014150  1
  V  V5  1  0.10943200  0.88565650  0.38014150  1
  V  V6  1  0.85943200  0.13565650  0.36985850  1
  V  V7  1  0.60943200  0.11434350  0.11985850  1
  V  V8  1  0.35943200  0.36434350  0.63014150  1
  V  V9  1  0.10943200  0.38565650  0.88014150  1
  V  V10  1  0.85943200  0.63565650  0.86985850  1
  V  V11  1  0.60943200  0.61434350  0.61985850  1
  V  V12  1  0.85943200  0.36434350  0.13014150  1
  V  V13  1  0.60943200  0.38565650  0.38014150  1
  V  V14  1  0.35943200  0.63565650  0.36985850  1
  V  V15  1  0.10943200  0.61434350  0.11985850  1
  Cd  Cd16  1  0.49938900  0.00000000  0.50000000  1
  Cd  Cd17  1  0.24938900  0.75000000  0.75000000  1
  Cd  Cd18  1  0.99938900  0.00000000  0.00000000  1
  Cd  Cd19  1  0.74938900  0.75000000  0.25000000  1
  Cd  Cd20  1  0.99938900  0.50000000  0.50000000  1
  Cd  Cd21  1  0.74938900  0.25000000  0.75000000  1
  Cd  Cd22  1  0.49938900  0.50000000  0.00000000  1
  Cd  Cd23  1  0.24938900  0.25000000  0.25000000  1
  P  P24  1  0.99411000  0.99959800  0.79166600  1
  P  P25  1  0.24411000  0.75040200  0.54166600  1
  P  P26  1  0.49411000  0.00040200  0.70833400  1
  P  P27  1  0.24411000  0.74959800  0.95833400  1
  P  P28  1  0.49411000  0.99959800  0.29166600  1
  P  P29  1  0.74411000  0.75040200  0.04166600  1
  P  P30  1  0.99411000  0.00040200  0.20833400  1
  P  P31  1  0.74411000  0.74959800  0.45833400  1
  P  P32  1  0.49411000  0.49959800  0.79166600  1
  P  P33  1  0.74411000  0.25040200  0.54166600  1
  P  P34  1  0.99411000  0.50040200  0.70833400  1
  P  P35  1  0.74411000  0.24959800  0.95833400  1
  P  P36  1  0.99411000  0.49959800  0.29166600  1
  P  P37  1  0.24411000  0.25040200  0.04166600  1
  P  P38  1  0.49411000  0.50040200  0.20833400  1
  P  P39  1  0.24411000  0.24959800  0.45833400  1
  O  O40  1  0.97163250  0.10616350  0.73330700  1
  O  O41  1  0.26503300  0.14058300  0.51451600  1
  O  O42  1  0.51503300  0.10941700  0.76451600  1
  O  O43  1  0.16504400  0.48551950  0.65320450  1
  O  O44  1  0.32783000  0.01277850  0.65025050  1
  O  O45  1  0.91504400  0.23551950  0.59679550  1
  O  O46  1  0.24132450  0.24817050  0.66611200  1
  O  O47  1  0.72163250  0.85616350  0.51669300  1
  O  O48  1  0.24132450  0.25182950  0.83388800  1
  O  O49  1  0.16504400  0.01448050  0.84679550  1
  O  O50  1  0.41504400  0.76448050  0.90320450  1
  O  O51  1  0.99132450  0.99817050  0.58388800  1
  O  O52  1  0.47163250  0.89383650  0.76669300  1
  O  O53  1  0.22163250  0.14383650  0.98330700  1
  O  O54  1  0.57783000  0.23722150  0.90025050  1
  O  O55  1  0.49132450  0.00182950  0.91611200  1
  O  O56  1  0.76503300  0.85941700  0.98548400  1
  O  O57  1  0.82783000  0.98722150  0.84974950  1
  O  O58  1  0.01503300  0.89058300  0.73548400  1
  O  O59  1  0.07783000  0.76277850  0.59974950  1
  O  O60  1  0.47163250  0.10616350  0.23330700  1
  O  O61  1  0.76503300  0.14058300  0.01451600  1
  O  O62  1  0.01503300  0.10941700  0.26451600  1
  O  O63  1  0.66504400  0.48551950  0.15320450  1
  O  O64  1  0.82783000  0.01277850  0.15025050  1
  O  O65  1  0.41504400  0.23551950  0.09679550  1
  O  O66  1  0.74132450  0.24817050  0.16611200  1
  O  O67  1  0.22163250  0.85616350  0.01669300  1
  O  O68  1  0.74132450  0.25182950  0.33388800  1
  O  O69  1  0.66504400  0.01448050  0.34679550  1
  O  O70  1  0.91504400  0.76448050  0.40320450  1
  O  O71  1  0.49132450  0.99817050  0.08388800  1
  O  O72  1  0.97163250  0.89383650  0.26669300  1
  O  O73  1  0.72163250  0.14383650  0.48330700  1
  O  O74  1  0.07783000  0.23722150  0.40025050  1
  O  O75  1  0.99132450  0.00182950  0.41611200  1
  O  O76  1  0.26503300  0.85941700  0.48548400  1
  O  O77  1  0.32783000  0.98722150  0.34974950  1
  O  O78  1  0.51503300  0.89058300  0.23548400  1
  O  O79  1  0.57783000  0.76277850  0.09974950  1
  O  O80  1  0.47163250  0.60616350  0.73330700  1
  O  O81  1  0.76503300  0.64058300  0.51451600  1
  O  O82  1  0.01503300  0.60941700  0.76451600  1
  O  O83  1  0.66504400  0.98551950  0.65320450  1
  O  O84  1  0.82783000  0.51277850  0.65025050  1
  O  O85  1  0.41504400  0.73551950  0.59679550  1
  O  O86  1  0.74132450  0.74817050  0.66611200  1
  O  O87  1  0.22163250  0.35616350  0.51669300  1
  O  O88  1  0.74132450  0.75182950  0.83388800  1
  O  O89  1  0.66504400  0.51448050  0.84679550  1
  O  O90  1  0.91504400  0.26448050  0.90320450  1
  O  O91  1  0.49132450  0.49817050  0.58388800  1
  O  O92  1  0.97163250  0.39383650  0.76669300  1
  O  O93  1  0.72163250  0.64383650  0.98330700  1
  O  O94  1  0.07783000  0.73722150  0.90025050  1
  O  O95  1  0.99132450  0.50182950  0.91611200  1
  O  O96  1  0.26503300  0.35941700  0.98548400  1
  O  O97  1  0.32783000  0.48722150  0.84974950  1
  O  O98  1  0.51503300  0.39058300  0.73548400  1
  O  O99  1  0.57783000  0.26277850  0.59974950  1
  O  O100  1  0.97163250  0.60616350  0.23330700  1
  O  O101  1  0.26503300  0.64058300  0.01451600  1
  O  O102  1  0.51503300  0.60941700  0.26451600  1
  O  O103  1  0.16504400  0.98551950  0.15320450  1
  O  O104  1  0.32783000  0.51277850  0.15025050  1
  O  O105  1  0.91504400  0.73551950  0.09679550  1
  O  O106  1  0.24132450  0.74817050  0.16611200  1
  O  O107  1  0.72163250  0.35616350  0.01669300  1
  O  O108  1  0.24132450  0.75182950  0.33388800  1
  O  O109  1  0.16504400  0.51448050  0.34679550  1
  O  O110  1  0.41504400  0.26448050  0.40320450  1
  O  O111  1  0.99132450  0.49817050  0.08388800  1
  O  O112  1  0.47163250  0.39383650  0.26669300  1
  O  O113  1  0.22163250  0.64383650  0.48330700  1
  O  O114  1  0.57783000  0.73722150  0.40025050  1
  O  O115  1  0.49132450  0.50182950  0.41611200  1
  O  O116  1  0.76503300  0.35941700  0.48548400  1
  O  O117  1  0.82783000  0.48722150  0.34974950  1
  O  O118  1  0.01503300  0.39058300  0.23548400  1
  O  O119  1  0.07783000  0.26277850  0.09974950  1
