# generated using pymatgen
data_Er(CuGe)2
_symmetry_space_group_name_H-M   'P 1'
_cell_length_a   4.02350800
_cell_length_b   4.02350800
_cell_length_c   10.36625400
_cell_angle_alpha   90.00000000
_cell_angle_beta   90.00000000
_cell_angle_gamma   90.00000000
_symmetry_Int_Tables_number   1
_chemical_formula_structural   Er(CuGe)2
_chemical_formula_sum   'Er2 Cu4 Ge4'
_cell_volume   167.81531185
_cell_formula_units_Z   2
loop_
 _symmetry_equiv_pos_site_id
 _symmetry_equiv_pos_as_xyz
  1  'x, y, z'
loop_
 _atom_site_type_symbol
 _atom_site_label
 _atom_site_symmetry_multiplicity
 _atom_site_fract_x
 _atom_site_fract_y
 _atom_site_fract_z
 _atom_site_occupancy
  Er  Er0  1  0.00000000  0.00000000  0.00000000  1
  Er  Er1  1  0.50000000  0.50000000  0.50000000  1
  Cu  Cu2  1  0.50000000  0.00000000  0.25000000  1
  Cu  Cu3  1  0.00000000  0.50000000  0.25000000  1
  Cu  Cu4  1  0.00000000  0.50000000  0.75000000  1
  Cu  Cu5  1  0.50000000  0.00000000  0.75000000  1
  Ge  Ge6  1  0.50000000  0.50000000  0.11818100  1
  Ge  Ge7  1  0.00000000  0.00000000  0.38181900  1
  Ge  Ge8  1  0.00000000  0.00000000  0.61818100  1
  Ge  Ge9  1  0.50000000  0.50000000  0.88181900  1
