# generated using pymatgen
data_Eu2Re6S11
_symmetry_space_group_name_H-M   'P 1'
_cell_length_a   9.10935779
_cell_length_b   9.10935779
_cell_length_c   31.73606885
_cell_angle_alpha   90.00000000
_cell_angle_beta   90.00000000
_cell_angle_gamma   120.00000000
_symmetry_Int_Tables_number   1
_chemical_formula_structural   Eu2Re6S11
_chemical_formula_sum   'Eu12 Re36 S66'
_cell_volume   2280.65336353
_cell_formula_units_Z   6
loop_
 _symmetry_equiv_pos_site_id
 _symmetry_equiv_pos_as_xyz
  1  'x, y, z'
loop_
 _atom_site_type_symbol
 _atom_site_label
 _atom_site_symmetry_multiplicity
 _atom_site_fract_x
 _atom_site_fract_y
 _atom_site_fract_z
 _atom_site_occupancy
  Eu  Eu0  1  0.66666667  0.33333333  0.14311133  1
  Eu  Eu1  1  0.66666667  0.33333333  0.02355533  1
  Eu  Eu2  1  0.00000000  0.00000000  0.19022200  1
  Eu  Eu3  1  0.00000000  0.00000000  0.30977800  1
  Eu  Eu4  1  0.33333333  0.66666667  0.47644467  1
  Eu  Eu5  1  0.33333333  0.66666667  0.35688867  1
  Eu  Eu6  1  0.66666667  0.33333333  0.52355533  1
  Eu  Eu7  1  0.66666667  0.33333333  0.64311133  1
  Eu  Eu8  1  0.00000000  0.00000000  0.80977800  1
  Eu  Eu9  1  0.00000000  1.00000000  0.69022200  1
  Eu  Eu10  1  0.33333333  0.66666667  0.85688867  1
  Eu  Eu11  1  0.33333333  0.66666667  0.97644467  1
  Re  Re12  1  0.51273333  0.81725967  0.20104267  1
  Re  Re13  1  0.30452633  0.48726667  0.20104267  1
  Re  Re14  1  0.48726667  0.30452633  0.29895733  1
  Re  Re15  1  0.97119300  0.15059300  0.03437600  1
  Re  Re16  1  0.17940000  0.02880700  0.03437600  1
  Re  Re17  1  0.69547367  0.18274033  0.29895733  1
  Re  Re18  1  0.48392633  0.63785967  0.13229067  1
  Re  Re19  1  0.18274033  0.69547367  0.20104267  1
  Re  Re20  1  0.84940700  0.82060000  0.03437600  1
  Re  Re21  1  0.15393333  0.51607367  0.13229067  1
  Re  Re22  1  0.36214033  0.84606667  0.13229067  1
  Re  Re23  1  0.81725967  0.51273333  0.29895733  1
  Re  Re24  1  0.17940000  0.15059300  0.53437600  1
  Re  Re25  1  0.97119300  0.82060000  0.53437600  1
  Re  Re26  1  0.15393333  0.63785967  0.63229067  1
  Re  Re27  1  0.63785967  0.48392633  0.36770933  1
  Re  Re28  1  0.84606667  0.36214033  0.36770933  1
  Re  Re29  1  0.36214033  0.51607367  0.63229067  1
  Re  Re30  1  0.15059300  0.97119300  0.46562400  1
  Re  Re31  1  0.84940700  0.02880700  0.53437600  1
  Re  Re32  1  0.51607367  0.15393333  0.36770933  1
  Re  Re33  1  0.82060000  0.84940700  0.46562400  1
  Re  Re34  1  0.02880700  0.17940000  0.46562400  1
  Re  Re35  1  0.48392633  0.84606667  0.63229067  1
  Re  Re36  1  0.84606667  0.48392633  0.86770933  1
  Re  Re37  1  0.63785967  0.15393333  0.86770933  1
  Re  Re38  1  0.82060000  0.97119300  0.96562400  1
  Re  Re39  1  0.30452633  0.81725967  0.70104267  1
  Re  Re40  1  0.51273333  0.69547367  0.70104267  1
  Re  Re41  1  0.02880700  0.84940700  0.96562400  1
  Re  Re42  1  0.81725967  0.30452633  0.79895733  1
  Re  Re43  1  0.51607367  0.36214033  0.86770933  1
  Re  Re44  1  0.18274033  0.48726667  0.70104267  1
  Re  Re45  1  0.48726667  0.18274033  0.79895733  1
  Re  Re46  1  0.69547367  0.51273333  0.79895733  1
  Re  Re47  1  0.15059300  0.17940000  0.96562400  1
  S  S48  1  0.66427500  0.94469200  0.13637100  1
  S  S49  1  0.00239167  0.38864133  0.19696233  1
  S  S50  1  0.66666667  0.58339733  0.08333333  1
  S  S51  1  0.61375033  0.61135867  0.30303767  1
  S  S52  1  0.66666667  0.33333333  0.24054033  1
  S  S53  1  0.38624967  0.99760833  0.19696233  1
  S  S54  1  0.66905833  0.94708367  0.03029567  1
  S  S55  1  0.27802533  0.33094167  0.03029567  1
  S  S56  1  0.99760833  0.38624967  0.30303767  1
  S  S57  1  0.38864133  0.00239167  0.30303767  1
  S  S58  1  0.00000000  0.74993600  0.25000000  1
  S  S59  1  0.05291633  0.72197467  0.03029567  1
  S  S60  1  0.41660267  0.08326933  0.08333333  1
  S  S61  1  0.91673067  0.33333333  0.08333333  1
  S  S62  1  0.00000000  0.00000000  0.09279300  1
  S  S63  1  0.05530800  0.71958300  0.13637100  1
  S  S64  1  0.61135867  0.61375033  0.19696233  1
  S  S65  1  0.28041700  0.33572500  0.13637100  1
  S  S66  1  0.33333333  0.66666667  0.07387367  1
  S  S67  1  0.74993600  0.00000000  0.25000000  1
  S  S68  1  0.33333333  0.66666667  0.25945967  1
  S  S69  1  0.25006400  0.25006400  0.25000000  1
  S  S70  1  0.33094167  0.27802533  0.46970433  1
  S  S71  1  0.66905833  0.72197467  0.53029567  1
  S  S72  1  0.33333333  0.91673067  0.41666667  1
  S  S73  1  0.28041700  0.94469200  0.63637100  1
  S  S74  1  0.33333333  0.66666667  0.57387367  1
  S  S75  1  0.05291633  0.33094167  0.53029567  1
  S  S76  1  0.33572500  0.28041700  0.36362900  1
  S  S77  1  0.94469200  0.66427500  0.36362900  1
  S  S78  1  0.66427500  0.71958300  0.63637100  1
  S  S79  1  0.05530800  0.33572500  0.63637100  1
  S  S80  1  0.66666667  0.08326933  0.58333333  1
  S  S81  1  0.71958300  0.05530800  0.36362900  1
  S  S82  1  0.08326933  0.41660267  0.41666667  1
  S  S83  1  0.58339733  0.66666667  0.41666667  1
  S  S84  1  0.66666667  0.33333333  0.42612633  1
  S  S85  1  0.72197467  0.05291633  0.46970433  1
  S  S86  1  0.27802533  0.94708367  0.53029567  1
  S  S87  1  0.94708367  0.66905833  0.46970433  1
  S  S88  1  0.00000000  0.00000000  0.40720700  1
  S  S89  1  0.41660267  0.33333333  0.58333333  1
  S  S90  1  0.00000000  0.00000000  0.59279300  1
  S  S91  1  0.91673067  0.58339733  0.58333333  1
  S  S92  1  0.99760833  0.61135867  0.80303767  1
  S  S93  1  0.33572500  0.05530800  0.86362900  1
  S  S94  1  0.00000000  0.25006400  0.75000000  1
  S  S95  1  0.94708367  0.27802533  0.96970433  1
  S  S96  1  0.00000000  0.00000000  0.90720700  1
  S  S97  1  0.71958300  0.66427500  0.86362900  1
  S  S98  1  0.00239167  0.61375033  0.69696233  1
  S  S99  1  0.61135867  0.99760833  0.69696233  1
  S  S100  1  0.33094167  0.05291633  0.96970433  1
  S  S101  1  0.72197467  0.66905833  0.96970433  1
  S  S102  1  0.33333333  0.41660267  0.91666667  1
  S  S103  1  0.38624967  0.38864133  0.69696233  1
  S  S104  1  0.74993600  0.74993600  0.75000000  1
  S  S105  1  0.25006400  0.00000000  0.75000000  1
  S  S106  1  0.33333333  0.66666667  0.75945967  1
  S  S107  1  0.38864133  0.38624967  0.80303767  1
  S  S108  1  0.94469200  0.28041700  0.86362900  1
  S  S109  1  0.61375033  0.00239167  0.80303767  1
  S  S110  1  0.66666667  0.33333333  0.74054033  1
  S  S111  1  0.08326933  0.66666667  0.91666667  1
  S  S112  1  0.66666667  0.33333333  0.92612633  1
  S  S113  1  0.58339733  0.91673067  0.91666667  1
