# generated using pymatgen
data_U2PdS4
_symmetry_space_group_name_H-M   'P 1'
_cell_length_a   8.23218200
_cell_length_b   10.63059800
_cell_length_c   13.19444000
_cell_angle_alpha   90.00000000
_cell_angle_beta   90.00000000
_cell_angle_gamma   90.00000000
_symmetry_Int_Tables_number   1
_chemical_formula_structural   U2PdS4
_chemical_formula_sum   'U16 Pd8 S32'
_cell_volume   1154.68525869
_cell_formula_units_Z   8
loop_
 _symmetry_equiv_pos_site_id
 _symmetry_equiv_pos_as_xyz
  1  'x, y, z'
loop_
 _atom_site_type_symbol
 _atom_site_label
 _atom_site_symmetry_multiplicity
 _atom_site_fract_x
 _atom_site_fract_y
 _atom_site_fract_z
 _atom_site_occupancy
  U  U0  1  0.35525250  0.80145700  0.97352250  1
  U  U1  1  0.85525250  0.19854300  0.52647750  1
  U  U2  1  0.60525250  0.94854300  0.72352250  1
  U  U3  1  0.10525250  0.05145700  0.77647750  1
  U  U4  1  0.85525250  0.80145700  0.47352250  1
  U  U5  1  0.35525250  0.19854300  0.02647750  1
  U  U6  1  0.10525250  0.94854300  0.22352250  1
  U  U7  1  0.60525250  0.05145700  0.27647750  1
  U  U8  1  0.85525250  0.30145700  0.97352250  1
  U  U9  1  0.35525250  0.69854300  0.52647750  1
  U  U10  1  0.10525250  0.44854300  0.72352250  1
  U  U11  1  0.60525250  0.55145700  0.77647750  1
  U  U12  1  0.35525250  0.30145700  0.47352250  1
  U  U13  1  0.85525250  0.69854300  0.02647750  1
  U  U14  1  0.60525250  0.44854300  0.22352250  1
  U  U15  1  0.10525250  0.55145700  0.27647750  1
  Pd  Pd16  1  0.24954900  0.75000000  0.75000000  1
  Pd  Pd17  1  0.49954900  0.00000000  0.50000000  1
  Pd  Pd18  1  0.74954900  0.75000000  0.25000000  1
  Pd  Pd19  1  0.99954900  0.00000000  0.00000000  1
  Pd  Pd20  1  0.74954900  0.25000000  0.75000000  1
  Pd  Pd21  1  0.99954900  0.50000000  0.50000000  1
  Pd  Pd22  1  0.24954900  0.25000000  0.25000000  1
  Pd  Pd23  1  0.49954900  0.50000000  0.00000000  1
  S  S24  1  0.89856150  0.96994900  0.62700950  1
  S  S25  1  0.39856150  0.03005100  0.87299050  1
  S  S26  1  0.64856150  0.78005100  0.87700950  1
  S  S27  1  0.14856150  0.21994900  0.62299050  1
  S  S28  1  0.30521100  0.57957650  0.86236150  1
  S  S29  1  0.30521100  0.92042350  0.63763850  1
  S  S30  1  0.55521100  0.32957650  0.88763850  1
  S  S31  1  0.05521100  0.67042350  0.61236150  1
  S  S32  1  0.39856150  0.96994900  0.12700950  1
  S  S33  1  0.89856150  0.03005100  0.37299050  1
  S  S34  1  0.14856150  0.78005100  0.37700950  1
  S  S35  1  0.64856150  0.21994900  0.12299050  1
  S  S36  1  0.80521100  0.57957650  0.36236150  1
  S  S37  1  0.80521100  0.92042350  0.13763850  1
  S  S38  1  0.05521100  0.32957650  0.38763850  1
  S  S39  1  0.55521100  0.67042350  0.11236150  1
  S  S40  1  0.39856150  0.46994900  0.62700950  1
  S  S41  1  0.89856150  0.53005100  0.87299050  1
  S  S42  1  0.14856150  0.28005100  0.87700950  1
  S  S43  1  0.64856150  0.71994900  0.62299050  1
  S  S44  1  0.80521100  0.07957650  0.86236150  1
  S  S45  1  0.80521100  0.42042350  0.63763850  1
  S  S46  1  0.05521100  0.82957650  0.88763850  1
  S  S47  1  0.55521100  0.17042350  0.61236150  1
  S  S48  1  0.89856150  0.46994900  0.12700950  1
  S  S49  1  0.39856150  0.53005100  0.37299050  1
  S  S50  1  0.64856150  0.28005100  0.37700950  1
  S  S51  1  0.14856150  0.71994900  0.12299050  1
  S  S52  1  0.30521100  0.07957650  0.36236150  1
  S  S53  1  0.30521100  0.42042350  0.13763850  1
  S  S54  1  0.55521100  0.82957650  0.38763850  1
  S  S55  1  0.05521100  0.17042350  0.11236150  1
