# generated using pymatgen
data_KLiMnO2
_symmetry_space_group_name_H-M   'P 1'
_cell_length_a   11.25296263
_cell_length_b   3.45425482
_cell_length_c   8.48046697
_cell_angle_alpha   90.00000000
_cell_angle_beta   120.59797331
_cell_angle_gamma   90.00000000
_symmetry_Int_Tables_number   1
_chemical_formula_structural   KLiMnO2
_chemical_formula_sum   'K4 Li4 Mn4 O8'
_cell_volume   283.74166226
_cell_formula_units_Z   4
loop_
 _symmetry_equiv_pos_site_id
 _symmetry_equiv_pos_as_xyz
  1  'x, y, z'
loop_
 _atom_site_type_symbol
 _atom_site_label
 _atom_site_symmetry_multiplicity
 _atom_site_fract_x
 _atom_site_fract_y
 _atom_site_fract_z
 _atom_site_occupancy
  K  K0  1  0.16005550  0.00000000  0.63279125  1
  K  K1  1  0.83994450  0.00000000  0.36720875  1
  K  K2  1  0.66005550  0.50000000  0.63279125  1
  K  K3  1  0.33994450  0.50000000  0.36720875  1
  Li  Li4  1  0.83756825  0.50000000  0.05341075  1
  Li  Li5  1  0.16243175  0.50000000  0.94658925  1
  Li  Li6  1  0.33756825  0.00000000  0.05341075  1
  Li  Li7  1  0.66243175  0.00000000  0.94658925  1
  Mn  Mn8  1  0.95544575  0.00000000  0.81647825  1
  Mn  Mn9  1  0.04455425  0.00000000  0.18352175  1
  Mn  Mn10  1  0.45544575  0.50000000  0.81647825  1
  Mn  Mn11  1  0.54455425  0.50000000  0.18352175  1
  O  O12  1  0.03359400  0.50000000  0.30738775  1
  O  O13  1  0.96640600  0.50000000  0.69261225  1
  O  O14  1  0.66197275  0.50000000  0.05840275  1
  O  O15  1  0.33802725  0.50000000  0.94159725  1
  O  O16  1  0.53359400  0.00000000  0.30738775  1
  O  O17  1  0.46640600  0.00000000  0.69261225  1
  O  O18  1  0.16197275  0.00000000  0.05840275  1
  O  O19  1  0.83802725  0.00000000  0.94159725  1
