# generated using pymatgen
data_NaFe(SiO3)2
_symmetry_space_group_name_H-M   'P 1'
_cell_length_a   9.82755590
_cell_length_b   8.90723400
_cell_length_c   5.36311508
_cell_angle_alpha   90.00000000
_cell_angle_beta   107.83171837
_cell_angle_gamma   90.00000000
_symmetry_Int_Tables_number   1
_chemical_formula_structural   NaFe(SiO3)2
_chemical_formula_sum   'Na4 Fe4 Si8 O24'
_cell_volume   446.91425633
_cell_formula_units_Z   4
loop_
 _symmetry_equiv_pos_site_id
 _symmetry_equiv_pos_as_xyz
  1  'x, y, z'
loop_
 _atom_site_type_symbol
 _atom_site_label
 _atom_site_symmetry_multiplicity
 _atom_site_fract_x
 _atom_site_fract_y
 _atom_site_fract_z
 _atom_site_occupancy
  Na  Na0  1  0.00000000  0.70070750  0.75000000  1
  Na  Na1  1  0.00000000  0.29929250  0.25000000  1
  Na  Na2  1  0.50000000  0.20070750  0.75000000  1
  Na  Na3  1  0.50000000  0.79929250  0.25000000  1
  Fe  Fe4  1  0.00000000  0.10206050  0.75000000  1
  Fe  Fe5  1  0.00000000  0.89793950  0.25000000  1
  Fe  Fe6  1  0.50000000  0.60206050  0.75000000  1
  Fe  Fe7  1  0.50000000  0.39793950  0.25000000  1
  Si  Si8  1  0.20995400  0.41096100  0.76599900  1
  Si  Si9  1  0.79004600  0.41096100  0.73400100  1
  Si  Si10  1  0.79004600  0.58903900  0.23400100  1
  Si  Si11  1  0.20995400  0.58903900  0.26599900  1
  Si  Si12  1  0.70995400  0.91096100  0.76599900  1
  Si  Si13  1  0.29004600  0.91096100  0.73400100  1
  Si  Si14  1  0.29004600  0.08903900  0.23400100  1
  Si  Si15  1  0.70995400  0.08903900  0.26599900  1
  O  O16  1  0.38584600  0.42198550  0.86352450  1
  O  O17  1  0.61415400  0.42198550  0.63647550  1
  O  O18  1  0.61415400  0.57801450  0.13647550  1
  O  O19  1  0.38584600  0.57801450  0.36352450  1
  O  O20  1  0.14012150  0.24589900  0.69855650  1
  O  O21  1  0.85987850  0.24589900  0.80144350  1
  O  O22  1  0.85987850  0.75410100  0.30144350  1
  O  O23  1  0.14012150  0.75410100  0.19855650  1
  O  O24  1  0.14920900  0.49215750  0.98864950  1
  O  O25  1  0.85079100  0.49215750  0.51135050  1
  O  O26  1  0.85079100  0.50784250  0.01135050  1
  O  O27  1  0.14920900  0.50784250  0.48864950  1
  O  O28  1  0.88584600  0.92198550  0.86352450  1
  O  O29  1  0.11415400  0.92198550  0.63647550  1
  O  O30  1  0.11415400  0.07801450  0.13647550  1
  O  O31  1  0.88584600  0.07801450  0.36352450  1
  O  O32  1  0.64012150  0.74589900  0.69855650  1
  O  O33  1  0.35987850  0.74589900  0.80144350  1
  O  O34  1  0.35987850  0.25410100  0.30144350  1
  O  O35  1  0.64012150  0.25410100  0.19855650  1
  O  O36  1  0.64920900  0.99215750  0.98864950  1
  O  O37  1  0.35079100  0.99215750  0.51135050  1
  O  O38  1  0.35079100  0.00784250  0.01135050  1
  O  O39  1  0.64920900  0.00784250  0.48864950  1
