# generated using pymatgen
data_Na8(CuO2)5
_symmetry_space_group_name_H-M   'P 1'
_cell_length_a   8.37613769
_cell_length_b   14.08685668
_cell_length_c   5.72652077
_cell_angle_alpha   90.00000000
_cell_angle_beta   111.92454962
_cell_angle_gamma   90.00000000
_symmetry_Int_Tables_number   1
_chemical_formula_structural   Na8(CuO2)5
_chemical_formula_sum   'Na16 Cu10 O20'
_cell_volume   626.82344311
_cell_formula_units_Z   2
loop_
 _symmetry_equiv_pos_site_id
 _symmetry_equiv_pos_as_xyz
  1  'x, y, z'
loop_
 _atom_site_type_symbol
 _atom_site_label
 _atom_site_symmetry_multiplicity
 _atom_site_fract_x
 _atom_site_fract_y
 _atom_site_fract_z
 _atom_site_occupancy
  Na  Na0  1  0.09863700  0.36143200  0.59842800  1
  Na  Na1  1  0.65218300  0.38935200  0.63354100  1
  Na  Na2  1  0.48073300  0.00000000  0.90935600  1
  Na  Na3  1  0.42617150  0.27855250  0.85943700  1
  Na  Na4  1  0.59863700  0.13856800  0.59842800  1
  Na  Na5  1  0.15218300  0.11064800  0.63354100  1
  Na  Na6  1  0.92617150  0.22144750  0.85943700  1
  Na  Na7  1  0.91052800  0.00000000  0.85309300  1
  Na  Na8  1  0.59863700  0.86143200  0.59842800  1
  Na  Na9  1  0.15218300  0.88935200  0.63354100  1
  Na  Na10  1  0.98073300  0.50000000  0.90935600  1
  Na  Na11  1  0.92617150  0.77855250  0.85943700  1
  Na  Na12  1  0.09863700  0.63856800  0.59842800  1
  Na  Na13  1  0.65218300  0.61064800  0.63354100  1
  Na  Na14  1  0.42617150  0.72144750  0.85943700  1
  Na  Na15  1  0.41052800  0.50000000  0.85309300  1
  Cu  Cu16  1  0.28194350  0.30092650  0.24911300  1
  Cu  Cu17  1  0.77215650  0.40014750  0.22069700  1
  Cu  Cu18  1  0.27215650  0.09985250  0.22069700  1
  Cu  Cu19  1  0.80158100  0.00000000  0.27727900  1
  Cu  Cu20  1  0.78194350  0.19907350  0.24911300  1
  Cu  Cu21  1  0.78194350  0.80092650  0.24911300  1
  Cu  Cu22  1  0.27215650  0.90014750  0.22069700  1
  Cu  Cu23  1  0.77215650  0.59985250  0.22069700  1
  Cu  Cu24  1  0.30158100  0.50000000  0.27727900  1
  Cu  Cu25  1  0.28194350  0.69907350  0.24911300  1
  O  O26  1  0.82288500  0.30167500  0.47217300  1
  O  O27  1  0.33678900  0.00000000  0.46973700  1
  O  O28  1  0.24070650  0.40121450  0.01845500  1
  O  O29  1  0.74070650  0.09878550  0.01845500  1
  O  O30  1  0.72205900  0.29304400  0.99433100  1
  O  O31  1  0.32288500  0.19832500  0.47217300  1
  O  O32  1  0.21840300  0.00000000  0.97315300  1
  O  O33  1  0.34714550  0.39307050  0.50991600  1
  O  O34  1  0.22205900  0.20695600  0.99433100  1
  O  O35  1  0.84714550  0.10692950  0.50991600  1
  O  O36  1  0.32288500  0.80167500  0.47217300  1
  O  O37  1  0.83678900  0.50000000  0.46973700  1
  O  O38  1  0.74070650  0.90121450  0.01845500  1
  O  O39  1  0.24070650  0.59878550  0.01845500  1
  O  O40  1  0.22205900  0.79304400  0.99433100  1
  O  O41  1  0.82288500  0.69832500  0.47217300  1
  O  O42  1  0.71840300  0.50000000  0.97315300  1
  O  O43  1  0.84714550  0.89307050  0.50991600  1
  O  O44  1  0.72205900  0.70695600  0.99433100  1
  O  O45  1  0.34714550  0.60692950  0.50991600  1
