# generated using pymatgen
data_Ba6Ru3(ClO6)2
_symmetry_space_group_name_H-M   'P 1'
_cell_length_a   5.91841947
_cell_length_b   5.91841947
_cell_length_c   15.04776100
_cell_angle_alpha   90.00000000
_cell_angle_beta   90.00000000
_cell_angle_gamma   120.00000000
_symmetry_Int_Tables_number   1
_chemical_formula_structural   Ba6Ru3(ClO6)2
_chemical_formula_sum   'Ba6 Ru3 Cl2 O12'
_cell_volume   456.47185154
_cell_formula_units_Z   1
loop_
 _symmetry_equiv_pos_site_id
 _symmetry_equiv_pos_as_xyz
  1  'x, y, z'
loop_
 _atom_site_type_symbol
 _atom_site_label
 _atom_site_symmetry_multiplicity
 _atom_site_fract_x
 _atom_site_fract_y
 _atom_site_fract_z
 _atom_site_occupancy
  Ba  Ba0  1  0.66666667  0.33333333  0.63670400  1
  Ba  Ba1  1  0.33333333  0.66666667  0.36329600  1
  Ba  Ba2  1  0.33333333  0.66666667  0.78604000  1
  Ba  Ba3  1  0.66666667  0.33333333  0.91940400  1
  Ba  Ba4  1  0.33333333  0.66666667  0.08059600  1
  Ba  Ba5  1  0.66666667  0.33333333  0.21396000  1
  Ru  Ru6  1  0.00000000  0.00000000  0.17494800  1
  Ru  Ru7  1  0.00000000  0.00000000  0.00000000  1
  Ru  Ru8  1  0.00000000  0.00000000  0.82505200  1
  Cl  Cl9  1  0.33333333  0.66666667  0.57696400  1
  Cl  Cl10  1  0.66666667  0.33333333  0.42303600  1
  O  O11  1  0.84078233  0.15921767  0.75952900  1
  O  O12  1  0.15469233  0.30938467  0.91703200  1
  O  O13  1  0.84530767  0.15469233  0.08296800  1
  O  O14  1  0.15469233  0.84530767  0.91703200  1
  O  O15  1  0.84530767  0.69061533  0.08296800  1
  O  O16  1  0.69061533  0.84530767  0.91703200  1
  O  O17  1  0.31843533  0.15921767  0.75952900  1
  O  O18  1  0.30938467  0.15469233  0.08296800  1
  O  O19  1  0.68156467  0.84078233  0.24047100  1
  O  O20  1  0.15921767  0.84078233  0.24047100  1
  O  O21  1  0.15921767  0.31843533  0.24047100  1
  O  O22  1  0.84078233  0.68156467  0.75952900  1
