# generated using pymatgen
data_Sr3(B3Rh4)2
_symmetry_space_group_name_H-M   'P 1'
_cell_length_a   5.62332200
_cell_length_b   10.05328600
_cell_length_c   17.21427200
_cell_angle_alpha   90.00000000
_cell_angle_beta   90.00000000
_cell_angle_gamma   90.00000000
_symmetry_Int_Tables_number   1
_chemical_formula_structural   Sr3(B3Rh4)2
_chemical_formula_sum   'Sr12 B24 Rh32'
_cell_volume   973.17210362
_cell_formula_units_Z   4
loop_
 _symmetry_equiv_pos_site_id
 _symmetry_equiv_pos_as_xyz
  1  'x, y, z'
loop_
 _atom_site_type_symbol
 _atom_site_label
 _atom_site_symmetry_multiplicity
 _atom_site_fract_x
 _atom_site_fract_y
 _atom_site_fract_z
 _atom_site_occupancy
  Sr  Sr0  1  0.00000000  0.00000000  0.68343200  1
  Sr  Sr1  1  0.50000000  0.00000000  0.00000000  1
  Sr  Sr2  1  0.50000000  0.00000000  0.81656800  1
  Sr  Sr3  1  0.00000000  0.50000000  0.18343200  1
  Sr  Sr4  1  0.50000000  0.50000000  0.50000000  1
  Sr  Sr5  1  0.50000000  0.50000000  0.31656800  1
  Sr  Sr6  1  0.50000000  0.00000000  0.18343200  1
  Sr  Sr7  1  0.00000000  0.00000000  0.50000000  1
  Sr  Sr8  1  0.00000000  0.00000000  0.31656800  1
  Sr  Sr9  1  0.50000000  0.50000000  0.68343200  1
  Sr  Sr10  1  0.00000000  0.50000000  0.00000000  1
  Sr  Sr11  1  0.00000000  0.50000000  0.81656800  1
  B  B12  1  0.50000000  0.83527200  0.66920200  1
  B  B13  1  0.50000000  0.66472800  0.83079800  1
  B  B14  1  0.00000000  0.83544800  0.00000000  1
  B  B15  1  0.00000000  0.66472800  0.66920200  1
  B  B16  1  0.00000000  0.83527200  0.83079800  1
  B  B17  1  0.50000000  0.66455200  0.00000000  1
  B  B18  1  0.50000000  0.33527200  0.16920200  1
  B  B19  1  0.50000000  0.16472800  0.33079800  1
  B  B20  1  0.00000000  0.33544800  0.50000000  1
  B  B21  1  0.00000000  0.16472800  0.16920200  1
  B  B22  1  0.00000000  0.33527200  0.33079800  1
  B  B23  1  0.50000000  0.16455200  0.50000000  1
  B  B24  1  0.00000000  0.83527200  0.16920200  1
  B  B25  1  0.00000000  0.66472800  0.33079800  1
  B  B26  1  0.50000000  0.83544800  0.50000000  1
  B  B27  1  0.50000000  0.66472800  0.16920200  1
  B  B28  1  0.50000000  0.83527200  0.33079800  1
  B  B29  1  0.00000000  0.66455200  0.50000000  1
  B  B30  1  0.00000000  0.33527200  0.66920200  1
  B  B31  1  0.00000000  0.16472800  0.83079800  1
  B  B32  1  0.50000000  0.33544800  0.00000000  1
  B  B33  1  0.50000000  0.16472800  0.66920200  1
  B  B34  1  0.50000000  0.33527200  0.83079800  1
  B  B35  1  0.00000000  0.16455200  0.00000000  1
  Rh  Rh36  1  0.75000000  0.75000000  0.58429000  1
  Rh  Rh37  1  0.50000000  0.00000000  0.58688500  1
  Rh  Rh38  1  0.25000000  0.75000000  0.58429000  1
  Rh  Rh39  1  0.25000000  0.75000000  0.75000000  1
  Rh  Rh40  1  0.75000000  0.75000000  0.91571000  1
  Rh  Rh41  1  0.25000000  0.75000000  0.91571000  1
  Rh  Rh42  1  0.75000000  0.75000000  0.75000000  1
  Rh  Rh43  1  0.00000000  0.00000000  0.91311500  1
  Rh  Rh44  1  0.75000000  0.25000000  0.08429000  1
  Rh  Rh45  1  0.50000000  0.50000000  0.08688500  1
  Rh  Rh46  1  0.25000000  0.25000000  0.08429000  1
  Rh  Rh47  1  0.25000000  0.25000000  0.25000000  1
  Rh  Rh48  1  0.75000000  0.25000000  0.41571000  1
  Rh  Rh49  1  0.25000000  0.25000000  0.41571000  1
  Rh  Rh50  1  0.75000000  0.25000000  0.25000000  1
  Rh  Rh51  1  0.00000000  0.50000000  0.41311500  1
  Rh  Rh52  1  0.25000000  0.75000000  0.08429000  1
  Rh  Rh53  1  0.00000000  0.00000000  0.08688500  1
  Rh  Rh54  1  0.75000000  0.75000000  0.08429000  1
  Rh  Rh55  1  0.75000000  0.75000000  0.25000000  1
  Rh  Rh56  1  0.25000000  0.75000000  0.41571000  1
  Rh  Rh57  1  0.75000000  0.75000000  0.41571000  1
  Rh  Rh58  1  0.25000000  0.75000000  0.25000000  1
  Rh  Rh59  1  0.50000000  0.00000000  0.41311500  1
  Rh  Rh60  1  0.25000000  0.25000000  0.58429000  1
  Rh  Rh61  1  0.00000000  0.50000000  0.58688500  1
  Rh  Rh62  1  0.75000000  0.25000000  0.58429000  1
  Rh  Rh63  1  0.75000000  0.25000000  0.75000000  1
  Rh  Rh64  1  0.25000000  0.25000000  0.91571000  1
  Rh  Rh65  1  0.75000000  0.25000000  0.91571000  1
  Rh  Rh66  1  0.25000000  0.25000000  0.75000000  1
  Rh  Rh67  1  0.50000000  0.50000000  0.91311500  1
