# generated using pymatgen
data_Sr3CaIrO6
_symmetry_space_group_name_H-M   'P 1'
_cell_length_a   9.83222479
_cell_length_b   9.83222479
_cell_length_c   11.57949332
_cell_angle_alpha   90.00000000
_cell_angle_beta   90.00000000
_cell_angle_gamma   120.00000000
_symmetry_Int_Tables_number   1
_chemical_formula_structural   Sr3CaIrO6
_chemical_formula_sum   'Sr18 Ca6 Ir6 O36'
_cell_volume   969.44636440
_cell_formula_units_Z   6
loop_
 _symmetry_equiv_pos_site_id
 _symmetry_equiv_pos_as_xyz
  1  'x, y, z'
loop_
 _atom_site_type_symbol
 _atom_site_label
 _atom_site_symmetry_multiplicity
 _atom_site_fract_x
 _atom_site_fract_y
 _atom_site_fract_z
 _atom_site_occupancy
  Sr  Sr0  1  0.66666667  0.69706533  0.58333333  1
  Sr  Sr1  1  0.69706533  0.03039867  0.41666667  1
  Sr  Sr2  1  0.96960133  0.66666667  0.41666667  1
  Sr  Sr3  1  0.03039867  0.33333333  0.58333333  1
  Sr  Sr4  1  0.30293467  0.96960133  0.58333333  1
  Sr  Sr5  1  0.33333333  0.30293467  0.41666667  1
  Sr  Sr6  1  0.33333333  0.03039867  0.91666667  1
  Sr  Sr7  1  0.36373200  0.36373200  0.75000000  1
  Sr  Sr8  1  0.63626800  0.00000000  0.75000000  1
  Sr  Sr9  1  0.69706533  0.66666667  0.91666667  1
  Sr  Sr10  1  0.96960133  0.30293467  0.91666667  1
  Sr  Sr11  1  0.00000000  0.63626800  0.75000000  1
  Sr  Sr12  1  0.00000000  0.36373200  0.25000000  1
  Sr  Sr13  1  0.03039867  0.69706533  0.08333333  1
  Sr  Sr14  1  0.30293467  0.33333333  0.08333333  1
  Sr  Sr15  1  0.36373200  0.00000000  0.25000000  1
  Sr  Sr16  1  0.63626800  0.63626800  0.25000000  1
  Sr  Sr17  1  0.66666667  0.96960133  0.08333333  1
  Ca  Ca18  1  0.00000000  0.00000000  0.75000000  1
  Ca  Ca19  1  0.00000000  0.00000000  0.25000000  1
  Ca  Ca20  1  0.66666667  0.33333333  0.08333333  1
  Ca  Ca21  1  0.66666667  0.33333333  0.58333333  1
  Ca  Ca22  1  0.33333333  0.66666667  0.41666667  1
  Ca  Ca23  1  0.33333333  0.66666667  0.91666667  1
  Ir  Ir24  1  0.00000000  0.00000000  0.50000000  1
  Ir  Ir25  1  0.00000000  0.00000000  0.00000000  1
  Ir  Ir26  1  0.66666667  0.33333333  0.83333333  1
  Ir  Ir27  1  0.66666667  0.33333333  0.33333333  1
  Ir  Ir28  1  0.33333333  0.66666667  0.16666667  1
  Ir  Ir29  1  0.33333333  0.66666667  0.66666667  1
  O  O30  1  0.15317633  0.64254267  0.56107767  1
  O  O31  1  0.18015700  0.15603300  0.60558900  1
  O  O32  1  0.35745733  0.51063367  0.56107767  1
  O  O33  1  0.51063367  0.15317633  0.43892233  1
  O  O34  1  0.64254267  0.48936633  0.43892233  1
  O  O35  1  0.48936633  0.84682367  0.56107767  1
  O  O36  1  0.84396700  0.02412400  0.60558900  1
  O  O37  1  0.97587600  0.81984300  0.60558900  1
  O  O38  1  0.15603300  0.97587600  0.39441100  1
  O  O39  1  0.02412400  0.18015700  0.39441100  1
  O  O40  1  0.81984300  0.84396700  0.39441100  1
  O  O41  1  0.84682367  0.35745733  0.43892233  1
  O  O42  1  0.81984300  0.97587600  0.89441100  1
  O  O43  1  0.84682367  0.48936633  0.93892233  1
  O  O44  1  0.02412400  0.84396700  0.89441100  1
  O  O45  1  0.17730033  0.48650967  0.77225567  1
  O  O46  1  0.30920933  0.82269967  0.77225567  1
  O  O47  1  0.15603300  0.18015700  0.89441100  1
  O  O48  1  0.51063367  0.35745733  0.93892233  1
  O  O49  1  0.64254267  0.15317633  0.93892233  1
  O  O50  1  0.82269967  0.30920933  0.72774433  1
  O  O51  1  0.69079067  0.51349033  0.72774433  1
  O  O52  1  0.48650967  0.17730033  0.72774433  1
  O  O53  1  0.51349033  0.69079067  0.77225567  1
  O  O54  1  0.48650967  0.30920933  0.22774433  1
  O  O55  1  0.51349033  0.82269967  0.27225567  1
  O  O56  1  0.69079067  0.17730033  0.22774433  1
  O  O57  1  0.84396700  0.81984300  0.10558900  1
  O  O58  1  0.97587600  0.15603300  0.10558900  1
  O  O59  1  0.82269967  0.51349033  0.22774433  1
  O  O60  1  0.17730033  0.69079067  0.27225567  1
  O  O61  1  0.30920933  0.48650967  0.27225567  1
  O  O62  1  0.48936633  0.64254267  0.06107767  1
  O  O63  1  0.35745733  0.84682367  0.06107767  1
  O  O64  1  0.15317633  0.51063367  0.06107767  1
  O  O65  1  0.18015700  0.02412400  0.10558900  1
