# generated using pymatgen
data_Mo15Se19
_symmetry_space_group_name_H-M   'P 1'
_cell_length_a   9.68094348
_cell_length_b   9.68094348
_cell_length_c   59.41468786
_cell_angle_alpha   90.00000000
_cell_angle_beta   90.00000000
_cell_angle_gamma   120.00000000
_symmetry_Int_Tables_number   1
_chemical_formula_structural   Mo15Se19
_chemical_formula_sum   'Mo90 Se114'
_cell_volume   4822.36213503
_cell_formula_units_Z   6
loop_
 _symmetry_equiv_pos_site_id
 _symmetry_equiv_pos_as_xyz
  1  'x, y, z'
loop_
 _atom_site_type_symbol
 _atom_site_label
 _atom_site_symmetry_multiplicity
 _atom_site_fract_x
 _atom_site_fract_y
 _atom_site_fract_z
 _atom_site_occupancy
  Mo  Mo0  1  0.66666667  0.49400733  0.08333333  1
  Mo  Mo1  1  0.97792500  0.14819700  0.01984400  1
  Mo  Mo2  1  0.51216467  0.34600733  0.12223033  1
  Mo  Mo3  1  0.48153033  0.64459167  0.14682267  1
  Mo  Mo4  1  0.35540833  0.83693867  0.14682267  1
  Mo  Mo5  1  0.81486367  0.50360533  0.31348933  1
  Mo  Mo6  1  0.18513633  0.68874167  0.18651067  1
  Mo  Mo7  1  0.16067400  0.16067400  0.25000000  1
  Mo  Mo8  1  0.98732600  0.15450200  0.28889700  1
  Mo  Mo9  1  0.68874167  0.18513633  0.31348933  1
  Mo  Mo10  1  0.01267400  0.16717600  0.21110300  1
  Mo  Mo11  1  0.49639467  0.31125833  0.31348933  1
  Mo  Mo12  1  0.50599267  0.17265933  0.08333333  1
  Mo  Mo13  1  0.00000000  0.83932600  0.25000000  1
  Mo  Mo14  1  0.83384267  0.48783533  0.12223033  1
  Mo  Mo15  1  0.17027200  0.02207500  0.01984400  1
  Mo  Mo16  1  0.16306133  0.51846967  0.14682267  1
  Mo  Mo17  1  0.83932600  0.00000000  0.25000000  1
  Mo  Mo18  1  0.16717600  0.01267400  0.28889700  1
  Mo  Mo19  1  0.84549800  0.83282400  0.28889700  1
  Mo  Mo20  1  0.65399267  0.16615733  0.12223033  1
  Mo  Mo21  1  0.49949067  0.32065933  0.04443633  1
  Mo  Mo22  1  0.67934067  0.17883133  0.04443633  1
  Mo  Mo23  1  0.31125833  0.49639467  0.18651067  1
  Mo  Mo24  1  0.85180300  0.82972800  0.01984400  1
  Mo  Mo25  1  0.15450200  0.98732600  0.21110300  1
  Mo  Mo26  1  0.83282400  0.84549800  0.21110300  1
  Mo  Mo27  1  0.82734067  0.33333333  0.08333333  1
  Mo  Mo28  1  0.50360533  0.81486367  0.18651067  1
  Mo  Mo29  1  0.82116867  0.50050933  0.04443633  1
  Mo  Mo30  1  0.33333333  0.82734067  0.41666667  1
  Mo  Mo31  1  0.64459167  0.48153033  0.35317733  1
  Mo  Mo32  1  0.17883133  0.67934067  0.45556367  1
  Mo  Mo33  1  0.14819700  0.97792500  0.48015600  1
  Mo  Mo34  1  0.02207500  0.17027200  0.48015600  1
  Mo  Mo35  1  0.48153033  0.83693867  0.64682267  1
  Mo  Mo36  1  0.85180300  0.02207500  0.51984400  1
  Mo  Mo37  1  0.82734067  0.49400733  0.58333333  1
  Mo  Mo38  1  0.65399267  0.48783533  0.62223033  1
  Mo  Mo39  1  0.35540833  0.51846967  0.64682267  1
  Mo  Mo40  1  0.67934067  0.50050933  0.54443633  1
  Mo  Mo41  1  0.16306133  0.64459167  0.64682267  1
  Mo  Mo42  1  0.17265933  0.50599267  0.41666667  1
  Mo  Mo43  1  0.66666667  0.17265933  0.58333333  1
  Mo  Mo44  1  0.50050933  0.82116867  0.45556367  1
  Mo  Mo45  1  0.83693867  0.35540833  0.35317733  1
  Mo  Mo46  1  0.82972800  0.85180300  0.48015600  1
  Mo  Mo47  1  0.50599267  0.33333333  0.58333333  1
  Mo  Mo48  1  0.83384267  0.34600733  0.62223033  1
  Mo  Mo49  1  0.51216467  0.16615733  0.62223033  1
  Mo  Mo50  1  0.32065933  0.49949067  0.45556367  1
  Mo  Mo51  1  0.16615733  0.65399267  0.37776967  1
  Mo  Mo52  1  0.34600733  0.51216467  0.37776967  1
  Mo  Mo53  1  0.97792500  0.82972800  0.51984400  1
  Mo  Mo54  1  0.51846967  0.16306133  0.35317733  1
  Mo  Mo55  1  0.82116867  0.32065933  0.54443633  1
  Mo  Mo56  1  0.49949067  0.17883133  0.54443633  1
  Mo  Mo57  1  0.49400733  0.66666667  0.41666667  1
  Mo  Mo58  1  0.17027200  0.14819700  0.51984400  1
  Mo  Mo59  1  0.48783533  0.83384267  0.37776967  1
  Mo  Mo60  1  0.00000000  0.16067400  0.75000000  1
  Mo  Mo61  1  0.31125833  0.81486367  0.68651067  1
  Mo  Mo62  1  0.84549800  0.01267400  0.78889700  1
  Mo  Mo63  1  0.81486367  0.31125833  0.81348933  1
  Mo  Mo64  1  0.68874167  0.50360533  0.81348933  1
  Mo  Mo65  1  0.14819700  0.17027200  0.98015600  1
  Mo  Mo66  1  0.51846967  0.35540833  0.85317733  1
  Mo  Mo67  1  0.49400733  0.82734067  0.91666667  1
  Mo  Mo68  1  0.32065933  0.82116867  0.95556367  1
  Mo  Mo69  1  0.02207500  0.85180300  0.98015600  1
  Mo  Mo70  1  0.34600733  0.83384267  0.87776967  1
  Mo  Mo71  1  0.82972800  0.97792500  0.98015600  1
  Mo  Mo72  1  0.83932600  0.83932600  0.75000000  1
  Mo  Mo73  1  0.33333333  0.50599267  0.91666667  1
  Mo  Mo74  1  0.16717600  0.15450200  0.78889700  1
  Mo  Mo75  1  0.50360533  0.68874167  0.68651067  1
  Mo  Mo76  1  0.49639467  0.18513633  0.81348933  1
  Mo  Mo77  1  0.17265933  0.66666667  0.91666667  1
  Mo  Mo78  1  0.50050933  0.67934067  0.95556367  1
  Mo  Mo79  1  0.17883133  0.49949067  0.95556367  1
  Mo  Mo80  1  0.98732600  0.83282400  0.78889700  1
  Mo  Mo81  1  0.83282400  0.98732600  0.71110300  1
  Mo  Mo82  1  0.01267400  0.84549800  0.71110300  1
  Mo  Mo83  1  0.64459167  0.16306133  0.85317733  1
  Mo  Mo84  1  0.18513633  0.49639467  0.68651067  1
  Mo  Mo85  1  0.48783533  0.65399267  0.87776967  1
  Mo  Mo86  1  0.16615733  0.51216467  0.87776967  1
  Mo  Mo87  1  0.16067400  0.00000000  0.75000000  1
  Mo  Mo88  1  0.83693867  0.48153033  0.85317733  1
  Mo  Mo89  1  0.15450200  0.16717600  0.71110300  1
  Se  Se90  1  0.03695467  0.70971633  0.01599433  1
  Se  Se91  1  0.66057167  0.95695033  0.15067233  1
  Se  Se92  1  0.37028800  0.99390500  0.18266100  1
  Se  Se93  1  0.96192833  0.30461367  0.11855767  1
  Se  Se94  1  0.29637867  0.33942833  0.15067233  1
  Se  Se95  1  0.00609500  0.37638300  0.18266100  1
  Se  Se96  1  0.00000000  0.00000000  0.17717400  1
  Se  Se97  1  0.67276167  0.96304533  0.01599433  1
  Se  Se98  1  0.99064800  0.36205300  0.04810900  1
  Se  Se99  1  0.70473833  0.02871967  0.21477567  1
  Se  Se100  1  0.37140500  0.00935200  0.04810900  1
  Se  Se101  1  0.97643667  0.64310333  0.08333333  1
  Se  Se102  1  0.37638300  0.00609500  0.31733900  1
  Se  Se103  1  0.62971200  0.62361700  0.31733900  1
  Se  Se104  1  0.66666667  0.33333333  0.01050733  1
  Se  Se105  1  0.29028367  0.32723833  0.01599433  1
  Se  Se106  1  0.32398133  0.29526167  0.21477567  1
  Se  Se107  1  0.66666667  0.33333333  0.15615933  1
  Se  Se108  1  0.35689667  0.33333333  0.08333333  1
  Se  Se109  1  0.00000000  0.00000000  0.05388400  1
  Se  Se110  1  0.04304967  0.70362133  0.15067233  1
  Se  Se111  1  0.62361700  0.62971200  0.18266100  1
  Se  Se112  1  0.69538633  0.65731467  0.11855767  1
  Se  Se113  1  0.34268533  0.03807167  0.11855767  1
  Se  Se114  1  0.69023000  0.69023000  0.25000000  1
  Se  Se115  1  0.33333333  0.66666667  0.11278267  1
  Se  Se116  1  0.99390500  0.37028800  0.31733900  1
  Se  Se117  1  1.00000000  0.30977000  0.25000000  1
  Se  Se118  1  0.63794700  0.62859500  0.04810900  1
  Se  Se119  1  0.66666667  0.02356333  0.08333333  1
  Se  Se120  1  0.97128033  0.67601867  0.21477567  1
  Se  Se121  1  0.00000000  0.00000000  0.32282600  1
  Se  Se122  1  0.29526167  0.32398133  0.28522433  1
  Se  Se123  1  0.67601867  0.97128033  0.28522433  1
  Se  Se124  1  0.33333333  0.66666667  0.22055067  1
  Se  Se125  1  0.30977000  0.00000000  0.25000000  1
  Se  Se126  1  0.02871967  0.70473833  0.28522433  1
  Se  Se127  1  0.66666667  0.33333333  0.27944933  1
  Se  Se128  1  0.70362133  0.04304967  0.34932767  1
  Se  Se129  1  0.32723833  0.29028367  0.48400567  1
  Se  Se130  1  0.03695467  0.32723833  0.51599433  1
  Se  Se131  1  0.62859500  0.63794700  0.45189100  1
  Se  Se132  1  0.96304533  0.67276167  0.48400567  1
  Se  Se133  1  0.67276167  0.70971633  0.51599433  1
  Se  Se134  1  0.66666667  0.33333333  0.51050733  1
  Se  Se135  1  0.33942833  0.29637867  0.34932767  1
  Se  Se136  1  0.65731467  0.69538633  0.38144233  1
  Se  Se137  1  0.37140500  0.36205300  0.54810900  1
  Se  Se138  1  0.03807167  0.34268533  0.38144233  1
  Se  Se139  1  0.64310333  0.97643667  0.41666667  1
  Se  Se140  1  0.04304967  0.33942833  0.65067233  1
  Se  Se141  1  0.29637867  0.95695033  0.65067233  1
  Se  Se142  1  0.33333333  0.66666667  0.34384067  1
  Se  Se143  1  0.95695033  0.66057167  0.34932767  1
  Se  Se144  1  0.99064800  0.62859500  0.54810900  1
  Se  Se145  1  0.33333333  0.66666667  0.48949267  1
  Se  Se146  1  0.02356333  0.66666667  0.41666667  1
  Se  Se147  1  0.66666667  0.33333333  0.38721733  1
  Se  Se148  1  0.70971633  0.03695467  0.48400567  1
  Se  Se149  1  0.29028367  0.96304533  0.51599433  1
  Se  Se150  1  0.36205300  0.99064800  0.45189100  1
  Se  Se151  1  0.00935200  0.37140500  0.45189100  1
  Se  Se152  1  0.35689667  0.02356333  0.58333333  1
  Se  Se153  1  0.00000000  0.00000000  0.44611600  1
  Se  Se154  1  0.66057167  0.70362133  0.65067233  1
  Se  Se155  1  0.66666667  0.64310333  0.58333333  1
  Se  Se156  1  0.30461367  0.96192833  0.38144233  1
  Se  Se157  1  0.33333333  0.35689667  0.41666667  1
  Se  Se158  1  0.63794700  0.00935200  0.54810900  1
  Se  Se159  1  0.66666667  0.33333333  0.65615933  1
  Se  Se160  1  0.96192833  0.65731467  0.61855767  1
  Se  Se161  1  0.34268533  0.30461367  0.61855767  1
  Se  Se162  1  0.00000000  0.00000000  0.55388400  1
  Se  Se163  1  0.97643667  0.33333333  0.58333333  1
  Se  Se164  1  0.69538633  0.03807167  0.61855767  1
  Se  Se165  1  0.33333333  0.66666667  0.61278267  1
  Se  Se166  1  0.37028800  0.37638300  0.68266100  1
  Se  Se167  1  0.99390500  0.62361700  0.81733900  1
  Se  Se168  1  0.70362133  0.66057167  0.84932767  1
  Se  Se169  1  0.29526167  0.97128033  0.78522433  1
  Se  Se170  1  0.62971200  0.00609500  0.81733900  1
  Se  Se171  1  0.33942833  0.04304967  0.84932767  1
  Se  Se172  1  0.33333333  0.66666667  0.84384067  1
  Se  Se173  1  0.00609500  0.62971200  0.68266100  1
  Se  Se174  1  0.32398133  0.02871967  0.71477567  1
  Se  Se175  1  0.03807167  0.69538633  0.88144233  1
  Se  Se176  1  0.70473833  0.67601867  0.71477567  1
  Se  Se177  1  0.30977000  0.30977000  0.75000000  1
  Se  Se178  1  0.70971633  0.67276167  0.98400567  1
  Se  Se179  1  0.96304533  0.29028367  0.98400567  1
  Se  Se180  1  0.00000000  0.00000000  0.67717400  1
  Se  Se181  1  0.62361700  0.99390500  0.68266100  1
  Se  Se182  1  0.65731467  0.96192833  0.88144233  1
  Se  Se183  1  0.00000000  0.00000000  0.82282600  1
  Se  Se184  1  0.69023000  1.00000000  0.75000000  1
  Se  Se185  1  0.33333333  0.66666667  0.72055067  1
  Se  Se186  1  0.37638300  0.37028800  0.81733900  1
  Se  Se187  1  0.95695033  0.29637867  0.84932767  1
  Se  Se188  1  0.02871967  0.32398133  0.78522433  1
  Se  Se189  1  0.67601867  0.70473833  0.78522433  1
  Se  Se190  1  0.02356333  0.35689667  0.91666667  1
  Se  Se191  1  0.66666667  0.33333333  0.77944933  1
  Se  Se192  1  0.32723833  0.03695467  0.98400567  1
  Se  Se193  1  0.33333333  0.97643667  0.91666667  1
  Se  Se194  1  0.97128033  0.29526167  0.71477567  1
  Se  Se195  1  0.00000000  0.69023000  0.75000000  1
  Se  Se196  1  0.30461367  0.34268533  0.88144233  1
  Se  Se197  1  0.33333333  0.66666667  0.98949267  1
  Se  Se198  1  0.62859500  0.99064800  0.95189100  1
  Se  Se199  1  0.00935200  0.63794700  0.95189100  1
  Se  Se200  1  0.66666667  0.33333333  0.88721733  1
  Se  Se201  1  0.64310333  0.66666667  0.91666667  1
  Se  Se202  1  0.36205300  0.37140500  0.95189100  1
  Se  Se203  1  0.00000000  0.00000000  0.94611600  1
