# generated using pymatgen
data_Fe(PO3)4
_symmetry_space_group_name_H-M   'P 1'
_cell_length_a   15.36973600
_cell_length_b   7.40805000
_cell_length_c   9.59821668
_cell_angle_alpha   90.00000000
_cell_angle_beta   122.44357119
_cell_angle_gamma   90.00000000
_symmetry_Int_Tables_number   1
_chemical_formula_structural   Fe(PO3)4
_chemical_formula_sum   'Fe4 P16 O48'
_cell_volume   922.27884739
_cell_formula_units_Z   4
loop_
 _symmetry_equiv_pos_site_id
 _symmetry_equiv_pos_as_xyz
  1  'x, y, z'
loop_
 _atom_site_type_symbol
 _atom_site_label
 _atom_site_symmetry_multiplicity
 _atom_site_fract_x
 _atom_site_fract_y
 _atom_site_fract_z
 _atom_site_occupancy
  Fe  Fe0  1  0.00000000  0.13544700  0.25000000  1
  Fe  Fe1  1  0.00000000  0.86455300  0.75000000  1
  Fe  Fe2  1  0.50000000  0.63544700  0.25000000  1
  Fe  Fe3  1  0.50000000  0.36455300  0.75000000  1
  P  P4  1  0.63366150  0.93035550  0.14507300  1
  P  P5  1  0.63363750  0.33210250  0.16515800  1
  P  P6  1  0.13366150  0.56964450  0.64507300  1
  P  P7  1  0.86633850  0.43035550  0.35492700  1
  P  P8  1  0.13363750  0.16789750  0.66515800  1
  P  P9  1  0.86636250  0.83210250  0.33484200  1
  P  P10  1  0.36633850  0.06964450  0.85492700  1
  P  P11  1  0.36636250  0.66789750  0.83484200  1
  P  P12  1  0.13366150  0.43035550  0.14507300  1
  P  P13  1  0.13363750  0.83210250  0.16515800  1
  P  P14  1  0.63366150  0.06964450  0.64507300  1
  P  P15  1  0.36633850  0.93035550  0.35492700  1
  P  P16  1  0.63363750  0.66789750  0.66515800  1
  P  P17  1  0.36636250  0.33210250  0.33484200  1
  P  P18  1  0.86633850  0.56964450  0.85492700  1
  P  P19  1  0.86636250  0.16789750  0.83484200  1
  O  O20  1  0.10052550  0.70136450  0.72794900  1
  O  O21  1  0.11082900  0.84707200  0.99229900  1
  O  O22  1  0.93505950  0.93002850  0.29491300  1
  O  O23  1  0.06494050  0.06997150  0.70508700  1
  O  O24  1  0.88917100  0.84707200  0.50770100  1
  O  O25  1  0.92643900  0.57141700  0.03920700  1
  O  O26  1  0.75168050  0.89907650  0.20551300  1
  O  O27  1  0.06494050  0.93002850  0.20508700  1
  O  O28  1  0.92643900  0.42858300  0.53920700  1
  O  O29  1  0.07356100  0.42858300  0.96079300  1
  O  O30  1  0.64159800  0.12691600  0.22177300  1
  O  O31  1  0.14159800  0.37308400  0.72177300  1
  O  O32  1  0.93505950  0.06997150  0.79491300  1
  O  O33  1  0.89947450  0.29863550  0.27205100  1
  O  O34  1  0.74831950  0.39907650  0.29448700  1
  O  O35  1  0.07356100  0.57141700  0.46079300  1
  O  O36  1  0.35840200  0.87308400  0.77822700  1
  O  O37  1  0.89947450  0.70136450  0.77205100  1
  O  O38  1  0.24831950  0.10092350  0.79448700  1
  O  O39  1  0.10052550  0.29863550  0.22794900  1
  O  O40  1  0.11082900  0.15292800  0.49229900  1
  O  O41  1  0.85840200  0.62691600  0.27822700  1
  O  O42  1  0.88917100  0.15292800  0.00770100  1
  O  O43  1  0.25168050  0.60092350  0.70551300  1
  O  O44  1  0.60052550  0.20136450  0.72794900  1
  O  O45  1  0.61082900  0.34707200  0.99229900  1
  O  O46  1  0.43505950  0.43002850  0.29491300  1
  O  O47  1  0.56494050  0.56997150  0.70508700  1
  O  O48  1  0.38917100  0.34707200  0.50770100  1
  O  O49  1  0.42643900  0.07141700  0.03920700  1
  O  O50  1  0.25168050  0.39907650  0.20551300  1
  O  O51  1  0.56494050  0.43002850  0.20508700  1
  O  O52  1  0.42643900  0.92858300  0.53920700  1
  O  O53  1  0.57356100  0.92858300  0.96079300  1
  O  O54  1  0.14159800  0.62691600  0.22177300  1
  O  O55  1  0.64159800  0.87308400  0.72177300  1
  O  O56  1  0.43505950  0.56997150  0.79491300  1
  O  O57  1  0.39947450  0.79863550  0.27205100  1
  O  O58  1  0.24831950  0.89907650  0.29448700  1
  O  O59  1  0.57356100  0.07141700  0.46079300  1
  O  O60  1  0.85840200  0.37308400  0.77822700  1
  O  O61  1  0.39947450  0.20136450  0.77205100  1
  O  O62  1  0.74831950  0.60092350  0.79448700  1
  O  O63  1  0.60052550  0.79863550  0.22794900  1
  O  O64  1  0.61082900  0.65292800  0.49229900  1
  O  O65  1  0.35840200  0.12691600  0.27822700  1
  O  O66  1  0.38917100  0.65292800  0.00770100  1
  O  O67  1  0.75168050  0.10092350  0.70551300  1
