# generated using pymatgen
data_CoO2
_symmetry_space_group_name_H-M   'P 1'
_cell_length_a   7.98780927
_cell_length_b   7.98780927
_cell_length_c   7.98780927
_cell_angle_alpha   90.00000000
_cell_angle_beta   90.00000000
_cell_angle_gamma   90.00000000
_symmetry_Int_Tables_number   1
_chemical_formula_structural   CoO2
_chemical_formula_sum   'Co16 O32'
_cell_volume   509.66294542
_cell_formula_units_Z   16
loop_
 _symmetry_equiv_pos_site_id
 _symmetry_equiv_pos_as_xyz
  1  'x, y, z'
loop_
 _atom_site_type_symbol
 _atom_site_label
 _atom_site_symmetry_multiplicity
 _atom_site_fract_x
 _atom_site_fract_y
 _atom_site_fract_z
 _atom_site_occupancy
  Co  Co0  1  0.12500000  0.37500000  0.87500000  1
  Co  Co1  1  0.87500000  0.37500000  0.12500000  1
  Co  Co2  1  0.62500000  0.62500000  0.62500000  1
  Co  Co3  1  0.87500000  0.12500000  0.37500000  1
  Co  Co4  1  0.12500000  0.87500000  0.37500000  1
  Co  Co5  1  0.87500000  0.87500000  0.62500000  1
  Co  Co6  1  0.62500000  0.12500000  0.12500000  1
  Co  Co7  1  0.87500000  0.62500000  0.87500000  1
  Co  Co8  1  0.62500000  0.37500000  0.37500000  1
  Co  Co9  1  0.37500000  0.37500000  0.62500000  1
  Co  Co10  1  0.12500000  0.62500000  0.12500000  1
  Co  Co11  1  0.37500000  0.12500000  0.87500000  1
  Co  Co12  1  0.62500000  0.87500000  0.87500000  1
  Co  Co13  1  0.37500000  0.87500000  0.12500000  1
  Co  Co14  1  0.12500000  0.12500000  0.62500000  1
  Co  Co15  1  0.37500000  0.62500000  0.37500000  1
  O  O16  1  0.11069517  0.61069517  0.88930483  1
  O  O17  1  0.63930483  0.13930483  0.36069517  1
  O  O18  1  0.86069517  0.13930483  0.13930483  1
  O  O19  1  0.88930483  0.61069517  0.11069517  1
  O  O20  1  0.11069517  0.38930483  0.11069517  1
  O  O21  1  0.86069517  0.36069517  0.36069517  1
  O  O22  1  0.63930483  0.36069517  0.13930483  1
  O  O23  1  0.88930483  0.38930483  0.88930483  1
  O  O24  1  0.11069517  0.11069517  0.38930483  1
  O  O25  1  0.63930483  0.63930483  0.86069517  1
  O  O26  1  0.86069517  0.63930483  0.63930483  1
  O  O27  1  0.88930483  0.11069517  0.61069517  1
  O  O28  1  0.11069517  0.88930483  0.61069517  1
  O  O29  1  0.86069517  0.86069517  0.86069517  1
  O  O30  1  0.63930483  0.86069517  0.63930483  1
  O  O31  1  0.88930483  0.88930483  0.38930483  1
  O  O32  1  0.61069517  0.61069517  0.38930483  1
  O  O33  1  0.13930483  0.13930483  0.86069517  1
  O  O34  1  0.36069517  0.13930483  0.63930483  1
  O  O35  1  0.38930483  0.61069517  0.61069517  1
  O  O36  1  0.61069517  0.38930483  0.61069517  1
  O  O37  1  0.36069517  0.36069517  0.86069517  1
  O  O38  1  0.13930483  0.36069517  0.63930483  1
  O  O39  1  0.38930483  0.38930483  0.38930483  1
  O  O40  1  0.61069517  0.11069517  0.88930483  1
  O  O41  1  0.13930483  0.63930483  0.36069517  1
  O  O42  1  0.36069517  0.63930483  0.13930483  1
  O  O43  1  0.38930483  0.11069517  0.11069517  1
  O  O44  1  0.61069517  0.88930483  0.11069517  1
  O  O45  1  0.36069517  0.86069517  0.36069517  1
  O  O46  1  0.13930483  0.86069517  0.13930483  1
  O  O47  1  0.38930483  0.88930483  0.88930483  1
