# generated using pymatgen
data_URe2
_symmetry_space_group_name_H-M   'P 1'
_cell_length_a   5.85732400
_cell_length_b   9.00594800
_cell_length_c   8.29665200
_cell_angle_alpha   90.00000000
_cell_angle_beta   90.00000000
_cell_angle_gamma   90.00000000
_symmetry_Int_Tables_number   1
_chemical_formula_structural   URe2
_chemical_formula_sum   'U8 Re16'
_cell_volume   437.65465999
_cell_formula_units_Z   8
loop_
 _symmetry_equiv_pos_site_id
 _symmetry_equiv_pos_as_xyz
  1  'x, y, z'
loop_
 _atom_site_type_symbol
 _atom_site_label
 _atom_site_symmetry_multiplicity
 _atom_site_fract_x
 _atom_site_fract_y
 _atom_site_fract_z
 _atom_site_occupancy
  U  U0  1  0.50000000  0.16195400  0.58559400  1
  U  U1  1  0.50000000  0.83804600  0.08559400  1
  U  U2  1  0.50000000  0.83804600  0.41440600  1
  U  U3  1  0.50000000  0.16195400  0.91440600  1
  U  U4  1  0.00000000  0.66195400  0.58559400  1
  U  U5  1  0.00000000  0.33804600  0.08559400  1
  U  U6  1  0.00000000  0.33804600  0.41440600  1
  U  U7  1  0.00000000  0.66195400  0.91440600  1
  Re  Re8  1  0.50000000  0.32533500  0.25000000  1
  Re  Re9  1  0.25393700  0.08754400  0.25000000  1
  Re  Re10  1  0.74606300  0.91245600  0.75000000  1
  Re  Re11  1  0.00000000  0.00000000  0.00000000  1
  Re  Re12  1  0.74606300  0.08754400  0.25000000  1
  Re  Re13  1  0.25393700  0.91245600  0.75000000  1
  Re  Re14  1  0.50000000  0.67466500  0.75000000  1
  Re  Re15  1  0.00000000  0.00000000  0.50000000  1
  Re  Re16  1  0.00000000  0.82533500  0.25000000  1
  Re  Re17  1  0.75393700  0.58754400  0.25000000  1
  Re  Re18  1  0.24606300  0.41245600  0.75000000  1
  Re  Re19  1  0.50000000  0.50000000  0.00000000  1
  Re  Re20  1  0.24606300  0.58754400  0.25000000  1
  Re  Re21  1  0.75393700  0.41245600  0.75000000  1
  Re  Re22  1  0.00000000  0.17466500  0.75000000  1
  Re  Re23  1  0.50000000  0.50000000  0.50000000  1
