# generated using pymatgen
data_KUCuSe3
_symmetry_space_group_name_H-M   'P 1'
_cell_length_a   4.10492200
_cell_length_b   14.76251800
_cell_length_c   10.69996300
_cell_angle_alpha   90.00000000
_cell_angle_beta   90.00000000
_cell_angle_gamma   90.00000000
_symmetry_Int_Tables_number   1
_chemical_formula_structural   KUCuSe3
_chemical_formula_sum   'K4 U4 Cu4 Se12'
_cell_volume   648.40689641
_cell_formula_units_Z   4
loop_
 _symmetry_equiv_pos_site_id
 _symmetry_equiv_pos_as_xyz
  1  'x, y, z'
loop_
 _atom_site_type_symbol
 _atom_site_label
 _atom_site_symmetry_multiplicity
 _atom_site_fract_x
 _atom_site_fract_y
 _atom_site_fract_z
 _atom_site_occupancy
  K  K0  1  0.50000000  0.24651200  0.25000000  1
  K  K1  1  0.00000000  0.25348800  0.75000000  1
  K  K2  1  0.00000000  0.74651200  0.25000000  1
  K  K3  1  0.50000000  0.75348800  0.75000000  1
  U  U4  1  0.00000000  0.00000000  0.00000000  1
  U  U5  1  0.00000000  0.00000000  0.50000000  1
  U  U6  1  0.50000000  0.50000000  0.00000000  1
  U  U7  1  0.50000000  0.50000000  0.50000000  1
  Cu  Cu8  1  0.50000000  0.03263000  0.75000000  1
  Cu  Cu9  1  0.00000000  0.46737000  0.25000000  1
  Cu  Cu10  1  0.00000000  0.53263000  0.75000000  1
  Cu  Cu11  1  0.50000000  0.96737000  0.25000000  1
  Se  Se12  1  0.50000000  0.43493300  0.75000000  1
  Se  Se13  1  0.00000000  0.37374000  0.43828600  1
  Se  Se14  1  0.50000000  0.12626000  0.56171400  1
  Se  Se15  1  0.00000000  0.37374000  0.06171400  1
  Se  Se16  1  0.50000000  0.12626000  0.93828600  1
  Se  Se17  1  0.00000000  0.06506700  0.25000000  1
  Se  Se18  1  0.00000000  0.93493300  0.75000000  1
  Se  Se19  1  0.50000000  0.87374000  0.43828600  1
  Se  Se20  1  0.00000000  0.62626000  0.56171400  1
  Se  Se21  1  0.50000000  0.87374000  0.06171400  1
  Se  Se22  1  0.00000000  0.62626000  0.93828600  1
  Se  Se23  1  0.50000000  0.56506700  0.25000000  1
