# generated using pymatgen
data_UAl2Pd5
_symmetry_space_group_name_H-M   'P 1'
_cell_length_a   4.19317800
_cell_length_b   4.19317800
_cell_length_c   14.88437000
_cell_angle_alpha   90.00000000
_cell_angle_beta   90.00000000
_cell_angle_gamma   90.00000000
_symmetry_Int_Tables_number   1
_chemical_formula_structural   UAl2Pd5
_chemical_formula_sum   'U2 Al4 Pd10'
_cell_volume   261.70803367
_cell_formula_units_Z   2
loop_
 _symmetry_equiv_pos_site_id
 _symmetry_equiv_pos_as_xyz
  1  'x, y, z'
loop_
 _atom_site_type_symbol
 _atom_site_label
 _atom_site_symmetry_multiplicity
 _atom_site_fract_x
 _atom_site_fract_y
 _atom_site_fract_z
 _atom_site_occupancy
  U  U0  1  0.00000000  0.00000000  0.00000000  1
  U  U1  1  0.50000000  0.50000000  0.50000000  1
  Al  Al2  1  0.00000000  0.00000000  0.25441700  1
  Al  Al3  1  0.50000000  0.50000000  0.24558300  1
  Al  Al4  1  0.50000000  0.50000000  0.75441700  1
  Al  Al5  1  0.00000000  0.00000000  0.74558300  1
  Pd  Pd6  1  0.50000000  0.00000000  0.35622400  1
  Pd  Pd7  1  0.50000000  0.00000000  0.14377600  1
  Pd  Pd8  1  0.00000000  0.50000000  0.35622400  1
  Pd  Pd9  1  0.00000000  0.50000000  0.14377600  1
  Pd  Pd10  1  0.50000000  0.50000000  0.00000000  1
  Pd  Pd11  1  0.00000000  0.50000000  0.85622400  1
  Pd  Pd12  1  0.00000000  0.50000000  0.64377600  1
  Pd  Pd13  1  0.50000000  0.00000000  0.85622400  1
  Pd  Pd14  1  0.50000000  0.00000000  0.64377600  1
  Pd  Pd15  1  0.00000000  0.00000000  0.50000000  1
