# generated using pymatgen
data_K2Mo(I2O7)2
_symmetry_space_group_name_H-M   'P 1'
_cell_length_a   13.14064200
_cell_length_b   6.33904400
_cell_length_c   17.81875259
_cell_angle_alpha   90.00000000
_cell_angle_beta   101.82674510
_cell_angle_gamma   90.00000000
_symmetry_Int_Tables_number   1
_chemical_formula_structural   K2Mo(I2O7)2
_chemical_formula_sum   'K8 Mo4 I16 O56'
_cell_volume   1452.77750695
_cell_formula_units_Z   4
loop_
 _symmetry_equiv_pos_site_id
 _symmetry_equiv_pos_as_xyz
  1  'x, y, z'
loop_
 _atom_site_type_symbol
 _atom_site_label
 _atom_site_symmetry_multiplicity
 _atom_site_fract_x
 _atom_site_fract_y
 _atom_site_fract_z
 _atom_site_occupancy
  K  K0  1  0.81891500  0.99807100  0.53846000  1
  K  K1  1  0.68108500  0.49807100  0.96154000  1
  K  K2  1  0.68108500  0.50192900  0.46154000  1
  K  K3  1  0.81891500  0.00192900  0.03846000  1
  K  K4  1  0.31891500  0.49807100  0.53846000  1
  K  K5  1  0.18108500  0.99807100  0.96154000  1
  K  K6  1  0.18108500  0.00192900  0.46154000  1
  K  K7  1  0.31891500  0.50192900  0.03846000  1
  Mo  Mo8  1  0.00000000  0.89016100  0.25000000  1
  Mo  Mo9  1  0.00000000  0.10983900  0.75000000  1
  Mo  Mo10  1  0.50000000  0.39016100  0.25000000  1
  Mo  Mo11  1  0.50000000  0.60983900  0.75000000  1
  I  I12  1  0.96414250  0.58342750  0.40960900  1
  I  I13  1  0.53585750  0.08342750  0.09039100  1
  I  I14  1  0.53585750  0.91657250  0.59039100  1
  I  I15  1  0.96414250  0.41657250  0.90960900  1
  I  I16  1  0.78862200  0.51566900  0.67966600  1
  I  I17  1  0.71137800  0.01566900  0.82033400  1
  I  I18  1  0.71137800  0.98433100  0.32033400  1
  I  I19  1  0.78862200  0.48433100  0.17966600  1
  I  I20  1  0.46414250  0.08342750  0.40960900  1
  I  I21  1  0.03585750  0.58342750  0.09039100  1
  I  I22  1  0.03585750  0.41657250  0.59039100  1
  I  I23  1  0.46414250  0.91657250  0.90960900  1
  I  I24  1  0.28862200  0.01566900  0.67966600  1
  I  I25  1  0.21137800  0.51566900  0.82033400  1
  I  I26  1  0.21137800  0.48433100  0.32033400  1
  I  I27  1  0.28862200  0.98433100  0.17966600  1
  O  O28  1  0.51956850  0.32101850  0.36049100  1
  O  O29  1  0.98043150  0.82101850  0.13950900  1
  O  O30  1  0.98043150  0.17898150  0.63950900  1
  O  O31  1  0.51956850  0.67898150  0.86049100  1
  O  O32  1  0.55131100  0.17614700  0.49998700  1
  O  O33  1  0.94868900  0.67614700  0.00001300  1
  O  O34  1  0.94868900  0.32385300  0.50001300  1
  O  O35  1  0.55131100  0.82385300  0.99998700  1
  O  O36  1  0.84559200  0.71784400  0.41999200  1
  O  O37  1  0.65440800  0.21784400  0.08000800  1
  O  O38  1  0.65440800  0.78215600  0.58000800  1
  O  O39  1  0.84559200  0.28215600  0.91999200  1
  O  O40  1  0.89148050  0.38936850  0.75466300  1
  O  O41  1  0.60851950  0.88936850  0.74533700  1
  O  O42  1  0.60851950  0.11063150  0.24533700  1
  O  O43  1  0.89148050  0.61063150  0.25466300  1
  O  O44  1  0.86500150  0.59884150  0.60959200  1
  O  O45  1  0.63499850  0.09884150  0.89040800  1
  O  O46  1  0.63499850  0.90115850  0.39040800  1
  O  O47  1  0.86500150  0.40115850  0.10959200  1
  O  O48  1  0.72537550  0.28629950  0.63095400  1
  O  O49  1  0.77462450  0.78629950  0.86904600  1
  O  O50  1  0.77462450  0.21370050  0.36904600  1
  O  O51  1  0.72537550  0.71370050  0.13095400  1
  O  O52  1  0.60659650  0.56047450  0.26044500  1
  O  O53  1  0.89340350  0.06047450  0.23955500  1
  O  O54  1  0.89340350  0.93952550  0.73955500  1
  O  O55  1  0.60659650  0.43952550  0.76044500  1
  O  O56  1  0.01956850  0.82101850  0.36049100  1
  O  O57  1  0.48043150  0.32101850  0.13950900  1
  O  O58  1  0.48043150  0.67898150  0.63950900  1
  O  O59  1  0.01956850  0.17898150  0.86049100  1
  O  O60  1  0.05131100  0.67614700  0.49998700  1
  O  O61  1  0.44868900  0.17614700  0.00001300  1
  O  O62  1  0.44868900  0.82385300  0.50001300  1
  O  O63  1  0.05131100  0.32385300  0.99998700  1
  O  O64  1  0.34559200  0.21784400  0.41999200  1
  O  O65  1  0.15440800  0.71784400  0.08000800  1
  O  O66  1  0.15440800  0.28215600  0.58000800  1
  O  O67  1  0.34559200  0.78215600  0.91999200  1
  O  O68  1  0.39148050  0.88936850  0.75466300  1
  O  O69  1  0.10851950  0.38936850  0.74533700  1
  O  O70  1  0.10851950  0.61063150  0.24533700  1
  O  O71  1  0.39148050  0.11063150  0.25466300  1
  O  O72  1  0.36500150  0.09884150  0.60959200  1
  O  O73  1  0.13499850  0.59884150  0.89040800  1
  O  O74  1  0.13499850  0.40115850  0.39040800  1
  O  O75  1  0.36500150  0.90115850  0.10959200  1
  O  O76  1  0.22537550  0.78629950  0.63095400  1
  O  O77  1  0.27462450  0.28629950  0.86904600  1
  O  O78  1  0.27462450  0.71370050  0.36904600  1
  O  O79  1  0.22537550  0.21370050  0.13095400  1
  O  O80  1  0.10659650  0.06047450  0.26044500  1
  O  O81  1  0.39340350  0.56047450  0.23955500  1
  O  O82  1  0.39340350  0.43952550  0.73955500  1
  O  O83  1  0.10659650  0.93952550  0.76044500  1
