# generated using pymatgen
data_Na2Te3Mo3O16
_symmetry_space_group_name_H-M   'P 1'
_cell_length_a   10.49354400
_cell_length_b   11.53302000
_cell_length_c   7.49086371
_cell_angle_alpha   90.00000000
_cell_angle_beta   128.18672529
_cell_angle_gamma   90.00000000
_symmetry_Int_Tables_number   1
_chemical_formula_structural   Na2Te3Mo3O16
_chemical_formula_sum   'Na4 Te6 Mo6 O32'
_cell_volume   712.55724062
_cell_formula_units_Z   2
loop_
 _symmetry_equiv_pos_site_id
 _symmetry_equiv_pos_as_xyz
  1  'x, y, z'
loop_
 _atom_site_type_symbol
 _atom_site_label
 _atom_site_symmetry_multiplicity
 _atom_site_fract_x
 _atom_site_fract_y
 _atom_site_fract_z
 _atom_site_occupancy
  Na  Na0  1  0.50000000  0.56721100  0.50000000  1
  Na  Na1  1  0.50000000  0.98291000  0.00000000  1
  Na  Na2  1  0.00000000  0.06721100  0.50000000  1
  Na  Na3  1  0.00000000  0.48291000  0.00000000  1
  Te  Te4  1  0.50000000  0.48658000  0.00000000  1
  Te  Te5  1  0.22076900  0.82887400  0.50132000  1
  Te  Te6  1  0.77923100  0.82887400  0.49868000  1
  Te  Te7  1  0.00000000  0.98658000  0.00000000  1
  Te  Te8  1  0.72076900  0.32887400  0.50132000  1
  Te  Te9  1  0.27923100  0.32887400  0.49868000  1
  Mo  Mo10  1  0.72690100  0.24089200  0.97382000  1
  Mo  Mo11  1  0.27309900  0.24089200  0.02618000  1
  Mo  Mo12  1  0.50000000  0.08060000  0.50000000  1
  Mo  Mo13  1  0.22690100  0.74089200  0.97382000  1
  Mo  Mo14  1  0.77309900  0.74089200  0.02618000  1
  Mo  Mo15  1  0.00000000  0.58060000  0.50000000  1
  O  O16  1  0.28195650  0.12722650  0.23618700  1
  O  O17  1  0.30556100  0.13638700  0.88739800  1
  O  O18  1  0.71804350  0.12722650  0.76381300  1
  O  O19  1  0.69443900  0.13638700  0.11260200  1
  O  O20  1  0.56080800  0.74828800  0.83474500  1
  O  O21  1  0.47160850  0.23232350  0.66117100  1
  O  O22  1  0.44652450  0.98619950  0.62984700  1
  O  O23  1  0.52839150  0.23232350  0.33882900  1
  O  O24  1  0.83594250  0.87498450  0.92938200  1
  O  O25  1  0.43919200  0.74828800  0.16525500  1
  O  O26  1  0.16405750  0.87498450  0.07061800  1
  O  O27  1  0.09803800  0.96747100  0.33875100  1
  O  O28  1  0.90196200  0.96747100  0.66124900  1
  O  O29  1  0.55347550  0.98619950  0.37015300  1
  O  O30  1  0.23623200  0.87038400  0.75676200  1
  O  O31  1  0.76376800  0.87038400  0.24323800  1
  O  O32  1  0.78195650  0.62722650  0.23618700  1
  O  O33  1  0.80556100  0.63638700  0.88739800  1
  O  O34  1  0.21804350  0.62722650  0.76381300  1
  O  O35  1  0.19443900  0.63638700  0.11260200  1
  O  O36  1  0.06080800  0.24828800  0.83474500  1
  O  O37  1  0.97160850  0.73232350  0.66117100  1
  O  O38  1  0.94652450  0.48619950  0.62984700  1
  O  O39  1  0.02839150  0.73232350  0.33882900  1
  O  O40  1  0.33594250  0.37498450  0.92938200  1
  O  O41  1  0.93919200  0.24828800  0.16525500  1
  O  O42  1  0.66405750  0.37498450  0.07061800  1
  O  O43  1  0.59803800  0.46747100  0.33875100  1
  O  O44  1  0.40196200  0.46747100  0.66124900  1
  O  O45  1  0.05347550  0.48619950  0.37015300  1
  O  O46  1  0.73623200  0.37038400  0.75676200  1
  O  O47  1  0.26376800  0.37038400  0.24323800  1
