# generated using pymatgen
data_Li3Ga7
_symmetry_space_group_name_H-M   'P 1'
_cell_length_a   8.57333972
_cell_length_b   8.57333972
_cell_length_c   17.44301713
_cell_angle_alpha   90.00000000
_cell_angle_beta   90.00000000
_cell_angle_gamma   120.00000000
_symmetry_Int_Tables_number   1
_chemical_formula_structural   Li3Ga7
_chemical_formula_sum   'Li18 Ga42'
_cell_volume   1110.33058903
_cell_formula_units_Z   6
loop_
 _symmetry_equiv_pos_site_id
 _symmetry_equiv_pos_as_xyz
  1  'x, y, z'
loop_
 _atom_site_type_symbol
 _atom_site_label
 _atom_site_symmetry_multiplicity
 _atom_site_fract_x
 _atom_site_fract_y
 _atom_site_fract_z
 _atom_site_occupancy
  Li  Li0  1  0.47014233  0.52985767  0.41105967  1
  Li  Li1  1  0.05971533  0.52985767  0.41105967  1
  Li  Li2  1  0.60695133  0.80347567  0.92227367  1
  Li  Li3  1  0.47014233  0.94028467  0.41105967  1
  Li  Li4  1  0.19652433  0.39304867  0.92227367  1
  Li  Li5  1  0.19652433  0.80347567  0.92227367  1
  Li  Li6  1  0.13680900  0.86319100  0.74439300  1
  Li  Li7  1  0.72638200  0.86319100  0.74439300  1
  Li  Li8  1  0.27361800  0.13680900  0.25560700  1
  Li  Li9  1  0.13680900  0.27361800  0.74439300  1
  Li  Li10  1  0.86319100  0.72638200  0.25560700  1
  Li  Li11  1  0.86319100  0.13680900  0.25560700  1
  Li  Li12  1  0.80347567  0.19652433  0.07772633  1
  Li  Li13  1  0.39304867  0.19652433  0.07772633  1
  Li  Li14  1  0.94028467  0.47014233  0.58894033  1
  Li  Li15  1  0.80347567  0.60695133  0.07772633  1
  Li  Li16  1  0.52985767  0.05971533  0.58894033  1
  Li  Li17  1  0.52985767  0.47014233  0.58894033  1
  Ga  Ga18  1  0.43847633  0.56152367  0.05204167  1
  Ga  Ga19  1  0.50847400  0.49152600  0.19548300  1
  Ga  Ga20  1  0.15819267  0.31638533  0.13785033  1
  Ga  Ga21  1  0.22819033  0.77180967  0.28129167  1
  Ga  Ga22  1  0.50847400  0.01694800  0.19548300  1
  Ga  Ga23  1  0.54361933  0.77180967  0.28129167  1
  Ga  Ga24  1  0.15819267  0.84180733  0.13785033  1
  Ga  Ga25  1  0.33333333  0.66666667  0.74258467  1
  Ga  Ga26  1  0.22819033  0.45638067  0.28129167  1
  Ga  Ga27  1  0.68361467  0.84180733  0.13785033  1
  Ga  Ga28  1  0.12304733  0.56152367  0.05204167  1
  Ga  Ga29  1  0.98305200  0.49152600  0.19548300  1
  Ga  Ga30  1  0.43847633  0.87695267  0.05204167  1
  Ga  Ga31  1  0.33333333  0.66666667  0.59074867  1
  Ga  Ga32  1  0.10514300  0.89485700  0.38537500  1
  Ga  Ga33  1  0.17514067  0.82485933  0.52881633  1
  Ga  Ga34  1  0.82485933  0.64971867  0.47118367  1
  Ga  Ga35  1  0.89485700  0.10514300  0.61462500  1
  Ga  Ga36  1  0.17514067  0.35028133  0.52881633  1
  Ga  Ga37  1  0.21028600  0.10514300  0.61462500  1
  Ga  Ga38  1  0.82485933  0.17514067  0.47118367  1
  Ga  Ga39  1  0.00000000  0.00000000  0.07591800  1
  Ga  Ga40  1  0.89485700  0.78971400  0.61462500  1
  Ga  Ga41  1  0.35028133  0.17514067  0.47118367  1
  Ga  Ga42  1  0.78971400  0.89485700  0.38537500  1
  Ga  Ga43  1  0.64971867  0.82485933  0.52881633  1
  Ga  Ga44  1  0.10514300  0.21028600  0.38537500  1
  Ga  Ga45  1  0.00000000  0.00000000  0.92408200  1
  Ga  Ga46  1  0.77180967  0.22819033  0.71870833  1
  Ga  Ga47  1  0.84180733  0.15819267  0.86214967  1
  Ga  Ga48  1  0.49152600  0.98305200  0.80451700  1
  Ga  Ga49  1  0.56152367  0.43847633  0.94795833  1
  Ga  Ga50  1  0.84180733  0.68361467  0.86214967  1
  Ga  Ga51  1  0.87695267  0.43847633  0.94795833  1
  Ga  Ga52  1  0.49152600  0.50847400  0.80451700  1
  Ga  Ga53  1  0.66666667  0.33333333  0.40925133  1
  Ga  Ga54  1  0.56152367  0.12304733  0.94795833  1
  Ga  Ga55  1  0.01694800  0.50847400  0.80451700  1
  Ga  Ga56  1  0.45638067  0.22819033  0.71870833  1
  Ga  Ga57  1  0.31638533  0.15819267  0.86214967  1
  Ga  Ga58  1  0.77180967  0.54361933  0.71870833  1
  Ga  Ga59  1  0.66666667  0.33333333  0.25741533  1
