# generated using pymatgen
data_U3Ni3Sn4
_symmetry_space_group_name_H-M   'P 1'
_cell_length_a   9.34142600
_cell_length_b   9.34142600
_cell_length_c   9.34142600
_cell_angle_alpha   90.00000000
_cell_angle_beta   90.00000000
_cell_angle_gamma   90.00000000
_symmetry_Int_Tables_number   1
_chemical_formula_structural   U3Ni3Sn4
_chemical_formula_sum   'U12 Ni12 Sn16'
_cell_volume   815.15375488
_cell_formula_units_Z   4
loop_
 _symmetry_equiv_pos_site_id
 _symmetry_equiv_pos_as_xyz
  1  'x, y, z'
loop_
 _atom_site_type_symbol
 _atom_site_label
 _atom_site_symmetry_multiplicity
 _atom_site_fract_x
 _atom_site_fract_y
 _atom_site_fract_z
 _atom_site_occupancy
  U  U0  1  0.00000000  0.75000000  0.12500000  1
  U  U1  1  0.75000000  0.12500000  0.00000000  1
  U  U2  1  0.25000000  0.37500000  0.00000000  1
  U  U3  1  0.00000000  0.25000000  0.37500000  1
  U  U4  1  0.37500000  0.00000000  0.25000000  1
  U  U5  1  0.12500000  0.00000000  0.75000000  1
  U  U6  1  0.50000000  0.25000000  0.62500000  1
  U  U7  1  0.25000000  0.62500000  0.50000000  1
  U  U8  1  0.75000000  0.87500000  0.50000000  1
  U  U9  1  0.50000000  0.75000000  0.87500000  1
  U  U10  1  0.87500000  0.50000000  0.75000000  1
  U  U11  1  0.62500000  0.50000000  0.25000000  1
  Ni  Ni12  1  0.75000000  0.37500000  0.50000000  1
  Ni  Ni13  1  0.12500000  0.50000000  0.25000000  1
  Ni  Ni14  1  0.37500000  0.50000000  0.75000000  1
  Ni  Ni15  1  0.25000000  0.12500000  0.50000000  1
  Ni  Ni16  1  0.50000000  0.75000000  0.37500000  1
  Ni  Ni17  1  0.50000000  0.25000000  0.12500000  1
  Ni  Ni18  1  0.25000000  0.87500000  0.00000000  1
  Ni  Ni19  1  0.62500000  0.00000000  0.75000000  1
  Ni  Ni20  1  0.87500000  0.00000000  0.25000000  1
  Ni  Ni21  1  0.75000000  0.62500000  0.00000000  1
  Ni  Ni22  1  0.00000000  0.25000000  0.87500000  1
  Ni  Ni23  1  0.00000000  0.75000000  0.62500000  1
  Sn  Sn24  1  0.16564300  0.66564300  0.83435700  1
  Sn  Sn25  1  0.08435700  0.08435700  0.08435700  1
  Sn  Sn26  1  0.91564300  0.41564300  0.08435700  1
  Sn  Sn27  1  0.83435700  0.16564300  0.66564300  1
  Sn  Sn28  1  0.41564300  0.08435700  0.91564300  1
  Sn  Sn29  1  0.08435700  0.91564300  0.41564300  1
  Sn  Sn30  1  0.66564300  0.83435700  0.16564300  1
  Sn  Sn31  1  0.33435700  0.33435700  0.33435700  1
  Sn  Sn32  1  0.66564300  0.16564300  0.33435700  1
  Sn  Sn33  1  0.58435700  0.58435700  0.58435700  1
  Sn  Sn34  1  0.41564300  0.91564300  0.58435700  1
  Sn  Sn35  1  0.33435700  0.66564300  0.16564300  1
  Sn  Sn36  1  0.91564300  0.58435700  0.41564300  1
  Sn  Sn37  1  0.58435700  0.41564300  0.91564300  1
  Sn  Sn38  1  0.16564300  0.33435700  0.66564300  1
  Sn  Sn39  1  0.83435700  0.83435700  0.83435700  1
