# generated using pymatgen
data_V3Cd5P6O25
_symmetry_space_group_name_H-M   'P 1'
_cell_length_a   17.14580400
_cell_length_b   4.80683800
_cell_length_c   24.63402799
_cell_angle_alpha   90.00000000
_cell_angle_beta   103.12008017
_cell_angle_gamma   90.00000000
_symmetry_Int_Tables_number   1
_chemical_formula_structural   V3Cd5P6O25
_chemical_formula_sum   'V12 Cd20 P24 O100'
_cell_volume   1977.26812215
_cell_formula_units_Z   4
loop_
 _symmetry_equiv_pos_site_id
 _symmetry_equiv_pos_as_xyz
  1  'x, y, z'
loop_
 _atom_site_type_symbol
 _atom_site_label
 _atom_site_symmetry_multiplicity
 _atom_site_fract_x
 _atom_site_fract_y
 _atom_site_fract_z
 _atom_site_occupancy
  V  V0  1  0.26915350  0.49574650  0.91294200  1
  V  V1  1  0.00000000  0.93958000  0.75000000  1
  V  V2  1  0.73084650  0.50425350  0.08705800  1
  V  V3  1  0.00000000  0.06042000  0.25000000  1
  V  V4  1  0.23084650  0.99574650  0.58705800  1
  V  V5  1  0.76915350  0.00425350  0.41294200  1
  V  V6  1  0.76915350  0.99574650  0.91294200  1
  V  V7  1  0.50000000  0.43958000  0.75000000  1
  V  V8  1  0.23084650  0.00425350  0.08705800  1
  V  V9  1  0.50000000  0.56042000  0.25000000  1
  V  V10  1  0.73084650  0.49574650  0.58705800  1
  V  V11  1  0.26915350  0.50425350  0.41294200  1
  Cd  Cd12  1  0.06037150  0.47646650  0.88355600  1
  Cd  Cd13  1  0.06037150  0.52353350  0.38355600  1
  Cd  Cd14  1  0.93962850  0.52353350  0.11644400  1
  Cd  Cd15  1  0.93962850  0.47646650  0.61644400  1
  Cd  Cd16  1  0.16697650  0.47403350  0.70862400  1
  Cd  Cd17  1  0.33302350  0.97403350  0.79137600  1
  Cd  Cd18  1  0.83302350  0.52596650  0.29137600  1
  Cd  Cd19  1  0.66697650  0.02596650  0.20862400  1
  Cd  Cd20  1  0.00000000  0.00000000  0.50000000  1
  Cd  Cd21  1  0.00000000  0.00000000  0.00000000  1
  Cd  Cd22  1  0.56037150  0.97646650  0.88355600  1
  Cd  Cd23  1  0.56037150  0.02353350  0.38355600  1
  Cd  Cd24  1  0.43962850  0.02353350  0.11644400  1
  Cd  Cd25  1  0.43962850  0.97646650  0.61644400  1
  Cd  Cd26  1  0.66697650  0.97403350  0.70862400  1
  Cd  Cd27  1  0.83302350  0.47403350  0.79137600  1
  Cd  Cd28  1  0.33302350  0.02596650  0.29137600  1
  Cd  Cd29  1  0.16697650  0.52596650  0.20862400  1
  Cd  Cd30  1  0.50000000  0.50000000  0.50000000  1
  Cd  Cd31  1  0.50000000  0.50000000  0.00000000  1
  P  P32  1  0.67633100  0.48740000  0.32547600  1
  P  P33  1  0.32366900  0.51260000  0.67452400  1
  P  P34  1  0.17633100  0.01260000  0.82547600  1
  P  P35  1  0.82366900  0.98740000  0.17452400  1
  P  P36  1  0.14995650  0.47603850  0.50307500  1
  P  P37  1  0.07150100  0.95564700  0.64079400  1
  P  P38  1  0.35004350  0.97603850  0.99692500  1
  P  P39  1  0.64995650  0.02396150  0.00307500  1
  P  P40  1  0.42849900  0.45564700  0.85920600  1
  P  P41  1  0.92849900  0.04435300  0.35920600  1
  P  P42  1  0.57150100  0.54435300  0.14079400  1
  P  P43  1  0.85004350  0.52396150  0.49692500  1
  P  P44  1  0.17633100  0.98740000  0.32547600  1
  P  P45  1  0.82366900  0.01260000  0.67452400  1
  P  P46  1  0.67633100  0.51260000  0.82547600  1
  P  P47  1  0.32366900  0.48740000  0.17452400  1
  P  P48  1  0.64995650  0.97603850  0.50307500  1
  P  P49  1  0.57150100  0.45564700  0.64079400  1
  P  P50  1  0.85004350  0.47603850  0.99692500  1
  P  P51  1  0.14995650  0.52396150  0.00307500  1
  P  P52  1  0.92849900  0.95564700  0.85920600  1
  P  P53  1  0.42849900  0.54435300  0.35920600  1
  P  P54  1  0.07150100  0.04435300  0.14079400  1
  P  P55  1  0.35004350  0.02396150  0.49692500  1
  O  O56  1  0.81727050  0.38009550  0.04846800  1
  O  O57  1  0.99664300  0.85907200  0.90764600  1
  O  O58  1  0.65550350  0.63618050  0.13558500  1
  O  O59  1  0.84449650  0.13618050  0.36441500  1
  O  O60  1  0.90466650  0.14996450  0.18819500  1
  O  O61  1  0.29928100  0.61257100  0.72919900  1
  O  O62  1  0.25600400  0.31383600  0.64591900  1
  O  O63  1  0.93578100  0.27375400  0.85216200  1
  O  O64  1  0.70071900  0.38742900  0.27080100  1
  O  O65  1  0.00335700  0.85907200  0.59235400  1
  O  O66  1  0.00000000  0.71910400  0.25000000  1
  O  O67  1  0.06421900  0.72624600  0.14783800  1
  O  O68  1  0.06933000  0.62485800  0.47780400  1
  O  O69  1  0.75600400  0.18616400  0.14591900  1
  O  O70  1  0.79928100  0.88742900  0.22919900  1
  O  O71  1  0.74399600  0.68616400  0.35408100  1
  O  O72  1  0.06305950  0.19499450  0.19668800  1
  O  O73  1  0.09533350  0.14996450  0.31180500  1
  O  O74  1  0.93694050  0.80500550  0.80331200  1
  O  O75  1  0.71019600  0.83708600  0.04190800  1
  O  O76  1  0.93694050  0.19499450  0.30331200  1
  O  O77  1  0.90466650  0.85003550  0.68819500  1
  O  O78  1  0.83156300  0.73090400  0.13783000  1
  O  O79  1  0.36497600  0.70957200  0.96402800  1
  O  O80  1  0.06421900  0.27375400  0.64783800  1
  O  O81  1  0.18272950  0.38009550  0.45153200  1
  O  O82  1  0.28980400  0.16291400  0.95809200  1
  O  O83  1  0.63502400  0.29042800  0.03597200  1
  O  O84  1  0.00335700  0.14092800  0.09235400  1
  O  O85  1  0.06933000  0.37514200  0.97780400  1
  O  O86  1  0.00000000  0.28089600  0.75000000  1
  O  O87  1  0.16843700  0.73090400  0.36217000  1
  O  O88  1  0.99664300  0.14092800  0.40764600  1
  O  O89  1  0.86497600  0.79042800  0.46402800  1
  O  O90  1  0.21019600  0.66291400  0.54190800  1
  O  O91  1  0.93067000  0.62485800  0.02219600  1
  O  O92  1  0.24399600  0.81383600  0.85408100  1
  O  O93  1  0.06305950  0.80500550  0.69668800  1
  O  O94  1  0.93067000  0.37514200  0.52219600  1
  O  O95  1  0.16843700  0.26909600  0.86217000  1
  O  O96  1  0.13502400  0.20957200  0.53597200  1
  O  O97  1  0.15550350  0.86381950  0.63558500  1
  O  O98  1  0.20071900  0.11257100  0.77080100  1
  O  O99  1  0.34449650  0.36381950  0.86441500  1
  O  O100  1  0.83156300  0.26909600  0.63783000  1
  O  O101  1  0.81727050  0.61990450  0.54846800  1
  O  O102  1  0.09533350  0.85003550  0.81180500  1
  O  O103  1  0.93578100  0.72624600  0.35216200  1
  O  O104  1  0.78980400  0.33708600  0.45809200  1
  O  O105  1  0.18272950  0.61990450  0.95153200  1
  O  O106  1  0.31727050  0.88009550  0.04846800  1
  O  O107  1  0.49664300  0.35907200  0.90764600  1
  O  O108  1  0.15550350  0.13618050  0.13558500  1
  O  O109  1  0.34449650  0.63618050  0.36441500  1
  O  O110  1  0.40466650  0.64996450  0.18819500  1
  O  O111  1  0.79928100  0.11257100  0.72919900  1
  O  O112  1  0.75600400  0.81383600  0.64591900  1
  O  O113  1  0.43578100  0.77375400  0.85216200  1
  O  O114  1  0.20071900  0.88742900  0.27080100  1
  O  O115  1  0.50335700  0.35907200  0.59235400  1
  O  O116  1  0.50000000  0.21910400  0.25000000  1
  O  O117  1  0.56421900  0.22624600  0.14783800  1
  O  O118  1  0.56933000  0.12485800  0.47780400  1
  O  O119  1  0.25600400  0.68616400  0.14591900  1
  O  O120  1  0.29928100  0.38742900  0.22919900  1
  O  O121  1  0.24399600  0.18616400  0.35408100  1
  O  O122  1  0.56305950  0.69499450  0.19668800  1
  O  O123  1  0.59533350  0.64996450  0.31180500  1
  O  O124  1  0.43694050  0.30500550  0.80331200  1
  O  O125  1  0.21019600  0.33708600  0.04190800  1
  O  O126  1  0.43694050  0.69499450  0.30331200  1
  O  O127  1  0.40466650  0.35003550  0.68819500  1
  O  O128  1  0.33156300  0.23090400  0.13783000  1
  O  O129  1  0.86497600  0.20957200  0.96402800  1
  O  O130  1  0.56421900  0.77375400  0.64783800  1
  O  O131  1  0.68272950  0.88009550  0.45153200  1
  O  O132  1  0.78980400  0.66291400  0.95809200  1
  O  O133  1  0.13502400  0.79042800  0.03597200  1
  O  O134  1  0.50335700  0.64092800  0.09235400  1
  O  O135  1  0.56933000  0.87514200  0.97780400  1
  O  O136  1  0.50000000  0.78089600  0.75000000  1
  O  O137  1  0.66843700  0.23090400  0.36217000  1
  O  O138  1  0.49664300  0.64092800  0.40764600  1
  O  O139  1  0.36497600  0.29042800  0.46402800  1
  O  O140  1  0.71019600  0.16291400  0.54190800  1
  O  O141  1  0.43067000  0.12485800  0.02219600  1
  O  O142  1  0.74399600  0.31383600  0.85408100  1
  O  O143  1  0.56305950  0.30500550  0.69668800  1
  O  O144  1  0.43067000  0.87514200  0.52219600  1
  O  O145  1  0.66843700  0.76909600  0.86217000  1
  O  O146  1  0.63502400  0.70957200  0.53597200  1
  O  O147  1  0.65550350  0.36381950  0.63558500  1
  O  O148  1  0.70071900  0.61257100  0.77080100  1
  O  O149  1  0.84449650  0.86381950  0.86441500  1
  O  O150  1  0.33156300  0.76909600  0.63783000  1
  O  O151  1  0.31727050  0.11990450  0.54846800  1
  O  O152  1  0.59533350  0.35003550  0.81180500  1
  O  O153  1  0.43578100  0.22624600  0.35216200  1
  O  O154  1  0.28980400  0.83708600  0.45809200  1
  O  O155  1  0.68272950  0.11990450  0.95153200  1
