# generated using pymatgen
data_Sr3(LiSb)4
_symmetry_space_group_name_H-M   'P 1'
_cell_length_a   4.85176800
_cell_length_b   7.54545400
_cell_length_c   15.89875800
_cell_angle_alpha   90.00000000
_cell_angle_beta   90.00000000
_cell_angle_gamma   90.00000000
_symmetry_Int_Tables_number   1
_chemical_formula_structural   Sr3(LiSb)4
_chemical_formula_sum   'Sr6 Li8 Sb8'
_cell_volume   582.03432886
_cell_formula_units_Z   2
loop_
 _symmetry_equiv_pos_site_id
 _symmetry_equiv_pos_as_xyz
  1  'x, y, z'
loop_
 _atom_site_type_symbol
 _atom_site_label
 _atom_site_symmetry_multiplicity
 _atom_site_fract_x
 _atom_site_fract_y
 _atom_site_fract_z
 _atom_site_occupancy
  Sr  Sr0  1  0.00000000  0.00000000  0.62989600  1
  Sr  Sr1  1  0.50000000  0.00000000  0.00000000  1
  Sr  Sr2  1  0.50000000  0.50000000  0.87010400  1
  Sr  Sr3  1  0.50000000  0.50000000  0.12989600  1
  Sr  Sr4  1  0.00000000  0.50000000  0.50000000  1
  Sr  Sr5  1  0.00000000  0.00000000  0.37010400  1
  Li  Li6  1  0.50000000  0.30630100  0.67727700  1
  Li  Li7  1  0.50000000  0.69369900  0.67727700  1
  Li  Li8  1  0.00000000  0.80630100  0.82272300  1
  Li  Li9  1  0.00000000  0.19369900  0.82272300  1
  Li  Li10  1  0.00000000  0.80630100  0.17727700  1
  Li  Li11  1  0.00000000  0.19369900  0.17727700  1
  Li  Li12  1  0.50000000  0.30630100  0.32272300  1
  Li  Li13  1  0.50000000  0.69369900  0.32272300  1
  Sb  Sb14  1  0.50000000  0.00000000  0.78641300  1
  Sb  Sb15  1  0.00000000  0.50000000  0.71358700  1
  Sb  Sb16  1  0.00000000  0.30882200  0.00000000  1
  Sb  Sb17  1  0.00000000  0.69117800  0.00000000  1
  Sb  Sb18  1  0.00000000  0.50000000  0.28641300  1
  Sb  Sb19  1  0.50000000  0.00000000  0.21358700  1
  Sb  Sb20  1  0.50000000  0.80882200  0.50000000  1
  Sb  Sb21  1  0.50000000  0.19117800  0.50000000  1
