# generated using pymatgen
data_Ta3Al2CoC
_symmetry_space_group_name_H-M   'P 1'
_cell_length_a   11.60804800
_cell_length_b   11.60804800
_cell_length_c   11.60804800
_cell_angle_alpha   90.00000000
_cell_angle_beta   90.00000000
_cell_angle_gamma   90.00000000
_symmetry_Int_Tables_number   1
_chemical_formula_structural   Ta3Al2CoC
_chemical_formula_sum   'Ta48 Al32 Co16 C16'
_cell_volume   1564.14707117
_cell_formula_units_Z   16
loop_
 _symmetry_equiv_pos_site_id
 _symmetry_equiv_pos_as_xyz
  1  'x, y, z'
loop_
 _atom_site_type_symbol
 _atom_site_label
 _atom_site_symmetry_multiplicity
 _atom_site_fract_x
 _atom_site_fract_y
 _atom_site_fract_z
 _atom_site_occupancy
  Ta  Ta0  1  0.25000000  0.06112500  0.25000000  1
  Ta  Ta1  1  0.68887500  0.00000000  0.50000000  1
  Ta  Ta2  1  0.31112500  0.00000000  0.50000000  1
  Ta  Ta3  1  0.50000000  0.81112500  0.50000000  1
  Ta  Ta4  1  0.00000000  0.00000000  0.18887500  1
  Ta  Ta5  1  0.50000000  0.00000000  0.31112500  1
  Ta  Ta6  1  0.25000000  0.25000000  0.06112500  1
  Ta  Ta7  1  0.06112500  0.25000000  0.25000000  1
  Ta  Ta8  1  0.43887500  0.25000000  0.25000000  1
  Ta  Ta9  1  0.25000000  0.25000000  0.43887500  1
  Ta  Ta10  1  0.50000000  0.18887500  0.50000000  1
  Ta  Ta11  1  0.25000000  0.43887500  0.25000000  1
  Ta  Ta12  1  0.25000000  0.56112500  0.75000000  1
  Ta  Ta13  1  0.68887500  0.50000000  0.00000000  1
  Ta  Ta14  1  0.31112500  0.50000000  0.00000000  1
  Ta  Ta15  1  0.50000000  0.31112500  0.00000000  1
  Ta  Ta16  1  0.00000000  0.50000000  0.68887500  1
  Ta  Ta17  1  0.50000000  0.50000000  0.81112500  1
  Ta  Ta18  1  0.25000000  0.75000000  0.56112500  1
  Ta  Ta19  1  0.06112500  0.75000000  0.75000000  1
  Ta  Ta20  1  0.43887500  0.75000000  0.75000000  1
  Ta  Ta21  1  0.25000000  0.75000000  0.93887500  1
  Ta  Ta22  1  0.50000000  0.68887500  0.00000000  1
  Ta  Ta23  1  0.25000000  0.93887500  0.75000000  1
  Ta  Ta24  1  0.75000000  0.06112500  0.75000000  1
  Ta  Ta25  1  0.18887500  0.00000000  0.00000000  1
  Ta  Ta26  1  0.81112500  0.00000000  0.00000000  1
  Ta  Ta27  1  0.00000000  0.81112500  0.00000000  1
  Ta  Ta28  1  0.50000000  0.00000000  0.68887500  1
  Ta  Ta29  1  0.00000000  0.00000000  0.81112500  1
  Ta  Ta30  1  0.75000000  0.25000000  0.56112500  1
  Ta  Ta31  1  0.56112500  0.25000000  0.75000000  1
  Ta  Ta32  1  0.93887500  0.25000000  0.75000000  1
  Ta  Ta33  1  0.75000000  0.25000000  0.93887500  1
  Ta  Ta34  1  0.00000000  0.18887500  0.00000000  1
  Ta  Ta35  1  0.75000000  0.43887500  0.75000000  1
  Ta  Ta36  1  0.75000000  0.56112500  0.25000000  1
  Ta  Ta37  1  0.18887500  0.50000000  0.50000000  1
  Ta  Ta38  1  0.81112500  0.50000000  0.50000000  1
  Ta  Ta39  1  0.00000000  0.31112500  0.50000000  1
  Ta  Ta40  1  0.50000000  0.50000000  0.18887500  1
  Ta  Ta41  1  0.00000000  0.50000000  0.31112500  1
  Ta  Ta42  1  0.75000000  0.75000000  0.06112500  1
  Ta  Ta43  1  0.56112500  0.75000000  0.25000000  1
  Ta  Ta44  1  0.93887500  0.75000000  0.25000000  1
  Ta  Ta45  1  0.75000000  0.75000000  0.43887500  1
  Ta  Ta46  1  0.00000000  0.68887500  0.50000000  1
  Ta  Ta47  1  0.75000000  0.93887500  0.25000000  1
  Al  Al48  1  0.41820300  0.41820300  0.41820300  1
  Al  Al49  1  0.33179700  0.66820300  0.16820300  1
  Al  Al50  1  0.16820300  0.83179700  0.16820300  1
  Al  Al51  1  0.16820300  0.66820300  0.33179700  1
  Al  Al52  1  0.08179700  0.41820300  0.08179700  1
  Al  Al53  1  0.08179700  0.08179700  0.41820300  1
  Al  Al54  1  0.41820300  0.08179700  0.08179700  1
  Al  Al55  1  0.33179700  0.83179700  0.33179700  1
  Al  Al56  1  0.41820300  0.91820300  0.91820300  1
  Al  Al57  1  0.33179700  0.16820300  0.66820300  1
  Al  Al58  1  0.16820300  0.33179700  0.66820300  1
  Al  Al59  1  0.16820300  0.16820300  0.83179700  1
  Al  Al60  1  0.08179700  0.91820300  0.58179700  1
  Al  Al61  1  0.08179700  0.58179700  0.91820300  1
  Al  Al62  1  0.41820300  0.58179700  0.58179700  1
  Al  Al63  1  0.33179700  0.33179700  0.83179700  1
  Al  Al64  1  0.91820300  0.41820300  0.91820300  1
  Al  Al65  1  0.83179700  0.66820300  0.66820300  1
  Al  Al66  1  0.66820300  0.83179700  0.66820300  1
  Al  Al67  1  0.66820300  0.66820300  0.83179700  1
  Al  Al68  1  0.58179700  0.41820300  0.58179700  1
  Al  Al69  1  0.58179700  0.08179700  0.91820300  1
  Al  Al70  1  0.91820300  0.08179700  0.58179700  1
  Al  Al71  1  0.83179700  0.83179700  0.83179700  1
  Al  Al72  1  0.91820300  0.91820300  0.41820300  1
  Al  Al73  1  0.83179700  0.16820300  0.16820300  1
  Al  Al74  1  0.66820300  0.33179700  0.16820300  1
  Al  Al75  1  0.66820300  0.16820300  0.33179700  1
  Al  Al76  1  0.58179700  0.91820300  0.08179700  1
  Al  Al77  1  0.58179700  0.58179700  0.41820300  1
  Al  Al78  1  0.91820300  0.58179700  0.08179700  1
  Al  Al79  1  0.83179700  0.33179700  0.33179700  1
  Co  Co80  1  0.12500000  0.62500000  0.12500000  1
  Co  Co81  1  0.12500000  0.87500000  0.37500000  1
  Co  Co82  1  0.37500000  0.62500000  0.37500000  1
  Co  Co83  1  0.37500000  0.87500000  0.12500000  1
  Co  Co84  1  0.12500000  0.12500000  0.62500000  1
  Co  Co85  1  0.12500000  0.37500000  0.87500000  1
  Co  Co86  1  0.37500000  0.12500000  0.87500000  1
  Co  Co87  1  0.37500000  0.37500000  0.62500000  1
  Co  Co88  1  0.62500000  0.62500000  0.62500000  1
  Co  Co89  1  0.62500000  0.87500000  0.87500000  1
  Co  Co90  1  0.87500000  0.62500000  0.87500000  1
  Co  Co91  1  0.87500000  0.87500000  0.62500000  1
  Co  Co92  1  0.62500000  0.12500000  0.12500000  1
  Co  Co93  1  0.62500000  0.37500000  0.37500000  1
  Co  Co94  1  0.87500000  0.12500000  0.37500000  1
  Co  Co95  1  0.87500000  0.37500000  0.12500000  1
  C  C96  1  0.12500000  0.12500000  0.12500000  1
  C  C97  1  0.62500000  0.87500000  0.37500000  1
  C  C98  1  0.37500000  0.12500000  0.37500000  1
  C  C99  1  0.87500000  0.87500000  0.12500000  1
  C  C100  1  0.12500000  0.62500000  0.62500000  1
  C  C101  1  0.62500000  0.37500000  0.87500000  1
  C  C102  1  0.37500000  0.62500000  0.87500000  1
  C  C103  1  0.87500000  0.37500000  0.62500000  1
  C  C104  1  0.62500000  0.12500000  0.62500000  1
  C  C105  1  0.12500000  0.87500000  0.87500000  1
  C  C106  1  0.87500000  0.12500000  0.87500000  1
  C  C107  1  0.37500000  0.87500000  0.62500000  1
  C  C108  1  0.62500000  0.62500000  0.12500000  1
  C  C109  1  0.12500000  0.37500000  0.37500000  1
  C  C110  1  0.87500000  0.62500000  0.37500000  1
  C  C111  1  0.37500000  0.37500000  0.12500000  1
