# generated using pymatgen
data_Bi2MoO6
_symmetry_space_group_name_H-M   'P 1'
_cell_length_a   5.44660400
_cell_length_b   16.89933000
_cell_length_c   5.46401800
_cell_angle_alpha   90.00000000
_cell_angle_beta   90.00000000
_cell_angle_gamma   90.00000000
_symmetry_Int_Tables_number   1
_chemical_formula_structural   Bi2MoO6
_chemical_formula_sum   'Bi8 Mo4 O24'
_cell_volume   502.92984535
_cell_formula_units_Z   4
loop_
 _symmetry_equiv_pos_site_id
 _symmetry_equiv_pos_as_xyz
  1  'x, y, z'
loop_
 _atom_site_type_symbol
 _atom_site_label
 _atom_site_symmetry_multiplicity
 _atom_site_fract_x
 _atom_site_fract_y
 _atom_site_fract_z
 _atom_site_occupancy
  Bi  Bi0  1  0.00000000  0.82661800  0.52465500  1
  Bi  Bi1  1  0.50000000  0.67338200  0.47534500  1
  Bi  Bi2  1  0.00000000  0.67338200  0.02465500  1
  Bi  Bi3  1  0.50000000  0.82661800  0.97534500  1
  Bi  Bi4  1  0.50000000  0.32661800  0.52465500  1
  Bi  Bi5  1  0.00000000  0.17338200  0.47534500  1
  Bi  Bi6  1  0.50000000  0.17338200  0.02465500  1
  Bi  Bi7  1  0.00000000  0.32661800  0.97534500  1
  Mo  Mo8  1  0.00000000  0.00000000  0.00000000  1
  Mo  Mo9  1  0.50000000  0.00000000  0.50000000  1
  Mo  Mo10  1  0.50000000  0.50000000  0.00000000  1
  Mo  Mo11  1  0.00000000  0.50000000  0.50000000  1
  O  O12  1  0.50000000  0.60971900  0.08087600  1
  O  O13  1  0.50000000  0.89028100  0.58087600  1
  O  O14  1  0.75000000  0.75113600  0.25000000  1
  O  O15  1  0.75000000  0.97975700  0.25000000  1
  O  O16  1  0.75000000  0.74886400  0.75000000  1
  O  O17  1  0.25000000  0.52024300  0.75000000  1
  O  O18  1  0.00000000  0.60971900  0.41912400  1
  O  O19  1  0.75000000  0.52024300  0.75000000  1
  O  O20  1  0.25000000  0.97975700  0.25000000  1
  O  O21  1  0.00000000  0.89028100  0.91912400  1
  O  O22  1  0.25000000  0.74886400  0.75000000  1
  O  O23  1  0.25000000  0.75113600  0.25000000  1
  O  O24  1  0.00000000  0.10971900  0.08087600  1
  O  O25  1  0.00000000  0.39028100  0.58087600  1
  O  O26  1  0.25000000  0.25113600  0.25000000  1
  O  O27  1  0.25000000  0.47975700  0.25000000  1
  O  O28  1  0.25000000  0.24886400  0.75000000  1
  O  O29  1  0.75000000  0.02024300  0.75000000  1
  O  O30  1  0.50000000  0.10971900  0.41912400  1
  O  O31  1  0.25000000  0.02024300  0.75000000  1
  O  O32  1  0.75000000  0.47975700  0.25000000  1
  O  O33  1  0.50000000  0.39028100  0.91912400  1
  O  O34  1  0.75000000  0.24886400  0.75000000  1
  O  O35  1  0.75000000  0.25113600  0.25000000  1
