# generated using pymatgen
data_Ca3Fe2(SeO3)6
_symmetry_space_group_name_H-M   'P 1'
_cell_length_a   8.64583832
_cell_length_b   8.64583832
_cell_length_c   39.82848475
_cell_angle_alpha   90.00000000
_cell_angle_beta   90.00000000
_cell_angle_gamma   120.00000000
_symmetry_Int_Tables_number   1
_chemical_formula_structural   Ca3Fe2(SeO3)6
_chemical_formula_sum   'Ca18 Fe12 Se36 O108'
_cell_volume   2578.33079130
_cell_formula_units_Z   6
loop_
 _symmetry_equiv_pos_site_id
 _symmetry_equiv_pos_as_xyz
  1  'x, y, z'
loop_
 _atom_site_type_symbol
 _atom_site_label
 _atom_site_symmetry_multiplicity
 _atom_site_fract_x
 _atom_site_fract_y
 _atom_site_fract_z
 _atom_site_occupancy
  Ca  Ca0  1  0.40941800  0.00000000  0.25000000  1
  Ca  Ca1  1  0.66666667  0.92391533  0.08333333  1
  Ca  Ca2  1  0.00000000  0.40941800  0.25000000  1
  Ca  Ca3  1  0.59058200  0.59058200  0.25000000  1
  Ca  Ca4  1  0.07608467  0.74275133  0.08333333  1
  Ca  Ca5  1  0.25724867  0.33333333  0.08333333  1
  Ca  Ca6  1  0.07608467  0.33333333  0.58333333  1
  Ca  Ca7  1  0.33333333  0.25724867  0.41666667  1
  Ca  Ca8  1  0.66666667  0.74275133  0.58333333  1
  Ca  Ca9  1  0.25724867  0.92391533  0.58333333  1
  Ca  Ca10  1  0.74275133  0.07608467  0.41666667  1
  Ca  Ca11  1  0.92391533  0.66666667  0.41666667  1
  Ca  Ca12  1  0.74275133  0.66666667  0.91666667  1
  Ca  Ca13  1  0.00000000  0.59058200  0.75000000  1
  Ca  Ca14  1  0.33333333  0.07608467  0.91666667  1
  Ca  Ca15  1  0.92391533  0.25724867  0.91666667  1
  Ca  Ca16  1  0.40941800  0.40941800  0.75000000  1
  Ca  Ca17  1  0.59058200  0.00000000  0.75000000  1
  Fe  Fe18  1  0.33333333  0.66666667  0.16666667  1
  Fe  Fe19  1  0.66666667  0.33333333  0.08333333  1
  Fe  Fe20  1  0.00000000  0.00000000  0.25000000  1
  Fe  Fe21  1  0.00000000  0.00000000  0.00000000  1
  Fe  Fe22  1  1.00000000  0.00000000  0.50000000  1
  Fe  Fe23  1  0.33333333  0.66666667  0.41666667  1
  Fe  Fe24  1  0.66666667  0.33333333  0.58333333  1
  Fe  Fe25  1  0.66666667  0.33333333  0.33333333  1
  Fe  Fe26  1  0.66666667  0.33333333  0.83333333  1
  Fe  Fe27  1  0.00000000  0.00000000  0.75000000  1
  Fe  Fe28  1  0.33333333  0.66666667  0.91666667  1
  Fe  Fe29  1  0.33333333  0.66666667  0.66666667  1
  Se  Se30  1  0.98922000  0.70335200  0.19714100  1
  Se  Se31  1  0.37001867  0.04746533  0.13619233  1
  Se  Se32  1  0.96331467  0.34411333  0.03047433  1
  Se  Se33  1  0.95253467  0.32255333  0.13619233  1
  Se  Se34  1  0.71413200  0.01078000  0.19714100  1
  Se  Se35  1  0.01078000  0.71413200  0.30285900  1
  Se  Se36  1  0.29664800  0.28586800  0.19714100  1
  Se  Se37  1  0.70335200  0.98922000  0.30285900  1
  Se  Se38  1  0.28586800  0.29664800  0.30285900  1
  Se  Se39  1  0.38079867  0.03668533  0.03047433  1
  Se  Se40  1  0.67744667  0.62998133  0.13619233  1
  Se  Se41  1  0.65588667  0.61920133  0.03047433  1
  Se  Se42  1  0.65588667  0.03668533  0.53047433  1
  Se  Se43  1  0.03668533  0.38079867  0.46952567  1
  Se  Se44  1  0.62998133  0.67744667  0.36380767  1
  Se  Se45  1  0.61920133  0.65588667  0.46952567  1
  Se  Se46  1  0.38079867  0.34411333  0.53047433  1
  Se  Se47  1  0.67744667  0.04746533  0.63619233  1
  Se  Se48  1  0.96331467  0.61920133  0.53047433  1
  Se  Se49  1  0.37001867  0.32255333  0.63619233  1
  Se  Se50  1  0.95253467  0.62998133  0.63619233  1
  Se  Se51  1  0.04746533  0.37001867  0.36380767  1
  Se  Se52  1  0.34411333  0.96331467  0.46952567  1
  Se  Se53  1  0.32255333  0.95253467  0.36380767  1
  Se  Se54  1  0.32255333  0.37001867  0.86380767  1
  Se  Se55  1  0.70335200  0.71413200  0.80285900  1
  Se  Se56  1  0.29664800  0.01078000  0.69714100  1
  Se  Se57  1  0.28586800  0.98922000  0.80285900  1
  Se  Se58  1  0.04746533  0.67744667  0.86380767  1
  Se  Se59  1  0.34411333  0.38079867  0.96952567  1
  Se  Se60  1  0.62998133  0.95253467  0.86380767  1
  Se  Se61  1  0.03668533  0.65588667  0.96952567  1
  Se  Se62  1  0.61920133  0.96331467  0.96952567  1
  Se  Se63  1  0.71413200  0.70335200  0.69714100  1
  Se  Se64  1  0.01078000  0.29664800  0.80285900  1
  Se  Se65  1  0.98922000  0.28586800  0.69714100  1
  O  O66  1  0.88713133  0.45800467  0.11386867  1
  O  O67  1  0.79133800  0.55379800  0.05279800  1
  O  O68  1  0.18625500  0.45652600  0.13548700  1
  O  O69  1  0.83428833  0.56087567  0.22459567  1
  O  O70  1  0.39325400  0.89420900  0.05792900  1
  O  O71  1  0.14707833  0.93693767  0.03117967  1
  O  O72  1  0.72658733  0.16571167  0.22459567  1
  O  O73  1  0.77953533  0.87532867  0.21946467  1
  O  O74  1  0.56087567  0.83428833  0.27540433  1
  O  O75  1  0.54199533  0.42912667  0.11386867  1
  O  O76  1  0.60360433  0.12319267  0.30215367  1
  O  O77  1  0.44620200  0.23754000  0.05279800  1
  O  O78  1  0.27341267  0.43912433  0.27540433  1
  O  O79  1  0.57087333  0.11286867  0.11386867  1
  O  O80  1  0.09579333  0.22046467  0.21946467  1
  O  O81  1  0.27027100  0.81374500  0.13548700  1
  O  O82  1  0.43912433  0.27341267  0.22459567  1
  O  O83  1  0.76246000  0.20866200  0.05279800  1
  O  O84  1  0.83237833  0.77245767  0.10873767  1
  O  O85  1  0.87680733  0.48041167  0.30215367  1
  O  O86  1  0.54347400  0.72972900  0.13548700  1
  O  O87  1  0.78985933  0.85292167  0.03117967  1
  O  O88  1  0.22046467  0.09579333  0.28053533  1
  O  O89  1  0.12319267  0.60360433  0.19784633  1
  O  O90  1  0.48041167  0.87680733  0.19784633  1
  O  O91  1  0.50095500  0.60674600  0.05792900  1
  O  O92  1  0.90420667  0.12467133  0.28053533  1
  O  O93  1  0.94007933  0.16762167  0.10873767  1
  O  O94  1  0.39639567  0.51958833  0.19784633  1
  O  O95  1  0.16571167  0.72658733  0.27540433  1
  O  O96  1  0.87532867  0.77953533  0.28053533  1
  O  O97  1  0.12467133  0.90420667  0.21946467  1
  O  O98  1  0.22754233  0.05992067  0.10873767  1
  O  O99  1  0.10579100  0.49904500  0.05792900  1
  O  O100  1  0.06306233  0.21014067  0.03117967  1
  O  O101  1  0.51958833  0.39639567  0.30215367  1
  O  O102  1  0.55379800  0.79133800  0.44720200  1
  O  O103  1  0.45800467  0.88713133  0.38613133  1
  O  O104  1  0.85292167  0.78985933  0.46882033  1
  O  O105  1  0.50095500  0.89420900  0.55792900  1
  O  O106  1  0.05992067  0.22754233  0.39126233  1
  O  O107  1  0.81374500  0.27027100  0.36451300  1
  O  O108  1  0.39325400  0.49904500  0.55792900  1
  O  O109  1  0.44620200  0.20866200  0.55279800  1
  O  O110  1  0.22754233  0.16762167  0.60873767  1
  O  O111  1  0.20866200  0.76246000  0.44720200  1
  O  O112  1  0.27027100  0.45652600  0.63548700  1
  O  O113  1  0.11286867  0.57087333  0.38613133  1
  O  O114  1  0.94007933  0.77245767  0.60873767  1
  O  O115  1  0.23754000  0.44620200  0.44720200  1
  O  O116  1  0.76246000  0.55379800  0.55279800  1
  O  O117  1  0.93693767  0.14707833  0.46882033  1
  O  O118  1  0.10579100  0.60674600  0.55792900  1
  O  O119  1  0.42912667  0.54199533  0.38613133  1
  O  O120  1  0.49904500  0.10579100  0.44207100  1
  O  O121  1  0.54347400  0.81374500  0.63548700  1
  O  O122  1  0.21014067  0.06306233  0.46882033  1
  O  O123  1  0.45652600  0.18625500  0.36451300  1
  O  O124  1  0.88713133  0.42912667  0.61386867  1
  O  O125  1  0.78985933  0.93693767  0.53117967  1
  O  O126  1  0.14707833  0.21014067  0.53117967  1
  O  O127  1  0.16762167  0.94007933  0.39126233  1
  O  O128  1  0.57087333  0.45800467  0.61386867  1
  O  O129  1  0.60674600  0.50095500  0.44207100  1
  O  O130  1  0.06306233  0.85292167  0.53117967  1
  O  O131  1  0.83237833  0.05992067  0.60873767  1
  O  O132  1  0.54199533  0.11286867  0.61386867  1
  O  O133  1  0.79133800  0.23754000  0.55279800  1
  O  O134  1  0.89420900  0.39325400  0.44207100  1
  O  O135  1  0.77245767  0.83237833  0.39126233  1
  O  O136  1  0.72972900  0.54347400  0.36451300  1
  O  O137  1  0.18625500  0.72972900  0.63548700  1
  O  O138  1  0.22046467  0.12467133  0.78053533  1
  O  O139  1  0.12467133  0.22046467  0.71946467  1
  O  O140  1  0.51958833  0.12319267  0.80215367  1
  O  O141  1  0.16762167  0.22754233  0.89126233  1
  O  O142  1  0.72658733  0.56087567  0.72459567  1
  O  O143  1  0.48041167  0.60360433  0.69784633  1
  O  O144  1  0.05992067  0.83237833  0.89126233  1
  O  O145  1  0.11286867  0.54199533  0.88613133  1
  O  O146  1  0.89420900  0.50095500  0.94207100  1
  O  O147  1  0.87532867  0.09579333  0.78053533  1
  O  O148  1  0.93693767  0.78985933  0.96882033  1
  O  O149  1  0.77953533  0.90420667  0.71946467  1
  O  O150  1  0.60674600  0.10579100  0.94207100  1
  O  O151  1  0.90420667  0.77953533  0.78053533  1
  O  O152  1  0.42912667  0.88713133  0.88613133  1
  O  O153  1  0.60360433  0.48041167  0.80215367  1
  O  O154  1  0.77245767  0.94007933  0.89126233  1
  O  O155  1  0.09579333  0.87532867  0.71946467  1
  O  O156  1  0.16571167  0.43912433  0.77540433  1
  O  O157  1  0.21014067  0.14707833  0.96882033  1
  O  O158  1  0.87680733  0.39639567  0.80215367  1
  O  O159  1  0.12319267  0.51958833  0.69784633  1
  O  O160  1  0.55379800  0.76246000  0.94720200  1
  O  O161  1  0.45652600  0.27027100  0.86451300  1
  O  O162  1  0.81374500  0.54347400  0.86451300  1
  O  O163  1  0.83428833  0.27341267  0.72459567  1
  O  O164  1  0.23754000  0.79133800  0.94720200  1
  O  O165  1  0.27341267  0.83428833  0.77540433  1
  O  O166  1  0.72972900  0.18625500  0.86451300  1
  O  O167  1  0.49904500  0.39325400  0.94207100  1
  O  O168  1  0.20866200  0.44620200  0.94720200  1
  O  O169  1  0.45800467  0.57087333  0.88613133  1
  O  O170  1  0.56087567  0.72658733  0.77540433  1
  O  O171  1  0.43912433  0.16571167  0.72459567  1
  O  O172  1  0.39639567  0.87680733  0.69784633  1
  O  O173  1  0.85292167  0.06306233  0.96882033  1
