# generated using pymatgen
data_V2Co3O8
_symmetry_space_group_name_H-M   'P 1'
_cell_length_a   6.06293600
_cell_length_b   11.65558400
_cell_length_c   8.43496400
_cell_angle_alpha   90.00000000
_cell_angle_beta   90.00000000
_cell_angle_gamma   90.00000000
_symmetry_Int_Tables_number   1
_chemical_formula_structural   V2Co3O8
_chemical_formula_sum   'V8 Co12 O32'
_cell_volume   596.07410569
_cell_formula_units_Z   4
loop_
 _symmetry_equiv_pos_site_id
 _symmetry_equiv_pos_as_xyz
  1  'x, y, z'
loop_
 _atom_site_type_symbol
 _atom_site_label
 _atom_site_symmetry_multiplicity
 _atom_site_fract_x
 _atom_site_fract_y
 _atom_site_fract_z
 _atom_site_occupancy
  V  V0  1  0.50000000  0.87596800  0.88195800  1
  V  V1  1  0.50000000  0.62403200  0.38195800  1
  V  V2  1  0.00000000  0.62403200  0.11804200  1
  V  V3  1  0.00000000  0.87596800  0.61804200  1
  V  V4  1  0.00000000  0.37596800  0.88195800  1
  V  V5  1  0.00000000  0.12403200  0.38195800  1
  V  V6  1  0.50000000  0.12403200  0.11804200  1
  V  V7  1  0.50000000  0.37596800  0.61804200  1
  Co  Co8  1  0.75000000  0.87182600  0.25000000  1
  Co  Co9  1  0.25000000  0.87182600  0.25000000  1
  Co  Co10  1  0.25000000  0.62817400  0.75000000  1
  Co  Co11  1  0.75000000  0.62817400  0.75000000  1
  Co  Co12  1  0.00000000  0.50000000  0.50000000  1
  Co  Co13  1  0.50000000  0.50000000  0.00000000  1
  Co  Co14  1  0.25000000  0.37182600  0.25000000  1
  Co  Co15  1  0.75000000  0.37182600  0.25000000  1
  Co  Co16  1  0.75000000  0.12817400  0.75000000  1
  Co  Co17  1  0.25000000  0.12817400  0.75000000  1
  Co  Co18  1  0.50000000  0.00000000  0.50000000  1
  Co  Co19  1  0.00000000  0.00000000  0.00000000  1
  O  O20  1  0.00000000  0.74703300  0.72540300  1
  O  O21  1  0.76866100  0.61733800  0.99716100  1
  O  O22  1  0.26866100  0.88266200  0.00283900  1
  O  O23  1  0.00000000  0.50265000  0.25475300  1
  O  O24  1  0.26866100  0.61733800  0.50283900  1
  O  O25  1  0.00000000  0.99735000  0.75475300  1
  O  O26  1  0.50000000  0.99735000  0.74524700  1
  O  O27  1  0.73133900  0.61733800  0.50283900  1
  O  O28  1  0.76866100  0.88266200  0.49716100  1
  O  O29  1  0.50000000  0.75296700  0.27459700  1
  O  O30  1  0.50000000  0.50265000  0.24524700  1
  O  O31  1  0.23133900  0.61733800  0.99716100  1
  O  O32  1  0.50000000  0.74703300  0.77459700  1
  O  O33  1  0.73133900  0.88266200  0.00283900  1
  O  O34  1  0.00000000  0.75296700  0.22540300  1
  O  O35  1  0.23133900  0.88266200  0.49716100  1
  O  O36  1  0.50000000  0.24703300  0.72540300  1
  O  O37  1  0.26866100  0.11733800  0.99716100  1
  O  O38  1  0.76866100  0.38266200  0.00283900  1
  O  O39  1  0.50000000  0.00265000  0.25475300  1
  O  O40  1  0.76866100  0.11733800  0.50283900  1
  O  O41  1  0.50000000  0.49735000  0.75475300  1
  O  O42  1  0.00000000  0.49735000  0.74524700  1
  O  O43  1  0.23133900  0.11733800  0.50283900  1
  O  O44  1  0.26866100  0.38266200  0.49716100  1
  O  O45  1  0.00000000  0.25296700  0.27459700  1
  O  O46  1  0.00000000  0.00265000  0.24524700  1
  O  O47  1  0.73133900  0.11733800  0.99716100  1
  O  O48  1  0.00000000  0.24703300  0.77459700  1
  O  O49  1  0.23133900  0.38266200  0.00283900  1
  O  O50  1  0.50000000  0.25296700  0.22540300  1
  O  O51  1  0.73133900  0.38266200  0.49716100  1
