# generated using pymatgen
data_Ca2YAs(WO6)2
_symmetry_space_group_name_H-M   'P 1'
_cell_length_a   5.20893400
_cell_length_b   5.20893400
_cell_length_c   34.57783800
_cell_angle_alpha   90.00000000
_cell_angle_beta   90.00000000
_cell_angle_gamma   90.00000000
_symmetry_Int_Tables_number   1
_chemical_formula_structural   Ca2YAs(WO6)2
_chemical_formula_sum   'Ca8 Y4 As4 W8 O48'
_cell_volume   938.20025081
_cell_formula_units_Z   4
loop_
 _symmetry_equiv_pos_site_id
 _symmetry_equiv_pos_as_xyz
  1  'x, y, z'
loop_
 _atom_site_type_symbol
 _atom_site_label
 _atom_site_symmetry_multiplicity
 _atom_site_fract_x
 _atom_site_fract_y
 _atom_site_fract_z
 _atom_site_occupancy
  Ca  Ca0  1  0.00000000  0.50000000  0.41366500  1
  Ca  Ca1  1  0.00000000  0.00000000  0.16366500  1
  Ca  Ca2  1  0.50000000  0.50000000  0.33633500  1
  Ca  Ca3  1  0.00000000  0.50000000  0.08633500  1
  Ca  Ca4  1  0.50000000  0.00000000  0.91366500  1
  Ca  Ca5  1  0.50000000  0.50000000  0.66366500  1
  Ca  Ca6  1  0.00000000  0.00000000  0.83633500  1
  Ca  Ca7  1  0.50000000  0.00000000  0.58633500  1
  Y  Y8  1  0.50000000  0.50000000  0.00000000  1
  Y  Y9  1  0.50000000  0.00000000  0.25000000  1
  Y  Y10  1  0.00000000  0.00000000  0.50000000  1
  Y  Y11  1  0.00000000  0.50000000  0.75000000  1
  As  As12  1  0.00000000  0.50000000  0.25000000  1
  As  As13  1  0.00000000  0.00000000  0.00000000  1
  As  As14  1  0.50000000  0.00000000  0.75000000  1
  As  As15  1  0.50000000  0.50000000  0.50000000  1
  W  W16  1  0.50000000  0.00000000  0.07470200  1
  W  W17  1  0.50000000  0.50000000  0.17529800  1
  W  W18  1  0.50000000  0.00000000  0.42529800  1
  W  W19  1  0.00000000  0.00000000  0.32470200  1
  W  W20  1  0.00000000  0.50000000  0.57470200  1
  W  W21  1  0.00000000  0.00000000  0.67529800  1
  W  W22  1  0.00000000  0.50000000  0.92529800  1
  W  W23  1  0.50000000  0.50000000  0.82470200  1
  O  O24  1  0.79602850  0.30693450  0.22286950  1
  O  O25  1  0.30693450  0.70397150  0.47286950  1
  O  O26  1  0.69306550  0.29602850  0.47286950  1
  O  O27  1  0.20397150  0.69306550  0.22286950  1
  O  O28  1  0.20397150  0.19306550  0.02713050  1
  O  O29  1  0.19306550  0.29602850  0.27713050  1
  O  O30  1  0.80693450  0.70397150  0.27713050  1
  O  O31  1  0.79602850  0.80693450  0.02713050  1
  O  O32  1  0.66744400  0.78609900  0.19627900  1
  O  O33  1  0.78609900  0.83255600  0.44627900  1
  O  O34  1  0.21390100  0.16744400  0.44627900  1
  O  O35  1  0.33255600  0.21390100  0.19627900  1
  O  O36  1  0.74092950  0.86714050  0.10698450  1
  O  O37  1  0.86714050  0.75907050  0.35698450  1
  O  O38  1  0.13285950  0.24092950  0.35698450  1
  O  O39  1  0.25907050  0.13285950  0.10698450  1
  O  O40  1  0.25907050  0.63285950  0.14301550  1
  O  O41  1  0.63285950  0.24092950  0.39301550  1
  O  O42  1  0.36714050  0.75907050  0.39301550  1
  O  O43  1  0.74092950  0.36714050  0.14301550  1
  O  O44  1  0.66744400  0.28609900  0.05372100  1
  O  O45  1  0.28609900  0.83255600  0.30372100  1
  O  O46  1  0.71390100  0.16744400  0.30372100  1
  O  O47  1  0.33255600  0.71390100  0.05372100  1
  O  O48  1  0.29602850  0.80693450  0.72286950  1
  O  O49  1  0.80693450  0.20397150  0.97286950  1
  O  O50  1  0.19306550  0.79602850  0.97286950  1
  O  O51  1  0.70397150  0.19306550  0.72286950  1
  O  O52  1  0.70397150  0.69306550  0.52713050  1
  O  O53  1  0.69306550  0.79602850  0.77713050  1
  O  O54  1  0.30693450  0.20397150  0.77713050  1
  O  O55  1  0.29602850  0.30693450  0.52713050  1
  O  O56  1  0.16744400  0.28609900  0.69627900  1
  O  O57  1  0.28609900  0.33255600  0.94627900  1
  O  O58  1  0.71390100  0.66744400  0.94627900  1
  O  O59  1  0.83255600  0.71390100  0.69627900  1
  O  O60  1  0.24092950  0.36714050  0.60698450  1
  O  O61  1  0.36714050  0.25907050  0.85698450  1
  O  O62  1  0.63285950  0.74092950  0.85698450  1
  O  O63  1  0.75907050  0.63285950  0.60698450  1
  O  O64  1  0.75907050  0.13285950  0.64301550  1
  O  O65  1  0.13285950  0.74092950  0.89301550  1
  O  O66  1  0.86714050  0.25907050  0.89301550  1
  O  O67  1  0.24092950  0.86714050  0.64301550  1
  O  O68  1  0.16744400  0.78609900  0.55372100  1
  O  O69  1  0.78609900  0.33255600  0.80372100  1
  O  O70  1  0.21390100  0.66744400  0.80372100  1
  O  O71  1  0.83255600  0.21390100  0.55372100  1
