# generated using pymatgen
data_Dy12C6I17
_symmetry_space_group_name_H-M   'P 1'
_cell_length_a   19.71632400
_cell_length_b   12.26105800
_cell_length_c   18.71395836
_cell_angle_alpha   90.00000000
_cell_angle_beta   90.87462779
_cell_angle_gamma   90.00000000
_symmetry_Int_Tables_number   1
_chemical_formula_structural   Dy12C6I17
_chemical_formula_sum   'Dy48 C24 I68'
_cell_volume   4523.44120143
_cell_formula_units_Z   4
loop_
 _symmetry_equiv_pos_site_id
 _symmetry_equiv_pos_as_xyz
  1  'x, y, z'
loop_
 _atom_site_type_symbol
 _atom_site_label
 _atom_site_symmetry_multiplicity
 _atom_site_fract_x
 _atom_site_fract_y
 _atom_site_fract_z
 _atom_site_occupancy
  Dy  Dy0  1  0.50223900  0.79923600  0.47682200  1
  Dy  Dy1  1  0.46038200  0.00796100  0.12532800  1
  Dy  Dy2  1  0.04715200  0.96845200  0.84763800  1
  Dy  Dy3  1  0.34532150  0.23583850  0.61767700  1
  Dy  Dy4  1  0.42881650  0.23339450  0.78768400  1
  Dy  Dy5  1  0.53961800  0.00796100  0.37467200  1
  Dy  Dy6  1  0.95284800  0.96845200  0.65236200  1
  Dy  Dy7  1  0.95284800  0.03154800  0.15236200  1
  Dy  Dy8  1  0.53961800  0.99203900  0.87467200  1
  Dy  Dy9  1  0.57118350  0.76660550  0.21231600  1
  Dy  Dy10  1  0.65467850  0.23583850  0.88232300  1
  Dy  Dy11  1  0.42881650  0.76660550  0.28768400  1
  Dy  Dy12  1  0.63989400  0.00243100  0.05003900  1
  Dy  Dy13  1  0.50223900  0.20076400  0.97682200  1
  Dy  Dy14  1  0.57118350  0.23339450  0.71231600  1
  Dy  Dy15  1  0.49776100  0.79923600  0.02317800  1
  Dy  Dy16  1  0.65467850  0.76416150  0.38232300  1
  Dy  Dy17  1  0.46038200  0.99203900  0.62532800  1
  Dy  Dy18  1  0.49776100  0.20076400  0.52317800  1
  Dy  Dy19  1  0.36010600  0.00243100  0.44996100  1
  Dy  Dy20  1  0.36010600  0.99756900  0.94996100  1
  Dy  Dy21  1  0.34532150  0.76416150  0.11767700  1
  Dy  Dy22  1  0.63989400  0.99756900  0.55003900  1
  Dy  Dy23  1  0.04715200  0.03154800  0.34763800  1
  Dy  Dy24  1  0.00223900  0.29923600  0.47682200  1
  Dy  Dy25  1  0.96038200  0.50796100  0.12532800  1
  Dy  Dy26  1  0.54715200  0.46845200  0.84763800  1
  Dy  Dy27  1  0.84532150  0.73583850  0.61767700  1
  Dy  Dy28  1  0.92881650  0.73339450  0.78768400  1
  Dy  Dy29  1  0.03961800  0.50796100  0.37467200  1
  Dy  Dy30  1  0.45284800  0.46845200  0.65236200  1
  Dy  Dy31  1  0.45284800  0.53154800  0.15236200  1
  Dy  Dy32  1  0.03961800  0.49203900  0.87467200  1
  Dy  Dy33  1  0.07118350  0.26660550  0.21231600  1
  Dy  Dy34  1  0.15467850  0.73583850  0.88232300  1
  Dy  Dy35  1  0.92881650  0.26660550  0.28768400  1
  Dy  Dy36  1  0.13989400  0.50243100  0.05003900  1
  Dy  Dy37  1  0.00223900  0.70076400  0.97682200  1
  Dy  Dy38  1  0.07118350  0.73339450  0.71231600  1
  Dy  Dy39  1  0.99776100  0.29923600  0.02317800  1
  Dy  Dy40  1  0.15467850  0.26416150  0.38232300  1
  Dy  Dy41  1  0.96038200  0.49203900  0.62532800  1
  Dy  Dy42  1  0.99776100  0.70076400  0.52317800  1
  Dy  Dy43  1  0.86010600  0.50243100  0.44996100  1
  Dy  Dy44  1  0.86010600  0.49756900  0.94996100  1
  Dy  Dy45  1  0.84532150  0.26416150  0.11767700  1
  Dy  Dy46  1  0.13989400  0.49756900  0.55003900  1
  Dy  Dy47  1  0.54715200  0.53154800  0.34763800  1
  C  C48  1  0.53398750  0.99874350  0.51214800  1
  C  C49  1  0.45847950  0.71170350  0.15374700  1
  C  C50  1  0.46601250  0.99874350  0.98785200  1
  C  C51  1  0.54092450  0.17215050  0.84966100  1
  C  C52  1  0.54152050  0.71170350  0.34625300  1
  C  C53  1  0.46601250  0.00125650  0.48785200  1
  C  C54  1  0.45847950  0.28829650  0.65374700  1
  C  C55  1  0.53398750  0.00125650  0.01214800  1
  C  C56  1  0.45907550  0.17215050  0.65033900  1
  C  C57  1  0.45907550  0.82784950  0.15033900  1
  C  C58  1  0.54092450  0.82784950  0.34966100  1
  C  C59  1  0.54152050  0.28829650  0.84625300  1
  C  C60  1  0.03398750  0.49874350  0.51214800  1
  C  C61  1  0.95847950  0.21170350  0.15374700  1
  C  C62  1  0.96601250  0.49874350  0.98785200  1
  C  C63  1  0.04092450  0.67215050  0.84966100  1
  C  C64  1  0.04152050  0.21170350  0.34625300  1
  C  C65  1  0.96601250  0.50125650  0.48785200  1
  C  C66  1  0.95847950  0.78829650  0.65374700  1
  C  C67  1  0.03398750  0.50125650  0.01214800  1
  C  C68  1  0.95907550  0.67215050  0.65033900  1
  C  C69  1  0.95907550  0.32784950  0.15033900  1
  C  C70  1  0.04092450  0.32784950  0.34966100  1
  C  C71  1  0.04152050  0.78829650  0.84625300  1
  I  I72  1  0.39936050  0.02729350  0.29238500  1
  I  I73  1  0.45330450  0.73920050  0.63608400  1
  I  I74  1  0.73041850  0.76666750  0.24855900  1
  I  I75  1  0.10180250  0.99301950  0.69769000  1
  I  I76  1  0.30177000  0.99170900  0.59965600  1
  I  I77  1  0.64794200  0.74608800  0.54698600  1
  I  I78  1  0.26958150  0.23333250  0.75144100  1
  I  I79  1  0.35398250  0.24629750  0.93845500  1
  I  I80  1  0.00000000  0.00000000  0.50000000  1
  I  I81  1  0.54669550  0.73920050  0.86391600  1
  I  I82  1  0.69823000  0.00829100  0.40034400  1
  I  I83  1  0.69823000  0.99170900  0.90034400  1
  I  I84  1  0.35205800  0.74608800  0.95301400  1
  I  I85  1  0.35205800  0.25391200  0.45301400  1
  I  I86  1  0.35398250  0.75370250  0.43845500  1
  I  I87  1  0.26958150  0.76666750  0.25144100  1
  I  I88  1  0.64601750  0.75370250  0.06154500  1
  I  I89  1  0.60063950  0.02729350  0.20761500  1
  I  I90  1  0.10180250  0.00698050  0.19769000  1
  I  I91  1  0.30177000  0.00829100  0.09965600  1
  I  I92  1  0.19583500  0.98111400  0.89848200  1
  I  I93  1  0.73041850  0.23333250  0.74855900  1
  I  I94  1  0.64794200  0.25391200  0.04698600  1
  I  I95  1  0.80416500  0.01888600  0.10151800  1
  I  I96  1  0.39936050  0.97270650  0.79238500  1
  I  I97  1  0.60063950  0.97270650  0.70761500  1
  I  I98  1  0.19583500  0.01888600  0.39848200  1
  I  I99  1  0.00000000  0.00000000  0.00000000  1
  I  I100  1  0.54669550  0.26079950  0.36391600  1
  I  I101  1  0.80416500  0.98111400  0.60151800  1
  I  I102  1  0.64601750  0.24629750  0.56154500  1
  I  I103  1  0.89819750  0.99301950  0.80231000  1
  I  I104  1  0.89819750  0.00698050  0.30231000  1
  I  I105  1  0.45330450  0.26079950  0.13608400  1
  I  I106  1  0.89936050  0.52729350  0.29238500  1
  I  I107  1  0.95330450  0.23920050  0.63608400  1
  I  I108  1  0.23041850  0.26666750  0.24855900  1
  I  I109  1  0.60180250  0.49301950  0.69769000  1
  I  I110  1  0.80177000  0.49170900  0.59965600  1
  I  I111  1  0.14794200  0.24608800  0.54698600  1
  I  I112  1  0.76958150  0.73333250  0.75144100  1
  I  I113  1  0.85398250  0.74629750  0.93845500  1
  I  I114  1  0.50000000  0.50000000  0.50000000  1
  I  I115  1  0.04669550  0.23920050  0.86391600  1
  I  I116  1  0.19823000  0.50829100  0.40034400  1
  I  I117  1  0.19823000  0.49170900  0.90034400  1
  I  I118  1  0.85205800  0.24608800  0.95301400  1
  I  I119  1  0.85205800  0.75391200  0.45301400  1
  I  I120  1  0.85398250  0.25370250  0.43845500  1
  I  I121  1  0.76958150  0.26666750  0.25144100  1
  I  I122  1  0.14601750  0.25370250  0.06154500  1
  I  I123  1  0.10063950  0.52729350  0.20761500  1
  I  I124  1  0.60180250  0.50698050  0.19769000  1
  I  I125  1  0.80177000  0.50829100  0.09965600  1
  I  I126  1  0.69583500  0.48111400  0.89848200  1
  I  I127  1  0.23041850  0.73333250  0.74855900  1
  I  I128  1  0.14794200  0.75391200  0.04698600  1
  I  I129  1  0.30416500  0.51888600  0.10151800  1
  I  I130  1  0.89936050  0.47270650  0.79238500  1
  I  I131  1  0.10063950  0.47270650  0.70761500  1
  I  I132  1  0.69583500  0.51888600  0.39848200  1
  I  I133  1  0.50000000  0.50000000  0.00000000  1
  I  I134  1  0.04669550  0.76079950  0.36391600  1
  I  I135  1  0.30416500  0.48111400  0.60151800  1
  I  I136  1  0.14601750  0.74629750  0.56154500  1
  I  I137  1  0.39819750  0.49301950  0.80231000  1
  I  I138  1  0.39819750  0.50698050  0.30231000  1
  I  I139  1  0.95330450  0.76079950  0.13608400  1
