# generated using pymatgen
data_Ag13OsO6
_symmetry_space_group_name_H-M   'P 1'
_cell_length_a   13.40722600
_cell_length_b   13.40722600
_cell_length_c   13.40722600
_cell_angle_alpha   90.00000000
_cell_angle_beta   90.00000000
_cell_angle_gamma   90.00000000
_symmetry_Int_Tables_number   1
_chemical_formula_structural   Ag13OsO6
_chemical_formula_sum   'Ag104 Os8 O48'
_cell_volume   2409.99860110
_cell_formula_units_Z   8
loop_
 _symmetry_equiv_pos_site_id
 _symmetry_equiv_pos_as_xyz
  1  'x, y, z'
loop_
 _atom_site_type_symbol
 _atom_site_label
 _atom_site_symmetry_multiplicity
 _atom_site_fract_x
 _atom_site_fract_y
 _atom_site_fract_z
 _atom_site_occupancy
  Ag  Ag0  1  0.00000000  0.00000000  0.50000000  1
  Ag  Ag1  1  0.50000000  0.00000000  0.50000000  1
  Ag  Ag2  1  0.61401100  0.00000000  0.17827400  1
  Ag  Ag3  1  0.00000000  0.11401100  0.17827400  1
  Ag  Ag4  1  0.00000000  0.88598900  0.17827400  1
  Ag  Ag5  1  0.67827400  0.00000000  0.38598900  1
  Ag  Ag6  1  0.82172600  0.00000000  0.11401100  1
  Ag  Ag7  1  0.61401100  0.17827400  0.50000000  1
  Ag  Ag8  1  0.61401100  0.82172600  0.50000000  1
  Ag  Ag9  1  0.17827400  0.11401100  0.50000000  1
  Ag  Ag10  1  0.00000000  0.67827400  0.11401100  1
  Ag  Ag11  1  0.50000000  0.67827400  0.38598900  1
  Ag  Ag12  1  0.82172600  0.88598900  0.50000000  1
  Ag  Ag13  1  0.82172600  0.11401100  0.50000000  1
  Ag  Ag14  1  0.50000000  0.32172600  0.38598900  1
  Ag  Ag15  1  0.17827400  0.88598900  0.50000000  1
  Ag  Ag16  1  0.00000000  0.32172600  0.11401100  1
  Ag  Ag17  1  0.17827400  0.00000000  0.11401100  1
  Ag  Ag18  1  0.50000000  0.11401100  0.32172600  1
  Ag  Ag19  1  0.38598900  0.17827400  0.50000000  1
  Ag  Ag20  1  0.38598900  0.82172600  0.50000000  1
  Ag  Ag21  1  0.50000000  0.88598900  0.32172600  1
  Ag  Ag22  1  0.32172600  0.00000000  0.38598900  1
  Ag  Ag23  1  0.38598900  0.00000000  0.17827400  1
  Ag  Ag24  1  0.88598900  0.00000000  0.32172600  1
  Ag  Ag25  1  0.11401100  0.00000000  0.32172600  1
  Ag  Ag26  1  0.00000000  0.50000000  0.00000000  1
  Ag  Ag27  1  0.50000000  0.50000000  0.00000000  1
  Ag  Ag28  1  0.61401100  0.50000000  0.67827400  1
  Ag  Ag29  1  0.00000000  0.61401100  0.67827400  1
  Ag  Ag30  1  0.00000000  0.38598900  0.67827400  1
  Ag  Ag31  1  0.67827400  0.50000000  0.88598900  1
  Ag  Ag32  1  0.82172600  0.50000000  0.61401100  1
  Ag  Ag33  1  0.61401100  0.67827400  0.00000000  1
  Ag  Ag34  1  0.61401100  0.32172600  0.00000000  1
  Ag  Ag35  1  0.17827400  0.61401100  0.00000000  1
  Ag  Ag36  1  0.00000000  0.17827400  0.61401100  1
  Ag  Ag37  1  0.50000000  0.17827400  0.88598900  1
  Ag  Ag38  1  0.82172600  0.38598900  0.00000000  1
  Ag  Ag39  1  0.82172600  0.61401100  0.00000000  1
  Ag  Ag40  1  0.50000000  0.82172600  0.88598900  1
  Ag  Ag41  1  0.17827400  0.38598900  0.00000000  1
  Ag  Ag42  1  0.00000000  0.82172600  0.61401100  1
  Ag  Ag43  1  0.17827400  0.50000000  0.61401100  1
  Ag  Ag44  1  0.50000000  0.61401100  0.82172600  1
  Ag  Ag45  1  0.38598900  0.67827400  0.00000000  1
  Ag  Ag46  1  0.38598900  0.32172600  0.00000000  1
  Ag  Ag47  1  0.50000000  0.38598900  0.82172600  1
  Ag  Ag48  1  0.32172600  0.50000000  0.88598900  1
  Ag  Ag49  1  0.38598900  0.50000000  0.67827400  1
  Ag  Ag50  1  0.88598900  0.50000000  0.82172600  1
  Ag  Ag51  1  0.11401100  0.50000000  0.82172600  1
  Ag  Ag52  1  0.50000000  0.00000000  0.00000000  1
  Ag  Ag53  1  0.00000000  0.00000000  0.00000000  1
  Ag  Ag54  1  0.11401100  0.00000000  0.67827400  1
  Ag  Ag55  1  0.50000000  0.11401100  0.67827400  1
  Ag  Ag56  1  0.50000000  0.88598900  0.67827400  1
  Ag  Ag57  1  0.17827400  0.00000000  0.88598900  1
  Ag  Ag58  1  0.32172600  0.00000000  0.61401100  1
  Ag  Ag59  1  0.11401100  0.17827400  0.00000000  1
  Ag  Ag60  1  0.11401100  0.82172600  0.00000000  1
  Ag  Ag61  1  0.67827400  0.11401100  0.00000000  1
  Ag  Ag62  1  0.50000000  0.67827400  0.61401100  1
  Ag  Ag63  1  0.00000000  0.67827400  0.88598900  1
  Ag  Ag64  1  0.32172600  0.88598900  0.00000000  1
  Ag  Ag65  1  0.32172600  0.11401100  0.00000000  1
  Ag  Ag66  1  0.00000000  0.32172600  0.88598900  1
  Ag  Ag67  1  0.67827400  0.88598900  0.00000000  1
  Ag  Ag68  1  0.50000000  0.32172600  0.61401100  1
  Ag  Ag69  1  0.67827400  0.00000000  0.61401100  1
  Ag  Ag70  1  0.00000000  0.11401100  0.82172600  1
  Ag  Ag71  1  0.88598900  0.17827400  0.00000000  1
  Ag  Ag72  1  0.88598900  0.82172600  0.00000000  1
  Ag  Ag73  1  0.00000000  0.88598900  0.82172600  1
  Ag  Ag74  1  0.82172600  0.00000000  0.88598900  1
  Ag  Ag75  1  0.88598900  0.00000000  0.67827400  1
  Ag  Ag76  1  0.38598900  0.00000000  0.82172600  1
  Ag  Ag77  1  0.61401100  0.00000000  0.82172600  1
  Ag  Ag78  1  0.50000000  0.50000000  0.50000000  1
  Ag  Ag79  1  0.00000000  0.50000000  0.50000000  1
  Ag  Ag80  1  0.11401100  0.50000000  0.17827400  1
  Ag  Ag81  1  0.50000000  0.61401100  0.17827400  1
  Ag  Ag82  1  0.50000000  0.38598900  0.17827400  1
  Ag  Ag83  1  0.17827400  0.50000000  0.38598900  1
  Ag  Ag84  1  0.32172600  0.50000000  0.11401100  1
  Ag  Ag85  1  0.11401100  0.67827400  0.50000000  1
  Ag  Ag86  1  0.11401100  0.32172600  0.50000000  1
  Ag  Ag87  1  0.67827400  0.61401100  0.50000000  1
  Ag  Ag88  1  0.50000000  0.17827400  0.11401100  1
  Ag  Ag89  1  0.00000000  0.17827400  0.38598900  1
  Ag  Ag90  1  0.32172600  0.38598900  0.50000000  1
  Ag  Ag91  1  0.32172600  0.61401100  0.50000000  1
  Ag  Ag92  1  0.00000000  0.82172600  0.38598900  1
  Ag  Ag93  1  0.67827400  0.38598900  0.50000000  1
  Ag  Ag94  1  0.50000000  0.82172600  0.11401100  1
  Ag  Ag95  1  0.67827400  0.50000000  0.11401100  1
  Ag  Ag96  1  0.00000000  0.61401100  0.32172600  1
  Ag  Ag97  1  0.88598900  0.67827400  0.50000000  1
  Ag  Ag98  1  0.88598900  0.32172600  0.50000000  1
  Ag  Ag99  1  0.00000000  0.38598900  0.32172600  1
  Ag  Ag100  1  0.82172600  0.50000000  0.38598900  1
  Ag  Ag101  1  0.88598900  0.50000000  0.17827400  1
  Ag  Ag102  1  0.38598900  0.50000000  0.32172600  1
  Ag  Ag103  1  0.61401100  0.50000000  0.32172600  1
  Os  Os104  1  0.25000000  0.75000000  0.25000000  1
  Os  Os105  1  0.25000000  0.25000000  0.25000000  1
  Os  Os106  1  0.25000000  0.25000000  0.75000000  1
  Os  Os107  1  0.25000000  0.75000000  0.75000000  1
  Os  Os108  1  0.75000000  0.75000000  0.75000000  1
  Os  Os109  1  0.75000000  0.25000000  0.75000000  1
  Os  Os110  1  0.75000000  0.25000000  0.25000000  1
  Os  Os111  1  0.75000000  0.75000000  0.25000000  1
  O  O112  1  0.25000000  0.60686000  0.25000000  1
  O  O113  1  0.39314000  0.75000000  0.25000000  1
  O  O114  1  0.10686000  0.75000000  0.25000000  1
  O  O115  1  0.25000000  0.75000000  0.39314000  1
  O  O116  1  0.25000000  0.75000000  0.10686000  1
  O  O117  1  0.25000000  0.89314000  0.25000000  1
  O  O118  1  0.25000000  0.39314000  0.25000000  1
  O  O119  1  0.10686000  0.25000000  0.25000000  1
  O  O120  1  0.39314000  0.25000000  0.25000000  1
  O  O121  1  0.25000000  0.25000000  0.10686000  1
  O  O122  1  0.25000000  0.25000000  0.39314000  1
  O  O123  1  0.25000000  0.10686000  0.25000000  1
  O  O124  1  0.25000000  0.10686000  0.75000000  1
  O  O125  1  0.39314000  0.25000000  0.75000000  1
  O  O126  1  0.10686000  0.25000000  0.75000000  1
  O  O127  1  0.25000000  0.25000000  0.89314000  1
  O  O128  1  0.25000000  0.25000000  0.60686000  1
  O  O129  1  0.25000000  0.39314000  0.75000000  1
  O  O130  1  0.25000000  0.89314000  0.75000000  1
  O  O131  1  0.10686000  0.75000000  0.75000000  1
  O  O132  1  0.39314000  0.75000000  0.75000000  1
  O  O133  1  0.25000000  0.75000000  0.60686000  1
  O  O134  1  0.25000000  0.75000000  0.89314000  1
  O  O135  1  0.25000000  0.60686000  0.75000000  1
  O  O136  1  0.75000000  0.60686000  0.75000000  1
  O  O137  1  0.89314000  0.75000000  0.75000000  1
  O  O138  1  0.60686000  0.75000000  0.75000000  1
  O  O139  1  0.75000000  0.75000000  0.89314000  1
  O  O140  1  0.75000000  0.75000000  0.60686000  1
  O  O141  1  0.75000000  0.89314000  0.75000000  1
  O  O142  1  0.75000000  0.39314000  0.75000000  1
  O  O143  1  0.60686000  0.25000000  0.75000000  1
  O  O144  1  0.89314000  0.25000000  0.75000000  1
  O  O145  1  0.75000000  0.25000000  0.60686000  1
  O  O146  1  0.75000000  0.25000000  0.89314000  1
  O  O147  1  0.75000000  0.10686000  0.75000000  1
  O  O148  1  0.75000000  0.10686000  0.25000000  1
  O  O149  1  0.89314000  0.25000000  0.25000000  1
  O  O150  1  0.60686000  0.25000000  0.25000000  1
  O  O151  1  0.75000000  0.25000000  0.39314000  1
  O  O152  1  0.75000000  0.25000000  0.10686000  1
  O  O153  1  0.75000000  0.39314000  0.25000000  1
  O  O154  1  0.75000000  0.89314000  0.25000000  1
  O  O155  1  0.60686000  0.75000000  0.25000000  1
  O  O156  1  0.89314000  0.75000000  0.25000000  1
  O  O157  1  0.75000000  0.75000000  0.10686000  1
  O  O158  1  0.75000000  0.75000000  0.39314000  1
  O  O159  1  0.75000000  0.60686000  0.25000000  1
