# generated using pymatgen
data_K5Yb(MoO4)4
_symmetry_space_group_name_H-M   'P 1'
_cell_length_a   15.30499400
_cell_length_b   12.31549400
_cell_length_c   10.79294277
_cell_angle_alpha   90.00000000
_cell_angle_beta   115.16412541
_cell_angle_gamma   90.00000000
_symmetry_Int_Tables_number   1
_chemical_formula_structural   K5Yb(MoO4)4
_chemical_formula_sum   'K20 Yb4 Mo16 O64'
_cell_volume   1841.27351132
_cell_formula_units_Z   4
loop_
 _symmetry_equiv_pos_site_id
 _symmetry_equiv_pos_as_xyz
  1  'x, y, z'
loop_
 _atom_site_type_symbol
 _atom_site_label
 _atom_site_symmetry_multiplicity
 _atom_site_fract_x
 _atom_site_fract_y
 _atom_site_fract_z
 _atom_site_occupancy
  K  K0  1  0.70380300  0.62626000  0.06412300  1
  K  K1  1  0.29619700  0.37374000  0.93587700  1
  K  K2  1  0.70380300  0.37374000  0.56412300  1
  K  K3  1  0.78093200  0.60673200  0.43652700  1
  K  K4  1  0.29619700  0.62626000  0.43587700  1
  K  K5  1  0.21906800  0.39326800  0.56347300  1
  K  K6  1  0.21906800  0.60673200  0.06347300  1
  K  K7  1  0.00000000  0.61258700  0.25000000  1
  K  K8  1  0.00000000  0.38741300  0.75000000  1
  K  K9  1  0.78093200  0.39326800  0.93652700  1
  K  K10  1  0.20380300  0.12626000  0.06412300  1
  K  K11  1  0.79619700  0.87374000  0.93587700  1
  K  K12  1  0.20380300  0.87374000  0.56412300  1
  K  K13  1  0.28093200  0.10673200  0.43652700  1
  K  K14  1  0.79619700  0.12626000  0.43587700  1
  K  K15  1  0.71906800  0.89326800  0.56347300  1
  K  K16  1  0.71906800  0.10673200  0.06347300  1
  K  K17  1  0.50000000  0.11258700  0.25000000  1
  K  K18  1  0.50000000  0.88741300  0.75000000  1
  K  K19  1  0.28093200  0.89326800  0.93652700  1
  Yb  Yb20  1  0.00000000  0.88533700  0.75000000  1
  Yb  Yb21  1  0.00000000  0.11466300  0.25000000  1
  Yb  Yb22  1  0.50000000  0.38533700  0.75000000  1
  Yb  Yb23  1  0.50000000  0.61466300  0.25000000  1
  Mo  Mo24  1  0.90822000  0.86438700  0.36203400  1
  Mo  Mo25  1  0.89718450  0.36790950  0.34481100  1
  Mo  Mo26  1  0.10281550  0.36790950  0.15518900  1
  Mo  Mo27  1  0.89718450  0.63209050  0.84481100  1
  Mo  Mo28  1  0.09178000  0.86438700  0.13796600  1
  Mo  Mo29  1  0.90822000  0.13561300  0.86203400  1
  Mo  Mo30  1  0.10281550  0.63209050  0.65518900  1
  Mo  Mo31  1  0.09178000  0.13561300  0.63796600  1
  Mo  Mo32  1  0.40822000  0.36438700  0.36203400  1
  Mo  Mo33  1  0.39718450  0.86790950  0.34481100  1
  Mo  Mo34  1  0.60281550  0.86790950  0.15518900  1
  Mo  Mo35  1  0.39718450  0.13209050  0.84481100  1
  Mo  Mo36  1  0.59178000  0.36438700  0.13796600  1
  Mo  Mo37  1  0.40822000  0.63561300  0.86203400  1
  Mo  Mo38  1  0.60281550  0.13209050  0.65518900  1
  Mo  Mo39  1  0.59178000  0.63561300  0.63796600  1
  O  O40  1  0.82766150  0.24253950  0.76754700  1
  O  O41  1  0.02752200  0.81681200  0.40752200  1
  O  O42  1  0.97787950  0.59644250  0.57181200  1
  O  O43  1  0.88638150  0.23657350  0.26376300  1
  O  O44  1  0.17233850  0.75746050  0.23245300  1
  O  O45  1  0.17233850  0.24253950  0.73245300  1
  O  O46  1  0.10577250  0.89196550  0.98250200  1
  O  O47  1  0.88638150  0.76342650  0.76376300  1
  O  O48  1  0.11361850  0.23657350  0.23623700  1
  O  O49  1  0.02212050  0.59644250  0.92818800  1
  O  O50  1  0.84577850  0.63059650  0.96780400  1
  O  O51  1  0.10577250  0.10803450  0.48250200  1
  O  O52  1  0.89422750  0.89196550  0.51749800  1
  O  O53  1  0.02752200  0.18318800  0.90752200  1
  O  O54  1  0.38898250  0.51102650  0.76441600  1
  O  O55  1  0.84577850  0.36940350  0.46780400  1
  O  O56  1  0.97247800  0.18318800  0.59247800  1
  O  O57  1  0.89422750  0.10803450  0.01749800  1
  O  O58  1  0.82766150  0.75746050  0.26754700  1
  O  O59  1  0.38898250  0.48897350  0.26441600  1
  O  O60  1  0.16471550  0.52970950  0.78082400  1
  O  O61  1  0.02212050  0.40355750  0.42818800  1
  O  O62  1  0.15422150  0.63059650  0.53219600  1
  O  O63  1  0.83528450  0.52970950  0.71917600  1
  O  O64  1  0.15422150  0.36940350  0.03219600  1
  O  O65  1  0.97247800  0.81681200  0.09247800  1
  O  O66  1  0.16471550  0.47029050  0.28082400  1
  O  O67  1  0.61101750  0.51102650  0.73558400  1
  O  O68  1  0.83528450  0.47029050  0.21917600  1
  O  O69  1  0.61101750  0.48897350  0.23558400  1
  O  O70  1  0.97787950  0.40355750  0.07181200  1
  O  O71  1  0.11361850  0.76342650  0.73623700  1
  O  O72  1  0.32766150  0.74253950  0.76754700  1
  O  O73  1  0.52752200  0.31681200  0.40752200  1
  O  O74  1  0.47787950  0.09644250  0.57181200  1
  O  O75  1  0.38638150  0.73657350  0.26376300  1
  O  O76  1  0.67233850  0.25746050  0.23245300  1
  O  O77  1  0.67233850  0.74253950  0.73245300  1
  O  O78  1  0.60577250  0.39196550  0.98250200  1
  O  O79  1  0.38638150  0.26342650  0.76376300  1
  O  O80  1  0.61361850  0.73657350  0.23623700  1
  O  O81  1  0.52212050  0.09644250  0.92818800  1
  O  O82  1  0.34577850  0.13059650  0.96780400  1
  O  O83  1  0.60577250  0.60803450  0.48250200  1
  O  O84  1  0.39422750  0.39196550  0.51749800  1
  O  O85  1  0.52752200  0.68318800  0.90752200  1
  O  O86  1  0.88898250  0.01102650  0.76441600  1
  O  O87  1  0.34577850  0.86940350  0.46780400  1
  O  O88  1  0.47247800  0.68318800  0.59247800  1
  O  O89  1  0.39422750  0.60803450  0.01749800  1
  O  O90  1  0.32766150  0.25746050  0.26754700  1
  O  O91  1  0.88898250  0.98897350  0.26441600  1
  O  O92  1  0.66471550  0.02970950  0.78082400  1
  O  O93  1  0.52212050  0.90355750  0.42818800  1
  O  O94  1  0.65422150  0.13059650  0.53219600  1
  O  O95  1  0.33528450  0.02970950  0.71917600  1
  O  O96  1  0.65422150  0.86940350  0.03219600  1
  O  O97  1  0.47247800  0.31681200  0.09247800  1
  O  O98  1  0.66471550  0.97029050  0.28082400  1
  O  O99  1  0.11101750  0.01102650  0.73558400  1
  O  O100  1  0.33528450  0.97029050  0.21917600  1
  O  O101  1  0.11101750  0.98897350  0.23558400  1
  O  O102  1  0.47787950  0.90355750  0.07181200  1
  O  O103  1  0.61361850  0.26342650  0.73623700  1
