# generated using pymatgen
data_Yb2MoO6
_symmetry_space_group_name_H-M   'P 1'
_cell_length_a   15.75550200
_cell_length_b   11.49014800
_cell_length_c   5.46551929
_cell_angle_alpha   90.00000000
_cell_angle_beta   107.33850917
_cell_angle_gamma   90.00000000
_symmetry_Int_Tables_number   1
_chemical_formula_structural   Yb2MoO6
_chemical_formula_sum   'Yb16 Mo8 O48'
_cell_volume   944.48019640
_cell_formula_units_Z   8
loop_
 _symmetry_equiv_pos_site_id
 _symmetry_equiv_pos_as_xyz
  1  'x, y, z'
loop_
 _atom_site_type_symbol
 _atom_site_label
 _atom_site_symmetry_multiplicity
 _atom_site_fract_x
 _atom_site_fract_y
 _atom_site_fract_z
 _atom_site_occupancy
  Yb  Yb0  1  0.50000000  0.37409100  0.75000000  1
  Yb  Yb1  1  0.67225400  0.88437600  0.39721600  1
  Yb  Yb2  1  0.50000000  0.86468400  0.75000000  1
  Yb  Yb3  1  0.32774600  0.11562400  0.60278400  1
  Yb  Yb4  1  0.32774600  0.88437600  0.10278400  1
  Yb  Yb5  1  0.50000000  0.13531600  0.25000000  1
  Yb  Yb6  1  0.50000000  0.62590900  0.25000000  1
  Yb  Yb7  1  0.67225400  0.11562400  0.89721600  1
  Yb  Yb8  1  0.00000000  0.87409100  0.75000000  1
  Yb  Yb9  1  0.17225400  0.38437600  0.39721600  1
  Yb  Yb10  1  0.00000000  0.36468400  0.75000000  1
  Yb  Yb11  1  0.82774600  0.61562400  0.60278400  1
  Yb  Yb12  1  0.82774600  0.38437600  0.10278400  1
  Yb  Yb13  1  0.00000000  0.63531600  0.25000000  1
  Yb  Yb14  1  0.00000000  0.12590900  0.25000000  1
  Yb  Yb15  1  0.17225400  0.61562400  0.89721600  1
  Mo  Mo16  1  0.84666950  0.14168050  0.57877500  1
  Mo  Mo17  1  0.15333050  0.14168050  0.92122500  1
  Mo  Mo18  1  0.84666950  0.85831950  0.07877500  1
  Mo  Mo19  1  0.15333050  0.85831950  0.42122500  1
  Mo  Mo20  1  0.34666950  0.64168050  0.57877500  1
  Mo  Mo21  1  0.65333050  0.64168050  0.92122500  1
  Mo  Mo22  1  0.34666950  0.35831950  0.07877500  1
  Mo  Mo23  1  0.65333050  0.35831950  0.42122500  1
  O  O24  1  0.41290850  0.24327950  0.90126400  1
  O  O25  1  0.91984000  0.96730200  0.02688600  1
  O  O26  1  0.59903650  0.27859550  0.12484300  1
  O  O27  1  0.40096350  0.72140450  0.87515700  1
  O  O28  1  0.57404300  0.99407300  0.55901500  1
  O  O29  1  0.91984000  0.03269800  0.52688600  1
  O  O30  1  0.57404300  0.00592700  0.05901500  1
  O  O31  1  0.77324200  0.79377500  0.76231200  1
  O  O32  1  0.22675800  0.79377500  0.73768800  1
  O  O33  1  0.24474800  0.94358800  0.37386300  1
  O  O34  1  0.75525200  0.05641200  0.62613700  1
  O  O35  1  0.08016000  0.96730200  0.47311400  1
  O  O36  1  0.42595700  0.00592700  0.44098500  1
  O  O37  1  0.41290850  0.75672050  0.40126400  1
  O  O38  1  0.58709150  0.75672050  0.09873600  1
  O  O39  1  0.58709150  0.24327950  0.59873600  1
  O  O40  1  0.77324200  0.20622500  0.26231200  1
  O  O41  1  0.59903650  0.72140450  0.62484300  1
  O  O42  1  0.24474800  0.05641200  0.87386300  1
  O  O43  1  0.75525200  0.94358800  0.12613700  1
  O  O44  1  0.22675800  0.20622500  0.23768800  1
  O  O45  1  0.40096350  0.27859550  0.37515700  1
  O  O46  1  0.42595700  0.99407300  0.94098500  1
  O  O47  1  0.08016000  0.03269800  0.97311400  1
  O  O48  1  0.91290850  0.74327950  0.90126400  1
  O  O49  1  0.41984000  0.46730200  0.02688600  1
  O  O50  1  0.09903650  0.77859550  0.12484300  1
  O  O51  1  0.90096350  0.22140450  0.87515700  1
  O  O52  1  0.07404300  0.49407300  0.55901500  1
  O  O53  1  0.41984000  0.53269800  0.52688600  1
  O  O54  1  0.07404300  0.50592700  0.05901500  1
  O  O55  1  0.27324200  0.29377500  0.76231200  1
  O  O56  1  0.72675800  0.29377500  0.73768800  1
  O  O57  1  0.74474800  0.44358800  0.37386300  1
  O  O58  1  0.25525200  0.55641200  0.62613700  1
  O  O59  1  0.58016000  0.46730200  0.47311400  1
  O  O60  1  0.92595700  0.50592700  0.44098500  1
  O  O61  1  0.91290850  0.25672050  0.40126400  1
  O  O62  1  0.08709150  0.25672050  0.09873600  1
  O  O63  1  0.08709150  0.74327950  0.59873600  1
  O  O64  1  0.27324200  0.70622500  0.26231200  1
  O  O65  1  0.09903650  0.22140450  0.62484300  1
  O  O66  1  0.74474800  0.55641200  0.87386300  1
  O  O67  1  0.25525200  0.44358800  0.12613700  1
  O  O68  1  0.72675800  0.70622500  0.23768800  1
  O  O69  1  0.90096350  0.77859550  0.37515700  1
  O  O70  1  0.92595700  0.49407300  0.94098500  1
  O  O71  1  0.58016000  0.53269800  0.97311400  1
