# generated using pymatgen
data_Ba2VP2O9
_symmetry_space_group_name_H-M   'P 1'
_cell_length_a   17.86274166
_cell_length_b   5.55948200
_cell_length_c   9.59976542
_cell_angle_alpha   90.00000000
_cell_angle_beta   109.80497648
_cell_angle_gamma   90.00000000
_symmetry_Int_Tables_number   1
_chemical_formula_structural   Ba2VP2O9
_chemical_formula_sum   'Ba8 V4 P8 O36'
_cell_volume   896.94141232
_cell_formula_units_Z   4
loop_
 _symmetry_equiv_pos_site_id
 _symmetry_equiv_pos_as_xyz
  1  'x, y, z'
loop_
 _atom_site_type_symbol
 _atom_site_label
 _atom_site_symmetry_multiplicity
 _atom_site_fract_x
 _atom_site_fract_y
 _atom_site_fract_z
 _atom_site_occupancy
  Ba  Ba0  1  0.83673050  0.51666350  0.67182100  1
  Ba  Ba1  1  0.66326950  0.98333650  0.32817900  1
  Ba  Ba2  1  0.83673050  0.48333650  0.17182100  1
  Ba  Ba3  1  0.66326950  0.01666350  0.82817900  1
  Ba  Ba4  1  0.33673050  0.01666350  0.67182100  1
  Ba  Ba5  1  0.16326950  0.48333650  0.32817900  1
  Ba  Ba6  1  0.33673050  0.98333650  0.17182100  1
  Ba  Ba7  1  0.16326950  0.51666350  0.82817900  1
  V  V8  1  0.50000000  0.43627200  0.25000000  1
  V  V9  1  0.50000000  0.56372800  0.75000000  1
  V  V10  1  0.00000000  0.93627200  0.25000000  1
  V  V11  1  0.00000000  0.06372800  0.75000000  1
  P  P12  1  0.86923700  0.97037900  0.42629000  1
  P  P13  1  0.63076300  0.52962100  0.57371000  1
  P  P14  1  0.63076300  0.47037900  0.07371000  1
  P  P15  1  0.86923700  0.02962100  0.92629000  1
  P  P16  1  0.36923700  0.47037900  0.42629000  1
  P  P17  1  0.13076300  0.02962100  0.57371000  1
  P  P18  1  0.13076300  0.97037900  0.07371000  1
  P  P19  1  0.36923700  0.52962100  0.92629000  1
  O  O20  1  0.50000000  0.13535800  0.25000000  1
  O  O21  1  0.50000000  0.86464200  0.75000000  1
  O  O22  1  0.55685150  0.59797650  0.43499700  1
  O  O23  1  0.55685150  0.40202350  0.93499700  1
  O  O24  1  0.94314850  0.90202350  0.56500300  1
  O  O25  1  0.94314850  0.09797650  0.06500300  1
  O  O26  1  0.80982900  0.75838700  0.39912800  1
  O  O27  1  0.80982900  0.24161300  0.89912800  1
  O  O28  1  0.69017100  0.74161300  0.60087200  1
  O  O29  1  0.69017100  0.25838700  0.10087200  1
  O  O30  1  0.60315800  0.48934200  0.21281500  1
  O  O31  1  0.89684200  0.98934200  0.28718500  1
  O  O32  1  0.89684200  0.01065800  0.78718500  1
  O  O33  1  0.60315800  0.51065800  0.71281500  1
  O  O34  1  0.67028650  0.70949350  0.05887100  1
  O  O35  1  0.67028650  0.29050650  0.55887100  1
  O  O36  1  0.82971350  0.79050650  0.94112900  1
  O  O37  1  0.82971350  0.20949350  0.44112900  1
  O  O38  1  0.00000000  0.63535800  0.25000000  1
  O  O39  1  0.00000000  0.36464200  0.75000000  1
  O  O40  1  0.05685150  0.09797650  0.43499700  1
  O  O41  1  0.05685150  0.90202350  0.93499700  1
  O  O42  1  0.44314850  0.40202350  0.56500300  1
  O  O43  1  0.44314850  0.59797650  0.06500300  1
  O  O44  1  0.30982900  0.25838700  0.39912800  1
  O  O45  1  0.30982900  0.74161300  0.89912800  1
  O  O46  1  0.19017100  0.24161300  0.60087200  1
  O  O47  1  0.19017100  0.75838700  0.10087200  1
  O  O48  1  0.10315800  0.98934200  0.21281500  1
  O  O49  1  0.39684200  0.48934200  0.28718500  1
  O  O50  1  0.39684200  0.51065800  0.78718500  1
  O  O51  1  0.10315800  0.01065800  0.71281500  1
  O  O52  1  0.17028650  0.20949350  0.05887100  1
  O  O53  1  0.17028650  0.79050650  0.55887100  1
  O  O54  1  0.32971350  0.29050650  0.94112900  1
  O  O55  1  0.32971350  0.70949350  0.44112900  1
