# generated using pymatgen
data_UBC
_symmetry_space_group_name_H-M   'P 1'
_cell_length_a   3.62903600
_cell_length_b   11.94472000
_cell_length_c   3.28635000
_cell_angle_alpha   90.00000000
_cell_angle_beta   90.00000000
_cell_angle_gamma   90.00000000
_symmetry_Int_Tables_number   1
_chemical_formula_structural   UBC
_chemical_formula_sum   'U4 B4 C4'
_cell_volume   142.45610461
_cell_formula_units_Z   4
loop_
 _symmetry_equiv_pos_site_id
 _symmetry_equiv_pos_as_xyz
  1  'x, y, z'
loop_
 _atom_site_type_symbol
 _atom_site_label
 _atom_site_symmetry_multiplicity
 _atom_site_fract_x
 _atom_site_fract_y
 _atom_site_fract_z
 _atom_site_occupancy
  U  U0  1  0.00000000  0.13789700  0.25000000  1
  U  U1  1  0.50000000  0.36210300  0.75000000  1
  U  U2  1  0.50000000  0.63789700  0.25000000  1
  U  U3  1  0.00000000  0.86210300  0.75000000  1
  B  B4  1  0.00000000  0.46578000  0.25000000  1
  B  B5  1  0.50000000  0.03422000  0.75000000  1
  B  B6  1  0.50000000  0.96578000  0.25000000  1
  B  B7  1  0.00000000  0.53422000  0.75000000  1
  C  C8  1  0.00000000  0.33361700  0.25000000  1
  C  C9  1  0.50000000  0.16638300  0.75000000  1
  C  C10  1  0.50000000  0.83361700  0.25000000  1
  C  C11  1  0.00000000  0.66638300  0.75000000  1
