# generated using pymatgen
data_Al24Zn3O40
_symmetry_space_group_name_H-M   'P 1'
_cell_length_a   9.84555600
_cell_length_b   5.72387600
_cell_length_c   23.28801217
_cell_angle_alpha   90.00000000
_cell_angle_beta   98.16305303
_cell_angle_gamma   90.00000000
_symmetry_Int_Tables_number   1
_chemical_formula_structural   Al24Zn3O40
_chemical_formula_sum   'Al48 Zn6 O80'
_cell_volume   1299.09277413
_cell_formula_units_Z   2
loop_
 _symmetry_equiv_pos_site_id
 _symmetry_equiv_pos_as_xyz
  1  'x, y, z'
loop_
 _atom_site_type_symbol
 _atom_site_label
 _atom_site_symmetry_multiplicity
 _atom_site_fract_x
 _atom_site_fract_y
 _atom_site_fract_z
 _atom_site_occupancy
  Al  Al0  1  0.99959700  0.50000000  0.99933000  1
  Al  Al1  1  0.04932700  0.24857600  0.89778400  1
  Al  Al2  1  0.04932700  0.75142400  0.89778400  1
  Al  Al3  1  0.53093000  0.50000000  0.57286700  1
  Al  Al4  1  0.79772000  0.50000000  0.89760700  1
  Al  Al5  1  0.14882400  0.75447500  0.70215800  1
  Al  Al6  1  0.27576300  0.50000000  0.82971900  1
  Al  Al7  1  0.64882400  0.74552500  0.70215800  1
  Al  Al8  1  0.68871900  0.00000000  0.59605800  1
  Al  Al9  1  0.90216700  0.00000000  0.70151600  1
  Al  Al10  1  0.75433250  0.74420250  0.50146900  1
  Al  Al11  1  0.84947800  0.75282700  0.29574100  1
  Al  Al12  1  0.75433250  0.25579750  0.50146900  1
  Al  Al13  1  0.80441200  0.50000000  0.39895600  1
  Al  Al14  1  0.86991100  0.50000000  0.62558700  1
  Al  Al15  1  0.22477100  0.00000000  0.17210200  1
  Al  Al16  1  0.34947800  0.74717300  0.29574100  1
  Al  Al17  1  0.96949600  0.00000000  0.42374900  1
  Al  Al18  1  0.59740900  0.50000000  0.29584700  1
  Al  Al19  1  0.44959450  0.25789050  0.10535600  1
  Al  Al20  1  0.57665600  0.00000000  0.22974900  1
  Al  Al21  1  0.44959450  0.74210950  0.10535600  1
  Al  Al22  1  0.70730700  0.00000000  0.10562900  1
  Al  Al23  1  0.17536100  0.00000000  0.02721900  1
  Al  Al24  1  0.49959700  0.00000000  0.99933000  1
  Al  Al25  1  0.54932700  0.74857600  0.89778400  1
  Al  Al26  1  0.54932700  0.25142400  0.89778400  1
  Al  Al27  1  0.03093000  0.00000000  0.57286700  1
  Al  Al28  1  0.29772000  0.00000000  0.89760700  1
  Al  Al29  1  0.64882400  0.25447500  0.70215800  1
  Al  Al30  1  0.77576300  0.00000000  0.82971900  1
  Al  Al31  1  0.14882400  0.24552500  0.70215800  1
  Al  Al32  1  0.18871900  0.50000000  0.59605800  1
  Al  Al33  1  0.40216700  0.50000000  0.70151600  1
  Al  Al34  1  0.25433250  0.24420250  0.50146900  1
  Al  Al35  1  0.34947800  0.25282700  0.29574100  1
  Al  Al36  1  0.25433250  0.75579750  0.50146900  1
  Al  Al37  1  0.30441200  0.00000000  0.39895600  1
  Al  Al38  1  0.36991100  0.00000000  0.62558700  1
  Al  Al39  1  0.72477100  0.50000000  0.17210200  1
  Al  Al40  1  0.84947800  0.24717300  0.29574100  1
  Al  Al41  1  0.46949600  0.50000000  0.42374900  1
  Al  Al42  1  0.09740900  0.00000000  0.29584700  1
  Al  Al43  1  0.94959450  0.75789050  0.10535600  1
  Al  Al44  1  0.07665600  0.50000000  0.22974900  1
  Al  Al45  1  0.94959450  0.24210950  0.10535600  1
  Al  Al46  1  0.20730700  0.50000000  0.10562900  1
  Al  Al47  1  0.67536100  0.50000000  0.02721900  1
  Zn  Zn48  1  0.32528800  0.50000000  0.97415400  1
  Zn  Zn49  1  0.92528600  0.50000000  0.77479700  1
  Zn  Zn50  1  0.62642300  0.00000000  0.37265300  1
  Zn  Zn51  1  0.82528800  0.00000000  0.97415400  1
  Zn  Zn52  1  0.42528600  0.00000000  0.77479700  1
  Zn  Zn53  1  0.12642300  0.50000000  0.37265300  1
  O  O54  1  0.90913300  0.71932500  0.94832800  1
  O  O55  1  0.95225800  0.50000000  0.85734700  1
  O  O56  1  0.90913300  0.28067500  0.94832800  1
  O  O57  1  0.12929100  0.50000000  0.94832500  1
  O  O58  1  0.50072850  0.73425850  0.74010400  1
  O  O59  1  0.95358800  0.00000000  0.85804000  1
  O  O60  1  0.64883000  0.50000000  0.94773100  1
  O  O61  1  0.54965500  0.50000000  0.65124100  1
  O  O62  1  0.00072850  0.76574150  0.74010400  1
  O  O63  1  0.70152300  0.74794000  0.85786100  1
  O  O64  1  0.20152300  0.75206000  0.85786100  1
  O  O65  1  0.73628500  0.50000000  0.74024200  1
  O  O66  1  0.11698050  0.74783650  0.55147100  1
  O  O67  1  0.05866700  0.50000000  0.65019700  1
  O  O68  1  0.67165800  0.00000000  0.45779200  1
  O  O69  1  0.79257650  0.22859450  0.65148400  1
  O  O70  1  0.74698500  0.00000000  0.74667300  1
  O  O71  1  0.61698050  0.75216350  0.55147100  1
  O  O72  1  0.79257650  0.77140550  0.65148400  1
  O  O73  1  0.84491500  0.00000000  0.54993900  1
  O  O74  1  0.70910700  0.71623800  0.34506800  1
  O  O75  1  0.65702000  0.50000000  0.45149200  1
  O  O76  1  0.25126700  0.00000000  0.25040700  1
  O  O77  1  0.83970800  0.50000000  0.54858500  1
  O  O78  1  0.70910700  0.28376200  0.34506800  1
  O  O79  1  0.88173100  0.74871300  0.44710900  1
  O  O80  1  0.42974300  0.00000000  0.34572200  1
  O  O81  1  0.38173100  0.75128700  0.44710900  1
  O  O82  1  0.29801800  0.75100100  0.14412900  1
  O  O83  1  0.75402900  0.00000000  0.25651400  1
  O  O84  1  0.79801800  0.74899900  0.14412900  1
  O  O85  1  0.94914600  0.00000000  0.34471400  1
  O  O86  1  0.50167650  0.74779850  0.25637700  1
  O  O87  1  0.85370600  0.00000000  0.06096000  1
  O  O88  1  0.54901000  0.50000000  0.14403800  1
  O  O89  1  0.00167650  0.75220150  0.25637700  1
  O  O90  1  0.36280400  0.00000000  0.05196500  1
  O  O91  1  0.54947300  0.00000000  0.14777100  1
  O  O92  1  0.59434250  0.23147350  0.05194600  1
  O  O93  1  0.59434250  0.76852650  0.05194600  1
  O  O94  1  0.40913300  0.21932500  0.94832800  1
  O  O95  1  0.45225800  0.00000000  0.85734700  1
  O  O96  1  0.40913300  0.78067500  0.94832800  1
  O  O97  1  0.62929100  0.00000000  0.94832500  1
  O  O98  1  0.00072850  0.23425850  0.74010400  1
  O  O99  1  0.45358800  0.50000000  0.85804000  1
  O  O100  1  0.14883000  0.00000000  0.94773100  1
  O  O101  1  0.04965500  0.00000000  0.65124100  1
  O  O102  1  0.50072850  0.26574150  0.74010400  1
  O  O103  1  0.20152300  0.24794000  0.85786100  1
  O  O104  1  0.70152300  0.25206000  0.85786100  1
  O  O105  1  0.23628500  0.00000000  0.74024200  1
  O  O106  1  0.61698050  0.24783650  0.55147100  1
  O  O107  1  0.55866700  0.00000000  0.65019700  1
  O  O108  1  0.17165800  0.50000000  0.45779200  1
  O  O109  1  0.29257650  0.72859450  0.65148400  1
  O  O110  1  0.24698500  0.50000000  0.74667300  1
  O  O111  1  0.11698050  0.25216350  0.55147100  1
  O  O112  1  0.29257650  0.27140550  0.65148400  1
  O  O113  1  0.34491500  0.50000000  0.54993900  1
  O  O114  1  0.20910700  0.21623800  0.34506800  1
  O  O115  1  0.15702000  0.00000000  0.45149200  1
  O  O116  1  0.75126700  0.50000000  0.25040700  1
  O  O117  1  0.33970800  0.00000000  0.54858500  1
  O  O118  1  0.20910700  0.78376200  0.34506800  1
  O  O119  1  0.38173100  0.24871300  0.44710900  1
  O  O120  1  0.92974300  0.50000000  0.34572200  1
  O  O121  1  0.88173100  0.25128700  0.44710900  1
  O  O122  1  0.79801800  0.25100100  0.14412900  1
  O  O123  1  0.25402900  0.50000000  0.25651400  1
  O  O124  1  0.29801800  0.24899900  0.14412900  1
  O  O125  1  0.44914600  0.50000000  0.34471400  1
  O  O126  1  0.00167650  0.24779850  0.25637700  1
  O  O127  1  0.35370600  0.50000000  0.06096000  1
  O  O128  1  0.04901000  0.00000000  0.14403800  1
  O  O129  1  0.50167650  0.25220150  0.25637700  1
  O  O130  1  0.86280400  0.50000000  0.05196500  1
  O  O131  1  0.04947300  0.50000000  0.14777100  1
  O  O132  1  0.09434250  0.73147350  0.05194600  1
  O  O133  1  0.09434250  0.26852650  0.05194600  1
