# generated using pymatgen
data_Cr(MoS2)2
_symmetry_space_group_name_H-M   'P 1'
_cell_length_a   12.00569800
_cell_length_b   6.59446200
_cell_length_c   12.99364439
_cell_angle_alpha   90.00000000
_cell_angle_beta   114.34386444
_cell_angle_gamma   90.00000000
_symmetry_Int_Tables_number   1
_chemical_formula_structural   Cr(MoS2)2
_chemical_formula_sum   'Cr8 Mo16 S32'
_cell_volume   937.25565702
_cell_formula_units_Z   8
loop_
 _symmetry_equiv_pos_site_id
 _symmetry_equiv_pos_as_xyz
  1  'x, y, z'
loop_
 _atom_site_type_symbol
 _atom_site_label
 _atom_site_symmetry_multiplicity
 _atom_site_fract_x
 _atom_site_fract_y
 _atom_site_fract_z
 _atom_site_occupancy
  Cr  Cr0  1  0.74080500  0.87634500  0.74804800  1
  Cr  Cr1  1  0.24080500  0.62365500  0.24804800  1
  Cr  Cr2  1  0.25919500  0.12365500  0.25195200  1
  Cr  Cr3  1  0.75919500  0.37634500  0.75195200  1
  Cr  Cr4  1  0.24080500  0.37634500  0.74804800  1
  Cr  Cr5  1  0.74080500  0.12365500  0.24804800  1
  Cr  Cr6  1  0.75919500  0.62365500  0.25195200  1
  Cr  Cr7  1  0.25919500  0.87634500  0.75195200  1
  Mo  Mo8  1  0.59837200  0.39758100  0.49385500  1
  Mo  Mo9  1  0.59837200  0.60241900  0.99385500  1
  Mo  Mo10  1  0.40162800  0.60241900  0.50614500  1
  Mo  Mo11  1  0.40162800  0.39758100  0.00614500  1
  Mo  Mo12  1  0.41028950  0.14684750  0.50788300  1
  Mo  Mo13  1  0.41028950  0.85315250  0.00788300  1
  Mo  Mo14  1  0.58971050  0.85315250  0.49211700  1
  Mo  Mo15  1  0.58971050  0.14684750  0.99211700  1
  Mo  Mo16  1  0.09837200  0.89758100  0.49385500  1
  Mo  Mo17  1  0.09837200  0.10241900  0.99385500  1
  Mo  Mo18  1  0.90162800  0.10241900  0.50614500  1
  Mo  Mo19  1  0.90162800  0.89758100  0.00614500  1
  Mo  Mo20  1  0.91028950  0.64684750  0.50788300  1
  Mo  Mo21  1  0.91028950  0.35315250  0.00788300  1
  Mo  Mo22  1  0.08971050  0.35315250  0.49211700  1
  Mo  Mo23  1  0.08971050  0.64684750  0.99211700  1
  S  S24  1  0.53595600  0.37867700  0.64741200  1
  S  S25  1  0.53595600  0.62132300  0.14741200  1
  S  S26  1  0.46404400  0.62132300  0.35258800  1
  S  S27  1  0.46404400  0.37867700  0.85258800  1
  S  S28  1  0.24825700  0.87800200  0.39483500  1
  S  S29  1  0.74825700  0.62199800  0.89483500  1
  S  S30  1  0.75174300  0.12199800  0.60516500  1
  S  S31  1  0.25174300  0.37800200  0.10516500  1
  S  S32  1  0.23629500  0.36625300  0.38722800  1
  S  S33  1  0.73629500  0.13374700  0.88722800  1
  S  S34  1  0.76370500  0.63374700  0.61277200  1
  S  S35  1  0.26370500  0.86625300  0.11277200  1
  S  S36  1  0.51578450  0.86849050  0.63544400  1
  S  S37  1  0.51578450  0.13150950  0.13544400  1
  S  S38  1  0.48421550  0.13150950  0.36455600  1
  S  S39  1  0.48421550  0.86849050  0.86455600  1
  S  S40  1  0.03595600  0.87867700  0.64741200  1
  S  S41  1  0.03595600  0.12132300  0.14741200  1
  S  S42  1  0.96404400  0.12132300  0.35258800  1
  S  S43  1  0.96404400  0.87867700  0.85258800  1
  S  S44  1  0.74825700  0.37800200  0.39483500  1
  S  S45  1  0.24825700  0.12199800  0.89483500  1
  S  S46  1  0.25174300  0.62199800  0.60516500  1
  S  S47  1  0.75174300  0.87800200  0.10516500  1
  S  S48  1  0.73629500  0.86625300  0.38722800  1
  S  S49  1  0.23629500  0.63374700  0.88722800  1
  S  S50  1  0.26370500  0.13374700  0.61277200  1
  S  S51  1  0.76370500  0.36625300  0.11277200  1
  S  S52  1  0.01578450  0.36849050  0.63544400  1
  S  S53  1  0.01578450  0.63150950  0.13544400  1
  S  S54  1  0.98421550  0.63150950  0.36455600  1
  S  S55  1  0.98421550  0.36849050  0.86455600  1
