# generated using pymatgen
data_K4W2Cl10O
_symmetry_space_group_name_H-M   'P 1'
_cell_length_a   7.35071266
_cell_length_b   7.35071266
_cell_length_c   18.03356716
_cell_angle_alpha   90.00000000
_cell_angle_beta   90.00000000
_cell_angle_gamma   90.00000000
_symmetry_Int_Tables_number   1
_chemical_formula_structural   K4W2Cl10O
_chemical_formula_sum   'K8 W4 Cl20 O2'
_cell_volume   974.40731369
_cell_formula_units_Z   2
loop_
 _symmetry_equiv_pos_site_id
 _symmetry_equiv_pos_as_xyz
  1  'x, y, z'
loop_
 _atom_site_type_symbol
 _atom_site_label
 _atom_site_symmetry_multiplicity
 _atom_site_fract_x
 _atom_site_fract_y
 _atom_site_fract_z
 _atom_site_occupancy
  K  K0  1  0.00000000  0.50000000  0.75000000  1
  K  K1  1  0.00000000  0.50000000  0.00000000  1
  K  K2  1  0.50000000  0.00000000  0.75000000  1
  K  K3  1  0.50000000  0.00000000  0.00000000  1
  K  K4  1  0.50000000  0.00000000  0.25000000  1
  K  K5  1  0.50000000  0.00000000  0.50000000  1
  K  K6  1  0.00000000  0.50000000  0.25000000  1
  K  K7  1  0.00000000  0.50000000  0.50000000  1
  W  W8  1  0.50000000  0.50000000  0.60658600  1
  W  W9  1  0.00000000  0.00000000  0.89341400  1
  W  W10  1  0.00000000  0.00000000  0.10658600  1
  W  W11  1  0.50000000  0.50000000  0.39341400  1
  Cl  Cl12  1  0.23747600  0.76252400  0.88803600  1
  Cl  Cl13  1  0.73747600  0.73747600  0.61196400  1
  Cl  Cl14  1  0.00000000  0.00000000  0.75786650  1
  Cl  Cl15  1  0.50000000  0.50000000  0.74213350  1
  Cl  Cl16  1  0.76252400  0.23747600  0.88803600  1
  Cl  Cl17  1  0.73747600  0.26252400  0.61196400  1
  Cl  Cl18  1  0.76252400  0.76252400  0.88803600  1
  Cl  Cl19  1  0.26252400  0.26252400  0.61196400  1
  Cl  Cl20  1  0.23747600  0.23747600  0.88803600  1
  Cl  Cl21  1  0.26252400  0.73747600  0.61196400  1
  Cl  Cl22  1  0.73747600  0.26252400  0.38803600  1
  Cl  Cl23  1  0.23747600  0.23747600  0.11196400  1
  Cl  Cl24  1  0.50000000  0.50000000  0.25786650  1
  Cl  Cl25  1  0.00000000  0.00000000  0.24213350  1
  Cl  Cl26  1  0.26252400  0.73747600  0.38803600  1
  Cl  Cl27  1  0.23747600  0.76252400  0.11196400  1
  Cl  Cl28  1  0.26252400  0.26252400  0.38803600  1
  Cl  Cl29  1  0.76252400  0.76252400  0.11196400  1
  Cl  Cl30  1  0.73747600  0.73747600  0.38803600  1
  Cl  Cl31  1  0.76252400  0.23747600  0.11196400  1
  O  O32  1  0.00000000  0.00000000  0.00000000  1
  O  O33  1  0.50000000  0.50000000  0.50000000  1
