# generated using pymatgen
data_Ta2Te3
_symmetry_space_group_name_H-M   'P 1'
_cell_length_a   15.35694800
_cell_length_b   3.51095800
_cell_length_c   12.57896593
_cell_angle_alpha   90.00000000
_cell_angle_beta   124.74926351
_cell_angle_gamma   90.00000000
_symmetry_Int_Tables_number   1
_chemical_formula_structural   Ta2Te3
_chemical_formula_sum   'Ta8 Te12'
_cell_volume   557.26863795
_cell_formula_units_Z   4
loop_
 _symmetry_equiv_pos_site_id
 _symmetry_equiv_pos_as_xyz
  1  'x, y, z'
loop_
 _atom_site_type_symbol
 _atom_site_label
 _atom_site_symmetry_multiplicity
 _atom_site_fract_x
 _atom_site_fract_y
 _atom_site_fract_z
 _atom_site_occupancy
  Ta  Ta0  1  0.41623100  0.00000000  0.85522900  1
  Ta  Ta1  1  0.58376900  0.00000000  0.14477100  1
  Ta  Ta2  1  0.72749200  0.50000000  0.38894300  1
  Ta  Ta3  1  0.27250800  0.50000000  0.61105700  1
  Ta  Ta4  1  0.91623100  0.50000000  0.85522900  1
  Ta  Ta5  1  0.08376900  0.50000000  0.14477100  1
  Ta  Ta6  1  0.22749200  0.00000000  0.38894300  1
  Ta  Ta7  1  0.77250800  0.00000000  0.61105700  1
  Te  Te8  1  0.92751200  0.50000000  0.64027100  1
  Te  Te9  1  0.07248800  0.50000000  0.35972900  1
  Te  Te10  1  0.19399300  0.00000000  0.71167100  1
  Te  Te11  1  0.80600700  0.00000000  0.28832900  1
  Te  Te12  1  0.09895500  0.00000000  0.97228200  1
  Te  Te13  1  0.90104500  0.00000000  0.02771800  1
  Te  Te14  1  0.42751200  0.00000000  0.64027100  1
  Te  Te15  1  0.57248800  0.00000000  0.35972900  1
  Te  Te16  1  0.69399300  0.50000000  0.71167100  1
  Te  Te17  1  0.30600700  0.50000000  0.28832900  1
  Te  Te18  1  0.59895500  0.50000000  0.97228200  1
  Te  Te19  1  0.40104500  0.50000000  0.02771800  1
