# generated using pymatgen
data_U2Zn17
_symmetry_space_group_name_H-M   'P 1'
_cell_length_a   8.93921665
_cell_length_b   8.93921665
_cell_length_c   13.18995435
_cell_angle_alpha   90.00000000
_cell_angle_beta   90.00000000
_cell_angle_gamma   120.00000000
_symmetry_Int_Tables_number   1
_chemical_formula_structural   U2Zn17
_chemical_formula_sum   'U6 Zn51'
_cell_volume   912.79415424
_cell_formula_units_Z   3
loop_
 _symmetry_equiv_pos_site_id
 _symmetry_equiv_pos_as_xyz
  1  'x, y, z'
loop_
 _atom_site_type_symbol
 _atom_site_label
 _atom_site_symmetry_multiplicity
 _atom_site_fract_x
 _atom_site_fract_y
 _atom_site_fract_z
 _atom_site_occupancy
  U  U0  1  0.33333333  0.66666667  0.32836667  1
  U  U1  1  0.33333333  0.66666667  0.00496667  1
  U  U2  1  0.00000000  0.00000000  0.66170000  1
  U  U3  1  0.00000000  0.00000000  0.33830000  1
  U  U4  1  0.66666667  0.33333333  0.99503333  1
  U  U5  1  0.66666667  0.33333333  0.67163333  1
  Zn  Zn6  1  0.17148400  0.82851600  0.18266200  1
  Zn  Zn7  1  0.17148400  0.34296800  0.18266200  1
  Zn  Zn8  1  0.33333333  0.66666667  0.76840167  1
  Zn  Zn9  1  0.33333333  0.66666667  0.56493167  1
  Zn  Zn10  1  0.16666667  0.83333333  0.83333333  1
  Zn  Zn11  1  0.33333333  0.16666667  0.16666667  1
  Zn  Zn12  1  0.83333333  0.66666667  0.16666667  1
  Zn  Zn13  1  0.70166400  0.00000000  0.00000000  1
  Zn  Zn14  1  0.96500267  0.63166933  0.33333333  1
  Zn  Zn15  1  0.00000000  0.70166400  0.00000000  1
  Zn  Zn16  1  0.29833600  0.00000000  0.00000000  1
  Zn  Zn17  1  0.36833067  0.03499733  0.33333333  1
  Zn  Zn18  1  0.00000000  0.29833600  0.00000000  1
  Zn  Zn19  1  0.49518267  0.99036533  0.15067133  1
  Zn  Zn20  1  0.49518267  0.50481733  0.15067133  1
  Zn  Zn21  1  0.00963467  0.50481733  0.15067133  1
  Zn  Zn22  1  0.65703200  0.82851600  0.18266200  1
  Zn  Zn23  1  0.83815067  0.16184933  0.51599533  1
  Zn  Zn24  1  0.83815067  0.67630133  0.51599533  1
  Zn  Zn25  1  0.00000000  0.00000000  0.10173500  1
  Zn  Zn26  1  0.00000000  0.00000000  0.89826500  1
  Zn  Zn27  1  0.83333333  0.16666667  0.16666667  1
  Zn  Zn28  1  0.00000000  0.50000000  0.50000000  1
  Zn  Zn29  1  0.50000000  0.00000000  0.50000000  1
  Zn  Zn30  1  0.36833067  0.33333333  0.33333333  1
  Zn  Zn31  1  0.63166933  0.96500267  0.66666667  1
  Zn  Zn32  1  0.66666667  0.03499733  0.33333333  1
  Zn  Zn33  1  0.96500267  0.33333333  0.33333333  1
  Zn  Zn34  1  0.03499733  0.36833067  0.66666667  1
  Zn  Zn35  1  0.66666667  0.63166933  0.33333333  1
  Zn  Zn36  1  0.16184933  0.32369867  0.48400467  1
  Zn  Zn37  1  0.16184933  0.83815067  0.48400467  1
  Zn  Zn38  1  0.67630133  0.83815067  0.48400467  1
  Zn  Zn39  1  0.32369867  0.16184933  0.51599533  1
  Zn  Zn40  1  0.50481733  0.49518267  0.84932867  1
  Zn  Zn41  1  0.50481733  0.00963467  0.84932867  1
  Zn  Zn42  1  0.66666667  0.33333333  0.43506833  1
  Zn  Zn43  1  0.66666667  0.33333333  0.23159833  1
  Zn  Zn44  1  0.50000000  0.50000000  0.50000000  1
  Zn  Zn45  1  0.66666667  0.83333333  0.83333333  1
  Zn  Zn46  1  0.16666667  0.33333333  0.83333333  1
  Zn  Zn47  1  0.03499733  0.66666667  0.66666667  1
  Zn  Zn48  1  0.29833600  0.29833600  0.00000000  1
  Zn  Zn49  1  0.33333333  0.36833067  0.66666667  1
  Zn  Zn50  1  0.63166933  0.66666667  0.66666667  1
  Zn  Zn51  1  0.70166400  0.70166400  0.00000000  1
  Zn  Zn52  1  0.33333333  0.96500267  0.66666667  1
  Zn  Zn53  1  0.82851600  0.65703200  0.81733800  1
  Zn  Zn54  1  0.82851600  0.17148400  0.81733800  1
  Zn  Zn55  1  0.34296800  0.17148400  0.81733800  1
  Zn  Zn56  1  0.99036533  0.49518267  0.84932867  1
