# generated using pymatgen
data_LiV(PO3)4
_symmetry_space_group_name_H-M   'P 1'
_cell_length_a   11.96670000
_cell_length_b   8.44182000
_cell_length_c   9.98748669
_cell_angle_alpha   90.00000000
_cell_angle_beta   117.95404814
_cell_angle_gamma   90.00000000
_symmetry_Int_Tables_number   1
_chemical_formula_structural   LiV(PO3)4
_chemical_formula_sum   'Li4 V4 P16 O48'
_cell_volume   891.22354590
_cell_formula_units_Z   4
loop_
 _symmetry_equiv_pos_site_id
 _symmetry_equiv_pos_as_xyz
  1  'x, y, z'
loop_
 _atom_site_type_symbol
 _atom_site_label
 _atom_site_symmetry_multiplicity
 _atom_site_fract_x
 _atom_site_fract_y
 _atom_site_fract_z
 _atom_site_occupancy
  Li  Li0  1  0.00000000  0.96760500  0.25000000  1
  Li  Li1  1  0.50000000  0.53239500  0.75000000  1
  Li  Li2  1  0.50000000  0.46760500  0.25000000  1
  Li  Li3  1  0.00000000  0.03239500  0.75000000  1
  V  V4  1  0.75000000  0.75000000  0.00000000  1
  V  V5  1  0.25000000  0.75000000  0.50000000  1
  V  V6  1  0.25000000  0.25000000  0.00000000  1
  V  V7  1  0.75000000  0.25000000  0.50000000  1
  P  P8  1  0.68975550  0.99280750  0.69640000  1
  P  P9  1  0.99432550  0.73453050  0.52818200  1
  P  P10  1  0.81024450  0.50719250  0.30360000  1
  P  P11  1  0.50567450  0.23453050  0.97181800  1
  P  P12  1  0.18975550  0.50719250  0.19640000  1
  P  P13  1  0.50567450  0.76546950  0.47181800  1
  P  P14  1  0.99432550  0.26546950  0.02818200  1
  P  P15  1  0.31024450  0.99280750  0.80360000  1
  P  P16  1  0.18975550  0.49280750  0.69640000  1
  P  P17  1  0.49432550  0.23453050  0.52818200  1
  P  P18  1  0.31024450  0.00719250  0.30360000  1
  P  P19  1  0.00567450  0.73453050  0.97181800  1
  P  P20  1  0.68975550  0.00719250  0.19640000  1
  P  P21  1  0.00567450  0.26546950  0.47181800  1
  P  P22  1  0.49432550  0.76546950  0.02818200  1
  P  P23  1  0.81024450  0.49280750  0.80360000  1
  O  O24  1  0.23076550  0.57680250  0.35004300  1
  O  O25  1  0.06210550  0.74653850  0.43085000  1
  O  O26  1  0.07061850  0.60414950  0.66054400  1
  O  O27  1  0.96939550  0.87749050  0.59321400  1
  O  O28  1  0.28775350  0.41522550  0.17256300  1
  O  O29  1  0.56210550  0.75346150  0.93085000  1
  O  O30  1  0.86216600  0.64342500  0.43023500  1
  O  O31  1  0.03060450  0.87749050  0.90678600  1
  O  O32  1  0.13783400  0.64342500  0.06976500  1
  O  O33  1  0.42938150  0.10414950  0.83945600  1
  O  O34  1  0.73076550  0.92319750  0.85004300  1
  O  O35  1  0.21224650  0.91522550  0.32743700  1
  O  O36  1  0.28775350  0.58477450  0.67256300  1
  O  O37  1  0.26923450  0.92319750  0.64995700  1
  O  O38  1  0.07061850  0.39585050  0.16054400  1
  O  O39  1  0.36216600  0.85657500  0.93023500  1
  O  O40  1  0.76923450  0.57680250  0.14995700  1
  O  O41  1  0.63783400  0.85657500  0.56976500  1
  O  O42  1  0.93789450  0.74653850  0.06915000  1
  O  O43  1  0.21224650  0.08477450  0.82743700  1
  O  O44  1  0.53060450  0.62250950  0.40678600  1
  O  O45  1  0.42938150  0.89585050  0.33945600  1
  O  O46  1  0.43789450  0.75346150  0.56915000  1
  O  O47  1  0.46939550  0.62250950  0.09321400  1
  O  O48  1  0.73076550  0.07680250  0.35004300  1
  O  O49  1  0.56210550  0.24653850  0.43085000  1
  O  O50  1  0.57061850  0.10414950  0.66054400  1
  O  O51  1  0.46939550  0.37749050  0.59321400  1
  O  O52  1  0.78775350  0.91522550  0.17256300  1
  O  O53  1  0.06210550  0.25346150  0.93085000  1
  O  O54  1  0.36216600  0.14342500  0.43023500  1
  O  O55  1  0.53060450  0.37749050  0.90678600  1
  O  O56  1  0.63783400  0.14342500  0.06976500  1
  O  O57  1  0.92938150  0.60414950  0.83945600  1
  O  O58  1  0.23076550  0.42319750  0.85004300  1
  O  O59  1  0.71224650  0.41522550  0.32743700  1
  O  O60  1  0.78775350  0.08477450  0.67256300  1
  O  O61  1  0.76923450  0.42319750  0.64995700  1
  O  O62  1  0.57061850  0.89585050  0.16054400  1
  O  O63  1  0.86216600  0.35657500  0.93023500  1
  O  O64  1  0.26923450  0.07680250  0.14995700  1
  O  O65  1  0.13783400  0.35657500  0.56976500  1
  O  O66  1  0.43789450  0.24653850  0.06915000  1
  O  O67  1  0.71224650  0.58477450  0.82743700  1
  O  O68  1  0.03060450  0.12250950  0.40678600  1
  O  O69  1  0.92938150  0.39585050  0.33945600  1
  O  O70  1  0.93789450  0.25346150  0.56915000  1
  O  O71  1  0.96939550  0.12250950  0.09321400  1
