# generated using pymatgen
data_Ba6(NiO3)5
_symmetry_space_group_name_H-M   'P 1'
_cell_length_a   10.04633199
_cell_length_b   10.04633199
_cell_length_c   12.86638686
_cell_angle_alpha   90.00000000
_cell_angle_beta   90.00000000
_cell_angle_gamma   120.00000000
_symmetry_Int_Tables_number   1
_chemical_formula_structural   Ba6(NiO3)5
_chemical_formula_sum   'Ba18 Ni15 O45'
_cell_volume   1124.61090021
_cell_formula_units_Z   3
loop_
 _symmetry_equiv_pos_site_id
 _symmetry_equiv_pos_as_xyz
  1  'x, y, z'
loop_
 _atom_site_type_symbol
 _atom_site_label
 _atom_site_symmetry_multiplicity
 _atom_site_fract_x
 _atom_site_fract_y
 _atom_site_fract_z
 _atom_site_occupancy
  Ba  Ba0  1  0.33642250  0.00000000  0.00000000  1
  Ba  Ba1  1  0.00000000  0.33642250  0.00000000  1
  Ba  Ba2  1  0.66357750  0.66357750  0.00000000  1
  Ba  Ba3  1  0.31545767  0.33333333  0.83333333  1
  Ba  Ba4  1  0.66666667  0.98212433  0.83333333  1
  Ba  Ba5  1  0.01787567  0.68454233  0.83333333  1
  Ba  Ba6  1  0.00308917  0.33333333  0.33333333  1
  Ba  Ba7  1  0.66666667  0.66975583  0.33333333  1
  Ba  Ba8  1  0.33024417  0.99691083  0.33333333  1
  Ba  Ba9  1  0.98212433  0.66666667  0.16666667  1
  Ba  Ba10  1  0.33333333  0.31545767  0.16666667  1
  Ba  Ba11  1  0.68454233  0.01787567  0.16666667  1
  Ba  Ba12  1  0.66975583  0.66666667  0.66666667  1
  Ba  Ba13  1  0.33333333  0.00308917  0.66666667  1
  Ba  Ba14  1  0.99691083  0.33024417  0.66666667  1
  Ba  Ba15  1  0.64879100  0.00000000  0.50000000  1
  Ba  Ba16  1  0.00000000  0.64879100  0.50000000  1
  Ba  Ba17  1  0.35120900  0.35120900  0.50000000  1
  Ni  Ni18  1  0.66666667  0.33333333  0.83333333  1
  Ni  Ni19  1  0.66666667  0.33333333  0.62328333  1
  Ni  Ni20  1  0.66666667  0.33333333  0.04338333  1
  Ni  Ni21  1  0.66666667  0.33333333  0.42833733  1
  Ni  Ni22  1  0.66666667  0.33333333  0.23832933  1
  Ni  Ni23  1  0.33333333  0.66666667  0.16666667  1
  Ni  Ni24  1  0.33333333  0.66666667  0.95661667  1
  Ni  Ni25  1  0.33333333  0.66666667  0.37671667  1
  Ni  Ni26  1  0.33333333  0.66666667  0.76167067  1
  Ni  Ni27  1  0.33333333  0.66666667  0.57166267  1
  Ni  Ni28  1  0.00000000  0.00000000  0.50000000  1
  Ni  Ni29  1  0.00000000  0.00000000  0.28995000  1
  Ni  Ni30  1  0.00000000  1.00000000  0.71005000  1
  Ni  Ni31  1  0.00000000  0.00000000  0.09500400  1
  Ni  Ni32  1  0.00000000  1.00000000  0.90499600  1
  O  O33  1  0.14337400  0.14337400  0.00000000  1
  O  O34  1  0.85662600  0.00000000  0.00000000  1
  O  O35  1  0.00000000  0.85662600  0.00000000  1
  O  O36  1  0.51730867  0.19051633  0.51952633  1
  O  O37  1  0.80948367  0.32679233  0.51952633  1
  O  O38  1  0.67320767  0.48269133  0.51952633  1
  O  O39  1  0.66012567  0.47615033  0.14714033  1
  O  O40  1  0.52384967  0.18397533  0.14714033  1
  O  O41  1  0.81602467  0.33987433  0.14714033  1
  O  O42  1  0.65626633  0.18064367  0.70929567  1
  O  O43  1  0.81935633  0.47562267  0.70929567  1
  O  O44  1  0.52437733  0.34373367  0.70929567  1
  O  O45  1  0.80895600  0.48602300  0.95737100  1
  O  O46  1  0.51397700  0.32293300  0.95737100  1
  O  O47  1  0.67706700  0.19104400  0.95737100  1
  O  O48  1  0.81004067  0.47670733  0.33333333  1
  O  O49  1  0.52329267  0.33333333  0.33333333  1
  O  O50  1  0.66666667  0.18995933  0.33333333  1
  O  O51  1  0.18397533  0.52384967  0.85285967  1
  O  O52  1  0.47615033  0.66012567  0.85285967  1
  O  O53  1  0.33987433  0.81602467  0.85285967  1
  O  O54  1  0.32679233  0.80948367  0.48047367  1
  O  O55  1  0.19051633  0.51730867  0.48047367  1
  O  O56  1  0.48269133  0.67320767  0.48047367  1
  O  O57  1  0.32293300  0.51397700  0.04262900  1
  O  O58  1  0.48602300  0.80895600  0.04262900  1
  O  O59  1  0.19104400  0.67706700  0.04262900  1
  O  O60  1  0.47562267  0.81935633  0.29070433  1
  O  O61  1  0.18064367  0.65626633  0.29070433  1
  O  O62  1  0.34373367  0.52437733  0.29070433  1
  O  O63  1  0.47670733  0.81004067  0.66666667  1
  O  O64  1  0.18995933  0.66666667  0.66666667  1
  O  O65  1  0.33333333  0.52329267  0.66666667  1
  O  O66  1  0.85064200  0.85718300  0.18619300  1
  O  O67  1  0.14281700  0.99345900  0.18619300  1
  O  O68  1  0.00654100  0.14935800  0.18619300  1
  O  O69  1  0.99345900  0.14281700  0.81380700  1
  O  O70  1  0.85718300  0.85064200  0.81380700  1
  O  O71  1  0.14935800  0.00654100  0.81380700  1
  O  O72  1  0.98959967  0.84731033  0.37596233  1
  O  O73  1  0.15268967  0.14228933  0.37596233  1
  O  O74  1  0.85771067  0.01040033  0.37596233  1
  O  O75  1  0.14228933  0.15268967  0.62403767  1
  O  O76  1  0.84731033  0.98959967  0.62403767  1
  O  O77  1  0.01040033  0.85771067  0.62403767  1
