# generated using pymatgen
data_PrAl
_symmetry_space_group_name_H-M   'P 1'
_cell_length_a   7.68567000
_cell_length_b   9.34667800
_cell_length_c   5.76547600
_cell_angle_alpha   90.00000000
_cell_angle_beta   90.00000000
_cell_angle_gamma   90.00000000
_symmetry_Int_Tables_number   1
_chemical_formula_structural   PrAl
_chemical_formula_sum   'Pr8 Al8'
_cell_volume   414.16575148
_cell_formula_units_Z   8
loop_
 _symmetry_equiv_pos_site_id
 _symmetry_equiv_pos_as_xyz
  1  'x, y, z'
loop_
 _atom_site_type_symbol
 _atom_site_label
 _atom_site_symmetry_multiplicity
 _atom_site_fract_x
 _atom_site_fract_y
 _atom_site_fract_z
 _atom_site_occupancy
  Pr  Pr0  1  0.65905900  0.32010500  0.25000000  1
  Pr  Pr1  1  0.65905900  0.67989500  0.25000000  1
  Pr  Pr2  1  0.34094100  0.32010500  0.75000000  1
  Pr  Pr3  1  0.34094100  0.67989500  0.75000000  1
  Pr  Pr4  1  0.15905900  0.82010500  0.25000000  1
  Pr  Pr5  1  0.15905900  0.17989500  0.25000000  1
  Pr  Pr6  1  0.84094100  0.82010500  0.75000000  1
  Pr  Pr7  1  0.84094100  0.17989500  0.75000000  1
  Al  Al8  1  0.80207700  0.00000000  0.25000000  1
  Al  Al9  1  0.19792300  0.00000000  0.75000000  1
  Al  Al10  1  0.50000000  0.00000000  0.00000000  1
  Al  Al11  1  0.50000000  0.00000000  0.50000000  1
  Al  Al12  1  0.30207700  0.50000000  0.25000000  1
  Al  Al13  1  0.69792300  0.50000000  0.75000000  1
  Al  Al14  1  0.00000000  0.50000000  0.00000000  1
  Al  Al15  1  0.00000000  0.50000000  0.50000000  1
