# generated using pymatgen
data_Sr2HoGaCu2O7
_symmetry_space_group_name_H-M   'P 1'
_cell_length_a   5.41003000
_cell_length_b   5.50938400
_cell_length_c   23.16866200
_cell_angle_alpha   90.00000000
_cell_angle_beta   90.00000000
_cell_angle_gamma   90.00000000
_symmetry_Int_Tables_number   1
_chemical_formula_structural   Sr2HoGaCu2O7
_chemical_formula_sum   'Sr8 Ho4 Ga4 Cu8 O28'
_cell_volume   690.56358082
_cell_formula_units_Z   4
loop_
 _symmetry_equiv_pos_site_id
 _symmetry_equiv_pos_as_xyz
  1  'x, y, z'
loop_
 _atom_site_type_symbol
 _atom_site_label
 _atom_site_symmetry_multiplicity
 _atom_site_fract_x
 _atom_site_fract_y
 _atom_site_fract_z
 _atom_site_occupancy
  Sr  Sr0  1  0.99925600  0.48372400  0.65108800  1
  Sr  Sr1  1  0.49925600  0.01627600  0.84891200  1
  Sr  Sr2  1  0.49925600  0.01627600  0.65108800  1
  Sr  Sr3  1  0.99925600  0.48372400  0.84891200  1
  Sr  Sr4  1  0.49925600  0.98372400  0.15108800  1
  Sr  Sr5  1  0.99925600  0.51627600  0.34891200  1
  Sr  Sr6  1  0.99925600  0.51627600  0.15108800  1
  Sr  Sr7  1  0.49925600  0.98372400  0.34891200  1
  Ho  Ho8  1  0.50057500  0.00000000  0.00000000  1
  Ho  Ho9  1  0.00057500  0.50000000  0.00000000  1
  Ho  Ho10  1  0.00057500  0.50000000  0.50000000  1
  Ho  Ho11  1  0.50057500  0.00000000  0.50000000  1
  Ga  Ga12  1  0.46277000  0.56910700  0.75000000  1
  Ga  Ga13  1  0.96277000  0.93089300  0.75000000  1
  Ga  Ga14  1  0.96277000  0.06910700  0.25000000  1
  Ga  Ga15  1  0.46277000  0.43089300  0.25000000  1
  Cu  Cu16  1  0.50103450  0.50073450  0.57108150  1
  Cu  Cu17  1  0.00103450  0.99926550  0.92891850  1
  Cu  Cu18  1  0.00103450  0.99926550  0.57108150  1
  Cu  Cu19  1  0.50103450  0.50073450  0.92891850  1
  Cu  Cu20  1  0.00103450  0.00073450  0.07108150  1
  Cu  Cu21  1  0.50103450  0.49926550  0.42891850  1
  Cu  Cu22  1  0.50103450  0.49926550  0.07108150  1
  Cu  Cu23  1  0.00103450  0.00073450  0.42891850  1
  O  O24  1  0.61000900  0.88515200  0.75000000  1
  O  O25  1  0.11000900  0.61484800  0.75000000  1
  O  O26  1  0.75087500  0.75017200  0.56341400  1
  O  O27  1  0.25087500  0.74982800  0.93658600  1
  O  O28  1  0.25087500  0.74982800  0.56341400  1
  O  O29  1  0.75087500  0.75017200  0.93658600  1
  O  O30  1  0.24987100  0.25129200  0.56073800  1
  O  O31  1  0.74987100  0.24870800  0.93926200  1
  O  O32  1  0.74987100  0.24870800  0.56073800  1
  O  O33  1  0.24987100  0.25129200  0.93926200  1
  O  O34  1  0.02848250  0.04388450  0.67638450  1
  O  O35  1  0.52848250  0.45611550  0.82361550  1
  O  O36  1  0.52848250  0.45611550  0.67638450  1
  O  O37  1  0.02848250  0.04388450  0.82361550  1
  O  O38  1  0.11000900  0.38515200  0.25000000  1
  O  O39  1  0.61000900  0.11484800  0.25000000  1
  O  O40  1  0.25087500  0.25017200  0.06341400  1
  O  O41  1  0.75087500  0.24982800  0.43658600  1
  O  O42  1  0.75087500  0.24982800  0.06341400  1
  O  O43  1  0.25087500  0.25017200  0.43658600  1
  O  O44  1  0.74987100  0.75129200  0.06073800  1
  O  O45  1  0.24987100  0.74870800  0.43926200  1
  O  O46  1  0.24987100  0.74870800  0.06073800  1
  O  O47  1  0.74987100  0.75129200  0.43926200  1
  O  O48  1  0.52848250  0.54388450  0.17638450  1
  O  O49  1  0.02848250  0.95611550  0.32361550  1
  O  O50  1  0.02848250  0.95611550  0.17638450  1
  O  O51  1  0.52848250  0.54388450  0.32361550  1
