# generated using pymatgen
data_Mo2As3
_symmetry_space_group_name_H-M   'P 1'
_cell_length_a   13.49742800
_cell_length_b   3.26544200
_cell_length_c   9.72389095
_cell_angle_alpha   90.00000000
_cell_angle_beta   124.53091766
_cell_angle_gamma   90.00000000
_symmetry_Int_Tables_number   1
_chemical_formula_structural   Mo2As3
_chemical_formula_sum   'Mo8 As12'
_cell_volume   353.07391250
_cell_formula_units_Z   4
loop_
 _symmetry_equiv_pos_site_id
 _symmetry_equiv_pos_as_xyz
  1  'x, y, z'
loop_
 _atom_site_type_symbol
 _atom_site_label
 _atom_site_symmetry_multiplicity
 _atom_site_fract_x
 _atom_site_fract_y
 _atom_site_fract_z
 _atom_site_occupancy
  Mo  Mo0  1  0.74803100  0.50000000  0.37167300  1
  Mo  Mo1  1  0.25196900  0.50000000  0.62832700  1
  Mo  Mo2  1  0.85052700  0.50000000  0.13481100  1
  Mo  Mo3  1  0.14947300  0.50000000  0.86518900  1
  Mo  Mo4  1  0.24803100  0.00000000  0.37167300  1
  Mo  Mo5  1  0.75196900  0.00000000  0.62832700  1
  Mo  Mo6  1  0.35052700  0.00000000  0.13481100  1
  Mo  Mo7  1  0.64947300  0.00000000  0.86518900  1
  As  As8  1  0.62726800  0.50000000  0.04702500  1
  As  As9  1  0.37273200  0.50000000  0.95297500  1
  As  As10  1  0.91461000  0.50000000  0.68559300  1
  As  As11  1  0.08539000  0.50000000  0.31440700  1
  As  As12  1  0.10463500  0.00000000  0.62881000  1
  As  As13  1  0.89536500  0.00000000  0.37119000  1
  As  As14  1  0.12726800  0.00000000  0.04702500  1
  As  As15  1  0.87273200  0.00000000  0.95297500  1
  As  As16  1  0.41461000  0.00000000  0.68559300  1
  As  As17  1  0.58539000  0.00000000  0.31440700  1
  As  As18  1  0.60463500  0.50000000  0.62881000  1
  As  As19  1  0.39536500  0.50000000  0.37119000  1
