# generated using pymatgen
data_LiMn(PO3)4
_symmetry_space_group_name_H-M   'P 1'
_cell_length_a   11.74188600
_cell_length_b   8.44879600
_cell_length_c   10.19318479
_cell_angle_alpha   90.00000000
_cell_angle_beta   116.67775670
_cell_angle_gamma   90.00000000
_symmetry_Int_Tables_number   1
_chemical_formula_structural   LiMn(PO3)4
_chemical_formula_sum   'Li4 Mn4 P16 O48'
_cell_volume   903.56495234
_cell_formula_units_Z   4
loop_
 _symmetry_equiv_pos_site_id
 _symmetry_equiv_pos_as_xyz
  1  'x, y, z'
loop_
 _atom_site_type_symbol
 _atom_site_label
 _atom_site_symmetry_multiplicity
 _atom_site_fract_x
 _atom_site_fract_y
 _atom_site_fract_z
 _atom_site_occupancy
  Li  Li0  1  0.00000000  0.97444000  0.75000000  1
  Li  Li1  1  0.50000000  0.52556000  0.25000000  1
  Li  Li2  1  0.50000000  0.47444000  0.75000000  1
  Li  Li3  1  0.00000000  0.02556000  0.25000000  1
  Mn  Mn4  1  0.25000000  0.25000000  0.50000000  1
  Mn  Mn5  1  0.25000000  0.75000000  0.00000000  1
  Mn  Mn6  1  0.75000000  0.75000000  0.50000000  1
  Mn  Mn7  1  0.75000000  0.25000000  0.00000000  1
  P  P8  1  0.50590350  0.76612350  0.97090600  1
  P  P9  1  0.18906200  0.49252900  0.18889000  1
  P  P10  1  0.99409650  0.73387650  0.02909400  1
  P  P11  1  0.31093800  0.00747100  0.81111000  1
  P  P12  1  0.00590350  0.73387650  0.47090600  1
  P  P13  1  0.49409650  0.76612350  0.52909400  1
  P  P14  1  0.31093800  0.99252900  0.31111000  1
  P  P15  1  0.18906200  0.50747100  0.68889000  1
  P  P16  1  0.00590350  0.26612350  0.97090600  1
  P  P17  1  0.68906200  0.99252900  0.18889000  1
  P  P18  1  0.49409650  0.23387650  0.02909400  1
  P  P19  1  0.81093800  0.50747100  0.81111000  1
  P  P20  1  0.50590350  0.23387650  0.47090600  1
  P  P21  1  0.99409650  0.26612350  0.52909400  1
  P  P22  1  0.81093800  0.49252900  0.31111000  1
  P  P23  1  0.68906200  0.00747100  0.68889000  1
  O  O24  1  0.13970050  0.64794650  0.56969600  1
  O  O25  1  0.93462900  0.25635600  0.06607800  1
  O  O26  1  0.23757900  0.42886400  0.33995300  1
  O  O27  1  0.56537100  0.24364400  0.93392200  1
  O  O28  1  0.06624600  0.59992200  0.15367100  1
  O  O29  1  0.96997800  0.87622300  0.09479700  1
  O  O30  1  0.28426300  0.41182000  0.65625000  1
  O  O31  1  0.56537100  0.75635600  0.43392200  1
  O  O32  1  0.36029950  0.14794650  0.93030400  1
  O  O33  1  0.03002200  0.87622300  0.40520300  1
  O  O34  1  0.26242100  0.07113600  0.66004700  1
  O  O35  1  0.73757900  0.07113600  0.83995300  1
  O  O36  1  0.93375400  0.59992200  0.34632900  1
  O  O37  1  0.21573700  0.91182000  0.84375000  1
  O  O38  1  0.28426300  0.58818000  0.15625000  1
  O  O39  1  0.56624600  0.90007800  0.65367100  1
  O  O40  1  0.43375400  0.90007800  0.84632900  1
  O  O41  1  0.36029950  0.85205350  0.43030400  1
  O  O42  1  0.46997800  0.62377700  0.59479700  1
  O  O43  1  0.13970050  0.35205350  0.06969600  1
  O  O44  1  0.93462900  0.74364400  0.56607800  1
  O  O45  1  0.21573700  0.08818000  0.34375000  1
  O  O46  1  0.53002200  0.62377700  0.90520300  1
  O  O47  1  0.76242100  0.42886400  0.16004700  1
  O  O48  1  0.63970050  0.14794650  0.56969600  1
  O  O49  1  0.43462900  0.75635600  0.06607800  1
  O  O50  1  0.73757900  0.92886400  0.33995300  1
  O  O51  1  0.06537100  0.74364400  0.93392200  1
  O  O52  1  0.56624600  0.09992200  0.15367100  1
  O  O53  1  0.46997800  0.37622300  0.09479700  1
  O  O54  1  0.78426300  0.91182000  0.65625000  1
  O  O55  1  0.06537100  0.25635600  0.43392200  1
  O  O56  1  0.86029950  0.64794650  0.93030400  1
  O  O57  1  0.53002200  0.37622300  0.40520300  1
  O  O58  1  0.76242100  0.57113600  0.66004700  1
  O  O59  1  0.23757900  0.57113600  0.83995300  1
  O  O60  1  0.43375400  0.09992200  0.34632900  1
  O  O61  1  0.71573700  0.41182000  0.84375000  1
  O  O62  1  0.78426300  0.08818000  0.15625000  1
  O  O63  1  0.06624600  0.40007800  0.65367100  1
  O  O64  1  0.93375400  0.40007800  0.84632900  1
  O  O65  1  0.86029950  0.35205350  0.43030400  1
  O  O66  1  0.96997800  0.12377700  0.59479700  1
  O  O67  1  0.63970050  0.85205350  0.06969600  1
  O  O68  1  0.43462900  0.24364400  0.56607800  1
  O  O69  1  0.71573700  0.58818000  0.34375000  1
  O  O70  1  0.03002200  0.12377700  0.90520300  1
  O  O71  1  0.26242100  0.92886400  0.16004700  1
