# generated using pymatgen
data_Tm(GeRu)2
_symmetry_space_group_name_H-M   'P 1'
_cell_length_a   4.26401000
_cell_length_b   4.26401000
_cell_length_c   9.78816800
_cell_angle_alpha   90.00000000
_cell_angle_beta   90.00000000
_cell_angle_gamma   90.00000000
_symmetry_Int_Tables_number   1
_chemical_formula_structural   Tm(GeRu)2
_chemical_formula_sum   'Tm2 Ge4 Ru4'
_cell_volume   177.96632971
_cell_formula_units_Z   2
loop_
 _symmetry_equiv_pos_site_id
 _symmetry_equiv_pos_as_xyz
  1  'x, y, z'
loop_
 _atom_site_type_symbol
 _atom_site_label
 _atom_site_symmetry_multiplicity
 _atom_site_fract_x
 _atom_site_fract_y
 _atom_site_fract_z
 _atom_site_occupancy
  Tm  Tm0  1  0.00000000  0.00000000  0.00000000  1
  Tm  Tm1  1  0.50000000  0.50000000  0.50000000  1
  Ge  Ge2  1  0.00000000  0.00000000  0.37044200  1
  Ge  Ge3  1  0.50000000  0.50000000  0.12955800  1
  Ge  Ge4  1  0.50000000  0.50000000  0.87044200  1
  Ge  Ge5  1  0.00000000  0.00000000  0.62955800  1
  Ru  Ru6  1  0.50000000  0.00000000  0.25000000  1
  Ru  Ru7  1  0.00000000  0.50000000  0.25000000  1
  Ru  Ru8  1  0.00000000  0.50000000  0.75000000  1
  Ru  Ru9  1  0.50000000  0.00000000  0.75000000  1
