# generated using pymatgen
data_Cs2Mo15S19
_symmetry_space_group_name_H-M   'P 1'
_cell_length_a   9.54235414
_cell_length_b   9.54235414
_cell_length_c   57.05687788
_cell_angle_alpha   90.00000000
_cell_angle_beta   90.00000000
_cell_angle_gamma   120.00000000
_symmetry_Int_Tables_number   1
_chemical_formula_structural   Cs2Mo15S19
_chemical_formula_sum   'Cs12 Mo90 S114'
_cell_volume   4499.34914916
_cell_formula_units_Z   6
loop_
 _symmetry_equiv_pos_site_id
 _symmetry_equiv_pos_as_xyz
  1  'x, y, z'
loop_
 _atom_site_type_symbol
 _atom_site_label
 _atom_site_symmetry_multiplicity
 _atom_site_fract_x
 _atom_site_fract_y
 _atom_site_fract_z
 _atom_site_occupancy
  Cs  Cs0  1  0.33333333  0.66666667  0.28010367  1
  Cs  Cs1  1  0.66666667  0.33333333  0.21989633  1
  Cs  Cs2  1  0.00000000  0.00000000  0.11343700  1
  Cs  Cs3  1  0.33333333  0.66666667  0.05322967  1
  Cs  Cs4  1  0.00000000  0.00000000  0.61343700  1
  Cs  Cs5  1  0.33333333  0.66666667  0.55322967  1
  Cs  Cs6  1  0.66666667  0.33333333  0.44677033  1
  Cs  Cs7  1  0.00000000  0.00000000  0.38656300  1
  Cs  Cs8  1  0.66666667  0.33333333  0.94677033  1
  Cs  Cs9  1  0.00000000  0.00000000  0.88656300  1
  Cs  Cs10  1  0.33333333  0.66666667  0.78010367  1
  Cs  Cs11  1  0.66666667  0.33333333  0.71989633  1
  Mo  Mo12  1  0.16061500  0.99235000  0.20933700  1
  Mo  Mo13  1  0.17281267  0.01799733  0.02065133  1
  Mo  Mo14  1  0.49385400  0.31533600  0.31268200  1
  Mo  Mo15  1  0.49840167  0.32568333  0.04267033  1
  Mo  Mo16  1  0.00765000  0.16826500  0.20933700  1
  Mo  Mo17  1  0.50605167  0.34098333  0.12399633  1
  Mo  Mo18  1  0.66666667  0.49686233  0.08333333  1
  Mo  Mo19  1  0.16052067  0.51185133  0.14601533  1
  Mo  Mo20  1  0.83019567  0.33333333  0.08333333  1
  Mo  Mo21  1  0.83938500  0.83173500  0.29066300  1
  Mo  Mo22  1  0.16352900  0.16352900  0.25000000  1
  Mo  Mo23  1  0.82148200  0.50614600  0.31268200  1
  Mo  Mo24  1  0.16826500  0.00765000  0.29066300  1
  Mo  Mo25  1  0.98200267  0.15481533  0.02065133  1
  Mo  Mo26  1  0.82728167  0.50159833  0.04267033  1
  Mo  Mo27  1  0.50313767  0.16980433  0.08333333  1
  Mo  Mo28  1  0.68466400  0.17851800  0.31268200  1
  Mo  Mo29  1  0.67431667  0.17271833  0.04267033  1
  Mo  Mo30  1  0.83173500  0.83938500  0.20933700  1
  Mo  Mo31  1  0.17851800  0.68466400  0.18731800  1
  Mo  Mo32  1  0.00000000  0.83647100  0.25000000  1
  Mo  Mo33  1  0.83493167  0.49394833  0.12399633  1
  Mo  Mo34  1  0.84518467  0.82718733  0.02065133  1
  Mo  Mo35  1  0.31533600  0.49385400  0.18731800  1
  Mo  Mo36  1  0.35133067  0.83947933  0.14601533  1
  Mo  Mo37  1  0.83647100  0.00000000  0.25000000  1
  Mo  Mo38  1  0.50614600  0.82148200  0.18731800  1
  Mo  Mo39  1  0.48814867  0.64866933  0.14601533  1
  Mo  Mo40  1  0.99235000  0.16061500  0.29066300  1
  Mo  Mo41  1  0.65901667  0.16506833  0.12399633  1
  Mo  Mo42  1  0.82728167  0.32568333  0.54267033  1
  Mo  Mo43  1  0.83947933  0.35133067  0.35398467  1
  Mo  Mo44  1  0.16052067  0.64866933  0.64601533  1
  Mo  Mo45  1  0.16506833  0.65901667  0.37600367  1
  Mo  Mo46  1  0.67431667  0.50159833  0.54267033  1
  Mo  Mo47  1  0.17271833  0.67431667  0.45732967  1
  Mo  Mo48  1  0.33333333  0.83019567  0.41666667  1
  Mo  Mo49  1  0.82718733  0.84518467  0.47934867  1
  Mo  Mo50  1  0.49686233  0.66666667  0.41666667  1
  Mo  Mo51  1  0.50605167  0.16506833  0.62399633  1
  Mo  Mo52  1  0.83019567  0.49686233  0.58333333  1
  Mo  Mo53  1  0.48814867  0.83947933  0.64601533  1
  Mo  Mo54  1  0.83493167  0.34098333  0.62399633  1
  Mo  Mo55  1  0.64866933  0.48814867  0.35398467  1
  Mo  Mo56  1  0.49394833  0.83493167  0.37600367  1
  Mo  Mo57  1  0.16980433  0.50313767  0.41666667  1
  Mo  Mo58  1  0.35133067  0.51185133  0.64601533  1
  Mo  Mo59  1  0.34098333  0.50605167  0.37600367  1
  Mo  Mo60  1  0.49840167  0.17271833  0.54267033  1
  Mo  Mo61  1  0.84518467  0.01799733  0.52065133  1
  Mo  Mo62  1  0.66666667  0.16980433  0.58333333  1
  Mo  Mo63  1  0.50159833  0.82728167  0.45732967  1
  Mo  Mo64  1  0.51185133  0.16052067  0.35398467  1
  Mo  Mo65  1  0.98200267  0.82718733  0.52065133  1
  Mo  Mo66  1  0.01799733  0.17281267  0.47934867  1
  Mo  Mo67  1  0.50313767  0.33333333  0.58333333  1
  Mo  Mo68  1  0.17281267  0.15481533  0.52065133  1
  Mo  Mo69  1  0.15481533  0.98200267  0.47934867  1
  Mo  Mo70  1  0.65901667  0.49394833  0.62399633  1
  Mo  Mo71  1  0.32568333  0.49840167  0.45732967  1
  Mo  Mo72  1  0.49394833  0.65901667  0.87600367  1
  Mo  Mo73  1  0.50614600  0.68466400  0.68731800  1
  Mo  Mo74  1  0.82718733  0.98200267  0.97934867  1
  Mo  Mo75  1  0.83173500  0.99235000  0.70933700  1
  Mo  Mo76  1  0.34098333  0.83493167  0.87600367  1
  Mo  Mo77  1  0.83938500  0.00765000  0.79066300  1
  Mo  Mo78  1  0.00000000  0.16352900  0.75000000  1
  Mo  Mo79  1  0.49385400  0.17851800  0.81268200  1
  Mo  Mo80  1  0.16352900  0.00000000  0.75000000  1
  Mo  Mo81  1  0.17271833  0.49840167  0.95732967  1
  Mo  Mo82  1  0.49686233  0.83019567  0.91666667  1
  Mo  Mo83  1  0.15481533  0.17281267  0.97934867  1
  Mo  Mo84  1  0.50159833  0.67431667  0.95732967  1
  Mo  Mo85  1  0.31533600  0.82148200  0.68731800  1
  Mo  Mo86  1  0.16061500  0.16826500  0.70933700  1
  Mo  Mo87  1  0.83647100  0.83647100  0.75000000  1
  Mo  Mo88  1  0.01799733  0.84518467  0.97934867  1
  Mo  Mo89  1  0.00765000  0.83938500  0.70933700  1
  Mo  Mo90  1  0.16506833  0.50605167  0.87600367  1
  Mo  Mo91  1  0.51185133  0.35133067  0.85398467  1
  Mo  Mo92  1  0.33333333  0.50313767  0.91666667  1
  Mo  Mo93  1  0.16826500  0.16061500  0.79066300  1
  Mo  Mo94  1  0.17851800  0.49385400  0.68731800  1
  Mo  Mo95  1  0.64866933  0.16052067  0.85398467  1
  Mo  Mo96  1  0.68466400  0.50614600  0.81268200  1
  Mo  Mo97  1  0.16980433  0.66666667  0.91666667  1
  Mo  Mo98  1  0.83947933  0.48814867  0.85398467  1
  Mo  Mo99  1  0.82148200  0.31533600  0.81268200  1
  Mo  Mo100  1  0.32568333  0.82728167  0.95732967  1
  Mo  Mo101  1  0.99235000  0.83173500  0.79066300  1
  S  S102  1  0.36758867  0.33333333  0.08333333  1
  S  S103  1  0.01463467  0.71439733  0.28603833  1
  S  S104  1  0.68130133  0.63357067  0.11937167  1
  S  S105  1  0.36545833  0.97831367  0.18304267  1
  S  S106  1  0.68835300  0.96787500  0.01637600  1
  S  S107  1  0.69976267  0.98536533  0.28603833  1
  S  S108  1  0.66666667  0.33333333  0.01035633  1
  S  S109  1  0.03212500  0.72047800  0.01637600  1
  S  S110  1  0.00000000  0.29907800  0.25000000  1
  S  S111  1  0.36642933  0.04773067  0.11937167  1
  S  S112  1  0.29907800  0.00000000  0.25000000  1
  S  S113  1  0.71439733  0.01463467  0.21396167  1
  S  S114  1  0.00000000  0.00000000  0.17702300  1
  S  S115  1  0.33333333  0.66666667  0.21963067  1
  S  S116  1  0.00000000  0.00000000  0.05296400  1
  S  S117  1  0.63454167  0.61285533  0.31695733  1
  S  S118  1  0.98536533  0.69976267  0.21396167  1
  S  S119  1  0.28560267  0.30023733  0.28603833  1
  S  S120  1  0.64498033  0.94618867  0.15029067  1
  S  S121  1  0.05381133  0.69879167  0.15029067  1
  S  S122  1  0.33333333  0.66666667  0.11370267  1
  S  S123  1  0.66666667  0.33333333  0.28036933  1
  S  S124  1  0.66666667  0.03425533  0.08333333  1
  S  S125  1  0.02168633  0.38714467  0.18304267  1
  S  S126  1  0.97831367  0.36545833  0.31695733  1
  S  S127  1  0.65203200  0.61893600  0.04729500  1
  S  S128  1  0.38106400  0.03309600  0.04729500  1
  S  S129  1  0.30120833  0.35501967  0.15029067  1
  S  S130  1  0.96574467  0.63241133  0.08333333  1
  S  S131  1  0.96690400  0.34796800  0.04729500  1
  S  S132  1  0.00000000  0.00000000  0.32297700  1
  S  S133  1  0.38714467  0.02168633  0.31695733  1
  S  S134  1  0.30023733  0.28560267  0.21396167  1
  S  S135  1  0.66666667  0.33333333  0.15631033  1
  S  S136  1  0.95226933  0.31869867  0.11937167  1
  S  S137  1  0.27952200  0.31164700  0.01637600  1
  S  S138  1  0.70092200  0.70092200  0.25000000  1
  S  S139  1  0.61285533  0.63454167  0.18304267  1
  S  S140  1  0.03425533  0.66666667  0.41666667  1
  S  S141  1  0.68130133  0.04773067  0.61937167  1
  S  S142  1  0.34796800  0.96690400  0.45270500  1
  S  S143  1  0.03212500  0.31164700  0.51637600  1
  S  S144  1  0.35501967  0.30120833  0.34970933  1
  S  S145  1  0.36642933  0.31869867  0.61937167  1
  S  S146  1  0.33333333  0.66666667  0.34368967  1
  S  S147  1  0.69879167  0.05381133  0.34970933  1
  S  S148  1  0.66666667  0.63241133  0.58333333  1
  S  S149  1  0.03309600  0.38106400  0.45270500  1
  S  S150  1  0.96574467  0.33333333  0.58333333  1
  S  S151  1  0.38106400  0.34796800  0.54729500  1
  S  S152  1  0.66666667  0.33333333  0.51035633  1
  S  S153  1  0.00000000  0.00000000  0.55296400  1
  S  S154  1  0.66666667  0.33333333  0.38629733  1
  S  S155  1  0.30120833  0.94618867  0.65029067  1
  S  S156  1  0.65203200  0.03309600  0.54729500  1
  S  S157  1  0.95226933  0.63357067  0.61937167  1
  S  S158  1  0.31164700  0.27952200  0.48362400  1
  S  S159  1  0.72047800  0.03212500  0.48362400  1
  S  S160  1  0.00000000  0.00000000  0.44703600  1
  S  S161  1  0.33333333  0.66666667  0.61370267  1
  S  S162  1  0.33333333  0.36758867  0.41666667  1
  S  S163  1  0.68835300  0.72047800  0.51637600  1
  S  S164  1  0.64498033  0.69879167  0.65029067  1
  S  S165  1  0.31869867  0.95226933  0.38062833  1
  S  S166  1  0.04773067  0.36642933  0.38062833  1
  S  S167  1  0.96787500  0.68835300  0.48362400  1
  S  S168  1  0.63241133  0.96574467  0.41666667  1
  S  S169  1  0.63357067  0.68130133  0.38062833  1
  S  S170  1  0.66666667  0.33333333  0.65631033  1
  S  S171  1  0.05381133  0.35501967  0.65029067  1
  S  S172  1  0.96690400  0.61893600  0.54729500  1
  S  S173  1  0.33333333  0.66666667  0.48964367  1
  S  S174  1  0.61893600  0.65203200  0.45270500  1
  S  S175  1  0.94618867  0.64498033  0.34970933  1
  S  S176  1  0.36758867  0.03425533  0.58333333  1
  S  S177  1  0.27952200  0.96787500  0.51637600  1
  S  S178  1  0.70092200  0.00000000  0.75000000  1
  S  S179  1  0.34796800  0.38106400  0.95270500  1
  S  S180  1  0.01463467  0.30023733  0.78603833  1
  S  S181  1  0.69879167  0.64498033  0.84970933  1
  S  S182  1  0.02168633  0.63454167  0.68304267  1
  S  S183  1  0.03309600  0.65203200  0.95270500  1
  S  S184  1  0.00000000  0.00000000  0.67702300  1
  S  S185  1  0.36545833  0.38714467  0.68304267  1
  S  S186  1  0.33333333  0.96574467  0.91666667  1
  S  S187  1  0.69976267  0.71439733  0.78603833  1
  S  S188  1  0.63241133  0.66666667  0.91666667  1
  S  S189  1  0.04773067  0.68130133  0.88062833  1
  S  S190  1  0.33333333  0.66666667  0.84368967  1
  S  S191  1  0.66666667  0.33333333  0.88629733  1
  S  S192  1  0.33333333  0.66666667  0.71963067  1
  S  S193  1  0.96787500  0.27952200  0.98362400  1
  S  S194  1  0.31869867  0.36642933  0.88062833  1
  S  S195  1  0.61893600  0.96690400  0.95270500  1
  S  S196  1  0.97831367  0.61285533  0.81695733  1
  S  S197  1  0.38714467  0.36545833  0.81695733  1
  S  S198  1  0.66666667  0.33333333  0.78036933  1
  S  S199  1  0.00000000  0.00000000  0.94703600  1
  S  S200  1  0.00000000  0.70092200  0.75000000  1
  S  S201  1  0.35501967  0.05381133  0.84970933  1
  S  S202  1  0.31164700  0.03212500  0.98362400  1
  S  S203  1  0.98536533  0.28560267  0.71396167  1
  S  S204  1  0.71439733  0.69976267  0.71396167  1
  S  S205  1  0.63454167  0.02168633  0.81695733  1
  S  S206  1  0.29907800  0.29907800  0.75000000  1
  S  S207  1  0.30023733  0.01463467  0.71396167  1
  S  S208  1  0.33333333  0.66666667  0.98964367  1
  S  S209  1  0.72047800  0.68835300  0.98362400  1
  S  S210  1  0.63357067  0.95226933  0.88062833  1
  S  S211  1  0.00000000  1.00000000  0.82297700  1
  S  S212  1  0.28560267  0.98536533  0.78603833  1
  S  S213  1  0.61285533  0.97831367  0.68304267  1
  S  S214  1  0.03425533  0.36758867  0.91666667  1
  S  S215  1  0.94618867  0.30120833  0.84970933  1
