# generated using pymatgen
data_Rb15Hg16
_symmetry_space_group_name_H-M   'P 1'
_cell_length_a   17.21313200
_cell_length_b   17.21313200
_cell_length_c   18.66550000
_cell_angle_alpha   90.00000000
_cell_angle_beta   90.00000000
_cell_angle_gamma   90.00000000
_symmetry_Int_Tables_number   1
_chemical_formula_structural   Rb15Hg16
_chemical_formula_sum   'Rb60 Hg64'
_cell_volume   5530.43670676
_cell_formula_units_Z   4
loop_
 _symmetry_equiv_pos_site_id
 _symmetry_equiv_pos_as_xyz
  1  'x, y, z'
loop_
 _atom_site_type_symbol
 _atom_site_label
 _atom_site_symmetry_multiplicity
 _atom_site_fract_x
 _atom_site_fract_y
 _atom_site_fract_z
 _atom_site_occupancy
  Rb  Rb0  1  0.23115700  0.22552400  0.28724500  1
  Rb  Rb1  1  0.51953350  0.74632150  0.45769850  1
  Rb  Rb2  1  0.22552400  0.26884300  0.53724500  1
  Rb  Rb3  1  0.24632150  0.48046650  0.20769850  1
  Rb  Rb4  1  0.47561150  0.27065050  0.23608050  1
  Rb  Rb5  1  0.97561150  0.27065050  0.51391950  1
  Rb  Rb6  1  0.27065050  0.52438850  0.76391950  1
  Rb  Rb7  1  0.00000000  0.00000000  0.24382100  1
  Rb  Rb8  1  0.00000000  0.00000000  0.00000000  1
  Rb  Rb9  1  0.27065050  0.02438850  0.48608050  1
  Rb  Rb10  1  0.98046650  0.25367850  0.29230150  1
  Rb  Rb11  1  0.00000000  0.00000000  0.75617900  1
  Rb  Rb12  1  0.26884300  0.77447600  0.46275500  1
  Rb  Rb13  1  0.26884300  0.27447600  0.78724500  1
  Rb  Rb14  1  0.23115700  0.72552400  0.96275500  1
  Rb  Rb15  1  0.52438850  0.22934950  0.01391950  1
  Rb  Rb16  1  0.00000000  0.50000000  0.49382100  1
  Rb  Rb17  1  0.02438850  0.22934950  0.73608050  1
  Rb  Rb18  1  0.24632150  0.98046650  0.04230150  1
  Rb  Rb19  1  0.77447600  0.23115700  0.71275500  1
  Rb  Rb20  1  0.48046650  0.25367850  0.45769850  1
  Rb  Rb21  1  0.00000000  0.50000000  0.00617900  1
  Rb  Rb22  1  0.22934950  0.47561150  0.98608050  1
  Rb  Rb23  1  0.00000000  0.50000000  0.25000000  1
  Rb  Rb24  1  0.72552400  0.26884300  0.21275500  1
  Rb  Rb25  1  0.27447600  0.23115700  0.03724500  1
  Rb  Rb26  1  0.25367850  0.01953350  0.70769850  1
  Rb  Rb27  1  0.22934950  0.97561150  0.26391950  1
  Rb  Rb28  1  0.51953350  0.24632150  0.79230150  1
  Rb  Rb29  1  0.75367850  0.01953350  0.04230150  1
  Rb  Rb30  1  0.73115700  0.72552400  0.78724500  1
  Rb  Rb31  1  0.01953350  0.24632150  0.95769850  1
  Rb  Rb32  1  0.72552400  0.76884300  0.03724500  1
  Rb  Rb33  1  0.74632150  0.98046650  0.70769850  1
  Rb  Rb34  1  0.97561150  0.77065050  0.73608050  1
  Rb  Rb35  1  0.47561150  0.77065050  0.01391950  1
  Rb  Rb36  1  0.77065050  0.02438850  0.26391950  1
  Rb  Rb37  1  0.50000000  0.50000000  0.74382100  1
  Rb  Rb38  1  0.50000000  0.50000000  0.50000000  1
  Rb  Rb39  1  0.77065050  0.52438850  0.98608050  1
  Rb  Rb40  1  0.48046650  0.75367850  0.79230150  1
  Rb  Rb41  1  0.50000000  0.50000000  0.25617900  1
  Rb  Rb42  1  0.76884300  0.27447600  0.96275500  1
  Rb  Rb43  1  0.76884300  0.77447600  0.28724500  1
  Rb  Rb44  1  0.73115700  0.22552400  0.46275500  1
  Rb  Rb45  1  0.02438850  0.72934950  0.51391950  1
  Rb  Rb46  1  0.50000000  0.00000000  0.99382100  1
  Rb  Rb47  1  0.52438850  0.72934950  0.23608050  1
  Rb  Rb48  1  0.74632150  0.48046650  0.54230150  1
  Rb  Rb49  1  0.27447600  0.73115700  0.21275500  1
  Rb  Rb50  1  0.98046650  0.75367850  0.95769850  1
  Rb  Rb51  1  0.50000000  0.00000000  0.50617900  1
  Rb  Rb52  1  0.72934950  0.97561150  0.48608050  1
  Rb  Rb53  1  0.50000000  0.00000000  0.75000000  1
  Rb  Rb54  1  0.22552400  0.76884300  0.71275500  1
  Rb  Rb55  1  0.77447600  0.73115700  0.53724500  1
  Rb  Rb56  1  0.75367850  0.51953350  0.20769850  1
  Rb  Rb57  1  0.72934950  0.47561150  0.76391950  1
  Rb  Rb58  1  0.01953350  0.74632150  0.29230150  1
  Rb  Rb59  1  0.25367850  0.51953350  0.54230150  1
  Hg  Hg60  1  0.15736300  0.41070700  0.38278700  1
  Hg  Hg61  1  0.58249400  0.09205300  0.17000700  1
  Hg  Hg62  1  0.41750600  0.40794700  0.07999300  1
  Hg  Hg63  1  0.09474350  0.83678150  0.12238750  1
  Hg  Hg64  1  0.08249400  0.09205300  0.57999300  1
  Hg  Hg65  1  0.34263700  0.58929300  0.36721300  1
  Hg  Hg66  1  0.08929300  0.15736300  0.13278700  1
  Hg  Hg67  1  0.91070700  0.34263700  0.11721300  1
  Hg  Hg68  1  0.65736300  0.41070700  0.36721300  1
  Hg  Hg69  1  0.59932400  0.91346600  0.16354200  1
  Hg  Hg70  1  0.33678150  0.40525650  0.37761250  1
  Hg  Hg71  1  0.90525650  0.16321850  0.12238750  1
  Hg  Hg72  1  0.41346600  0.90067600  0.33645800  1
  Hg  Hg73  1  0.09932400  0.91346600  0.58645800  1
  Hg  Hg74  1  0.84263700  0.58929300  0.38278700  1
  Hg  Hg75  1  0.40794700  0.08249400  0.32999300  1
  Hg  Hg76  1  0.08653400  0.09932400  0.41354200  1
  Hg  Hg77  1  0.58653400  0.09932400  0.33645800  1
  Hg  Hg78  1  0.41750600  0.90794700  0.17000700  1
  Hg  Hg79  1  0.66321850  0.59474350  0.37761250  1
  Hg  Hg80  1  0.40067600  0.08653400  0.16354200  1
  Hg  Hg81  1  0.16321850  0.59474350  0.37238750  1
  Hg  Hg82  1  0.09205300  0.91750600  0.42000700  1
  Hg  Hg83  1  0.41346600  0.40067600  0.91354200  1
  Hg  Hg84  1  0.08929300  0.65736300  0.11721300  1
  Hg  Hg85  1  0.40794700  0.58249400  0.92000700  1
  Hg  Hg86  1  0.09474350  0.33678150  0.12761250  1
  Hg  Hg87  1  0.83678150  0.40525650  0.37238750  1
  Hg  Hg88  1  0.59205300  0.91750600  0.32999300  1
  Hg  Hg89  1  0.40067600  0.58653400  0.08645800  1
  Hg  Hg90  1  0.91070700  0.84263700  0.13278700  1
  Hg  Hg91  1  0.90525650  0.66321850  0.12761250  1
  Hg  Hg92  1  0.65736300  0.91070700  0.88278700  1
  Hg  Hg93  1  0.08249400  0.59205300  0.67000700  1
  Hg  Hg94  1  0.91750600  0.90794700  0.57999300  1
  Hg  Hg95  1  0.59474350  0.33678150  0.62238750  1
  Hg  Hg96  1  0.58249400  0.59205300  0.07999300  1
  Hg  Hg97  1  0.84263700  0.08929300  0.86721300  1
  Hg  Hg98  1  0.58929300  0.65736300  0.63278700  1
  Hg  Hg99  1  0.41070700  0.84263700  0.61721300  1
  Hg  Hg100  1  0.15736300  0.91070700  0.86721300  1
  Hg  Hg101  1  0.09932400  0.41346600  0.66354200  1
  Hg  Hg102  1  0.83678150  0.90525650  0.87761250  1
  Hg  Hg103  1  0.40525650  0.66321850  0.62238750  1
  Hg  Hg104  1  0.91346600  0.40067600  0.83645800  1
  Hg  Hg105  1  0.59932400  0.41346600  0.08645800  1
  Hg  Hg106  1  0.34263700  0.08929300  0.88278700  1
  Hg  Hg107  1  0.90794700  0.58249400  0.82999300  1
  Hg  Hg108  1  0.58653400  0.59932400  0.91354200  1
  Hg  Hg109  1  0.08653400  0.59932400  0.83645800  1
  Hg  Hg110  1  0.91750600  0.40794700  0.67000700  1
  Hg  Hg111  1  0.16321850  0.09474350  0.87761250  1
  Hg  Hg112  1  0.90067600  0.58653400  0.66354200  1
  Hg  Hg113  1  0.66321850  0.09474350  0.87238750  1
  Hg  Hg114  1  0.59205300  0.41750600  0.92000700  1
  Hg  Hg115  1  0.91346600  0.90067600  0.41354200  1
  Hg  Hg116  1  0.58929300  0.15736300  0.61721300  1
  Hg  Hg117  1  0.90794700  0.08249400  0.42000700  1
  Hg  Hg118  1  0.59474350  0.83678150  0.62761250  1
  Hg  Hg119  1  0.33678150  0.90525650  0.87238750  1
  Hg  Hg120  1  0.09205300  0.41750600  0.82999300  1
  Hg  Hg121  1  0.90067600  0.08653400  0.58645800  1
  Hg  Hg122  1  0.41070700  0.34263700  0.63278700  1
  Hg  Hg123  1  0.40525650  0.16321850  0.62761250  1
