# generated using pymatgen
data_Ce2O3
_symmetry_space_group_name_H-M   'P 1'
_cell_length_a   11.10563000
_cell_length_b   11.10563000
_cell_length_c   11.10563000
_cell_angle_alpha   90.00000000
_cell_angle_beta   90.00000000
_cell_angle_gamma   90.00000000
_symmetry_Int_Tables_number   1
_chemical_formula_structural   Ce2O3
_chemical_formula_sum   'Ce32 O48'
_cell_volume   1369.71307259
_cell_formula_units_Z   16
loop_
 _symmetry_equiv_pos_site_id
 _symmetry_equiv_pos_as_xyz
  1  'x, y, z'
loop_
 _atom_site_type_symbol
 _atom_site_label
 _atom_site_symmetry_multiplicity
 _atom_site_fract_x
 _atom_site_fract_y
 _atom_site_fract_z
 _atom_site_occupancy
  Ce  Ce0  1  0.25000000  0.25000000  0.25000000  1
  Ce  Ce1  1  0.25000000  0.75000000  0.25000000  1
  Ce  Ce2  1  0.25000000  0.25000000  0.75000000  1
  Ce  Ce3  1  0.75000000  0.25000000  0.25000000  1
  Ce  Ce4  1  0.50000000  0.75000000  0.47856300  1
  Ce  Ce5  1  0.25000000  0.02143700  0.50000000  1
  Ce  Ce6  1  0.02143700  0.50000000  0.25000000  1
  Ce  Ce7  1  0.75000000  0.47856300  0.50000000  1
  Ce  Ce8  1  0.47856300  0.50000000  0.75000000  1
  Ce  Ce9  1  0.50000000  0.25000000  0.02143700  1
  Ce  Ce10  1  0.00000000  0.75000000  0.02143700  1
  Ce  Ce11  1  0.25000000  0.47856300  0.00000000  1
  Ce  Ce12  1  0.47856300  0.00000000  0.25000000  1
  Ce  Ce13  1  0.75000000  0.02143700  0.00000000  1
  Ce  Ce14  1  0.02143700  0.00000000  0.75000000  1
  Ce  Ce15  1  0.00000000  0.25000000  0.47856300  1
  Ce  Ce16  1  0.75000000  0.75000000  0.75000000  1
  Ce  Ce17  1  0.75000000  0.25000000  0.75000000  1
  Ce  Ce18  1  0.75000000  0.75000000  0.25000000  1
  Ce  Ce19  1  0.25000000  0.75000000  0.75000000  1
  Ce  Ce20  1  0.00000000  0.25000000  0.97856300  1
  Ce  Ce21  1  0.75000000  0.52143700  0.00000000  1
  Ce  Ce22  1  0.52143700  0.00000000  0.75000000  1
  Ce  Ce23  1  0.25000000  0.97856300  0.00000000  1
  Ce  Ce24  1  0.97856300  0.00000000  0.25000000  1
  Ce  Ce25  1  0.00000000  0.75000000  0.52143700  1
  Ce  Ce26  1  0.50000000  0.25000000  0.52143700  1
  Ce  Ce27  1  0.75000000  0.97856300  0.50000000  1
  Ce  Ce28  1  0.97856300  0.50000000  0.75000000  1
  Ce  Ce29  1  0.25000000  0.52143700  0.50000000  1
  Ce  Ce30  1  0.52143700  0.50000000  0.25000000  1
  Ce  Ce31  1  0.50000000  0.75000000  0.97856300  1
  O  O32  1  0.14536500  0.37772000  0.38692000  1
  O  O33  1  0.37772000  0.61308000  0.35463500  1
  O  O34  1  0.11308000  0.14536500  0.62228000  1
  O  O35  1  0.62228000  0.88692000  0.35463500  1
  O  O36  1  0.61308000  0.35463500  0.37772000  1
  O  O37  1  0.62228000  0.11308000  0.14536500  1
  O  O38  1  0.88692000  0.35463500  0.62228000  1
  O  O39  1  0.38692000  0.14536500  0.37772000  1
  O  O40  1  0.37772000  0.38692000  0.14536500  1
  O  O41  1  0.35463500  0.37772000  0.61308000  1
  O  O42  1  0.14536500  0.62228000  0.11308000  1
  O  O43  1  0.35463500  0.62228000  0.88692000  1
  O  O44  1  0.35463500  0.12228000  0.11308000  1
  O  O45  1  0.12228000  0.88692000  0.14536500  1
  O  O46  1  0.38692000  0.35463500  0.87772000  1
  O  O47  1  0.87772000  0.61308000  0.14536500  1
  O  O48  1  0.88692000  0.14536500  0.12228000  1
  O  O49  1  0.87772000  0.38692000  0.35463500  1
  O  O50  1  0.61308000  0.14536500  0.87772000  1
  O  O51  1  0.11308000  0.35463500  0.12228000  1
  O  O52  1  0.12228000  0.11308000  0.35463500  1
  O  O53  1  0.14536500  0.12228000  0.88692000  1
  O  O54  1  0.35463500  0.87772000  0.38692000  1
  O  O55  1  0.14536500  0.87772000  0.61308000  1
  O  O56  1  0.64536500  0.87772000  0.88692000  1
  O  O57  1  0.87772000  0.11308000  0.85463500  1
  O  O58  1  0.61308000  0.64536500  0.12228000  1
  O  O59  1  0.12228000  0.38692000  0.85463500  1
  O  O60  1  0.11308000  0.85463500  0.87772000  1
  O  O61  1  0.12228000  0.61308000  0.64536500  1
  O  O62  1  0.38692000  0.85463500  0.12228000  1
  O  O63  1  0.88692000  0.64536500  0.87772000  1
  O  O64  1  0.87772000  0.88692000  0.64536500  1
  O  O65  1  0.85463500  0.87772000  0.11308000  1
  O  O66  1  0.64536500  0.12228000  0.61308000  1
  O  O67  1  0.85463500  0.12228000  0.38692000  1
  O  O68  1  0.85463500  0.62228000  0.61308000  1
  O  O69  1  0.62228000  0.38692000  0.64536500  1
  O  O70  1  0.88692000  0.85463500  0.37772000  1
  O  O71  1  0.37772000  0.11308000  0.64536500  1
  O  O72  1  0.38692000  0.64536500  0.62228000  1
  O  O73  1  0.37772000  0.88692000  0.85463500  1
  O  O74  1  0.11308000  0.64536500  0.37772000  1
  O  O75  1  0.61308000  0.85463500  0.62228000  1
  O  O76  1  0.62228000  0.61308000  0.85463500  1
  O  O77  1  0.64536500  0.62228000  0.38692000  1
  O  O78  1  0.85463500  0.37772000  0.88692000  1
  O  O79  1  0.64536500  0.37772000  0.11308000  1
