# generated using pymatgen
data_Ni(BO2)2
_symmetry_space_group_name_H-M   'P 1'
_cell_length_a   9.33956377
_cell_length_b   5.58424165
_cell_length_c   4.45754865
_cell_angle_alpha   90.00000000
_cell_angle_beta   108.20070531
_cell_angle_gamma   90.00000000
_symmetry_Int_Tables_number   1
_chemical_formula_structural   Ni(BO2)2
_chemical_formula_sum   'Ni4 B8 O16'
_cell_volume   220.84926442
_cell_formula_units_Z   4
loop_
 _symmetry_equiv_pos_site_id
 _symmetry_equiv_pos_as_xyz
  1  'x, y, z'
loop_
 _atom_site_type_symbol
 _atom_site_label
 _atom_site_symmetry_multiplicity
 _atom_site_fract_x
 _atom_site_fract_y
 _atom_site_fract_z
 _atom_site_occupancy
  Ni  Ni0  1  0.00000000  0.34538100  0.25000000  1
  Ni  Ni1  1  0.00000000  0.65461900  0.75000000  1
  Ni  Ni2  1  0.50000000  0.84538100  0.25000000  1
  Ni  Ni3  1  0.50000000  0.15461900  0.75000000  1
  B  B4  1  0.68527050  0.60744050  0.87242650  1
  B  B5  1  0.31472950  0.60744050  0.62757350  1
  B  B6  1  0.31472950  0.39255950  0.12757350  1
  B  B7  1  0.68527050  0.39255950  0.37242650  1
  B  B8  1  0.18527050  0.10744050  0.87242650  1
  B  B9  1  0.81472950  0.10744050  0.62757350  1
  B  B10  1  0.81472950  0.89255950  0.12757350  1
  B  B11  1  0.18527050  0.89255950  0.37242650  1
  O  O12  1  0.14440250  0.34981750  0.98039400  1
  O  O13  1  0.85559750  0.65018250  0.01960600  1
  O  O14  1  0.85559750  0.34981750  0.51960600  1
  O  O15  1  0.14440250  0.65018250  0.48039400  1
  O  O16  1  0.36258500  0.41031200  0.46899550  1
  O  O17  1  0.63741500  0.41031200  0.03100450  1
  O  O18  1  0.36258500  0.58968800  0.96899550  1
  O  O19  1  0.63741500  0.58968800  0.53100450  1
  O  O20  1  0.64440250  0.84981750  0.98039400  1
  O  O21  1  0.35559750  0.15018250  0.01960600  1
  O  O22  1  0.35559750  0.84981750  0.51960600  1
  O  O23  1  0.64440250  0.15018250  0.48039400  1
  O  O24  1  0.86258500  0.91031200  0.46899550  1
  O  O25  1  0.13741500  0.91031200  0.03100450  1
  O  O26  1  0.86258500  0.08968800  0.96899550  1
  O  O27  1  0.13741500  0.08968800  0.53100450  1
