# generated using pymatgen
data_LaMn7O12
_symmetry_space_group_name_H-M   'P 1'
_cell_length_a   7.59144800
_cell_length_b   7.59144800
_cell_length_c   7.59144800
_cell_angle_alpha   90.00000000
_cell_angle_beta   90.00000000
_cell_angle_gamma   90.00000000
_symmetry_Int_Tables_number   1
_chemical_formula_structural   LaMn7O12
_chemical_formula_sum   'La2 Mn14 O24'
_cell_volume   437.49577633
_cell_formula_units_Z   2
loop_
 _symmetry_equiv_pos_site_id
 _symmetry_equiv_pos_as_xyz
  1  'x, y, z'
loop_
 _atom_site_type_symbol
 _atom_site_label
 _atom_site_symmetry_multiplicity
 _atom_site_fract_x
 _atom_site_fract_y
 _atom_site_fract_z
 _atom_site_occupancy
  La  La0  1  0.00000000  0.00000000  0.00000000  1
  La  La1  1  0.50000000  0.50000000  0.50000000  1
  Mn  Mn2  1  0.25000000  0.75000000  0.25000000  1
  Mn  Mn3  1  0.75000000  0.25000000  0.25000000  1
  Mn  Mn4  1  0.25000000  0.25000000  0.75000000  1
  Mn  Mn5  1  0.50000000  0.00000000  0.00000000  1
  Mn  Mn6  1  0.25000000  0.25000000  0.25000000  1
  Mn  Mn7  1  0.00000000  0.00000000  0.50000000  1
  Mn  Mn8  1  0.00000000  0.50000000  0.00000000  1
  Mn  Mn9  1  0.75000000  0.25000000  0.75000000  1
  Mn  Mn10  1  0.25000000  0.75000000  0.75000000  1
  Mn  Mn11  1  0.75000000  0.75000000  0.25000000  1
  Mn  Mn12  1  0.00000000  0.50000000  0.50000000  1
  Mn  Mn13  1  0.75000000  0.75000000  0.75000000  1
  Mn  Mn14  1  0.50000000  0.50000000  0.00000000  1
  Mn  Mn15  1  0.50000000  0.00000000  0.50000000  1
  O  O16  1  0.50000000  0.32458600  0.19192300  1
  O  O17  1  0.32458600  0.80807700  0.50000000  1
  O  O18  1  0.69192300  0.00000000  0.17541400  1
  O  O19  1  0.00000000  0.17541400  0.69192300  1
  O  O20  1  0.17541400  0.30807700  0.00000000  1
  O  O21  1  0.80807700  0.50000000  0.32458600  1
  O  O22  1  0.19192300  0.50000000  0.32458600  1
  O  O23  1  0.32458600  0.19192300  0.50000000  1
  O  O24  1  0.17541400  0.69192300  0.00000000  1
  O  O25  1  0.00000000  0.17541400  0.30807700  1
  O  O26  1  0.30807700  0.00000000  0.17541400  1
  O  O27  1  0.50000000  0.32458600  0.80807700  1
  O  O28  1  0.00000000  0.82458600  0.69192300  1
  O  O29  1  0.82458600  0.30807700  0.00000000  1
  O  O30  1  0.19192300  0.50000000  0.67541400  1
  O  O31  1  0.50000000  0.67541400  0.19192300  1
  O  O32  1  0.67541400  0.80807700  0.50000000  1
  O  O33  1  0.30807700  0.00000000  0.82458600  1
  O  O34  1  0.69192300  0.00000000  0.82458600  1
  O  O35  1  0.82458600  0.69192300  0.00000000  1
  O  O36  1  0.67541400  0.19192300  0.50000000  1
  O  O37  1  0.50000000  0.67541400  0.80807700  1
  O  O38  1  0.80807700  0.50000000  0.67541400  1
  O  O39  1  0.00000000  0.82458600  0.30807700  1
