# generated using pymatgen
data_Li2Cr(PO3)4
_symmetry_space_group_name_H-M   'P 1'
_cell_length_a   9.18814400
_cell_length_b   14.31049200
_cell_length_c   7.46071743
_cell_angle_alpha   90.00000000
_cell_angle_beta   93.02481055
_cell_angle_gamma   90.00000000
_symmetry_Int_Tables_number   1
_chemical_formula_structural   Li2Cr(PO3)4
_chemical_formula_sum   'Li8 Cr4 P16 O48'
_cell_volume   979.61958625
_cell_formula_units_Z   4
loop_
 _symmetry_equiv_pos_site_id
 _symmetry_equiv_pos_as_xyz
  1  'x, y, z'
loop_
 _atom_site_type_symbol
 _atom_site_label
 _atom_site_symmetry_multiplicity
 _atom_site_fract_x
 _atom_site_fract_y
 _atom_site_fract_z
 _atom_site_occupancy
  Li  Li0  1  0.33874100  0.15874700  0.31250400  1
  Li  Li1  1  0.66125900  0.84125300  0.68749600  1
  Li  Li2  1  0.66125900  0.15874700  0.18749600  1
  Li  Li3  1  0.33874100  0.84125300  0.81250400  1
  Li  Li4  1  0.83874100  0.65874700  0.31250400  1
  Li  Li5  1  0.16125900  0.34125300  0.68749600  1
  Li  Li6  1  0.16125900  0.65874700  0.18749600  1
  Li  Li7  1  0.83874100  0.34125300  0.81250400  1
  Cr  Cr8  1  0.50000000  0.37136200  0.75000000  1
  Cr  Cr9  1  0.50000000  0.62863800  0.25000000  1
  Cr  Cr10  1  0.00000000  0.87136200  0.75000000  1
  Cr  Cr11  1  0.00000000  0.12863800  0.25000000  1
  P  P12  1  0.60804250  0.17046650  0.61321200  1
  P  P13  1  0.84998950  0.92154250  0.31653500  1
  P  P14  1  0.15001050  0.92154250  0.18346500  1
  P  P15  1  0.15001050  0.07845750  0.68346500  1
  P  P16  1  0.39195750  0.82953350  0.38678800  1
  P  P17  1  0.39195750  0.17046650  0.88678800  1
  P  P18  1  0.60804250  0.82953350  0.11321200  1
  P  P19  1  0.84998950  0.07845750  0.81653500  1
  P  P20  1  0.10804250  0.67046650  0.61321200  1
  P  P21  1  0.34998950  0.42154250  0.31653500  1
  P  P22  1  0.65001050  0.42154250  0.18346500  1
  P  P23  1  0.65001050  0.57845750  0.68346500  1
  P  P24  1  0.89195750  0.32953350  0.38678800  1
  P  P25  1  0.89195750  0.67046650  0.88678800  1
  P  P26  1  0.10804250  0.32953350  0.11321200  1
  P  P27  1  0.34998950  0.57845750  0.81653500  1
  O  O28  1  0.35255600  0.26819400  0.82025000  1
  O  O29  1  0.85972650  0.97360650  0.82523200  1
  O  O30  1  0.14027350  0.02639350  0.17476800  1
  O  O31  1  0.14027350  0.97360650  0.67476800  1
  O  O32  1  0.19375750  0.86844650  0.02194200  1
  O  O33  1  0.19375750  0.13155350  0.52194200  1
  O  O34  1  0.25486800  0.89690800  0.35787800  1
  O  O35  1  0.25486800  0.10309200  0.85787800  1
  O  O36  1  0.35255600  0.73180600  0.32025000  1
  O  O37  1  0.50000000  0.62240700  0.75000000  1
  O  O38  1  0.45283200  0.15812500  0.07512800  1
  O  O39  1  0.50000000  0.87738600  0.25000000  1
  O  O40  1  0.50000000  0.37759300  0.25000000  1
  O  O41  1  0.80624250  0.13155350  0.97805800  1
  O  O42  1  0.54716800  0.15812500  0.42487200  1
  O  O43  1  0.85972650  0.02639350  0.32523200  1
  O  O44  1  0.50000000  0.12261400  0.75000000  1
  O  O45  1  0.54716800  0.84187500  0.92487200  1
  O  O46  1  0.64744400  0.73180600  0.17975000  1
  O  O47  1  0.64744400  0.26819400  0.67975000  1
  O  O48  1  0.74513200  0.89690800  0.14212200  1
  O  O49  1  0.74513200  0.10309200  0.64212200  1
  O  O50  1  0.80624250  0.86844650  0.47805800  1
  O  O51  1  0.45283200  0.84187500  0.57512800  1
  O  O52  1  0.85255600  0.76819400  0.82025000  1
  O  O53  1  0.35972650  0.47360650  0.82523200  1
  O  O54  1  0.64027350  0.52639350  0.17476800  1
  O  O55  1  0.64027350  0.47360650  0.67476800  1
  O  O56  1  0.69375750  0.36844650  0.02194200  1
  O  O57  1  0.69375750  0.63155350  0.52194200  1
  O  O58  1  0.75486800  0.39690800  0.35787800  1
  O  O59  1  0.75486800  0.60309200  0.85787800  1
  O  O60  1  0.85255600  0.23180600  0.32025000  1
  O  O61  1  0.00000000  0.12240700  0.75000000  1
  O  O62  1  0.95283200  0.65812500  0.07512800  1
  O  O63  1  0.00000000  0.37738600  0.25000000  1
  O  O64  1  0.00000000  0.87759300  0.25000000  1
  O  O65  1  0.30624250  0.63155350  0.97805800  1
  O  O66  1  0.04716800  0.65812500  0.42487200  1
  O  O67  1  0.35972650  0.52639350  0.32523200  1
  O  O68  1  0.00000000  0.62261400  0.75000000  1
  O  O69  1  0.04716800  0.34187500  0.92487200  1
  O  O70  1  0.14744400  0.23180600  0.17975000  1
  O  O71  1  0.14744400  0.76819400  0.67975000  1
  O  O72  1  0.24513200  0.39690800  0.14212200  1
  O  O73  1  0.24513200  0.60309200  0.64212200  1
  O  O74  1  0.30624250  0.36844650  0.47805800  1
  O  O75  1  0.95283200  0.34187500  0.57512800  1
