# generated using pymatgen
data_Tb4Bi3
_symmetry_space_group_name_H-M   'P 1'
_cell_length_a   9.43567800
_cell_length_b   9.43567800
_cell_length_c   9.43567800
_cell_angle_alpha   90.00000000
_cell_angle_beta   90.00000000
_cell_angle_gamma   90.00000000
_symmetry_Int_Tables_number   1
_chemical_formula_structural   Tb4Bi3
_chemical_formula_sum   'Tb16 Bi12'
_cell_volume   840.07746599
_cell_formula_units_Z   4
loop_
 _symmetry_equiv_pos_site_id
 _symmetry_equiv_pos_as_xyz
  1  'x, y, z'
loop_
 _atom_site_type_symbol
 _atom_site_label
 _atom_site_symmetry_multiplicity
 _atom_site_fract_x
 _atom_site_fract_y
 _atom_site_fract_z
 _atom_site_occupancy
  Tb  Tb0  1  0.92644650  0.42644650  0.07355350  1
  Tb  Tb1  1  0.17644650  0.67644650  0.82355350  1
  Tb  Tb2  1  0.32355350  0.32355350  0.32355350  1
  Tb  Tb3  1  0.42644650  0.07355350  0.92644650  1
  Tb  Tb4  1  0.07355350  0.07355350  0.07355350  1
  Tb  Tb5  1  0.82355350  0.17644650  0.67644650  1
  Tb  Tb6  1  0.67644650  0.82355350  0.17644650  1
  Tb  Tb7  1  0.07355350  0.92644650  0.42644650  1
  Tb  Tb8  1  0.42644650  0.92644650  0.57355350  1
  Tb  Tb9  1  0.67644650  0.17644650  0.32355350  1
  Tb  Tb10  1  0.82355350  0.82355350  0.82355350  1
  Tb  Tb11  1  0.92644650  0.57355350  0.42644650  1
  Tb  Tb12  1  0.57355350  0.57355350  0.57355350  1
  Tb  Tb13  1  0.32355350  0.67644650  0.17644650  1
  Tb  Tb14  1  0.17644650  0.32355350  0.67644650  1
  Tb  Tb15  1  0.57355350  0.42644650  0.92644650  1
  Bi  Bi16  1  0.75000000  0.12500000  0.00000000  1
  Bi  Bi17  1  0.00000000  0.75000000  0.12500000  1
  Bi  Bi18  1  0.00000000  0.25000000  0.37500000  1
  Bi  Bi19  1  0.25000000  0.37500000  0.00000000  1
  Bi  Bi20  1  0.12500000  0.00000000  0.75000000  1
  Bi  Bi21  1  0.37500000  0.00000000  0.25000000  1
  Bi  Bi22  1  0.25000000  0.62500000  0.50000000  1
  Bi  Bi23  1  0.50000000  0.25000000  0.62500000  1
  Bi  Bi24  1  0.50000000  0.75000000  0.87500000  1
  Bi  Bi25  1  0.75000000  0.87500000  0.50000000  1
  Bi  Bi26  1  0.62500000  0.50000000  0.25000000  1
  Bi  Bi27  1  0.87500000  0.50000000  0.75000000  1
