# generated using pymatgen
data_HoGe2Pt
_symmetry_space_group_name_H-M   'P 1'
_cell_length_a   4.32280800
_cell_length_b   8.76965600
_cell_length_c   16.52714800
_cell_angle_alpha   90.00000000
_cell_angle_beta   90.00000000
_cell_angle_gamma   90.00000000
_symmetry_Int_Tables_number   1
_chemical_formula_structural   HoGe2Pt
_chemical_formula_sum   'Ho8 Ge16 Pt8'
_cell_volume   626.53656355
_cell_formula_units_Z   8
loop_
 _symmetry_equiv_pos_site_id
 _symmetry_equiv_pos_as_xyz
  1  'x, y, z'
loop_
 _atom_site_type_symbol
 _atom_site_label
 _atom_site_symmetry_multiplicity
 _atom_site_fract_x
 _atom_site_fract_y
 _atom_site_fract_z
 _atom_site_occupancy
  Ho  Ho0  1  0.00000000  0.73585800  0.00000000  1
  Ho  Ho1  1  0.50000000  0.00000000  0.70048600  1
  Ho  Ho2  1  0.00000000  0.50000000  0.79951400  1
  Ho  Ho3  1  0.00000000  0.26414200  0.00000000  1
  Ho  Ho4  1  0.50000000  0.23585800  0.50000000  1
  Ho  Ho5  1  0.00000000  0.50000000  0.20048600  1
  Ho  Ho6  1  0.50000000  0.00000000  0.29951400  1
  Ho  Ho7  1  0.50000000  0.76414200  0.50000000  1
  Ge  Ge8  1  0.00000000  0.84972050  0.79856850  1
  Ge  Ge9  1  0.50000000  0.00000000  0.92694700  1
  Ge  Ge10  1  0.50000000  0.34972050  0.70143150  1
  Ge  Ge11  1  0.50000000  0.65027950  0.70143150  1
  Ge  Ge12  1  0.00000000  0.15027950  0.79856850  1
  Ge  Ge13  1  0.50000000  0.50000000  0.92611300  1
  Ge  Ge14  1  0.00000000  0.50000000  0.57305300  1
  Ge  Ge15  1  0.00000000  0.00000000  0.57388700  1
  Ge  Ge16  1  0.50000000  0.34972050  0.29856850  1
  Ge  Ge17  1  0.00000000  0.50000000  0.42694700  1
  Ge  Ge18  1  0.00000000  0.84972050  0.20143150  1
  Ge  Ge19  1  0.00000000  0.15027950  0.20143150  1
  Ge  Ge20  1  0.50000000  0.65027950  0.29856850  1
  Ge  Ge21  1  0.00000000  0.00000000  0.42611300  1
  Ge  Ge22  1  0.50000000  0.00000000  0.07305300  1
  Ge  Ge23  1  0.50000000  0.50000000  0.07388700  1
  Pt  Pt24  1  0.00000000  0.74913600  0.64729000  1
  Pt  Pt25  1  0.50000000  0.75086400  0.85271000  1
  Pt  Pt26  1  0.00000000  0.25086400  0.64729000  1
  Pt  Pt27  1  0.50000000  0.24913600  0.85271000  1
  Pt  Pt28  1  0.50000000  0.24913600  0.14729000  1
  Pt  Pt29  1  0.00000000  0.25086400  0.35271000  1
  Pt  Pt30  1  0.50000000  0.75086400  0.14729000  1
  Pt  Pt31  1  0.00000000  0.74913600  0.35271000  1
