# generated using pymatgen
data_CrMoF6
_symmetry_space_group_name_H-M   'P 1'
_cell_length_a   5.24632752
_cell_length_b   5.24632752
_cell_length_c   14.06678936
_cell_angle_alpha   90.00000000
_cell_angle_beta   90.00000000
_cell_angle_gamma   120.00000000
_symmetry_Int_Tables_number   1
_chemical_formula_structural   CrMoF6
_chemical_formula_sum   'Cr3 Mo3 F18'
_cell_volume   335.30220943
_cell_formula_units_Z   3
loop_
 _symmetry_equiv_pos_site_id
 _symmetry_equiv_pos_as_xyz
  1  'x, y, z'
loop_
 _atom_site_type_symbol
 _atom_site_label
 _atom_site_symmetry_multiplicity
 _atom_site_fract_x
 _atom_site_fract_y
 _atom_site_fract_z
 _atom_site_occupancy
  Cr  Cr0  1  0.00000000  0.00000000  0.00000000  1
  Cr  Cr1  1  0.66666667  0.33333333  0.33333333  1
  Cr  Cr2  1  0.33333333  0.66666667  0.66666667  1
  Mo  Mo3  1  0.33333333  0.66666667  0.16666667  1
  Mo  Mo4  1  1.00000000  0.00000000  0.50000000  1
  Mo  Mo5  1  0.66666667  0.33333333  0.83333333  1
  F  F6  1  0.38052700  0.36515800  0.25306100  1
  F  F7  1  0.28613967  0.96817533  0.08027233  1
  F  F8  1  0.03182467  0.31796433  0.08027233  1
  F  F9  1  0.63484200  0.01536900  0.25306100  1
  F  F10  1  0.98463100  0.61947300  0.25306100  1
  F  F11  1  0.68203567  0.71386033  0.08027233  1
  F  F12  1  0.04719367  0.69849133  0.58639433  1
  F  F13  1  0.95280633  0.30150867  0.41360567  1
  F  F14  1  0.69849133  0.65129767  0.41360567  1
  F  F15  1  0.30150867  0.34870233  0.58639433  1
  F  F16  1  0.65129767  0.95280633  0.58639433  1
  F  F17  1  0.34870233  0.04719367  0.41360567  1
  F  F18  1  0.71386033  0.03182467  0.91972767  1
  F  F19  1  0.61947300  0.63484200  0.74693900  1
  F  F20  1  0.36515800  0.98463100  0.74693900  1
  F  F21  1  0.96817533  0.68203567  0.91972767  1
  F  F22  1  0.31796433  0.28613967  0.91972767  1
  F  F23  1  0.01536900  0.38052700  0.74693900  1
