# generated using pymatgen
data_Bi2Te2WO10
_symmetry_space_group_name_H-M   'P 1'
_cell_length_a   12.68642600
_cell_length_b   5.70772200
_cell_length_c   12.48141853
_cell_angle_alpha   90.00000000
_cell_angle_beta   91.23864638
_cell_angle_gamma   90.00000000
_symmetry_Int_Tables_number   1
_chemical_formula_structural   Bi2Te2WO10
_chemical_formula_sum   'Bi8 Te8 W4 O40'
_cell_volume   903.57572685
_cell_formula_units_Z   4
loop_
 _symmetry_equiv_pos_site_id
 _symmetry_equiv_pos_as_xyz
  1  'x, y, z'
loop_
 _atom_site_type_symbol
 _atom_site_label
 _atom_site_symmetry_multiplicity
 _atom_site_fract_x
 _atom_site_fract_y
 _atom_site_fract_z
 _atom_site_occupancy
  Bi  Bi0  1  0.59103200  0.25806400  0.54327100  1
  Bi  Bi1  1  0.59103200  0.74193600  0.04327100  1
  Bi  Bi2  1  0.90896800  0.75806400  0.95672900  1
  Bi  Bi3  1  0.90896800  0.24193600  0.45672900  1
  Bi  Bi4  1  0.09103200  0.75806400  0.54327100  1
  Bi  Bi5  1  0.09103200  0.24193600  0.04327100  1
  Bi  Bi6  1  0.40896800  0.25806400  0.95672900  1
  Bi  Bi7  1  0.40896800  0.74193600  0.45672900  1
  Te  Te8  1  0.80925550  0.73305450  0.64089100  1
  Te  Te9  1  0.69074450  0.76694550  0.35910900  1
  Te  Te10  1  0.80925550  0.26694550  0.14089100  1
  Te  Te11  1  0.69074450  0.23305450  0.85910900  1
  Te  Te12  1  0.30925550  0.23305450  0.64089100  1
  Te  Te13  1  0.19074450  0.26694550  0.35910900  1
  Te  Te14  1  0.30925550  0.76694550  0.14089100  1
  Te  Te15  1  0.19074450  0.73305450  0.85910900  1
  W  W16  1  0.00000000  0.82345300  0.25000000  1
  W  W17  1  0.00000000  0.17654700  0.75000000  1
  W  W18  1  0.50000000  0.32345300  0.25000000  1
  W  W19  1  0.50000000  0.67654700  0.75000000  1
  O  O20  1  0.57520750  0.10422150  0.93863600  1
  O  O21  1  0.57520750  0.89577850  0.43863600  1
  O  O22  1  0.50075950  0.59249750  0.90103000  1
  O  O23  1  0.88524500  0.88717500  0.75524300  1
  O  O24  1  0.78287450  0.99973650  0.54875700  1
  O  O25  1  0.61475500  0.61282500  0.24475700  1
  O  O26  1  0.99924050  0.90750250  0.09897000  1
  O  O27  1  0.50075950  0.40750250  0.40103000  1
  O  O28  1  0.71712550  0.50026350  0.45124300  1
  O  O29  1  0.88524500  0.11282500  0.25524300  1
  O  O30  1  0.88912350  0.62347550  0.25603700  1
  O  O31  1  0.61087650  0.87652450  0.74396300  1
  O  O32  1  0.92479250  0.39577850  0.06136400  1
  O  O33  1  0.78287450  0.00026350  0.04875700  1
  O  O34  1  0.61475500  0.38717500  0.74475700  1
  O  O35  1  0.61087650  0.12347550  0.24396300  1
  O  O36  1  0.71712550  0.49973650  0.95124300  1
  O  O37  1  0.99924050  0.09249750  0.59897000  1
  O  O38  1  0.92479250  0.60422150  0.56136400  1
  O  O39  1  0.88912350  0.37652450  0.75603700  1
  O  O40  1  0.07520750  0.60422150  0.93863600  1
  O  O41  1  0.07520750  0.39577850  0.43863600  1
  O  O42  1  0.00075950  0.09249750  0.90103000  1
  O  O43  1  0.38524500  0.38717500  0.75524300  1
  O  O44  1  0.28287450  0.49973650  0.54875700  1
  O  O45  1  0.11475500  0.11282500  0.24475700  1
  O  O46  1  0.49924050  0.40750250  0.09897000  1
  O  O47  1  0.00075950  0.90750250  0.40103000  1
  O  O48  1  0.21712550  0.00026350  0.45124300  1
  O  O49  1  0.38524500  0.61282500  0.25524300  1
  O  O50  1  0.38912350  0.12347550  0.25603700  1
  O  O51  1  0.11087650  0.37652450  0.74396300  1
  O  O52  1  0.42479250  0.89577850  0.06136400  1
  O  O53  1  0.28287450  0.50026350  0.04875700  1
  O  O54  1  0.11475500  0.88717500  0.74475700  1
  O  O55  1  0.11087650  0.62347550  0.24396300  1
  O  O56  1  0.21712550  0.99973650  0.95124300  1
  O  O57  1  0.49924050  0.59249750  0.59897000  1
  O  O58  1  0.42479250  0.10422150  0.56136400  1
  O  O59  1  0.38912350  0.87652450  0.75603700  1
