# generated using pymatgen
data_Ce5Ga3
_symmetry_space_group_name_H-M   'P 1'
_cell_length_a   12.01604400
_cell_length_b   12.01604400
_cell_length_c   5.63292800
_cell_angle_alpha   90.00000000
_cell_angle_beta   90.00000000
_cell_angle_gamma   90.00000000
_symmetry_Int_Tables_number   1
_chemical_formula_structural   Ce5Ga3
_chemical_formula_sum   'Ce20 Ga12'
_cell_volume   813.31207470
_cell_formula_units_Z   4
loop_
 _symmetry_equiv_pos_site_id
 _symmetry_equiv_pos_as_xyz
  1  'x, y, z'
loop_
 _atom_site_type_symbol
 _atom_site_label
 _atom_site_symmetry_multiplicity
 _atom_site_fract_x
 _atom_site_fract_y
 _atom_site_fract_z
 _atom_site_occupancy
  Ce  Ce0  1  0.50000000  0.00000000  0.75000000  1
  Ce  Ce1  1  0.50000000  0.00000000  0.25000000  1
  Ce  Ce2  1  0.22412200  0.91793900  0.50000000  1
  Ce  Ce3  1  0.58206100  0.72412200  0.00000000  1
  Ce  Ce4  1  0.41793900  0.27587800  0.00000000  1
  Ce  Ce5  1  0.77587800  0.08206100  0.50000000  1
  Ce  Ce6  1  0.41793900  0.72412200  0.50000000  1
  Ce  Ce7  1  0.58206100  0.27587800  0.50000000  1
  Ce  Ce8  1  0.22412200  0.08206100  0.00000000  1
  Ce  Ce9  1  0.77587800  0.91793900  0.00000000  1
  Ce  Ce10  1  0.00000000  0.50000000  0.25000000  1
  Ce  Ce11  1  0.00000000  0.50000000  0.75000000  1
  Ce  Ce12  1  0.72412200  0.41793900  0.00000000  1
  Ce  Ce13  1  0.08206100  0.22412200  0.50000000  1
  Ce  Ce14  1  0.91793900  0.77587800  0.50000000  1
  Ce  Ce15  1  0.27587800  0.58206100  0.00000000  1
  Ce  Ce16  1  0.91793900  0.22412200  0.00000000  1
  Ce  Ce17  1  0.08206100  0.77587800  0.00000000  1
  Ce  Ce18  1  0.72412200  0.58206100  0.50000000  1
  Ce  Ce19  1  0.27587800  0.41793900  0.50000000  1
  Ga  Ga20  1  0.00000000  0.00000000  0.75000000  1
  Ga  Ga21  1  0.00000000  0.00000000  0.25000000  1
  Ga  Ga22  1  0.66304100  0.83695900  0.50000000  1
  Ga  Ga23  1  0.66304100  0.16304100  0.00000000  1
  Ga  Ga24  1  0.33695900  0.83695900  0.00000000  1
  Ga  Ga25  1  0.33695900  0.16304100  0.50000000  1
  Ga  Ga26  1  0.50000000  0.50000000  0.25000000  1
  Ga  Ga27  1  0.50000000  0.50000000  0.75000000  1
  Ga  Ga28  1  0.16304100  0.33695900  0.00000000  1
  Ga  Ga29  1  0.16304100  0.66304100  0.50000000  1
  Ga  Ga30  1  0.83695900  0.33695900  0.50000000  1
  Ga  Ga31  1  0.83695900  0.66304100  0.00000000  1
