# generated using pymatgen
data_Sm4MgRh
_symmetry_space_group_name_H-M   'P 1'
_cell_length_a   13.99979200
_cell_length_b   13.99979200
_cell_length_c   13.99979200
_cell_angle_alpha   90.00000000
_cell_angle_beta   90.00000000
_cell_angle_gamma   90.00000000
_symmetry_Int_Tables_number   1
_chemical_formula_structural   Sm4MgRh
_chemical_formula_sum   'Sm64 Mg16 Rh16'
_cell_volume   2743.87769782
_cell_formula_units_Z   16
loop_
 _symmetry_equiv_pos_site_id
 _symmetry_equiv_pos_as_xyz
  1  'x, y, z'
loop_
 _atom_site_type_symbol
 _atom_site_label
 _atom_site_symmetry_multiplicity
 _atom_site_fract_x
 _atom_site_fract_y
 _atom_site_fract_z
 _atom_site_occupancy
  Sm  Sm0  1  0.81423800  0.00000000  0.00000000  1
  Sm  Sm1  1  0.50000000  0.00000000  0.31423800  1
  Sm  Sm2  1  0.43790700  0.25000000  0.75000000  1
  Sm  Sm3  1  0.25000000  0.06209300  0.75000000  1
  Sm  Sm4  1  0.00000000  0.18576200  0.00000000  1
  Sm  Sm5  1  0.90315800  0.40315800  0.90315800  1
  Sm  Sm6  1  0.50000000  0.00000000  0.68576200  1
  Sm  Sm7  1  0.50000000  0.31423800  0.00000000  1
  Sm  Sm8  1  0.06209300  0.25000000  0.75000000  1
  Sm  Sm9  1  0.25000000  0.25000000  0.93790700  1
  Sm  Sm10  1  0.18576200  0.00000000  0.00000000  1
  Sm  Sm11  1  0.25000000  0.25000000  0.56209300  1
  Sm  Sm12  1  0.40315800  0.09684200  0.09684200  1
  Sm  Sm13  1  0.59684200  0.09684200  0.90315800  1
  Sm  Sm14  1  0.09684200  0.40315800  0.09684200  1
  Sm  Sm15  1  0.25000000  0.43790700  0.75000000  1
  Sm  Sm16  1  0.81423800  0.50000000  0.50000000  1
  Sm  Sm17  1  0.50000000  0.50000000  0.81423800  1
  Sm  Sm18  1  0.43790700  0.75000000  0.25000000  1
  Sm  Sm19  1  0.25000000  0.56209300  0.25000000  1
  Sm  Sm20  1  0.00000000  0.68576200  0.50000000  1
  Sm  Sm21  1  0.90315800  0.90315800  0.40315800  1
  Sm  Sm22  1  0.50000000  0.50000000  0.18576200  1
  Sm  Sm23  1  0.50000000  0.81423800  0.50000000  1
  Sm  Sm24  1  0.06209300  0.75000000  0.25000000  1
  Sm  Sm25  1  0.25000000  0.75000000  0.43790700  1
  Sm  Sm26  1  0.18576200  0.50000000  0.50000000  1
  Sm  Sm27  1  0.25000000  0.75000000  0.06209300  1
  Sm  Sm28  1  0.40315800  0.59684200  0.59684200  1
  Sm  Sm29  1  0.59684200  0.59684200  0.40315800  1
  Sm  Sm30  1  0.09684200  0.90315800  0.59684200  1
  Sm  Sm31  1  0.25000000  0.93790700  0.25000000  1
  Sm  Sm32  1  0.31423800  0.00000000  0.50000000  1
  Sm  Sm33  1  0.00000000  0.00000000  0.81423800  1
  Sm  Sm34  1  0.93790700  0.25000000  0.25000000  1
  Sm  Sm35  1  0.75000000  0.06209300  0.25000000  1
  Sm  Sm36  1  0.50000000  0.18576200  0.50000000  1
  Sm  Sm37  1  0.40315800  0.40315800  0.40315800  1
  Sm  Sm38  1  0.00000000  0.00000000  0.18576200  1
  Sm  Sm39  1  0.00000000  0.31423800  0.50000000  1
  Sm  Sm40  1  0.56209300  0.25000000  0.25000000  1
  Sm  Sm41  1  0.75000000  0.25000000  0.43790700  1
  Sm  Sm42  1  0.68576200  0.00000000  0.50000000  1
  Sm  Sm43  1  0.75000000  0.25000000  0.06209300  1
  Sm  Sm44  1  0.90315800  0.09684200  0.59684200  1
  Sm  Sm45  1  0.09684200  0.09684200  0.40315800  1
  Sm  Sm46  1  0.59684200  0.40315800  0.59684200  1
  Sm  Sm47  1  0.75000000  0.43790700  0.25000000  1
  Sm  Sm48  1  0.31423800  0.50000000  0.00000000  1
  Sm  Sm49  1  0.00000000  0.50000000  0.31423800  1
  Sm  Sm50  1  0.93790700  0.75000000  0.75000000  1
  Sm  Sm51  1  0.75000000  0.56209300  0.75000000  1
  Sm  Sm52  1  0.50000000  0.68576200  0.00000000  1
  Sm  Sm53  1  0.40315800  0.90315800  0.90315800  1
  Sm  Sm54  1  0.00000000  0.50000000  0.68576200  1
  Sm  Sm55  1  0.00000000  0.81423800  0.00000000  1
  Sm  Sm56  1  0.56209300  0.75000000  0.75000000  1
  Sm  Sm57  1  0.75000000  0.75000000  0.93790700  1
  Sm  Sm58  1  0.68576200  0.50000000  0.00000000  1
  Sm  Sm59  1  0.75000000  0.75000000  0.56209300  1
  Sm  Sm60  1  0.90315800  0.59684200  0.09684200  1
  Sm  Sm61  1  0.09684200  0.59684200  0.90315800  1
  Sm  Sm62  1  0.59684200  0.90315800  0.09684200  1
  Sm  Sm63  1  0.75000000  0.93790700  0.75000000  1
  Mg  Mg64  1  0.17072300  0.32927700  0.32927700  1
  Mg  Mg65  1  0.32927700  0.32927700  0.17072300  1
  Mg  Mg66  1  0.32927700  0.17072300  0.32927700  1
  Mg  Mg67  1  0.17072300  0.17072300  0.17072300  1
  Mg  Mg68  1  0.17072300  0.82927700  0.82927700  1
  Mg  Mg69  1  0.32927700  0.82927700  0.67072300  1
  Mg  Mg70  1  0.32927700  0.67072300  0.82927700  1
  Mg  Mg71  1  0.17072300  0.67072300  0.67072300  1
  Mg  Mg72  1  0.67072300  0.32927700  0.82927700  1
  Mg  Mg73  1  0.82927700  0.32927700  0.67072300  1
  Mg  Mg74  1  0.82927700  0.17072300  0.82927700  1
  Mg  Mg75  1  0.67072300  0.17072300  0.67072300  1
  Mg  Mg76  1  0.67072300  0.82927700  0.32927700  1
  Mg  Mg77  1  0.82927700  0.82927700  0.17072300  1
  Mg  Mg78  1  0.82927700  0.67072300  0.32927700  1
  Mg  Mg79  1  0.67072300  0.67072300  0.17072300  1
  Rh  Rh80  1  0.10805700  0.39194300  0.89194300  1
  Rh  Rh81  1  0.60805700  0.10805700  0.10805700  1
  Rh  Rh82  1  0.39194300  0.10805700  0.89194300  1
  Rh  Rh83  1  0.89194300  0.39194300  0.10805700  1
  Rh  Rh84  1  0.10805700  0.89194300  0.39194300  1
  Rh  Rh85  1  0.60805700  0.60805700  0.60805700  1
  Rh  Rh86  1  0.39194300  0.60805700  0.39194300  1
  Rh  Rh87  1  0.89194300  0.89194300  0.60805700  1
  Rh  Rh88  1  0.60805700  0.39194300  0.39194300  1
  Rh  Rh89  1  0.10805700  0.10805700  0.60805700  1
  Rh  Rh90  1  0.89194300  0.10805700  0.39194300  1
  Rh  Rh91  1  0.39194300  0.39194300  0.60805700  1
  Rh  Rh92  1  0.60805700  0.89194300  0.89194300  1
  Rh  Rh93  1  0.10805700  0.60805700  0.10805700  1
  Rh  Rh94  1  0.89194300  0.60805700  0.89194300  1
  Rh  Rh95  1  0.39194300  0.89194300  0.10805700  1
