# generated using pymatgen
data_Np3Se4
_symmetry_space_group_name_H-M   'P 1'
_cell_length_a   8.40143600
_cell_length_b   8.40143600
_cell_length_c   8.40143600
_cell_angle_alpha   90.00000000
_cell_angle_beta   90.00000000
_cell_angle_gamma   90.00000000
_symmetry_Int_Tables_number   1
_chemical_formula_structural   Np3Se4
_chemical_formula_sum   'Np12 Se16'
_cell_volume   593.00802445
_cell_formula_units_Z   4
loop_
 _symmetry_equiv_pos_site_id
 _symmetry_equiv_pos_as_xyz
  1  'x, y, z'
loop_
 _atom_site_type_symbol
 _atom_site_label
 _atom_site_symmetry_multiplicity
 _atom_site_fract_x
 _atom_site_fract_y
 _atom_site_fract_z
 _atom_site_occupancy
  Np  Np0  1  0.37500000  0.50000000  0.75000000  1
  Np  Np1  1  0.50000000  0.75000000  0.37500000  1
  Np  Np2  1  0.12500000  0.50000000  0.25000000  1
  Np  Np3  1  0.75000000  0.37500000  0.50000000  1
  Np  Np4  1  0.25000000  0.12500000  0.50000000  1
  Np  Np5  1  0.50000000  0.25000000  0.12500000  1
  Np  Np6  1  0.87500000  0.00000000  0.25000000  1
  Np  Np7  1  0.00000000  0.25000000  0.87500000  1
  Np  Np8  1  0.62500000  0.00000000  0.75000000  1
  Np  Np9  1  0.25000000  0.87500000  0.00000000  1
  Np  Np10  1  0.75000000  0.62500000  0.00000000  1
  Np  Np11  1  0.00000000  0.75000000  0.62500000  1
  Se  Se12  1  0.07680600  0.57680600  0.92319400  1
  Se  Se13  1  0.57680600  0.92319400  0.07680600  1
  Se  Se14  1  0.92319400  0.07680600  0.57680600  1
  Se  Se15  1  0.32680600  0.17319400  0.82680600  1
  Se  Se16  1  0.42319400  0.42319400  0.42319400  1
  Se  Se17  1  0.17319400  0.17319400  0.17319400  1
  Se  Se18  1  0.17319400  0.82680600  0.32680600  1
  Se  Se19  1  0.82680600  0.32680600  0.17319400  1
  Se  Se20  1  0.57680600  0.07680600  0.42319400  1
  Se  Se21  1  0.07680600  0.42319400  0.57680600  1
  Se  Se22  1  0.42319400  0.57680600  0.07680600  1
  Se  Se23  1  0.82680600  0.67319400  0.32680600  1
  Se  Se24  1  0.92319400  0.92319400  0.92319400  1
  Se  Se25  1  0.67319400  0.67319400  0.67319400  1
  Se  Se26  1  0.67319400  0.32680600  0.82680600  1
  Se  Se27  1  0.32680600  0.82680600  0.67319400  1
