# generated using pymatgen
data_Te3Pt2
_symmetry_space_group_name_H-M   'P 1'
_cell_length_a   7.03225400
_cell_length_b   4.05771200
_cell_length_c   17.72989378
_cell_angle_alpha   90.00000000
_cell_angle_beta   97.33820489
_cell_angle_gamma   90.00000000
_symmetry_Int_Tables_number   1
_chemical_formula_structural   Te3Pt2
_chemical_formula_sum   'Te12 Pt8'
_cell_volume   501.77632171
_cell_formula_units_Z   4
loop_
 _symmetry_equiv_pos_site_id
 _symmetry_equiv_pos_as_xyz
  1  'x, y, z'
loop_
 _atom_site_type_symbol
 _atom_site_label
 _atom_site_symmetry_multiplicity
 _atom_site_fract_x
 _atom_site_fract_y
 _atom_site_fract_z
 _atom_site_occupancy
  Te  Te0  1  0.76548400  0.00000000  0.27074400  1
  Te  Te1  1  0.53616200  0.50000000  0.11119200  1
  Te  Te2  1  0.64880400  0.50000000  0.42708700  1
  Te  Te3  1  0.73451600  0.50000000  0.72925600  1
  Te  Te4  1  0.96383800  0.00000000  0.88880800  1
  Te  Te5  1  0.85119600  0.00000000  0.57291300  1
  Te  Te6  1  0.26548400  0.50000000  0.27074400  1
  Te  Te7  1  0.03616200  0.00000000  0.11119200  1
  Te  Te8  1  0.14880400  0.00000000  0.42708700  1
  Te  Te9  1  0.23451600  0.00000000  0.72925600  1
  Te  Te10  1  0.46383800  0.50000000  0.88880800  1
  Te  Te11  1  0.35119600  0.50000000  0.57291300  1
  Pt  Pt12  1  0.95768300  0.50000000  0.34988000  1
  Pt  Pt13  1  0.54231700  0.00000000  0.65012000  1
  Pt  Pt14  1  0.65295800  0.00000000  0.95793500  1
  Pt  Pt15  1  0.84704200  0.50000000  0.04206500  1
  Pt  Pt16  1  0.45768300  0.00000000  0.34988000  1
  Pt  Pt17  1  0.04231700  0.50000000  0.65012000  1
  Pt  Pt18  1  0.15295800  0.50000000  0.95793500  1
  Pt  Pt19  1  0.34704200  0.00000000  0.04206500  1
