# generated using pymatgen
data_Sr2Cu3(ClO2)2
_symmetry_space_group_name_H-M   'P 1'
_cell_length_a   5.49020400
_cell_length_b   5.49020400
_cell_length_c   12.96260400
_cell_angle_alpha   90.00000000
_cell_angle_beta   90.00000000
_cell_angle_gamma   90.00000000
_symmetry_Int_Tables_number   1
_chemical_formula_structural   Sr2Cu3(ClO2)2
_chemical_formula_sum   'Sr4 Cu6 Cl4 O8'
_cell_volume   390.72321656
_cell_formula_units_Z   2
loop_
 _symmetry_equiv_pos_site_id
 _symmetry_equiv_pos_as_xyz
  1  'x, y, z'
loop_
 _atom_site_type_symbol
 _atom_site_label
 _atom_site_symmetry_multiplicity
 _atom_site_fract_x
 _atom_site_fract_y
 _atom_site_fract_z
 _atom_site_occupancy
  Sr  Sr0  1  0.00000000  0.00000000  0.36107600  1
  Sr  Sr1  1  0.50000000  0.50000000  0.13892400  1
  Sr  Sr2  1  0.50000000  0.50000000  0.86107600  1
  Sr  Sr3  1  0.00000000  0.00000000  0.63892400  1
  Cu  Cu4  1  0.00000000  0.00000000  0.00000000  1
  Cu  Cu5  1  0.50000000  0.00000000  0.00000000  1
  Cu  Cu6  1  0.00000000  0.50000000  0.00000000  1
  Cu  Cu7  1  0.50000000  0.50000000  0.50000000  1
  Cu  Cu8  1  0.00000000  0.50000000  0.50000000  1
  Cu  Cu9  1  0.50000000  0.00000000  0.50000000  1
  Cl  Cl10  1  0.50000000  0.00000000  0.25000000  1
  Cl  Cl11  1  0.00000000  0.50000000  0.25000000  1
  Cl  Cl12  1  0.00000000  0.50000000  0.75000000  1
  Cl  Cl13  1  0.50000000  0.00000000  0.75000000  1
  O  O14  1  0.74932100  0.25067900  0.00000000  1
  O  O15  1  0.25067900  0.74932100  0.00000000  1
  O  O16  1  0.25067900  0.25067900  0.00000000  1
  O  O17  1  0.74932100  0.74932100  0.00000000  1
  O  O18  1  0.24932100  0.75067900  0.50000000  1
  O  O19  1  0.75067900  0.24932100  0.50000000  1
  O  O20  1  0.75067900  0.75067900  0.50000000  1
  O  O21  1  0.24932100  0.24932100  0.50000000  1
