# generated using pymatgen
data_Ni(NF7)2
_symmetry_space_group_name_H-M   'P 1'
_cell_length_a   6.88173800
_cell_length_b   6.88173800
_cell_length_c   9.45308000
_cell_angle_alpha   90.00000000
_cell_angle_beta   90.00000000
_cell_angle_gamma   90.00000000
_symmetry_Int_Tables_number   1
_chemical_formula_structural   Ni(NF7)2
_chemical_formula_sum   'Ni2 N4 F28'
_cell_volume   447.68196778
_cell_formula_units_Z   2
loop_
 _symmetry_equiv_pos_site_id
 _symmetry_equiv_pos_as_xyz
  1  'x, y, z'
loop_
 _atom_site_type_symbol
 _atom_site_label
 _atom_site_symmetry_multiplicity
 _atom_site_fract_x
 _atom_site_fract_y
 _atom_site_fract_z
 _atom_site_occupancy
  Ni  Ni0  1  0.00000000  0.00000000  0.00000000  1
  Ni  Ni1  1  0.50000000  0.50000000  0.50000000  1
  N  N2  1  0.00000000  0.50000000  0.25000000  1
  N  N3  1  0.50000000  0.00000000  0.25000000  1
  N  N4  1  0.50000000  0.00000000  0.75000000  1
  N  N5  1  0.00000000  0.50000000  0.75000000  1
  F  F6  1  0.64110950  0.07326550  0.33148050  1
  F  F7  1  0.13177750  0.22816550  0.00000000  1
  F  F8  1  0.77183450  0.13177750  0.00000000  1
  F  F9  1  0.72816550  0.36822250  0.50000000  1
  F  F10  1  0.36822250  0.27183450  0.50000000  1
  F  F11  1  0.00000000  0.00000000  0.19096500  1
  F  F12  1  0.00000000  0.00000000  0.80903500  1
  F  F13  1  0.14110950  0.57326550  0.16851950  1
  F  F14  1  0.42673450  0.14110950  0.16851950  1
  F  F15  1  0.57326550  0.85889050  0.16851950  1
  F  F16  1  0.85889050  0.42673450  0.16851950  1
  F  F17  1  0.35889050  0.92673450  0.33148050  1
  F  F18  1  0.07326550  0.35889050  0.33148050  1
  F  F19  1  0.92673450  0.64110950  0.33148050  1
  F  F20  1  0.14110950  0.57326550  0.83148050  1
  F  F21  1  0.63177750  0.72816550  0.50000000  1
  F  F22  1  0.27183450  0.63177750  0.50000000  1
  F  F23  1  0.22816550  0.86822250  0.00000000  1
  F  F24  1  0.86822250  0.77183450  0.00000000  1
  F  F25  1  0.50000000  0.50000000  0.69096500  1
  F  F26  1  0.50000000  0.50000000  0.30903500  1
  F  F27  1  0.64110950  0.07326550  0.66851950  1
  F  F28  1  0.92673450  0.64110950  0.66851950  1
  F  F29  1  0.07326550  0.35889050  0.66851950  1
  F  F30  1  0.35889050  0.92673450  0.66851950  1
  F  F31  1  0.85889050  0.42673450  0.83148050  1
  F  F32  1  0.57326550  0.85889050  0.83148050  1
  F  F33  1  0.42673450  0.14110950  0.83148050  1
