# generated using pymatgen
data_La3Co3O8
_symmetry_space_group_name_H-M   'P 1'
_cell_length_a   5.65517100
_cell_length_b   5.43251400
_cell_length_c   11.76463627
_cell_angle_alpha   90.00000000
_cell_angle_beta   90.36542108
_cell_angle_gamma   90.00000000
_symmetry_Int_Tables_number   1
_chemical_formula_structural   La3Co3O8
_chemical_formula_sum   'La6 Co6 O16'
_cell_volume   361.42340034
_cell_formula_units_Z   2
loop_
 _symmetry_equiv_pos_site_id
 _symmetry_equiv_pos_as_xyz
  1  'x, y, z'
loop_
 _atom_site_type_symbol
 _atom_site_label
 _atom_site_symmetry_multiplicity
 _atom_site_fract_x
 _atom_site_fract_y
 _atom_site_fract_z
 _atom_site_occupancy
  La  La0  1  0.25099200  0.25020200  0.50121900  1
  La  La1  1  0.74900800  0.75020200  0.49878100  1
  La  La2  1  0.26844300  0.24421700  0.81125800  1
  La  La3  1  0.73155700  0.74421700  0.18874200  1
  La  La4  1  0.26712500  0.24728900  0.19253200  1
  La  La5  1  0.73287500  0.74728900  0.80746800  1
  Co  Co6  1  0.75022500  0.24959300  0.33565900  1
  Co  Co7  1  0.24977500  0.74959300  0.66434100  1
  Co  Co8  1  0.75802600  0.24986000  0.66750400  1
  Co  Co9  1  0.24197400  0.74986000  0.33249600  1
  Co  Co10  1  0.81210200  0.20149600  0.99760200  1
  Co  Co11  1  0.18789800  0.70149600  0.00239800  1
  O  O12  1  0.00089200  0.49242300  0.69340100  1
  O  O13  1  0.99910800  0.99242300  0.30659900  1
  O  O14  1  0.99762300  0.00461200  0.69270600  1
  O  O15  1  0.00237700  0.50461200  0.30729400  1
  O  O16  1  0.82996500  0.25035200  0.50820700  1
  O  O17  1  0.17003500  0.75035200  0.49179300  1
  O  O18  1  0.50934800  0.49250100  0.64445200  1
  O  O19  1  0.49065200  0.99250100  0.35554800  1
  O  O20  1  0.51424300  0.00223600  0.64421000  1
  O  O21  1  0.48575700  0.50223600  0.35579000  1
  O  O22  1  0.67660800  0.26907400  0.14657300  1
  O  O23  1  0.32339200  0.76907400  0.85342700  1
  O  O24  1  0.14252900  0.33007200  0.00036400  1
  O  O25  1  0.85747100  0.83007200  0.99963600  1
  O  O26  1  0.31179400  0.75907200  0.15856400  1
  O  O27  1  0.68820600  0.25907200  0.84143600  1
