# generated using pymatgen
data_BaVS3
_symmetry_space_group_name_H-M   'P 1'
_cell_length_a   16.20916705
_cell_length_b   6.83732578
_cell_length_c   11.27683336
_cell_angle_alpha   90.00000000
_cell_angle_beta   133.94661637
_cell_angle_gamma   90.00000000
_symmetry_Int_Tables_number   1
_chemical_formula_structural   BaVS3
_chemical_formula_sum   'Ba8 V8 S24'
_cell_volume   899.82616494
_cell_formula_units_Z   8
loop_
 _symmetry_equiv_pos_site_id
 _symmetry_equiv_pos_as_xyz
  1  'x, y, z'
loop_
 _atom_site_type_symbol
 _atom_site_label
 _atom_site_symmetry_multiplicity
 _atom_site_fract_x
 _atom_site_fract_y
 _atom_site_fract_z
 _atom_site_occupancy
  Ba  Ba0  1  0.16396800  0.50000000  0.78835400  1
  Ba  Ba1  1  0.33696800  0.00000000  0.71506000  1
  Ba  Ba2  1  0.66691600  0.00000000  0.29616900  1
  Ba  Ba3  1  0.84277000  0.50000000  0.21825000  1
  Ba  Ba4  1  0.66396800  0.00000000  0.78835400  1
  Ba  Ba5  1  0.83696800  0.50000000  0.71506000  1
  Ba  Ba6  1  0.16691600  0.50000000  0.29616900  1
  Ba  Ba7  1  0.34277000  0.00000000  0.21825000  1
  V  V8  1  0.02640700  0.00000000  0.26819600  1
  V  V9  1  0.97767900  0.00000000  0.47254700  1
  V  V10  1  0.02676500  0.00000000  0.77843700  1
  V  V11  1  0.48106650  0.50000000  0.97835500  1
  V  V12  1  0.52640700  0.50000000  0.26819600  1
  V  V13  1  0.47767900  0.50000000  0.47254700  1
  V  V14  1  0.52676500  0.50000000  0.77843700  1
  V  V15  1  0.98106650  0.00000000  0.97835500  1
  S  S16  1  0.67196250  0.50000000  0.28837700  1
  S  S17  1  0.83302700  0.00000000  0.20446400  1
  S  S18  1  0.17398350  0.00000000  0.80191800  1
  S  S19  1  0.33404050  0.50000000  0.70676600  1
  S  S20  1  0.92161900  0.24031300  0.05251600  1
  S  S21  1  0.92161900  0.75968700  0.05251600  1
  S  S22  1  0.08462650  0.76204150  0.46439400  1
  S  S23  1  0.08462650  0.23795850  0.46439400  1
  S  S24  1  0.92177300  0.23853600  0.55228000  1
  S  S25  1  0.92177300  0.76146400  0.55228000  1
  S  S26  1  0.08199950  0.75580150  0.96251300  1
  S  S27  1  0.08199950  0.24419850  0.96251300  1
  S  S28  1  0.17196250  0.00000000  0.28837700  1
  S  S29  1  0.33302700  0.50000000  0.20446400  1
  S  S30  1  0.67398350  0.50000000  0.80191800  1
  S  S31  1  0.83404050  0.00000000  0.70676600  1
  S  S32  1  0.42161900  0.74031300  0.05251600  1
  S  S33  1  0.42161900  0.25968700  0.05251600  1
  S  S34  1  0.58462650  0.26204150  0.46439400  1
  S  S35  1  0.58462650  0.73795850  0.46439400  1
  S  S36  1  0.42177300  0.73853600  0.55228000  1
  S  S37  1  0.42177300  0.26146400  0.55228000  1
  S  S38  1  0.58199950  0.25580150  0.96251300  1
  S  S39  1  0.58199950  0.74419850  0.96251300  1
