# generated using pymatgen
data_Pd3(PbS)2
_symmetry_space_group_name_H-M   'P 1'
_cell_length_a   8.48356600
_cell_length_b   8.48356600
_cell_length_c   8.48356600
_cell_angle_alpha   90.00000000
_cell_angle_beta   90.00000000
_cell_angle_gamma   90.00000000
_symmetry_Int_Tables_number   1
_chemical_formula_structural   Pd3(PbS)2
_chemical_formula_sum   'Pd12 Pb8 S8'
_cell_volume   610.56981301
_cell_formula_units_Z   4
loop_
 _symmetry_equiv_pos_site_id
 _symmetry_equiv_pos_as_xyz
  1  'x, y, z'
loop_
 _atom_site_type_symbol
 _atom_site_label
 _atom_site_symmetry_multiplicity
 _atom_site_fract_x
 _atom_site_fract_y
 _atom_site_fract_z
 _atom_site_occupancy
  Pd  Pd0  1  0.00000000  0.75000000  0.23211700  1
  Pd  Pd1  1  0.23211700  0.00000000  0.75000000  1
  Pd  Pd2  1  0.75000000  0.23211700  0.00000000  1
  Pd  Pd3  1  0.00000000  0.25000000  0.26788300  1
  Pd  Pd4  1  0.26788300  0.00000000  0.25000000  1
  Pd  Pd5  1  0.25000000  0.26788300  0.00000000  1
  Pd  Pd6  1  0.50000000  0.25000000  0.73211700  1
  Pd  Pd7  1  0.73211700  0.50000000  0.25000000  1
  Pd  Pd8  1  0.25000000  0.73211700  0.50000000  1
  Pd  Pd9  1  0.50000000  0.75000000  0.76788300  1
  Pd  Pd10  1  0.76788300  0.50000000  0.75000000  1
  Pd  Pd11  1  0.75000000  0.76788300  0.50000000  1
  Pb  Pb12  1  0.99759950  0.00240050  0.50240050  1
  Pb  Pb13  1  0.00240050  0.50240050  0.99759950  1
  Pb  Pb14  1  0.49759950  0.49759950  0.49759950  1
  Pb  Pb15  1  0.50240050  0.99759950  0.00240050  1
  Pb  Pb16  1  0.49759950  0.50240050  0.00240050  1
  Pb  Pb17  1  0.50240050  0.00240050  0.49759950  1
  Pb  Pb18  1  0.99759950  0.99759950  0.99759950  1
  Pb  Pb19  1  0.00240050  0.49759950  0.50240050  1
  S  S20  1  0.22510050  0.72510050  0.77489950  1
  S  S21  1  0.27489950  0.27489950  0.27489950  1
  S  S22  1  0.72510050  0.77489950  0.22510050  1
  S  S23  1  0.77489950  0.22510050  0.72510050  1
  S  S24  1  0.72510050  0.22510050  0.27489950  1
  S  S25  1  0.77489950  0.77489950  0.77489950  1
  S  S26  1  0.22510050  0.27489950  0.72510050  1
  S  S27  1  0.27489950  0.72510050  0.22510050  1
