# generated using pymatgen
data_La5Si5I3
_symmetry_space_group_name_H-M   'P 1'
_cell_length_a   24.24243200
_cell_length_b   4.26801400
_cell_length_c   15.83702181
_cell_angle_alpha   90.00000000
_cell_angle_beta   110.52074294
_cell_angle_gamma   90.00000000
_symmetry_Int_Tables_number   1
_chemical_formula_structural   La5Si5I3
_chemical_formula_sum   'La20 Si20 I12'
_cell_volume   1534.63233354
_cell_formula_units_Z   4
loop_
 _symmetry_equiv_pos_site_id
 _symmetry_equiv_pos_as_xyz
  1  'x, y, z'
loop_
 _atom_site_type_symbol
 _atom_site_label
 _atom_site_symmetry_multiplicity
 _atom_site_fract_x
 _atom_site_fract_y
 _atom_site_fract_z
 _atom_site_occupancy
  La  La0  1  0.16187300  0.50000000  0.05813800  1
  La  La1  1  0.08552100  0.00000000  0.56307700  1
  La  La2  1  0.41447900  0.50000000  0.43692300  1
  La  La3  1  0.48336400  0.50000000  0.70920800  1
  La  La4  1  0.01663600  0.00000000  0.29079200  1
  La  La5  1  0.16430600  0.00000000  0.83388400  1
  La  La6  1  0.26175700  0.00000000  0.67056700  1
  La  La7  1  0.33812700  0.00000000  0.94186200  1
  La  La8  1  0.33569400  0.50000000  0.16611600  1
  La  La9  1  0.23824300  0.50000000  0.32943300  1
  La  La10  1  0.66187300  0.00000000  0.05813800  1
  La  La11  1  0.58552100  0.50000000  0.56307700  1
  La  La12  1  0.91447900  0.00000000  0.43692300  1
  La  La13  1  0.98336400  0.00000000  0.70920800  1
  La  La14  1  0.51663600  0.50000000  0.29079200  1
  La  La15  1  0.66430600  0.50000000  0.83388400  1
  La  La16  1  0.76175700  0.50000000  0.67056700  1
  La  La17  1  0.83812700  0.50000000  0.94186200  1
  La  La18  1  0.83569400  0.00000000  0.16611600  1
  La  La19  1  0.73824300  0.00000000  0.32943300  1
  Si  Si20  1  0.49164400  0.00000000  0.57303200  1
  Si  Si21  1  0.07595400  0.50000000  0.70666700  1
  Si  Si22  1  0.00835600  0.50000000  0.42696800  1
  Si  Si23  1  0.25025600  0.00000000  0.03941100  1
  Si  Si24  1  0.32833100  0.00000000  0.31866700  1
  Si  Si25  1  0.25928700  0.50000000  0.81031900  1
  Si  Si26  1  0.24071300  0.00000000  0.18968100  1
  Si  Si27  1  0.17166900  0.50000000  0.68133300  1
  Si  Si28  1  0.42404600  0.00000000  0.29333300  1
  Si  Si29  1  0.24974400  0.50000000  0.96058900  1
  Si  Si30  1  0.99164400  0.50000000  0.57303200  1
  Si  Si31  1  0.57595400  0.00000000  0.70666700  1
  Si  Si32  1  0.50835600  0.00000000  0.42696800  1
  Si  Si33  1  0.75025600  0.50000000  0.03941100  1
  Si  Si34  1  0.82833100  0.50000000  0.31866700  1
  Si  Si35  1  0.75928700  0.00000000  0.81031900  1
  Si  Si36  1  0.74071300  0.50000000  0.18968100  1
  Si  Si37  1  0.67166900  0.00000000  0.68133300  1
  Si  Si38  1  0.92404600  0.50000000  0.29333300  1
  Si  Si39  1  0.74974400  0.00000000  0.96058900  1
  I  I40  1  0.40880700  0.00000000  0.79474700  1
  I  I41  1  0.43913300  0.50000000  0.06711500  1
  I  I42  1  0.06086700  0.00000000  0.93288500  1
  I  I43  1  0.17299300  0.00000000  0.43736500  1
  I  I44  1  0.09119300  0.50000000  0.20525300  1
  I  I45  1  0.32700700  0.50000000  0.56263500  1
  I  I46  1  0.90880700  0.50000000  0.79474700  1
  I  I47  1  0.93913300  0.00000000  0.06711500  1
  I  I48  1  0.56086700  0.50000000  0.93288500  1
  I  I49  1  0.67299300  0.50000000  0.43736500  1
  I  I50  1  0.59119300  0.00000000  0.20525300  1
  I  I51  1  0.82700700  0.00000000  0.56263500  1
