# generated using pymatgen
data_Yb7Al5Ge8
_symmetry_space_group_name_H-M   'P 1'
_cell_length_a   16.06800000
_cell_length_b   4.25791800
_cell_length_c   12.85658863
_cell_angle_alpha   90.00000000
_cell_angle_beta   95.68333435
_cell_angle_gamma   90.00000000
_symmetry_Int_Tables_number   1
_chemical_formula_structural   Yb7Al5Ge8
_chemical_formula_sum   'Yb14 Al10 Ge16'
_cell_volume   875.27553539
_cell_formula_units_Z   2
loop_
 _symmetry_equiv_pos_site_id
 _symmetry_equiv_pos_as_xyz
  1  'x, y, z'
loop_
 _atom_site_type_symbol
 _atom_site_label
 _atom_site_symmetry_multiplicity
 _atom_site_fract_x
 _atom_site_fract_y
 _atom_site_fract_z
 _atom_site_occupancy
  Yb  Yb0  1  0.65991200  0.50000000  0.54241800  1
  Yb  Yb1  1  0.68874800  0.50000000  0.86633700  1
  Yb  Yb2  1  0.51747300  0.50000000  0.29843100  1
  Yb  Yb3  1  0.98252700  0.00000000  0.70156900  1
  Yb  Yb4  1  0.00000000  0.00000000  0.00000000  1
  Yb  Yb5  1  0.84008800  0.00000000  0.45758200  1
  Yb  Yb6  1  0.81125200  0.00000000  0.13366300  1
  Yb  Yb7  1  0.15991200  0.00000000  0.54241800  1
  Yb  Yb8  1  0.18874800  0.00000000  0.86633700  1
  Yb  Yb9  1  0.01747300  0.00000000  0.29843100  1
  Yb  Yb10  1  0.48252700  0.50000000  0.70156900  1
  Yb  Yb11  1  0.50000000  0.50000000  0.00000000  1
  Yb  Yb12  1  0.34008800  0.50000000  0.45758200  1
  Yb  Yb13  1  0.31125200  0.50000000  0.13366300  1
  Al  Al14  1  0.72402100  0.50000000  0.30164700  1
  Al  Al15  1  0.77597900  0.00000000  0.69835300  1
  Al  Al16  1  0.60892200  0.00000000  0.17100700  1
  Al  Al17  1  0.89107800  0.50000000  0.82899300  1
  Al  Al18  1  0.00000000  0.50000000  0.50000000  1
  Al  Al19  1  0.22402100  0.00000000  0.30164700  1
  Al  Al20  1  0.27597900  0.50000000  0.69835300  1
  Al  Al21  1  0.10892200  0.50000000  0.17100700  1
  Al  Al22  1  0.39107800  0.00000000  0.82899300  1
  Al  Al23  1  0.50000000  0.00000000  0.50000000  1
  Ge  Ge24  1  0.82404300  0.00000000  0.89456900  1
  Ge  Ge25  1  0.84818900  0.50000000  0.62004000  1
  Ge  Ge26  1  0.67595700  0.50000000  0.10543100  1
  Ge  Ge27  1  0.94650000  0.50000000  0.14083200  1
  Ge  Ge28  1  0.55350000  0.00000000  0.85916800  1
  Ge  Ge29  1  0.88714700  0.50000000  0.31587000  1
  Ge  Ge30  1  0.61285300  0.00000000  0.68413000  1
  Ge  Ge31  1  0.65181100  0.00000000  0.37996000  1
  Ge  Ge32  1  0.32404300  0.50000000  0.89456900  1
  Ge  Ge33  1  0.34818900  0.00000000  0.62004000  1
  Ge  Ge34  1  0.17595700  0.00000000  0.10543100  1
  Ge  Ge35  1  0.44650000  0.00000000  0.14083200  1
  Ge  Ge36  1  0.05350000  0.50000000  0.85916800  1
  Ge  Ge37  1  0.38714700  0.00000000  0.31587000  1
  Ge  Ge38  1  0.11285300  0.50000000  0.68413000  1
  Ge  Ge39  1  0.15181100  0.50000000  0.37996000  1
