# generated using pymatgen
data_Li2V(PO4)2
_symmetry_space_group_name_H-M   'P 1'
_cell_length_a   5.09780784
_cell_length_b   7.76572850
_cell_length_c   8.87919135
_cell_angle_alpha   90.00000000
_cell_angle_beta   120.96314633
_cell_angle_gamma   90.00000000
_symmetry_Int_Tables_number   1
_chemical_formula_structural   Li2V(PO4)2
_chemical_formula_sum   'Li4 V2 P4 O16'
_cell_volume   301.42023216
_cell_formula_units_Z   2
loop_
 _symmetry_equiv_pos_site_id
 _symmetry_equiv_pos_as_xyz
  1  'x, y, z'
loop_
 _atom_site_type_symbol
 _atom_site_label
 _atom_site_symmetry_multiplicity
 _atom_site_fract_x
 _atom_site_fract_y
 _atom_site_fract_z
 _atom_site_occupancy
  Li  Li0  1  0.51815875  0.13141950  0.90864525  1
  Li  Li1  1  0.48184125  0.63141950  0.59135475  1
  Li  Li2  1  0.51815875  0.36858050  0.40864525  1
  Li  Li3  1  0.48184125  0.86858050  0.09135475  1
  V  V4  1  0.50000000  0.00000000  0.50000000  1
  V  V5  1  0.50000000  0.50000000  0.00000000  1
  P  P6  1  0.16050875  0.81188350  0.70097625  1
  P  P7  1  0.16050875  0.68811650  0.20097625  1
  P  P8  1  0.83949125  0.18811650  0.29902375  1
  P  P9  1  0.83949125  0.31188350  0.79902375  1
  O  O10  1  0.72038575  0.43624550  0.64926225  1
  O  O11  1  0.72038575  0.06375450  0.14926225  1
  O  O12  1  0.27961425  0.56375450  0.35073775  1
  O  O13  1  0.27961425  0.93624550  0.85073775  1
  O  O14  1  0.28966425  0.62517650  0.76207625  1
  O  O15  1  0.28966425  0.87482350  0.26207625  1
  O  O16  1  0.71033575  0.37482350  0.23792375  1
  O  O17  1  0.71033575  0.12517650  0.73792375  1
  O  O18  1  0.20124475  0.18484050  0.40354625  1
  O  O19  1  0.79875525  0.81515950  0.59645375  1
  O  O20  1  0.79875525  0.68484050  0.09645375  1
  O  O21  1  0.20124475  0.31515950  0.90354625  1
  O  O22  1  0.25215425  0.64193400  0.06188475  1
  O  O23  1  0.25215425  0.85806600  0.56188475  1
  O  O24  1  0.74784575  0.35806600  0.93811525  1
  O  O25  1  0.74784575  0.14193400  0.43811525  1
