# generated using pymatgen
data_VO2
_symmetry_space_group_name_H-M   'P 1'
_cell_length_a   12.39304800
_cell_length_b   3.74666200
_cell_length_c   6.49009608
_cell_angle_alpha   90.00000000
_cell_angle_beta   106.89912194
_cell_angle_gamma   90.00000000
_symmetry_Int_Tables_number   1
_chemical_formula_structural   VO2
_chemical_formula_sum   'V8 O16'
_cell_volume   288.33882728
_cell_formula_units_Z   8
loop_
 _symmetry_equiv_pos_site_id
 _symmetry_equiv_pos_as_xyz
  1  'x, y, z'
loop_
 _atom_site_type_symbol
 _atom_site_label
 _atom_site_symmetry_multiplicity
 _atom_site_fract_x
 _atom_site_fract_y
 _atom_site_fract_z
 _atom_site_occupancy
  V  V0  1  0.19618100  0.50000000  0.27562300  1
  V  V1  1  0.30381900  0.00000000  0.72437700  1
  V  V2  1  0.10119900  0.50000000  0.68528700  1
  V  V3  1  0.39880100  0.00000000  0.31471300  1
  V  V4  1  0.69618100  0.00000000  0.27562300  1
  V  V5  1  0.80381900  0.50000000  0.72437700  1
  V  V6  1  0.60119900  0.00000000  0.68528700  1
  V  V7  1  0.89880100  0.50000000  0.31471300  1
  O  O8  1  0.13912800  0.50000000  0.00419000  1
  O  O9  1  0.36087200  0.00000000  0.99581000  1
  O  O10  1  0.26212600  0.50000000  0.64900600  1
  O  O11  1  0.23787400  0.00000000  0.35099400  1
  O  O12  1  0.05746600  0.50000000  0.36840700  1
  O  O13  1  0.44253400  0.00000000  0.63159300  1
  O  O14  1  0.36531400  0.50000000  0.29918200  1
  O  O15  1  0.13468600  0.00000000  0.70081800  1
  O  O16  1  0.63912800  0.00000000  0.00419000  1
  O  O17  1  0.86087200  0.50000000  0.99581000  1
  O  O18  1  0.76212600  0.00000000  0.64900600  1
  O  O19  1  0.73787400  0.50000000  0.35099400  1
  O  O20  1  0.55746600  0.00000000  0.36840700  1
  O  O21  1  0.94253400  0.50000000  0.63159300  1
  O  O22  1  0.86531400  0.00000000  0.29918200  1
  O  O23  1  0.63468600  0.50000000  0.70081800  1
