# generated using pymatgen
data_NdGe2Ir
_symmetry_space_group_name_H-M   'P 1'
_cell_length_a   4.39476000
_cell_length_b   9.01578600
_cell_length_c   16.31821600
_cell_angle_alpha   90.00000000
_cell_angle_beta   90.00000000
_cell_angle_gamma   90.00000000
_symmetry_Int_Tables_number   1
_chemical_formula_structural   NdGe2Ir
_chemical_formula_sum   'Nd8 Ge16 Ir8'
_cell_volume   646.56387389
_cell_formula_units_Z   8
loop_
 _symmetry_equiv_pos_site_id
 _symmetry_equiv_pos_as_xyz
  1  'x, y, z'
loop_
 _atom_site_type_symbol
 _atom_site_label
 _atom_site_symmetry_multiplicity
 _atom_site_fract_x
 _atom_site_fract_y
 _atom_site_fract_z
 _atom_site_occupancy
  Nd  Nd0  1  0.50000000  0.00000000  0.70639100  1
  Nd  Nd1  1  0.00000000  0.50000000  0.79360900  1
  Nd  Nd2  1  0.00000000  0.73985400  0.00000000  1
  Nd  Nd3  1  0.00000000  0.26014600  0.00000000  1
  Nd  Nd4  1  0.00000000  0.50000000  0.20639100  1
  Nd  Nd5  1  0.50000000  0.00000000  0.29360900  1
  Nd  Nd6  1  0.50000000  0.23985400  0.50000000  1
  Nd  Nd7  1  0.50000000  0.76014600  0.50000000  1
  Ge  Ge8  1  0.50000000  0.50000000  0.92247000  1
  Ge  Ge9  1  0.00000000  0.00000000  0.57753000  1
  Ge  Ge10  1  0.50000000  0.00000000  0.92109400  1
  Ge  Ge11  1  0.00000000  0.50000000  0.57890600  1
  Ge  Ge12  1  0.50000000  0.34591550  0.69875550  1
  Ge  Ge13  1  0.00000000  0.15408450  0.80124450  1
  Ge  Ge14  1  0.00000000  0.84591550  0.80124450  1
  Ge  Ge15  1  0.50000000  0.65408450  0.69875550  1
  Ge  Ge16  1  0.00000000  0.00000000  0.42247000  1
  Ge  Ge17  1  0.50000000  0.50000000  0.07753000  1
  Ge  Ge18  1  0.00000000  0.50000000  0.42109400  1
  Ge  Ge19  1  0.50000000  0.00000000  0.07890600  1
  Ge  Ge20  1  0.00000000  0.84591550  0.19875550  1
  Ge  Ge21  1  0.50000000  0.65408450  0.30124450  1
  Ge  Ge22  1  0.50000000  0.34591550  0.30124450  1
  Ge  Ge23  1  0.00000000  0.15408450  0.19875550  1
  Ir  Ir24  1  0.50000000  0.24803800  0.85356000  1
  Ir  Ir25  1  0.00000000  0.25196200  0.64644000  1
  Ir  Ir26  1  0.00000000  0.74803800  0.64644000  1
  Ir  Ir27  1  0.50000000  0.75196200  0.85356000  1
  Ir  Ir28  1  0.00000000  0.74803800  0.35356000  1
  Ir  Ir29  1  0.50000000  0.75196200  0.14644000  1
  Ir  Ir30  1  0.50000000  0.24803800  0.14644000  1
  Ir  Ir31  1  0.00000000  0.25196200  0.35356000  1
