# generated using pymatgen
data_La5(BN3)2
_symmetry_space_group_name_H-M   'P 1'
_cell_length_a   12.56212400
_cell_length_b   3.70624200
_cell_length_c   9.06257191
_cell_angle_alpha   90.00000000
_cell_angle_beta   105.60646430
_cell_angle_gamma   90.00000000
_symmetry_Int_Tables_number   1
_chemical_formula_structural   La5(BN3)2
_chemical_formula_sum   'La10 B4 N12'
_cell_volume   406.38177835
_cell_formula_units_Z   2
loop_
 _symmetry_equiv_pos_site_id
 _symmetry_equiv_pos_as_xyz
  1  'x, y, z'
loop_
 _atom_site_type_symbol
 _atom_site_label
 _atom_site_symmetry_multiplicity
 _atom_site_fract_x
 _atom_site_fract_y
 _atom_site_fract_z
 _atom_site_occupancy
  La  La0  1  0.62470200  0.00000000  0.37470900  1
  La  La1  1  0.80828300  0.50000000  0.18103600  1
  La  La2  1  0.00000000  0.00000000  0.00000000  1
  La  La3  1  0.69171700  0.00000000  0.81896400  1
  La  La4  1  0.87529800  0.50000000  0.62529100  1
  La  La5  1  0.12470200  0.50000000  0.37470900  1
  La  La6  1  0.30828300  0.00000000  0.18103600  1
  La  La7  1  0.50000000  0.50000000  0.00000000  1
  La  La8  1  0.19171700  0.50000000  0.81896400  1
  La  La9  1  0.37529800  0.00000000  0.62529100  1
  B  B10  1  0.55480000  0.50000000  0.58921500  1
  B  B11  1  0.94520000  0.00000000  0.41078500  1
  B  B12  1  0.05480000  0.00000000  0.58921500  1
  B  B13  1  0.44520000  0.50000000  0.41078500  1
  N  N14  1  0.52563400  0.50000000  0.73668900  1
  N  N15  1  0.84387600  0.50000000  0.92200800  1
  N  N16  1  0.82863000  0.00000000  0.41681200  1
  N  N17  1  0.97436600  0.00000000  0.26331100  1
  N  N18  1  0.65612400  0.00000000  0.07799200  1
  N  N19  1  0.67137000  0.50000000  0.58318800  1
  N  N20  1  0.02563400  0.00000000  0.73668900  1
  N  N21  1  0.34387600  0.00000000  0.92200800  1
  N  N22  1  0.32863000  0.50000000  0.41681200  1
  N  N23  1  0.47436600  0.50000000  0.26331100  1
  N  N24  1  0.15612400  0.50000000  0.07799200  1
  N  N25  1  0.17137000  0.00000000  0.58318800  1
