# generated using pymatgen
data_LiFe(SeO3)2
_symmetry_space_group_name_H-M   'P 1'
_cell_length_a   10.84857400
_cell_length_b   10.84857400
_cell_length_c   10.15693400
_cell_angle_alpha   90.00000000
_cell_angle_beta   90.00000000
_cell_angle_gamma   90.00000000
_symmetry_Int_Tables_number   1
_chemical_formula_structural   LiFe(SeO3)2
_chemical_formula_sum   'Li8 Fe8 Se16 O48'
_cell_volume   1195.38538527
_cell_formula_units_Z   8
loop_
 _symmetry_equiv_pos_site_id
 _symmetry_equiv_pos_as_xyz
  1  'x, y, z'
loop_
 _atom_site_type_symbol
 _atom_site_label
 _atom_site_symmetry_multiplicity
 _atom_site_fract_x
 _atom_site_fract_y
 _atom_site_fract_z
 _atom_site_occupancy
  Li  Li0  1  0.75000000  0.56458500  0.12500000  1
  Li  Li1  1  0.93541500  0.25000000  0.37500000  1
  Li  Li2  1  0.75000000  0.93541500  0.62500000  1
  Li  Li3  1  0.56458500  0.25000000  0.87500000  1
  Li  Li4  1  0.25000000  0.06458500  0.62500000  1
  Li  Li5  1  0.43541500  0.75000000  0.87500000  1
  Li  Li6  1  0.25000000  0.43541500  0.12500000  1
  Li  Li7  1  0.06458500  0.75000000  0.37500000  1
  Fe  Fe8  1  0.28744400  0.25000000  0.87500000  1
  Fe  Fe9  1  0.75000000  0.21255600  0.62500000  1
  Fe  Fe10  1  0.75000000  0.28744400  0.12500000  1
  Fe  Fe11  1  0.21255600  0.25000000  0.37500000  1
  Fe  Fe12  1  0.78744400  0.75000000  0.37500000  1
  Fe  Fe13  1  0.25000000  0.71255600  0.12500000  1
  Fe  Fe14  1  0.25000000  0.78744400  0.62500000  1
  Fe  Fe15  1  0.71255600  0.75000000  0.87500000  1
  Se  Se16  1  0.77433100  0.05465500  0.90839800  1
  Se  Se17  1  0.05465500  0.27433100  0.65839800  1
  Se  Se18  1  0.05465500  0.22566900  0.09160200  1
  Se  Se19  1  0.27433100  0.94534500  0.34160200  1
  Se  Se20  1  0.44534500  0.27433100  0.59160200  1
  Se  Se21  1  0.94534500  0.72566900  0.65839800  1
  Se  Se22  1  0.72566900  0.44534500  0.40839800  1
  Se  Se23  1  0.72566900  0.05465500  0.34160200  1
  Se  Se24  1  0.27433100  0.55465500  0.40839800  1
  Se  Se25  1  0.55465500  0.77433100  0.15839800  1
  Se  Se26  1  0.55465500  0.72566900  0.59160200  1
  Se  Se27  1  0.77433100  0.44534500  0.84160200  1
  Se  Se28  1  0.94534500  0.77433100  0.09160200  1
  Se  Se29  1  0.44534500  0.22566900  0.15839800  1
  Se  Se30  1  0.22566900  0.94534500  0.90839800  1
  Se  Se31  1  0.22566900  0.55465500  0.84160200  1
  O  O32  1  0.07153400  0.20814300  0.50332200  1
  O  O33  1  0.81759550  0.15890750  0.25460750  1
  O  O34  1  0.58199050  0.29037750  0.20909750  1
  O  O35  1  0.79185700  0.07153400  0.49667800  1
  O  O36  1  0.15890750  0.31759550  0.00460750  1
  O  O37  1  0.34109250  0.18240450  0.50460750  1
  O  O38  1  0.81759550  0.34109250  0.49539250  1
  O  O39  1  0.20962250  0.08199050  0.29090250  1
  O  O40  1  0.65890750  0.68240450  0.24539250  1
  O  O41  1  0.84109250  0.81759550  0.74539250  1
  O  O42  1  0.42846600  0.20814300  0.74667800  1
  O  O43  1  0.07153400  0.29185700  0.24667800  1
  O  O44  1  0.29037750  0.41800950  0.79090250  1
  O  O45  1  0.58199050  0.20962250  0.54090250  1
  O  O46  1  0.79037750  0.58199050  0.45909750  1
  O  O47  1  0.68240450  0.15890750  0.99539250  1
  O  O48  1  0.68240450  0.34109250  0.75460750  1
  O  O49  1  0.70962250  0.91800950  0.95909750  1
  O  O50  1  0.91800950  0.20962250  0.70909750  1
  O  O51  1  0.92846600  0.79185700  0.50332200  1
  O  O52  1  0.91800950  0.29037750  0.04090250  1
  O  O53  1  0.70814300  0.07153400  0.75332200  1
  O  O54  1  0.20814300  0.92846600  0.49667800  1
  O  O55  1  0.79185700  0.42846600  0.25332200  1
  O  O56  1  0.57153400  0.70814300  0.00332200  1
  O  O57  1  0.31759550  0.65890750  0.75460750  1
  O  O58  1  0.08199050  0.79037750  0.70909750  1
  O  O59  1  0.29185700  0.57153400  0.99667800  1
  O  O60  1  0.65890750  0.81759550  0.50460750  1
  O  O61  1  0.84109250  0.68240450  0.00460750  1
  O  O62  1  0.31759550  0.84109250  0.99539250  1
  O  O63  1  0.70962250  0.58199050  0.79090250  1
  O  O64  1  0.15890750  0.18240450  0.74539250  1
  O  O65  1  0.34109250  0.31759550  0.24539250  1
  O  O66  1  0.92846600  0.70814300  0.24667800  1
  O  O67  1  0.57153400  0.79185700  0.74667800  1
  O  O68  1  0.79037750  0.91800950  0.29090250  1
  O  O69  1  0.08199050  0.70962250  0.04090250  1
  O  O70  1  0.29037750  0.08199050  0.95909750  1
  O  O71  1  0.18240450  0.65890750  0.49539250  1
  O  O72  1  0.18240450  0.84109250  0.25460750  1
  O  O73  1  0.20962250  0.41800950  0.45909750  1
  O  O74  1  0.41800950  0.70962250  0.20909750  1
  O  O75  1  0.42846600  0.29185700  0.00332200  1
  O  O76  1  0.41800950  0.79037750  0.54090250  1
  O  O77  1  0.20814300  0.57153400  0.25332200  1
  O  O78  1  0.70814300  0.42846600  0.99667800  1
  O  O79  1  0.29185700  0.92846600  0.75332200  1
