# generated using pymatgen
data_NiPbF6
_symmetry_space_group_name_H-M   'P 1'
_cell_length_a   5.25278164
_cell_length_b   5.25278164
_cell_length_c   14.33370729
_cell_angle_alpha   90.00000000
_cell_angle_beta   90.00000000
_cell_angle_gamma   120.00000000
_symmetry_Int_Tables_number   1
_chemical_formula_structural   NiPbF6
_chemical_formula_sum   'Ni3 Pb3 F18'
_cell_volume   342.50574294
_cell_formula_units_Z   3
loop_
 _symmetry_equiv_pos_site_id
 _symmetry_equiv_pos_as_xyz
  1  'x, y, z'
loop_
 _atom_site_type_symbol
 _atom_site_label
 _atom_site_symmetry_multiplicity
 _atom_site_fract_x
 _atom_site_fract_y
 _atom_site_fract_z
 _atom_site_occupancy
  Ni  Ni0  1  0.00000000  0.00000000  0.00000000  1
  Ni  Ni1  1  0.66666667  0.33333333  0.33333333  1
  Ni  Ni2  1  0.33333333  0.66666667  0.66666667  1
  Pb  Pb3  1  0.33333333  0.66666667  0.16666667  1
  Pb  Pb4  1  1.00000000  0.00000000  0.50000000  1
  Pb  Pb5  1  0.66666667  0.33333333  0.83333333  1
  F  F6  1  0.36438367  0.00971533  0.25152433  1
  F  F7  1  0.64533167  0.63561633  0.25152433  1
  F  F8  1  0.67638200  0.97866500  0.08180900  1
  F  F9  1  0.02133500  0.69771700  0.08180900  1
  F  F10  1  0.30228300  0.32361800  0.08180900  1
  F  F11  1  0.99028467  0.35466833  0.25152433  1
  F  F12  1  0.03105033  0.34304867  0.58485767  1
  F  F13  1  0.31199833  0.96894967  0.58485767  1
  F  F14  1  0.34304867  0.31199833  0.41514233  1
  F  F15  1  0.68800167  0.03105033  0.41514233  1
  F  F16  1  0.96894967  0.65695133  0.41514233  1
  F  F17  1  0.65695133  0.68800167  0.58485767  1
  F  F18  1  0.69771700  0.67638200  0.91819100  1
  F  F19  1  0.97866500  0.30228300  0.91819100  1
  F  F20  1  0.00971533  0.64533167  0.74847567  1
  F  F21  1  0.35466833  0.36438367  0.74847567  1
  F  F22  1  0.63561633  0.99028467  0.74847567  1
  F  F23  1  0.32361800  0.02133500  0.91819100  1
