# generated using pymatgen
data_Ce6P17Pd6
_symmetry_space_group_name_H-M   'P 1'
_cell_length_a   10.32138800
_cell_length_b   10.32138800
_cell_length_c   10.32138800
_cell_angle_alpha   90.00000000
_cell_angle_beta   90.00000000
_cell_angle_gamma   90.00000000
_symmetry_Int_Tables_number   1
_chemical_formula_structural   Ce6P17Pd6
_chemical_formula_sum   'Ce12 P34 Pd12'
_cell_volume   1099.54830364
_cell_formula_units_Z   2
loop_
 _symmetry_equiv_pos_site_id
 _symmetry_equiv_pos_as_xyz
  1  'x, y, z'
loop_
 _atom_site_type_symbol
 _atom_site_label
 _atom_site_symmetry_multiplicity
 _atom_site_fract_x
 _atom_site_fract_y
 _atom_site_fract_z
 _atom_site_occupancy
  Ce  Ce0  1  0.00000000  0.28315700  0.00000000  1
  Ce  Ce1  1  0.71684300  0.00000000  0.00000000  1
  Ce  Ce2  1  0.28315700  0.00000000  0.00000000  1
  Ce  Ce3  1  0.00000000  0.00000000  0.71684300  1
  Ce  Ce4  1  0.00000000  0.00000000  0.28315700  1
  Ce  Ce5  1  0.00000000  0.71684300  0.00000000  1
  Ce  Ce6  1  0.50000000  0.78315700  0.50000000  1
  Ce  Ce7  1  0.21684300  0.50000000  0.50000000  1
  Ce  Ce8  1  0.78315700  0.50000000  0.50000000  1
  Ce  Ce9  1  0.50000000  0.50000000  0.21684300  1
  Ce  Ce10  1  0.50000000  0.50000000  0.78315700  1
  Ce  Ce11  1  0.50000000  0.21684300  0.50000000  1
  P  P12  1  0.21281750  0.21281750  0.57342050  1
  P  P13  1  0.78718250  0.21281750  0.42657950  1
  P  P14  1  0.21281750  0.78718250  0.42657950  1
  P  P15  1  0.28718250  0.07342050  0.28718250  1
  P  P16  1  0.78718250  0.42657950  0.21281750  1
  P  P17  1  0.42657950  0.78718250  0.21281750  1
  P  P18  1  0.07342050  0.28718250  0.28718250  1
  P  P19  1  0.57342050  0.21281750  0.21281750  1
  P  P20  1  0.21281750  0.57342050  0.21281750  1
  P  P21  1  0.21281750  0.42657950  0.78718250  1
  P  P22  1  0.42657950  0.21281750  0.78718250  1
  P  P23  1  0.28718250  0.28718250  0.07342050  1
  P  P24  1  0.21119850  0.21119850  0.78880150  1
  P  P25  1  0.78880150  0.21119850  0.21119850  1
  P  P26  1  0.21119850  0.78880150  0.21119850  1
  P  P27  1  0.28880150  0.28880150  0.28880150  1
  P  P28  1  0.00000000  0.00000000  0.00000000  1
  P  P29  1  0.71281750  0.71281750  0.07342050  1
  P  P30  1  0.28718250  0.71281750  0.92657950  1
  P  P31  1  0.71281750  0.28718250  0.92657950  1
  P  P32  1  0.78718250  0.57342050  0.78718250  1
  P  P33  1  0.28718250  0.92657950  0.71281750  1
  P  P34  1  0.92657950  0.28718250  0.71281750  1
  P  P35  1  0.57342050  0.78718250  0.78718250  1
  P  P36  1  0.07342050  0.71281750  0.71281750  1
  P  P37  1  0.71281750  0.07342050  0.71281750  1
  P  P38  1  0.71281750  0.92657950  0.28718250  1
  P  P39  1  0.92657950  0.71281750  0.28718250  1
  P  P40  1  0.78718250  0.78718250  0.57342050  1
  P  P41  1  0.71119850  0.71119850  0.28880150  1
  P  P42  1  0.28880150  0.71119850  0.71119850  1
  P  P43  1  0.71119850  0.28880150  0.71119850  1
  P  P44  1  0.78880150  0.78880150  0.78880150  1
  P  P45  1  0.50000000  0.50000000  0.50000000  1
  Pd  Pd46  1  0.50000000  0.25000000  0.00000000  1
  Pd  Pd47  1  0.25000000  0.00000000  0.50000000  1
  Pd  Pd48  1  0.25000000  0.50000000  0.00000000  1
  Pd  Pd49  1  0.00000000  0.50000000  0.25000000  1
  Pd  Pd50  1  0.50000000  0.00000000  0.25000000  1
  Pd  Pd51  1  0.00000000  0.25000000  0.50000000  1
  Pd  Pd52  1  0.00000000  0.75000000  0.50000000  1
  Pd  Pd53  1  0.75000000  0.50000000  0.00000000  1
  Pd  Pd54  1  0.75000000  0.00000000  0.50000000  1
  Pd  Pd55  1  0.50000000  0.00000000  0.75000000  1
  Pd  Pd56  1  0.00000000  0.50000000  0.75000000  1
  Pd  Pd57  1  0.50000000  0.75000000  0.00000000  1
