# generated using pymatgen
data_Pr(NiGe)2
_symmetry_space_group_name_H-M   'P 1'
_cell_length_a   4.16315000
_cell_length_b   4.16315000
_cell_length_c   9.89952200
_cell_angle_alpha   90.00000000
_cell_angle_beta   90.00000000
_cell_angle_gamma   90.00000000
_symmetry_Int_Tables_number   1
_chemical_formula_structural   Pr(NiGe)2
_chemical_formula_sum   'Pr2 Ni4 Ge4'
_cell_volume   171.57671282
_cell_formula_units_Z   2
loop_
 _symmetry_equiv_pos_site_id
 _symmetry_equiv_pos_as_xyz
  1  'x, y, z'
loop_
 _atom_site_type_symbol
 _atom_site_label
 _atom_site_symmetry_multiplicity
 _atom_site_fract_x
 _atom_site_fract_y
 _atom_site_fract_z
 _atom_site_occupancy
  Pr  Pr0  1  0.00000000  0.00000000  0.00000000  1
  Pr  Pr1  1  0.50000000  0.50000000  0.50000000  1
  Ni  Ni2  1  0.50000000  0.00000000  0.25000000  1
  Ni  Ni3  1  0.00000000  0.50000000  0.25000000  1
  Ni  Ni4  1  0.00000000  0.50000000  0.75000000  1
  Ni  Ni5  1  0.50000000  0.00000000  0.75000000  1
  Ge  Ge6  1  0.50000000  0.50000000  0.13258700  1
  Ge  Ge7  1  0.00000000  0.00000000  0.36741300  1
  Ge  Ge8  1  0.00000000  0.00000000  0.63258700  1
  Ge  Ge9  1  0.50000000  0.50000000  0.86741300  1
