# generated using pymatgen
data_Ba19Li44
_symmetry_space_group_name_H-M   'P 1'
_cell_length_a   16.22708600
_cell_length_b   16.22708600
_cell_length_c   32.18544600
_cell_angle_alpha   90.00000000
_cell_angle_beta   90.00000000
_cell_angle_gamma   90.00000000
_symmetry_Int_Tables_number   1
_chemical_formula_structural   Ba19Li44
_chemical_formula_sum   'Ba76 Li176'
_cell_volume   8475.01757082
_cell_formula_units_Z   4
loop_
 _symmetry_equiv_pos_site_id
 _symmetry_equiv_pos_as_xyz
  1  'x, y, z'
loop_
 _atom_site_type_symbol
 _atom_site_label
 _atom_site_symmetry_multiplicity
 _atom_site_fract_x
 _atom_site_fract_y
 _atom_site_fract_z
 _atom_site_occupancy
  Ba  Ba0  1  0.85577050  0.15087150  0.57477100  1
  Ba  Ba1  1  0.40020750  0.41528650  0.80027100  1
  Ba  Ba2  1  0.69128800  0.50428300  0.50077650  1
  Ba  Ba3  1  0.50000000  0.00000000  0.65422200  1
  Ba  Ba4  1  0.99571700  0.19128800  0.99922350  1
  Ba  Ba5  1  0.00000000  0.00000000  0.90422200  1
  Ba  Ba6  1  0.00428300  0.80871200  0.99922350  1
  Ba  Ba7  1  0.50000000  0.00000000  0.84577800  1
  Ba  Ba8  1  0.09630900  0.11249900  0.79764750  1
  Ba  Ba9  1  0.49571700  0.80871200  0.75077650  1
  Ba  Ba10  1  0.38750100  0.59630900  0.70235250  1
  Ba  Ba11  1  0.15087150  0.35577050  0.82477100  1
  Ba  Ba12  1  0.34912850  0.35577050  0.92522900  1
  Ba  Ba13  1  0.30871200  0.00428300  0.74922350  1
  Ba  Ba14  1  0.14422950  0.84912850  0.57477100  1
  Ba  Ba15  1  0.30871200  0.49571700  0.50077650  1
  Ba  Ba16  1  0.40369100  0.11249900  0.95235250  1
  Ba  Ba17  1  0.90020750  0.58471350  0.94972900  1
  Ba  Ba18  1  0.08471350  0.59979250  0.55027100  1
  Ba  Ba19  1  0.84912850  0.64422950  0.82477100  1
  Ba  Ba20  1  0.61249900  0.09630900  0.54764750  1
  Ba  Ba21  1  0.59979250  0.58471350  0.80027100  1
  Ba  Ba22  1  0.85577050  0.34912850  0.67522900  1
  Ba  Ba23  1  0.90369100  0.88750100  0.79764750  1
  Ba  Ba24  1  0.91528650  0.40020750  0.55027100  1
  Ba  Ba25  1  0.09979250  0.41528650  0.94972900  1
  Ba  Ba26  1  0.08471350  0.90020750  0.69972900  1
  Ba  Ba27  1  0.00000000  0.50000000  0.75000000  1
  Ba  Ba28  1  0.91528650  0.09979250  0.69972900  1
  Ba  Ba29  1  0.14422950  0.65087150  0.67522900  1
  Ba  Ba30  1  0.69128800  0.99571700  0.74922350  1
  Ba  Ba31  1  0.50000000  0.50000000  0.59577800  1
  Ba  Ba32  1  0.61249900  0.40369100  0.70235250  1
  Ba  Ba33  1  0.59630900  0.88750100  0.95235250  1
  Ba  Ba34  1  0.50428300  0.19128800  0.75077650  1
  Ba  Ba35  1  0.00000000  0.00000000  0.50000000  1
  Ba  Ba36  1  0.38750100  0.90369100  0.54764750  1
  Ba  Ba37  1  0.65087150  0.64422950  0.92522900  1
  Ba  Ba38  1  0.35577050  0.65087150  0.07477100  1
  Ba  Ba39  1  0.90020750  0.91528650  0.30027100  1
  Ba  Ba40  1  0.19128800  0.00428300  0.00077650  1
  Ba  Ba41  1  0.00000000  0.50000000  0.15422200  1
  Ba  Ba42  1  0.49571700  0.69128800  0.49922350  1
  Ba  Ba43  1  0.50000000  0.50000000  0.40422200  1
  Ba  Ba44  1  0.50428300  0.30871200  0.49922350  1
  Ba  Ba45  1  0.00000000  0.50000000  0.34577800  1
  Ba  Ba46  1  0.59630900  0.61249900  0.29764750  1
  Ba  Ba47  1  0.99571700  0.30871200  0.25077650  1
  Ba  Ba48  1  0.88750100  0.09630900  0.20235250  1
  Ba  Ba49  1  0.65087150  0.85577050  0.32477100  1
  Ba  Ba50  1  0.84912850  0.85577050  0.42522900  1
  Ba  Ba51  1  0.80871200  0.50428300  0.24922350  1
  Ba  Ba52  1  0.64422950  0.34912850  0.07477100  1
  Ba  Ba53  1  0.80871200  0.99571700  0.00077650  1
  Ba  Ba54  1  0.90369100  0.61249900  0.45235250  1
  Ba  Ba55  1  0.40020750  0.08471350  0.44972900  1
  Ba  Ba56  1  0.58471350  0.09979250  0.05027100  1
  Ba  Ba57  1  0.34912850  0.14422950  0.32477100  1
  Ba  Ba58  1  0.11249900  0.59630900  0.04764750  1
  Ba  Ba59  1  0.09979250  0.08471350  0.30027100  1
  Ba  Ba60  1  0.35577050  0.84912850  0.17522900  1
  Ba  Ba61  1  0.40369100  0.38750100  0.29764750  1
  Ba  Ba62  1  0.41528650  0.90020750  0.05027100  1
  Ba  Ba63  1  0.59979250  0.91528650  0.44972900  1
  Ba  Ba64  1  0.58471350  0.40020750  0.19972900  1
  Ba  Ba65  1  0.50000000  0.00000000  0.25000000  1
  Ba  Ba66  1  0.41528650  0.59979250  0.19972900  1
  Ba  Ba67  1  0.64422950  0.15087150  0.17522900  1
  Ba  Ba68  1  0.19128800  0.49571700  0.24922350  1
  Ba  Ba69  1  0.00000000  0.00000000  0.09577800  1
  Ba  Ba70  1  0.11249900  0.90369100  0.20235250  1
  Ba  Ba71  1  0.09630900  0.38750100  0.45235250  1
  Ba  Ba72  1  0.00428300  0.69128800  0.25077650  1
  Ba  Ba73  1  0.50000000  0.50000000  0.00000000  1
  Ba  Ba74  1  0.88750100  0.40369100  0.04764750  1
  Ba  Ba75  1  0.15087150  0.14422950  0.42522900  1
  Li  Li76  1  0.17447850  0.18342050  0.91231000  1
  Li  Li77  1  0.93710100  0.28230700  0.78209650  1
  Li  Li78  1  0.61558550  0.63837550  0.68098500  1
  Li  Li79  1  0.75000000  0.45387550  0.87500000  1
  Li  Li80  1  0.65388750  0.68036950  0.59002900  1
  Li  Li81  1  0.63837550  0.11558550  0.93098500  1
  Li  Li82  1  0.78230700  0.93710100  0.53209650  1
  Li  Li83  1  0.31657950  0.82552150  0.66231000  1
  Li  Li84  1  0.01848700  0.76397100  0.88036150  1
  Li  Li85  1  0.48151300  0.76397100  0.86963850  1
  Li  Li86  1  0.25000000  0.54612450  0.87500000  1
  Li  Li87  1  0.31963050  0.84611250  0.84002900  1
  Li  Li88  1  0.07514550  0.43473050  0.64325300  1
  Li  Li89  1  0.81963050  0.15388750  0.90997100  1
  Li  Li90  1  0.86264300  0.33895200  0.93228950  1
  Li  Li91  1  0.21343350  0.31365750  0.65602800  1
  Li  Li92  1  0.18634250  0.71343350  0.84397200  1
  Li  Li93  1  0.73060450  0.74508450  0.50926900  1
  Li  Li94  1  0.13837550  0.88441450  0.81901500  1
  Li  Li95  1  0.29015500  0.57775700  0.96602750  1
  Li  Li96  1  0.16104800  0.13735700  0.68228950  1
  Li  Li97  1  0.20984500  0.57775700  0.78397250  1
  Li  Li98  1  0.68634250  0.28656650  0.90602800  1
  Li  Li99  1  0.73602900  0.98151300  0.63036150  1
  Li  Li100  1  0.06289900  0.71769300  0.78209650  1
  Li  Li101  1  0.68342050  0.17447850  0.66231000  1
  Li  Li102  1  0.38441450  0.13837550  0.56901500  1
  Li  Li103  1  0.38441450  0.36162450  0.68098500  1
  Li  Li104  1  0.65388750  0.81963050  0.65997100  1
  Li  Li105  1  0.21343350  0.18634250  0.59397200  1
  Li  Li106  1  0.36162450  0.88441450  0.93098500  1
  Li  Li107  1  0.92224300  0.79015500  0.53397250  1
  Li  Li108  1  0.83895200  0.63735700  0.56771050  1
  Li  Li109  1  0.25000000  0.01024850  0.87500000  1
  Li  Li110  1  0.21769300  0.43710100  0.71790350  1
  Li  Li111  1  0.26397100  0.01848700  0.63036150  1
  Li  Li112  1  0.78656650  0.81365750  0.59397200  1
  Li  Li113  1  0.56289900  0.28230700  0.96790350  1
  Li  Li114  1  0.68342050  0.32552150  0.58769000  1
  Li  Li115  1  0.43473050  0.57514550  0.89325300  1
  Li  Li116  1  0.83895200  0.86264300  0.68228950  1
  Li  Li117  1  0.63735700  0.33895200  0.81771050  1
  Li  Li118  1  0.86162450  0.11558550  0.81901500  1
  Li  Li119  1  0.78230700  0.56289900  0.71790350  1
  Li  Li120  1  0.51848700  0.23602900  0.86963850  1
  Li  Li121  1  0.75000000  0.98975150  0.87500000  1
  Li  Li122  1  0.70984500  0.42224300  0.96602750  1
  Li  Li123  1  0.07775700  0.29015500  0.71602750  1
  Li  Li124  1  0.26939550  0.24508450  0.74073100  1
  Li  Li125  1  0.16104800  0.36264300  0.56771050  1
  Li  Li126  1  0.78656650  0.68634250  0.65602800  1
  Li  Li127  1  0.34611250  0.31963050  0.59002900  1
  Li  Li128  1  0.81365750  0.28656650  0.84397200  1
  Li  Li129  1  0.93473050  0.42485450  0.85674700  1
  Li  Li130  1  0.32552150  0.18342050  0.83769000  1
  Li  Li131  1  0.26397100  0.48151300  0.61963850  1
  Li  Li132  1  0.48975150  0.75000000  0.62500000  1
  Li  Li133  1  0.21769300  0.06289900  0.53209650  1
  Li  Li134  1  0.92224300  0.70984500  0.71602750  1
  Li  Li135  1  0.61558550  0.86162450  0.56901500  1
  Li  Li136  1  0.36264300  0.66104800  0.81771050  1
  Li  Li137  1  0.26939550  0.25491550  0.50926900  1
  Li  Li138  1  0.13735700  0.66104800  0.93228950  1
  Li  Li139  1  0.73602900  0.51848700  0.61963850  1
  Li  Li140  1  0.95387550  0.75000000  0.62500000  1
  Li  Li141  1  0.04612450  0.25000000  0.62500000  1
  Li  Li142  1  0.92485450  0.93473050  0.60674700  1
  Li  Li143  1  0.43710100  0.71769300  0.96790350  1
  Li  Li144  1  0.31365750  0.71343350  0.90602800  1
  Li  Li145  1  0.92485450  0.56526950  0.64325300  1
  Li  Li146  1  0.07775700  0.20984500  0.53397250  1
  Li  Li147  1  0.25491550  0.76939550  0.75926900  1
  Li  Li148  1  0.56526950  0.42485450  0.89325300  1
  Li  Li149  1  0.24508450  0.76939550  0.99073100  1
  Li  Li150  1  0.34611250  0.18036950  0.65997100  1
  Li  Li151  1  0.82552150  0.81657950  0.91231000  1
  Li  Li152  1  0.07514550  0.06526950  0.60674700  1
  Li  Li153  1  0.31657950  0.67447850  0.58769000  1
  Li  Li154  1  0.74508450  0.23060450  0.75926900  1
  Li  Li155  1  0.79015500  0.42224300  0.78397250  1
  Li  Li156  1  0.75491550  0.23060450  0.99073100  1
  Li  Li157  1  0.68036950  0.15388750  0.84002900  1
  Li  Li158  1  0.06526950  0.57514550  0.85674700  1
  Li  Li159  1  0.73060450  0.75491550  0.74073100  1
  Li  Li160  1  0.98151300  0.23602900  0.88036150  1
  Li  Li161  1  0.18036950  0.84611250  0.90997100  1
  Li  Li162  1  0.51024850  0.25000000  0.62500000  1
  Li  Li163  1  0.67447850  0.81657950  0.83769000  1
  Li  Li164  1  0.67447850  0.68342050  0.41231000  1
  Li  Li165  1  0.43710100  0.78230700  0.28209650  1
  Li  Li166  1  0.11558550  0.13837550  0.18098500  1
  Li  Li167  1  0.25000000  0.95387550  0.37500000  1
  Li  Li168  1  0.15388750  0.18036950  0.09002900  1
  Li  Li169  1  0.13837550  0.61558550  0.43098500  1
  Li  Li170  1  0.28230700  0.43710100  0.03209650  1
  Li  Li171  1  0.81657950  0.32552150  0.16231000  1
  Li  Li172  1  0.51848700  0.26397100  0.38036150  1
  Li  Li173  1  0.98151300  0.26397100  0.36963850  1
  Li  Li174  1  0.75000000  0.04612450  0.37500000  1
  Li  Li175  1  0.81963050  0.34611250  0.34002900  1
  Li  Li176  1  0.57514550  0.93473050  0.14325300  1
  Li  Li177  1  0.31963050  0.65388750  0.40997100  1
  Li  Li178  1  0.36264300  0.83895200  0.43228950  1
  Li  Li179  1  0.71343350  0.81365750  0.15602800  1
  Li  Li180  1  0.68634250  0.21343350  0.34397200  1
  Li  Li181  1  0.23060450  0.24508450  0.00926900  1
  Li  Li182  1  0.63837550  0.38441450  0.31901500  1
  Li  Li183  1  0.79015500  0.07775700  0.46602750  1
  Li  Li184  1  0.66104800  0.63735700  0.18228950  1
  Li  Li185  1  0.70984500  0.07775700  0.28397250  1
  Li  Li186  1  0.18634250  0.78656650  0.40602800  1
  Li  Li187  1  0.23602900  0.48151300  0.13036150  1
  Li  Li188  1  0.56289900  0.21769300  0.28209650  1
  Li  Li189  1  0.18342050  0.67447850  0.16231000  1
  Li  Li190  1  0.88441450  0.63837550  0.06901500  1
  Li  Li191  1  0.88441450  0.86162450  0.18098500  1
  Li  Li192  1  0.15388750  0.31963050  0.15997100  1
  Li  Li193  1  0.71343350  0.68634250  0.09397200  1
  Li  Li194  1  0.86162450  0.38441450  0.43098500  1
  Li  Li195  1  0.42224300  0.29015500  0.03397250  1
  Li  Li196  1  0.33895200  0.13735700  0.06771050  1
  Li  Li197  1  0.75000000  0.51024850  0.37500000  1
  Li  Li198  1  0.71769300  0.93710100  0.21790350  1
  Li  Li199  1  0.76397100  0.51848700  0.13036150  1
  Li  Li200  1  0.28656650  0.31365750  0.09397200  1
  Li  Li201  1  0.06289900  0.78230700  0.46790350  1
  Li  Li202  1  0.18342050  0.82552150  0.08769000  1
  Li  Li203  1  0.93473050  0.07514550  0.39325300  1
  Li  Li204  1  0.33895200  0.36264300  0.18228950  1
  Li  Li205  1  0.13735700  0.83895200  0.31771050  1
  Li  Li206  1  0.36162450  0.61558550  0.31901500  1
  Li  Li207  1  0.28230700  0.06289900  0.21790350  1
  Li  Li208  1  0.01848700  0.73602900  0.36963850  1
  Li  Li209  1  0.25000000  0.48975150  0.37500000  1
  Li  Li210  1  0.20984500  0.92224300  0.46602750  1
  Li  Li211  1  0.57775700  0.79015500  0.21602750  1
  Li  Li212  1  0.76939550  0.74508450  0.24073100  1
  Li  Li213  1  0.66104800  0.86264300  0.06771050  1
  Li  Li214  1  0.28656650  0.18634250  0.15602800  1
  Li  Li215  1  0.84611250  0.81963050  0.09002900  1
  Li  Li216  1  0.31365750  0.78656650  0.34397200  1
  Li  Li217  1  0.43473050  0.92485450  0.35674700  1
  Li  Li218  1  0.82552150  0.68342050  0.33769000  1
  Li  Li219  1  0.76397100  0.98151300  0.11963850  1
  Li  Li220  1  0.98975150  0.25000000  0.12500000  1
  Li  Li221  1  0.71769300  0.56289900  0.03209650  1
  Li  Li222  1  0.42224300  0.20984500  0.21602750  1
  Li  Li223  1  0.11558550  0.36162450  0.06901500  1
  Li  Li224  1  0.86264300  0.16104800  0.31771050  1
  Li  Li225  1  0.76939550  0.75491550  0.00926900  1
  Li  Li226  1  0.63735700  0.16104800  0.43228950  1
  Li  Li227  1  0.23602900  0.01848700  0.11963850  1
  Li  Li228  1  0.45387550  0.25000000  0.12500000  1
  Li  Li229  1  0.54612450  0.75000000  0.12500000  1
  Li  Li230  1  0.42485450  0.43473050  0.10674700  1
  Li  Li231  1  0.93710100  0.21769300  0.46790350  1
  Li  Li232  1  0.81365750  0.21343350  0.40602800  1
  Li  Li233  1  0.42485450  0.06526950  0.14325300  1
  Li  Li234  1  0.57775700  0.70984500  0.03397250  1
  Li  Li235  1  0.75491550  0.26939550  0.25926900  1
  Li  Li236  1  0.06526950  0.92485450  0.39325300  1
  Li  Li237  1  0.74508450  0.26939550  0.49073100  1
  Li  Li238  1  0.84611250  0.68036950  0.15997100  1
  Li  Li239  1  0.32552150  0.31657950  0.41231000  1
  Li  Li240  1  0.57514550  0.56526950  0.10674700  1
  Li  Li241  1  0.81657950  0.17447850  0.08769000  1
  Li  Li242  1  0.24508450  0.73060450  0.25926900  1
  Li  Li243  1  0.29015500  0.92224300  0.28397250  1
  Li  Li244  1  0.25491550  0.73060450  0.49073100  1
  Li  Li245  1  0.18036950  0.65388750  0.34002900  1
  Li  Li246  1  0.56526950  0.07514550  0.35674700  1
  Li  Li247  1  0.23060450  0.25491550  0.24073100  1
  Li  Li248  1  0.48151300  0.73602900  0.38036150  1
  Li  Li249  1  0.68036950  0.34611250  0.40997100  1
  Li  Li250  1  0.01024850  0.75000000  0.12500000  1
  Li  Li251  1  0.17447850  0.31657950  0.33769000  1
