# generated using pymatgen
data_Ba6Mn5O16
_symmetry_space_group_name_H-M   'P 1'
_cell_length_a   5.80151200
_cell_length_b   13.29856800
_cell_length_c   20.62065800
_cell_angle_alpha   90.00000000
_cell_angle_beta   90.00000000
_cell_angle_gamma   90.00000000
_symmetry_Int_Tables_number   1
_chemical_formula_structural   Ba6Mn5O16
_chemical_formula_sum   'Ba24 Mn20 O64'
_cell_volume   1590.92091972
_cell_formula_units_Z   4
loop_
 _symmetry_equiv_pos_site_id
 _symmetry_equiv_pos_as_xyz
  1  'x, y, z'
loop_
 _atom_site_type_symbol
 _atom_site_label
 _atom_site_symmetry_multiplicity
 _atom_site_fract_x
 _atom_site_fract_y
 _atom_site_fract_z
 _atom_site_occupancy
  Ba  Ba0  1  0.50000000  0.64426200  0.47754400  1
  Ba  Ba1  1  0.00000000  0.85573800  0.52245600  1
  Ba  Ba2  1  0.50000000  0.85573800  0.97754400  1
  Ba  Ba3  1  0.00000000  0.64426200  0.02245600  1
  Ba  Ba4  1  0.50000000  0.91279100  0.17862400  1
  Ba  Ba5  1  0.00000000  0.58720900  0.82137600  1
  Ba  Ba6  1  0.50000000  0.58720900  0.67862400  1
  Ba  Ba7  1  0.00000000  0.91279100  0.32137600  1
  Ba  Ba8  1  0.50000000  0.62072700  0.16418000  1
  Ba  Ba9  1  0.00000000  0.87927300  0.83582000  1
  Ba  Ba10  1  0.50000000  0.87927300  0.66418000  1
  Ba  Ba11  1  0.00000000  0.62072700  0.33582000  1
  Ba  Ba12  1  0.00000000  0.14426200  0.47754400  1
  Ba  Ba13  1  0.50000000  0.35573800  0.52245600  1
  Ba  Ba14  1  0.00000000  0.35573800  0.97754400  1
  Ba  Ba15  1  0.50000000  0.14426200  0.02245600  1
  Ba  Ba16  1  0.00000000  0.41279100  0.17862400  1
  Ba  Ba17  1  0.50000000  0.08720900  0.82137600  1
  Ba  Ba18  1  0.00000000  0.08720900  0.67862400  1
  Ba  Ba19  1  0.50000000  0.41279100  0.32137600  1
  Ba  Ba20  1  0.00000000  0.12072700  0.16418000  1
  Ba  Ba21  1  0.50000000  0.37927300  0.83582000  1
  Ba  Ba22  1  0.00000000  0.37927300  0.66418000  1
  Ba  Ba23  1  0.50000000  0.12072700  0.33582000  1
  Mn  Mn24  1  0.50000000  0.87712100  0.40642900  1
  Mn  Mn25  1  0.00000000  0.62287900  0.59357100  1
  Mn  Mn26  1  0.50000000  0.62287900  0.90642900  1
  Mn  Mn27  1  0.00000000  0.87712100  0.09357100  1
  Mn  Mn28  1  0.00000000  0.50000000  0.50000000  1
  Mn  Mn29  1  0.50000000  0.50000000  0.00000000  1
  Mn  Mn30  1  0.50000000  0.75044800  0.31092300  1
  Mn  Mn31  1  0.00000000  0.74955200  0.68907700  1
  Mn  Mn32  1  0.50000000  0.74955200  0.81092300  1
  Mn  Mn33  1  0.00000000  0.75044800  0.18907700  1
  Mn  Mn34  1  0.00000000  0.37712100  0.40642900  1
  Mn  Mn35  1  0.50000000  0.12287900  0.59357100  1
  Mn  Mn36  1  0.00000000  0.12287900  0.90642900  1
  Mn  Mn37  1  0.50000000  0.37712100  0.09357100  1
  Mn  Mn38  1  0.50000000  0.00000000  0.50000000  1
  Mn  Mn39  1  0.00000000  0.00000000  0.00000000  1
  Mn  Mn40  1  0.00000000  0.25044800  0.31092300  1
  Mn  Mn41  1  0.50000000  0.24955200  0.68907700  1
  Mn  Mn42  1  0.00000000  0.24955200  0.81092300  1
  Mn  Mn43  1  0.50000000  0.25044800  0.18907700  1
  O  O44  1  0.71652550  0.72706150  0.88392600  1
  O  O45  1  0.21652550  0.77293850  0.11607400  1
  O  O46  1  0.28347450  0.77293850  0.38392600  1
  O  O47  1  0.78347450  0.72706150  0.61607400  1
  O  O48  1  0.78347450  0.77293850  0.11607400  1
  O  O49  1  0.28347450  0.72706150  0.88392600  1
  O  O50  1  0.21652550  0.72706150  0.61607400  1
  O  O51  1  0.71652550  0.77293850  0.38392600  1
  O  O52  1  0.77689600  0.51868900  0.56883200  1
  O  O53  1  0.27689600  0.98131100  0.43116800  1
  O  O54  1  0.22310400  0.98131100  0.06883200  1
  O  O55  1  0.72310400  0.51868900  0.93116800  1
  O  O56  1  0.72310400  0.98131100  0.43116800  1
  O  O57  1  0.22310400  0.51868900  0.56883200  1
  O  O58  1  0.27689600  0.51868900  0.93116800  1
  O  O59  1  0.77689600  0.98131100  0.06883200  1
  O  O60  1  0.50000000  0.85328400  0.50028900  1
  O  O61  1  0.00000000  0.64671600  0.49971100  1
  O  O62  1  0.50000000  0.64671600  0.00028900  1
  O  O63  1  0.00000000  0.85328400  0.99971100  1
  O  O64  1  0.50000000  0.91042400  0.31633200  1
  O  O65  1  0.00000000  0.58957600  0.68366800  1
  O  O66  1  0.75000000  0.76172800  0.25000000  1
  O  O67  1  0.25000000  0.73827200  0.75000000  1
  O  O68  1  0.75000000  0.73827200  0.75000000  1
  O  O69  1  0.25000000  0.76172800  0.25000000  1
  O  O70  1  0.00000000  0.61235000  0.18647100  1
  O  O71  1  0.50000000  0.88765000  0.81352900  1
  O  O72  1  0.00000000  0.88765000  0.68647100  1
  O  O73  1  0.50000000  0.61235000  0.31352900  1
  O  O74  1  0.00000000  0.91042400  0.18366800  1
  O  O75  1  0.50000000  0.58957600  0.81633200  1
  O  O76  1  0.21652550  0.22706150  0.88392600  1
  O  O77  1  0.71652550  0.27293850  0.11607400  1
  O  O78  1  0.78347450  0.27293850  0.38392600  1
  O  O79  1  0.28347450  0.22706150  0.61607400  1
  O  O80  1  0.28347450  0.27293850  0.11607400  1
  O  O81  1  0.78347450  0.22706150  0.88392600  1
  O  O82  1  0.71652550  0.22706150  0.61607400  1
  O  O83  1  0.21652550  0.27293850  0.38392600  1
  O  O84  1  0.27689600  0.01868900  0.56883200  1
  O  O85  1  0.77689600  0.48131100  0.43116800  1
  O  O86  1  0.72310400  0.48131100  0.06883200  1
  O  O87  1  0.22310400  0.01868900  0.93116800  1
  O  O88  1  0.22310400  0.48131100  0.43116800  1
  O  O89  1  0.72310400  0.01868900  0.56883200  1
  O  O90  1  0.77689600  0.01868900  0.93116800  1
  O  O91  1  0.27689600  0.48131100  0.06883200  1
  O  O92  1  0.00000000  0.35328400  0.50028900  1
  O  O93  1  0.50000000  0.14671600  0.49971100  1
  O  O94  1  0.00000000  0.14671600  0.00028900  1
  O  O95  1  0.50000000  0.35328400  0.99971100  1
  O  O96  1  0.00000000  0.41042400  0.31633200  1
  O  O97  1  0.50000000  0.08957600  0.68366800  1
  O  O98  1  0.25000000  0.26172800  0.25000000  1
  O  O99  1  0.75000000  0.23827200  0.75000000  1
  O  O100  1  0.25000000  0.23827200  0.75000000  1
  O  O101  1  0.75000000  0.26172800  0.25000000  1
  O  O102  1  0.50000000  0.11235000  0.18647100  1
  O  O103  1  0.00000000  0.38765000  0.81352900  1
  O  O104  1  0.50000000  0.38765000  0.68647100  1
  O  O105  1  0.00000000  0.11235000  0.31352900  1
  O  O106  1  0.50000000  0.41042400  0.18366800  1
  O  O107  1  0.00000000  0.08957600  0.81633200  1
