# generated using pymatgen
data_K2LiVO4
_symmetry_space_group_name_H-M   'P 1'
_cell_length_a   8.48157800
_cell_length_b   7.87046600
_cell_length_c   7.63082717
_cell_angle_alpha   90.00000000
_cell_angle_beta   90.39043556
_cell_angle_gamma   90.00000000
_symmetry_Int_Tables_number   1
_chemical_formula_structural   K2LiVO4
_chemical_formula_sum   'K8 Li4 V4 O16'
_cell_volume   509.37619091
_cell_formula_units_Z   4
loop_
 _symmetry_equiv_pos_site_id
 _symmetry_equiv_pos_as_xyz
  1  'x, y, z'
loop_
 _atom_site_type_symbol
 _atom_site_label
 _atom_site_symmetry_multiplicity
 _atom_site_fract_x
 _atom_site_fract_y
 _atom_site_fract_z
 _atom_site_occupancy
  K  K0  1  0.70289800  0.00000000  0.17765800  1
  K  K1  1  0.50000000  0.28147900  0.50000000  1
  K  K2  1  0.29710200  0.00000000  0.82234200  1
  K  K3  1  0.50000000  0.71852100  0.50000000  1
  K  K4  1  0.20289800  0.50000000  0.17765800  1
  K  K5  1  0.00000000  0.78147900  0.50000000  1
  K  K6  1  0.79710200  0.50000000  0.82234200  1
  K  K7  1  0.00000000  0.21852100  0.50000000  1
  Li  Li8  1  0.50000000  0.32245100  0.00000000  1
  Li  Li9  1  0.50000000  0.67754900  0.00000000  1
  Li  Li10  1  0.00000000  0.82245100  0.00000000  1
  Li  Li11  1  0.00000000  0.17754900  0.00000000  1
  V  V12  1  0.71438300  0.00000000  0.75538100  1
  V  V13  1  0.28561700  0.00000000  0.24461900  1
  V  V14  1  0.21438300  0.50000000  0.75538100  1
  V  V15  1  0.78561700  0.50000000  0.24461900  1
  O  O16  1  0.38596900  0.82003800  0.17153400  1
  O  O17  1  0.09396800  0.00000000  0.15791100  1
  O  O18  1  0.38596900  0.17996200  0.17153400  1
  O  O19  1  0.90603200  0.00000000  0.84208900  1
  O  O20  1  0.27766100  0.00000000  0.47311400  1
  O  O21  1  0.61403100  0.82003800  0.82846600  1
  O  O22  1  0.61403100  0.17996200  0.82846600  1
  O  O23  1  0.72233900  0.00000000  0.52688600  1
  O  O24  1  0.88596900  0.32003800  0.17153400  1
  O  O25  1  0.59396800  0.50000000  0.15791100  1
  O  O26  1  0.88596900  0.67996200  0.17153400  1
  O  O27  1  0.40603200  0.50000000  0.84208900  1
  O  O28  1  0.77766100  0.50000000  0.47311400  1
  O  O29  1  0.11403100  0.32003800  0.82846600  1
  O  O30  1  0.11403100  0.67996200  0.82846600  1
  O  O31  1  0.22233900  0.50000000  0.52688600  1
