# generated using pymatgen
data_ErFe3
_symmetry_space_group_name_H-M   'P 1'
_cell_length_a   5.06706561
_cell_length_b   5.06706561
_cell_length_c   24.13437664
_cell_angle_alpha   90.00000000
_cell_angle_beta   90.00000000
_cell_angle_gamma   120.00000000
_symmetry_Int_Tables_number   1
_chemical_formula_structural   ErFe3
_chemical_formula_sum   'Er9 Fe27'
_cell_volume   536.63596303
_cell_formula_units_Z   9
loop_
 _symmetry_equiv_pos_site_id
 _symmetry_equiv_pos_as_xyz
  1  'x, y, z'
loop_
 _atom_site_type_symbol
 _atom_site_label
 _atom_site_symmetry_multiplicity
 _atom_site_fract_x
 _atom_site_fract_y
 _atom_site_fract_z
 _atom_site_occupancy
  Er  Er0  1  0.00000000  0.00000000  0.14194300  1
  Er  Er1  1  0.00000000  0.00000000  0.00000000  1
  Er  Er2  1  0.66666667  0.33333333  0.19139033  1
  Er  Er3  1  0.66666667  0.33333333  0.47527633  1
  Er  Er4  1  0.66666667  0.33333333  0.33333333  1
  Er  Er5  1  0.33333333  0.66666667  0.52472367  1
  Er  Er6  1  0.33333333  0.66666667  0.80860967  1
  Er  Er7  1  0.33333333  0.66666667  0.66666667  1
  Er  Er8  1  0.00000000  0.00000000  0.85805700  1
  Fe  Fe9  1  0.16670933  0.33341867  0.25142267  1
  Fe  Fe10  1  0.66658133  0.83329067  0.25142267  1
  Fe  Fe11  1  0.49995733  0.50004267  0.08191067  1
  Fe  Fe12  1  0.49995733  0.99991467  0.08191067  1
  Fe  Fe13  1  0.16670933  0.83329067  0.25142267  1
  Fe  Fe14  1  0.00008533  0.50004267  0.08191067  1
  Fe  Fe15  1  0.00000000  0.00000000  0.33281000  1
  Fe  Fe16  1  0.66666667  0.33333333  0.00052333  1
  Fe  Fe17  1  0.33333333  0.66666667  0.16666667  1
  Fe  Fe18  1  0.83337600  0.66675200  0.58475600  1
  Fe  Fe19  1  0.33324800  0.16662400  0.58475600  1
  Fe  Fe20  1  0.16662400  0.83337600  0.41524400  1
  Fe  Fe21  1  0.16662400  0.33324800  0.41524400  1
  Fe  Fe22  1  0.83337600  0.16662400  0.58475600  1
  Fe  Fe23  1  0.66675200  0.83337600  0.41524400  1
  Fe  Fe24  1  0.66666667  0.33333333  0.66614333  1
  Fe  Fe25  1  0.33333333  0.66666667  0.33385667  1
  Fe  Fe26  1  1.00000000  1.00000000  0.50000000  1
  Fe  Fe27  1  0.50004267  0.00008533  0.91808933  1
  Fe  Fe28  1  0.99991467  0.49995733  0.91808933  1
  Fe  Fe29  1  0.83329067  0.16670933  0.74857733  1
  Fe  Fe30  1  0.83329067  0.66658133  0.74857733  1
  Fe  Fe31  1  0.50004267  0.49995733  0.91808933  1
  Fe  Fe32  1  0.33341867  0.16670933  0.74857733  1
  Fe  Fe33  1  0.33333333  0.66666667  0.99947667  1
  Fe  Fe34  1  0.00000000  0.00000000  0.66719000  1
  Fe  Fe35  1  0.66666667  0.33333333  0.83333333  1
