# generated using pymatgen
data_Rb6U(Mo2O9)2
_symmetry_space_group_name_H-M   'P 1'
_cell_length_a   17.66472600
_cell_length_b   11.78127000
_cell_length_c   14.39448557
_cell_angle_alpha   90.00000000
_cell_angle_beta   127.77317650
_cell_angle_gamma   90.00000000
_symmetry_Int_Tables_number   1
_chemical_formula_structural   Rb6U(Mo2O9)2
_chemical_formula_sum   'Rb24 U4 Mo16 O72'
_cell_volume   2367.90948240
_cell_formula_units_Z   4
loop_
 _symmetry_equiv_pos_site_id
 _symmetry_equiv_pos_as_xyz
  1  'x, y, z'
loop_
 _atom_site_type_symbol
 _atom_site_label
 _atom_site_symmetry_multiplicity
 _atom_site_fract_x
 _atom_site_fract_y
 _atom_site_fract_z
 _atom_site_occupancy
  Rb  Rb0  1  0.00000000  0.68030900  0.25000000  1
  Rb  Rb1  1  0.21299300  0.86578200  0.66615400  1
  Rb  Rb2  1  0.35893950  0.17421650  0.66509900  1
  Rb  Rb3  1  0.78700700  0.86578200  0.83384600  1
  Rb  Rb4  1  0.64106050  0.17421650  0.83490100  1
  Rb  Rb5  1  0.85893950  0.32578350  0.16509900  1
  Rb  Rb6  1  0.50000000  0.81969100  0.75000000  1
  Rb  Rb7  1  0.14106050  0.32578350  0.33490100  1
  Rb  Rb8  1  0.71299300  0.63421800  0.16615400  1
  Rb  Rb9  1  0.28700700  0.63421800  0.33384600  1
  Rb  Rb10  1  0.50000000  0.50826900  0.25000000  1
  Rb  Rb11  1  0.00000000  0.99173100  0.75000000  1
  Rb  Rb12  1  0.50000000  0.18030900  0.25000000  1
  Rb  Rb13  1  0.71299300  0.36578200  0.66615400  1
  Rb  Rb14  1  0.85893950  0.67421650  0.66509900  1
  Rb  Rb15  1  0.28700700  0.36578200  0.83384600  1
  Rb  Rb16  1  0.14106050  0.67421650  0.83490100  1
  Rb  Rb17  1  0.35893950  0.82578350  0.16509900  1
  Rb  Rb18  1  0.00000000  0.31969100  0.75000000  1
  Rb  Rb19  1  0.64106050  0.82578350  0.33490100  1
  Rb  Rb20  1  0.21299300  0.13421800  0.16615400  1
  Rb  Rb21  1  0.78700700  0.13421800  0.33384600  1
  Rb  Rb22  1  0.00000000  0.00826900  0.25000000  1
  Rb  Rb23  1  0.50000000  0.49173100  0.75000000  1
  U  U24  1  0.00000000  0.50000000  0.00000000  1
  U  U25  1  0.50000000  0.00000000  0.50000000  1
  U  U26  1  0.50000000  0.00000000  0.00000000  1
  U  U27  1  0.00000000  0.50000000  0.50000000  1
  Mo  Mo28  1  0.26270700  0.05777300  0.92972800  1
  Mo  Mo29  1  0.43751250  0.68832550  0.95710300  1
  Mo  Mo30  1  0.23729300  0.44222700  0.07027200  1
  Mo  Mo31  1  0.23729300  0.55777300  0.57027200  1
  Mo  Mo32  1  0.93751250  0.81167450  0.45710300  1
  Mo  Mo33  1  0.26270700  0.94222700  0.42972800  1
  Mo  Mo34  1  0.06248750  0.81167450  0.04289700  1
  Mo  Mo35  1  0.56248750  0.68832550  0.54289700  1
  Mo  Mo36  1  0.76270700  0.55777300  0.92972800  1
  Mo  Mo37  1  0.93751250  0.18832550  0.95710300  1
  Mo  Mo38  1  0.73729300  0.94222700  0.07027200  1
  Mo  Mo39  1  0.73729300  0.05777300  0.57027200  1
  Mo  Mo40  1  0.43751250  0.31167450  0.45710300  1
  Mo  Mo41  1  0.76270700  0.44222700  0.42972800  1
  Mo  Mo42  1  0.56248750  0.31167450  0.04289700  1
  Mo  Mo43  1  0.06248750  0.18832550  0.54289700  1
  O  O44  1  0.28507600  0.58127600  0.12486200  1
  O  O45  1  0.99155050  0.19265350  0.11007400  1
  O  O46  1  0.21492400  0.91872400  0.87513800  1
  O  O47  1  0.50844950  0.30734650  0.88992600  1
  O  O48  1  0.98319850  0.88135150  0.06123000  1
  O  O49  1  0.49922350  0.03954550  0.62390700  1
  O  O50  1  0.99922350  0.46045450  0.12390700  1
  O  O51  1  0.14181650  0.40866750  0.08603000  1
  O  O52  1  0.17560450  0.11942050  0.62170200  1
  O  O53  1  0.28507600  0.41872400  0.62486200  1
  O  O54  1  0.57856300  0.83828100  0.59658900  1
  O  O55  1  0.81291700  0.56133900  0.08092600  1
  O  O56  1  0.17560450  0.88057950  0.12170200  1
  O  O57  1  0.07856300  0.66171900  0.09658900  1
  O  O58  1  0.51680150  0.61864850  0.93877000  1
  O  O59  1  0.01680150  0.88135150  0.43877000  1
  O  O60  1  0.16875700  0.84126500  0.35262000  1
  O  O61  1  0.35818350  0.09133250  0.91397000  1
  O  O62  1  0.33124300  0.34126500  0.14738000  1
  O  O63  1  0.14181650  0.59133250  0.58603000  1
  O  O64  1  0.42143700  0.83828100  0.90341100  1
  O  O65  1  0.18708300  0.56133900  0.41907400  1
  O  O66  1  0.92143700  0.66171900  0.40341100  1
  O  O67  1  0.68708300  0.93866100  0.91907400  1
  O  O68  1  0.50844950  0.69265350  0.38992600  1
  O  O69  1  0.32439550  0.61942050  0.87829800  1
  O  O70  1  0.31291700  0.93866100  0.58092600  1
  O  O71  1  0.16875700  0.15873500  0.85262000  1
  O  O72  1  0.32439550  0.38057950  0.37829800  1
  O  O73  1  0.33124300  0.65873500  0.64738000  1
  O  O74  1  0.48319850  0.61864850  0.56123000  1
  O  O75  1  0.21492400  0.08127600  0.37513800  1
  O  O76  1  0.00077650  0.46045450  0.37609300  1
  O  O77  1  0.50077650  0.03954550  0.87609300  1
  O  O78  1  0.35818350  0.90866750  0.41397000  1
  O  O79  1  0.99155050  0.80734650  0.61007400  1
  O  O80  1  0.78507600  0.08127600  0.12486200  1
  O  O81  1  0.49155050  0.69265350  0.11007400  1
  O  O82  1  0.71492400  0.41872400  0.87513800  1
  O  O83  1  0.00844950  0.80734650  0.88992600  1
  O  O84  1  0.48319850  0.38135150  0.06123000  1
  O  O85  1  0.99922350  0.53954550  0.62390700  1
  O  O86  1  0.49922350  0.96045450  0.12390700  1
  O  O87  1  0.64181650  0.90866750  0.08603000  1
  O  O88  1  0.67560450  0.61942050  0.62170200  1
  O  O89  1  0.78507600  0.91872400  0.62486200  1
  O  O90  1  0.07856300  0.33828100  0.59658900  1
  O  O91  1  0.31291700  0.06133900  0.08092600  1
  O  O92  1  0.67560450  0.38057950  0.12170200  1
  O  O93  1  0.57856300  0.16171900  0.09658900  1
  O  O94  1  0.01680150  0.11864850  0.93877000  1
  O  O95  1  0.51680150  0.38135150  0.43877000  1
  O  O96  1  0.66875700  0.34126500  0.35262000  1
  O  O97  1  0.85818350  0.59133250  0.91397000  1
  O  O98  1  0.83124300  0.84126500  0.14738000  1
  O  O99  1  0.64181650  0.09133250  0.58603000  1
  O  O100  1  0.92143700  0.33828100  0.90341100  1
  O  O101  1  0.68708300  0.06133900  0.41907400  1
  O  O102  1  0.42143700  0.16171900  0.40341100  1
  O  O103  1  0.18708300  0.43866100  0.91907400  1
  O  O104  1  0.00844950  0.19265350  0.38992600  1
  O  O105  1  0.82439550  0.11942050  0.87829800  1
  O  O106  1  0.81291700  0.43866100  0.58092600  1
  O  O107  1  0.66875700  0.65873500  0.85262000  1
  O  O108  1  0.82439550  0.88057950  0.37829800  1
  O  O109  1  0.83124300  0.15873500  0.64738000  1
  O  O110  1  0.98319850  0.11864850  0.56123000  1
  O  O111  1  0.71492400  0.58127600  0.37513800  1
  O  O112  1  0.50077650  0.96045450  0.37609300  1
  O  O113  1  0.00077650  0.53954550  0.87609300  1
  O  O114  1  0.85818350  0.40866750  0.41397000  1
  O  O115  1  0.49155050  0.30734650  0.61007400  1
