# generated using pymatgen
data_FeMoO4
_symmetry_space_group_name_H-M   'P 1'
_cell_length_a   9.98194264
_cell_length_b   9.14631681
_cell_length_c   7.80593225
_cell_angle_alpha   90.00000000
_cell_angle_beta   114.01822614
_cell_angle_gamma   90.00000000
_symmetry_Int_Tables_number   1
_chemical_formula_structural   FeMoO4
_chemical_formula_sum   'Fe8 Mo8 O32'
_cell_volume   650.96061794
_cell_formula_units_Z   8
loop_
 _symmetry_equiv_pos_site_id
 _symmetry_equiv_pos_as_xyz
  1  'x, y, z'
loop_
 _atom_site_type_symbol
 _atom_site_label
 _atom_site_symmetry_multiplicity
 _atom_site_fract_x
 _atom_site_fract_y
 _atom_site_fract_z
 _atom_site_occupancy
  Fe  Fe0  1  0.00000000  0.30358900  0.00000000  1
  Fe  Fe1  1  0.19395050  0.50000000  0.34519200  1
  Fe  Fe2  1  0.80604950  0.50000000  0.65480800  1
  Fe  Fe3  1  0.00000000  0.69641100  0.00000000  1
  Fe  Fe4  1  0.50000000  0.80358900  0.00000000  1
  Fe  Fe5  1  0.69395050  0.00000000  0.34519200  1
  Fe  Fe6  1  0.30604950  0.00000000  0.65480800  1
  Fe  Fe7  1  0.50000000  0.19641100  0.00000000  1
  Mo  Mo8  1  0.78750850  0.50000000  0.14175600  1
  Mo  Mo9  1  0.21249150  0.50000000  0.85824400  1
  Mo  Mo10  1  0.00000000  0.71361100  0.50000000  1
  Mo  Mo11  1  0.00000000  0.28638900  0.50000000  1
  Mo  Mo12  1  0.28750850  0.00000000  0.14175600  1
  Mo  Mo13  1  0.71249150  0.00000000  0.85824400  1
  Mo  Mo14  1  0.50000000  0.21361100  0.50000000  1
  Mo  Mo15  1  0.50000000  0.78638900  0.50000000  1
  O  O16  1  0.84896100  0.50000000  0.41547400  1
  O  O17  1  0.15103900  0.50000000  0.58452600  1
  O  O18  1  0.14997950  0.50000000  0.06137600  1
  O  O19  1  0.85002050  0.50000000  0.93862400  1
  O  O20  1  0.00846000  0.35118100  0.73939900  1
  O  O21  1  0.00846000  0.64881900  0.73939900  1
  O  O22  1  0.99154000  0.64881900  0.26060100  1
  O  O23  1  0.99154000  0.35118100  0.26060100  1
  O  O24  1  0.66626050  0.34955650  0.08252800  1
  O  O25  1  0.66626050  0.65044350  0.08252800  1
  O  O26  1  0.33373950  0.65044350  0.91747200  1
  O  O27  1  0.33373950  0.34955650  0.91747200  1
  O  O28  1  0.84884300  0.83293800  0.42802600  1
  O  O29  1  0.84884300  0.16706200  0.42802600  1
  O  O30  1  0.15115700  0.83293800  0.57197400  1
  O  O31  1  0.15115700  0.16706200  0.57197400  1
  O  O32  1  0.34896100  0.00000000  0.41547400  1
  O  O33  1  0.65103900  0.00000000  0.58452600  1
  O  O34  1  0.64997950  0.00000000  0.06137600  1
  O  O35  1  0.35002050  0.00000000  0.93862400  1
  O  O36  1  0.50846000  0.85118100  0.73939900  1
  O  O37  1  0.50846000  0.14881900  0.73939900  1
  O  O38  1  0.49154000  0.14881900  0.26060100  1
  O  O39  1  0.49154000  0.85118100  0.26060100  1
  O  O40  1  0.16626050  0.84955650  0.08252800  1
  O  O41  1  0.16626050  0.15044350  0.08252800  1
  O  O42  1  0.83373950  0.15044350  0.91747200  1
  O  O43  1  0.83373950  0.84955650  0.91747200  1
  O  O44  1  0.34884300  0.33293800  0.42802600  1
  O  O45  1  0.34884300  0.66706200  0.42802600  1
  O  O46  1  0.65115700  0.33293800  0.57197400  1
  O  O47  1  0.65115700  0.66706200  0.57197400  1
