# generated using pymatgen
data_CsLiMoO4
_symmetry_space_group_name_H-M   'P 1'
_cell_length_a   8.57884200
_cell_length_b   8.57884200
_cell_length_c   8.57884200
_cell_angle_alpha   90.00000000
_cell_angle_beta   90.00000000
_cell_angle_gamma   90.00000000
_symmetry_Int_Tables_number   1
_chemical_formula_structural   CsLiMoO4
_chemical_formula_sum   'Cs4 Li4 Mo4 O16'
_cell_volume   631.37300314
_cell_formula_units_Z   4
loop_
 _symmetry_equiv_pos_site_id
 _symmetry_equiv_pos_as_xyz
  1  'x, y, z'
loop_
 _atom_site_type_symbol
 _atom_site_label
 _atom_site_symmetry_multiplicity
 _atom_site_fract_x
 _atom_site_fract_y
 _atom_site_fract_z
 _atom_site_occupancy
  Cs  Cs0  1  0.25000000  0.25000000  0.75000000  1
  Cs  Cs1  1  0.25000000  0.75000000  0.25000000  1
  Cs  Cs2  1  0.75000000  0.25000000  0.25000000  1
  Cs  Cs3  1  0.75000000  0.75000000  0.75000000  1
  Li  Li4  1  0.50000000  0.00000000  0.00000000  1
  Li  Li5  1  0.50000000  0.50000000  0.50000000  1
  Li  Li6  1  0.00000000  0.00000000  0.50000000  1
  Li  Li7  1  0.00000000  0.50000000  0.00000000  1
  Mo  Mo8  1  0.25000000  0.25000000  0.25000000  1
  Mo  Mo9  1  0.25000000  0.75000000  0.75000000  1
  Mo  Mo10  1  0.75000000  0.25000000  0.75000000  1
  Mo  Mo11  1  0.75000000  0.75000000  0.25000000  1
  O  O12  1  0.37072767  0.12927233  0.12927233  1
  O  O13  1  0.62927233  0.12927233  0.87072767  1
  O  O14  1  0.12927233  0.37072767  0.12927233  1
  O  O15  1  0.87072767  0.37072767  0.87072767  1
  O  O16  1  0.37072767  0.62927233  0.62927233  1
  O  O17  1  0.62927233  0.62927233  0.37072767  1
  O  O18  1  0.12927233  0.87072767  0.62927233  1
  O  O19  1  0.87072767  0.87072767  0.37072767  1
  O  O20  1  0.87072767  0.12927233  0.62927233  1
  O  O21  1  0.12927233  0.12927233  0.37072767  1
  O  O22  1  0.62927233  0.37072767  0.62927233  1
  O  O23  1  0.37072767  0.37072767  0.37072767  1
  O  O24  1  0.87072767  0.62927233  0.12927233  1
  O  O25  1  0.12927233  0.62927233  0.87072767  1
  O  O26  1  0.62927233  0.87072767  0.12927233  1
  O  O27  1  0.37072767  0.87072767  0.87072767  1
