# generated using pymatgen
data_Ho5Co2Bi
_symmetry_space_group_name_H-M   'P 1'
_cell_length_a   7.51371200
_cell_length_b   7.51371200
_cell_length_c   14.18681200
_cell_angle_alpha   90.00000000
_cell_angle_beta   90.00000000
_cell_angle_gamma   90.00000000
_symmetry_Int_Tables_number   1
_chemical_formula_structural   Ho5Co2Bi
_chemical_formula_sum   'Ho20 Co8 Bi4'
_cell_volume   800.92878588
_cell_formula_units_Z   4
loop_
 _symmetry_equiv_pos_site_id
 _symmetry_equiv_pos_as_xyz
  1  'x, y, z'
loop_
 _atom_site_type_symbol
 _atom_site_label
 _atom_site_symmetry_multiplicity
 _atom_site_fract_x
 _atom_site_fract_y
 _atom_site_fract_z
 _atom_site_occupancy
  Ho  Ho0  1  0.16107200  0.33892800  0.37326200  1
  Ho  Ho1  1  0.83892800  0.33892800  0.12673800  1
  Ho  Ho2  1  0.16107200  0.66107200  0.12673800  1
  Ho  Ho3  1  0.66107200  0.16107200  0.37326200  1
  Ho  Ho4  1  0.00000000  0.00000000  0.00000000  1
  Ho  Ho5  1  0.83892800  0.66107200  0.37326200  1
  Ho  Ho6  1  0.33892800  0.16107200  0.12673800  1
  Ho  Ho7  1  0.33892800  0.83892800  0.37326200  1
  Ho  Ho8  1  0.66107200  0.83892800  0.12673800  1
  Ho  Ho9  1  0.50000000  0.50000000  0.00000000  1
  Ho  Ho10  1  0.66107200  0.83892800  0.87326200  1
  Ho  Ho11  1  0.33892800  0.83892800  0.62673800  1
  Ho  Ho12  1  0.66107200  0.16107200  0.62673800  1
  Ho  Ho13  1  0.16107200  0.66107200  0.87326200  1
  Ho  Ho14  1  0.50000000  0.50000000  0.50000000  1
  Ho  Ho15  1  0.33892800  0.16107200  0.87326200  1
  Ho  Ho16  1  0.83892800  0.66107200  0.62673800  1
  Ho  Ho17  1  0.83892800  0.33892800  0.87326200  1
  Ho  Ho18  1  0.16107200  0.33892800  0.62673800  1
  Ho  Ho19  1  0.00000000  0.00000000  0.50000000  1
  Co  Co20  1  0.63380550  0.13380550  0.00000000  1
  Co  Co21  1  0.86619450  0.36619450  0.50000000  1
  Co  Co22  1  0.86619450  0.63380550  0.00000000  1
  Co  Co23  1  0.13380550  0.36619450  0.00000000  1
  Co  Co24  1  0.13380550  0.63380550  0.50000000  1
  Co  Co25  1  0.36619450  0.86619450  0.00000000  1
  Co  Co26  1  0.36619450  0.13380550  0.50000000  1
  Co  Co27  1  0.63380550  0.86619450  0.50000000  1
  Bi  Bi28  1  0.00000000  0.00000000  0.25000000  1
  Bi  Bi29  1  0.50000000  0.50000000  0.25000000  1
  Bi  Bi30  1  0.50000000  0.50000000  0.75000000  1
  Bi  Bi31  1  0.00000000  0.00000000  0.75000000  1
