# generated using pymatgen
data_CePu4Co3
_symmetry_space_group_name_H-M   'P 1'
_cell_length_a   5.73658000
_cell_length_b   9.42710400
_cell_length_c   11.38196200
_cell_angle_alpha   90.00000000
_cell_angle_beta   90.00000000
_cell_angle_gamma   90.00000000
_symmetry_Int_Tables_number   1
_chemical_formula_structural   CePu4Co3
_chemical_formula_sum   'Ce4 Pu16 Co12'
_cell_volume   615.52895035
_cell_formula_units_Z   4
loop_
 _symmetry_equiv_pos_site_id
 _symmetry_equiv_pos_as_xyz
  1  'x, y, z'
loop_
 _atom_site_type_symbol
 _atom_site_label
 _atom_site_symmetry_multiplicity
 _atom_site_fract_x
 _atom_site_fract_y
 _atom_site_fract_z
 _atom_site_occupancy
  Ce  Ce0  1  0.75000000  0.50000000  0.00000000  1
  Ce  Ce1  1  0.25000000  0.50000000  0.00000000  1
  Ce  Ce2  1  0.25000000  0.00000000  0.50000000  1
  Ce  Ce3  1  0.75000000  0.00000000  0.50000000  1
  Pu  Pu4  1  0.50000000  0.59384500  0.73025700  1
  Pu  Pu5  1  0.00000000  0.78568600  0.07999300  1
  Pu  Pu6  1  0.00000000  0.21431400  0.92000700  1
  Pu  Pu7  1  0.50000000  0.40615500  0.26974300  1
  Pu  Pu8  1  0.50000000  0.78568600  0.92000700  1
  Pu  Pu9  1  0.50000000  0.21431400  0.07999300  1
  Pu  Pu10  1  0.00000000  0.40615500  0.73025700  1
  Pu  Pu11  1  0.00000000  0.59384500  0.26974300  1
  Pu  Pu12  1  0.00000000  0.09384500  0.23025700  1
  Pu  Pu13  1  0.50000000  0.28568600  0.57999300  1
  Pu  Pu14  1  0.50000000  0.71431400  0.42000700  1
  Pu  Pu15  1  0.00000000  0.90615500  0.76974300  1
  Pu  Pu16  1  0.00000000  0.28568600  0.42000700  1
  Pu  Pu17  1  0.00000000  0.71431400  0.57999300  1
  Pu  Pu18  1  0.50000000  0.90615500  0.23025700  1
  Pu  Pu19  1  0.50000000  0.09384500  0.76974300  1
  Co  Co20  1  0.25000000  0.00000000  0.00000000  1
  Co  Co21  1  0.75000000  0.00000000  0.00000000  1
  Co  Co22  1  0.50000000  0.65838800  0.16650400  1
  Co  Co23  1  0.00000000  0.34161200  0.16650400  1
  Co  Co24  1  0.00000000  0.65838800  0.83349600  1
  Co  Co25  1  0.50000000  0.34161200  0.83349600  1
  Co  Co26  1  0.75000000  0.50000000  0.50000000  1
  Co  Co27  1  0.25000000  0.50000000  0.50000000  1
  Co  Co28  1  0.00000000  0.15838800  0.66650400  1
  Co  Co29  1  0.50000000  0.84161200  0.66650400  1
  Co  Co30  1  0.50000000  0.15838800  0.33349600  1
  Co  Co31  1  0.00000000  0.84161200  0.33349600  1
