# generated using pymatgen
data_Na3In2Au
_symmetry_space_group_name_H-M   'P 1'
_cell_length_a   13.65768400
_cell_length_b   13.65768400
_cell_length_c   13.65768400
_cell_angle_alpha   90.00000000
_cell_angle_beta   90.00000000
_cell_angle_gamma   90.00000000
_symmetry_Int_Tables_number   1
_chemical_formula_structural   Na3In2Au
_chemical_formula_sum   'Na48 In32 Au16'
_cell_volume   2547.59964957
_cell_formula_units_Z   16
loop_
 _symmetry_equiv_pos_site_id
 _symmetry_equiv_pos_as_xyz
  1  'x, y, z'
loop_
 _atom_site_type_symbol
 _atom_site_label
 _atom_site_symmetry_multiplicity
 _atom_site_fract_x
 _atom_site_fract_y
 _atom_site_fract_z
 _atom_site_occupancy
  Na  Na0  1  0.04802700  0.75000000  0.25000000  1
  Na  Na1  1  0.50000000  0.29802700  0.50000000  1
  Na  Na2  1  0.25000000  0.75000000  0.45197300  1
  Na  Na3  1  0.00000000  0.00000000  0.29802700  1
  Na  Na4  1  0.79802700  0.00000000  0.50000000  1
  Na  Na5  1  0.45197300  0.75000000  0.25000000  1
  Na  Na6  1  0.25000000  0.75000000  0.04802700  1
  Na  Na7  1  0.50000000  0.00000000  0.20197300  1
  Na  Na8  1  0.25000000  0.95197300  0.25000000  1
  Na  Na9  1  0.20197300  0.00000000  0.50000000  1
  Na  Na10  1  0.25000000  0.54802700  0.25000000  1
  Na  Na11  1  0.50000000  0.70197300  0.50000000  1
  Na  Na12  1  0.04802700  0.25000000  0.75000000  1
  Na  Na13  1  0.50000000  0.79802700  0.00000000  1
  Na  Na14  1  0.25000000  0.25000000  0.95197300  1
  Na  Na15  1  0.00000000  0.50000000  0.79802700  1
  Na  Na16  1  0.79802700  0.50000000  0.00000000  1
  Na  Na17  1  0.45197300  0.25000000  0.75000000  1
  Na  Na18  1  0.25000000  0.25000000  0.54802700  1
  Na  Na19  1  0.50000000  0.50000000  0.70197300  1
  Na  Na20  1  0.25000000  0.45197300  0.75000000  1
  Na  Na21  1  0.20197300  0.50000000  0.00000000  1
  Na  Na22  1  0.25000000  0.04802700  0.75000000  1
  Na  Na23  1  0.50000000  0.20197300  0.00000000  1
  Na  Na24  1  0.54802700  0.75000000  0.75000000  1
  Na  Na25  1  0.00000000  0.29802700  0.00000000  1
  Na  Na26  1  0.75000000  0.75000000  0.95197300  1
  Na  Na27  1  0.50000000  0.00000000  0.79802700  1
  Na  Na28  1  0.29802700  0.00000000  0.00000000  1
  Na  Na29  1  0.95197300  0.75000000  0.75000000  1
  Na  Na30  1  0.75000000  0.75000000  0.54802700  1
  Na  Na31  1  0.00000000  0.00000000  0.70197300  1
  Na  Na32  1  0.75000000  0.95197300  0.75000000  1
  Na  Na33  1  0.70197300  0.00000000  0.00000000  1
  Na  Na34  1  0.75000000  0.54802700  0.75000000  1
  Na  Na35  1  0.00000000  0.70197300  0.00000000  1
  Na  Na36  1  0.54802700  0.25000000  0.25000000  1
  Na  Na37  1  0.00000000  0.79802700  0.50000000  1
  Na  Na38  1  0.75000000  0.25000000  0.45197300  1
  Na  Na39  1  0.50000000  0.50000000  0.29802700  1
  Na  Na40  1  0.29802700  0.50000000  0.50000000  1
  Na  Na41  1  0.95197300  0.25000000  0.25000000  1
  Na  Na42  1  0.75000000  0.25000000  0.04802700  1
  Na  Na43  1  0.00000000  0.50000000  0.20197300  1
  Na  Na44  1  0.75000000  0.45197300  0.25000000  1
  Na  Na45  1  0.70197300  0.50000000  0.50000000  1
  Na  Na46  1  0.75000000  0.04802700  0.25000000  1
  Na  Na47  1  0.00000000  0.20197300  0.50000000  1
  In  In48  1  0.41561200  0.91561200  0.41561200  1
  In  In49  1  0.91561200  0.08438800  0.08438800  1
  In  In50  1  0.33438800  0.33438800  0.33438800  1
  In  In51  1  0.58438800  0.08438800  0.41561200  1
  In  In52  1  0.16561200  0.16561200  0.33438800  1
  In  In53  1  0.08438800  0.91561200  0.08438800  1
  In  In54  1  0.16561200  0.33438800  0.16561200  1
  In  In55  1  0.33438800  0.16561200  0.16561200  1
  In  In56  1  0.41561200  0.41561200  0.91561200  1
  In  In57  1  0.91561200  0.58438800  0.58438800  1
  In  In58  1  0.33438800  0.83438800  0.83438800  1
  In  In59  1  0.58438800  0.58438800  0.91561200  1
  In  In60  1  0.16561200  0.66561200  0.83438800  1
  In  In61  1  0.08438800  0.41561200  0.58438800  1
  In  In62  1  0.16561200  0.83438800  0.66561200  1
  In  In63  1  0.33438800  0.66561200  0.66561200  1
  In  In64  1  0.91561200  0.91561200  0.91561200  1
  In  In65  1  0.41561200  0.08438800  0.58438800  1
  In  In66  1  0.83438800  0.33438800  0.83438800  1
  In  In67  1  0.08438800  0.08438800  0.91561200  1
  In  In68  1  0.66561200  0.16561200  0.83438800  1
  In  In69  1  0.58438800  0.91561200  0.58438800  1
  In  In70  1  0.66561200  0.33438800  0.66561200  1
  In  In71  1  0.83438800  0.16561200  0.66561200  1
  In  In72  1  0.91561200  0.41561200  0.41561200  1
  In  In73  1  0.41561200  0.58438800  0.08438800  1
  In  In74  1  0.83438800  0.83438800  0.33438800  1
  In  In75  1  0.08438800  0.58438800  0.41561200  1
  In  In76  1  0.66561200  0.66561200  0.33438800  1
  In  In77  1  0.58438800  0.41561200  0.08438800  1
  In  In78  1  0.66561200  0.83438800  0.16561200  1
  In  In79  1  0.83438800  0.66561200  0.16561200  1
  Au  Au80  1  0.87500000  0.87500000  0.12500000  1
  Au  Au81  1  0.37500000  0.12500000  0.37500000  1
  Au  Au82  1  0.62500000  0.87500000  0.37500000  1
  Au  Au83  1  0.12500000  0.12500000  0.12500000  1
  Au  Au84  1  0.87500000  0.37500000  0.62500000  1
  Au  Au85  1  0.37500000  0.62500000  0.87500000  1
  Au  Au86  1  0.62500000  0.37500000  0.87500000  1
  Au  Au87  1  0.12500000  0.62500000  0.62500000  1
  Au  Au88  1  0.37500000  0.87500000  0.62500000  1
  Au  Au89  1  0.87500000  0.12500000  0.87500000  1
  Au  Au90  1  0.12500000  0.87500000  0.87500000  1
  Au  Au91  1  0.62500000  0.12500000  0.62500000  1
  Au  Au92  1  0.37500000  0.37500000  0.12500000  1
  Au  Au93  1  0.87500000  0.62500000  0.37500000  1
  Au  Au94  1  0.12500000  0.37500000  0.37500000  1
  Au  Au95  1  0.62500000  0.62500000  0.12500000  1
