# generated using pymatgen
data_Rb4TmI6
_symmetry_space_group_name_H-M   'P 1'
_cell_length_a   14.43789967
_cell_length_b   14.43789967
_cell_length_c   17.60913392
_cell_angle_alpha   90.00000000
_cell_angle_beta   90.00000000
_cell_angle_gamma   120.00000000
_symmetry_Int_Tables_number   1
_chemical_formula_structural   Rb4TmI6
_chemical_formula_sum   'Rb24 Tm6 I36'
_cell_volume   3178.89854081
_cell_formula_units_Z   6
loop_
 _symmetry_equiv_pos_site_id
 _symmetry_equiv_pos_as_xyz
  1  'x, y, z'
loop_
 _atom_site_type_symbol
 _atom_site_label
 _atom_site_symmetry_multiplicity
 _atom_site_fract_x
 _atom_site_fract_y
 _atom_site_fract_z
 _atom_site_occupancy
  Rb  Rb0  1  0.66666667  0.71369933  0.58333333  1
  Rb  Rb1  1  0.71369933  0.04703267  0.41666667  1
  Rb  Rb2  1  0.95296733  0.66666667  0.41666667  1
  Rb  Rb3  1  0.33333333  0.28630067  0.41666667  1
  Rb  Rb4  1  0.00000000  0.00000000  0.25000000  1
  Rb  Rb5  1  0.28630067  0.95296733  0.58333333  1
  Rb  Rb6  1  0.04703267  0.33333333  0.58333333  1
  Rb  Rb7  1  0.00000000  0.00000000  0.75000000  1
  Rb  Rb8  1  0.33333333  0.04703267  0.91666667  1
  Rb  Rb9  1  0.38036600  0.38036600  0.75000000  1
  Rb  Rb10  1  0.61963400  0.00000000  0.75000000  1
  Rb  Rb11  1  0.00000000  0.61963400  0.75000000  1
  Rb  Rb12  1  0.66666667  0.33333333  0.58333333  1
  Rb  Rb13  1  0.95296733  0.28630067  0.91666667  1
  Rb  Rb14  1  0.71369933  0.66666667  0.91666667  1
  Rb  Rb15  1  0.66666667  0.33333333  0.08333333  1
  Rb  Rb16  1  0.00000000  0.38036600  0.25000000  1
  Rb  Rb17  1  0.04703267  0.71369933  0.08333333  1
  Rb  Rb18  1  0.28630067  0.33333333  0.08333333  1
  Rb  Rb19  1  0.66666667  0.95296733  0.08333333  1
  Rb  Rb20  1  0.33333333  0.66666667  0.91666667  1
  Rb  Rb21  1  0.61963400  0.61963400  0.25000000  1
  Rb  Rb22  1  0.38036600  0.00000000  0.25000000  1
  Rb  Rb23  1  0.33333333  0.66666667  0.41666667  1
  Tm  Tm24  1  0.00000000  0.00000000  0.50000000  1
  Tm  Tm25  1  0.00000000  0.00000000  0.00000000  1
  Tm  Tm26  1  0.66666667  0.33333333  0.83333333  1
  Tm  Tm27  1  0.66666667  0.33333333  0.33333333  1
  Tm  Tm28  1  0.33333333  0.66666667  0.16666667  1
  Tm  Tm29  1  0.33333333  0.66666667  0.66666667  1
  I  I30  1  0.49029500  0.85601700  0.56699900  1
  I  I31  1  0.50970500  0.14398300  0.43300100  1
  I  I32  1  0.84303833  0.03238867  0.59966767  1
  I  I33  1  0.85601700  0.36572200  0.43300100  1
  I  I34  1  0.03238867  0.18935033  0.40033233  1
  I  I35  1  0.96761133  0.81064967  0.59966767  1
  I  I36  1  0.36572200  0.50970500  0.56699900  1
  I  I37  1  0.15696167  0.96761133  0.40033233  1
  I  I38  1  0.81064967  0.84303833  0.40033233  1
  I  I39  1  0.18935033  0.15696167  0.59966767  1
  I  I40  1  0.14398300  0.63427800  0.56699900  1
  I  I41  1  0.63427800  0.49029500  0.43300100  1
  I  I42  1  0.15696167  0.18935033  0.90033233  1
  I  I43  1  0.17637167  0.47731633  0.76633433  1
  I  I44  1  0.50970500  0.36572200  0.93300100  1
  I  I45  1  0.52268367  0.69905533  0.76633433  1
  I  I46  1  0.69905533  0.52268367  0.73366567  1
  I  I47  1  0.63427800  0.14398300  0.93300100  1
  I  I48  1  0.03238867  0.84303833  0.90033233  1
  I  I49  1  0.82362833  0.30094467  0.73366567  1
  I  I50  1  0.47731633  0.17637167  0.73366567  1
  I  I51  1  0.85601700  0.49029500  0.93300100  1
  I  I52  1  0.81064967  0.96761133  0.90033233  1
  I  I53  1  0.30094467  0.82362833  0.76633433  1
  I  I54  1  0.82362833  0.52268367  0.23366567  1
  I  I55  1  0.84303833  0.81064967  0.09966767  1
  I  I56  1  0.17637167  0.69905533  0.26633433  1
  I  I57  1  0.18935033  0.03238867  0.09966767  1
  I  I58  1  0.36572200  0.85601700  0.06699900  1
  I  I59  1  0.30094467  0.47731633  0.26633433  1
  I  I60  1  0.69905533  0.17637167  0.23366567  1
  I  I61  1  0.49029500  0.63427800  0.06699900  1
  I  I62  1  0.14398300  0.50970500  0.06699900  1
  I  I63  1  0.52268367  0.82362833  0.26633433  1
  I  I64  1  0.47731633  0.30094467  0.23366567  1
  I  I65  1  0.96761133  0.15696167  0.09966767  1
