# generated using pymatgen
data_Nd3Se4
_symmetry_space_group_name_H-M   'P 1'
_cell_length_a   8.95269600
_cell_length_b   8.95269600
_cell_length_c   8.95269600
_cell_angle_alpha   90.00000000
_cell_angle_beta   90.00000000
_cell_angle_gamma   90.00000000
_symmetry_Int_Tables_number   1
_chemical_formula_structural   Nd3Se4
_chemical_formula_sum   'Nd12 Se16'
_cell_volume   717.56543920
_cell_formula_units_Z   4
loop_
 _symmetry_equiv_pos_site_id
 _symmetry_equiv_pos_as_xyz
  1  'x, y, z'
loop_
 _atom_site_type_symbol
 _atom_site_label
 _atom_site_symmetry_multiplicity
 _atom_site_fract_x
 _atom_site_fract_y
 _atom_site_fract_z
 _atom_site_occupancy
  Nd  Nd0  1  0.12500000  0.00000000  0.75000000  1
  Nd  Nd1  1  0.25000000  0.37500000  0.00000000  1
  Nd  Nd2  1  0.37500000  0.00000000  0.25000000  1
  Nd  Nd3  1  0.00000000  0.75000000  0.12500000  1
  Nd  Nd4  1  0.00000000  0.25000000  0.37500000  1
  Nd  Nd5  1  0.75000000  0.12500000  0.00000000  1
  Nd  Nd6  1  0.62500000  0.50000000  0.25000000  1
  Nd  Nd7  1  0.75000000  0.87500000  0.50000000  1
  Nd  Nd8  1  0.87500000  0.50000000  0.75000000  1
  Nd  Nd9  1  0.50000000  0.25000000  0.62500000  1
  Nd  Nd10  1  0.50000000  0.75000000  0.87500000  1
  Nd  Nd11  1  0.25000000  0.62500000  0.50000000  1
  Se  Se12  1  0.32503850  0.32503850  0.32503850  1
  Se  Se13  1  0.82503850  0.17496150  0.67496150  1
  Se  Se14  1  0.17496150  0.67496150  0.82503850  1
  Se  Se15  1  0.07503850  0.92496150  0.42496150  1
  Se  Se16  1  0.67496150  0.82503850  0.17496150  1
  Se  Se17  1  0.42496150  0.07503850  0.92496150  1
  Se  Se18  1  0.92496150  0.42496150  0.07503850  1
  Se  Se19  1  0.07503850  0.07503850  0.07503850  1
  Se  Se20  1  0.82503850  0.82503850  0.82503850  1
  Se  Se21  1  0.32503850  0.67496150  0.17496150  1
  Se  Se22  1  0.67496150  0.17496150  0.32503850  1
  Se  Se23  1  0.57503850  0.42496150  0.92496150  1
  Se  Se24  1  0.17496150  0.32503850  0.67496150  1
  Se  Se25  1  0.92496150  0.57503850  0.42496150  1
  Se  Se26  1  0.42496150  0.92496150  0.57503850  1
  Se  Se27  1  0.57503850  0.57503850  0.57503850  1
