# generated using pymatgen
data_NaV6O11
_symmetry_space_group_name_H-M   'P 1'
_cell_length_a   5.84258400
_cell_length_b   10.28474400
_cell_length_c   13.28001600
_cell_angle_alpha   90.00000000
_cell_angle_beta   90.00000000
_cell_angle_gamma   90.00000000
_symmetry_Int_Tables_number   1
_chemical_formula_structural   NaV6O11
_chemical_formula_sum   'Na4 V24 O44'
_cell_volume   797.98926564
_cell_formula_units_Z   4
loop_
 _symmetry_equiv_pos_site_id
 _symmetry_equiv_pos_as_xyz
  1  'x, y, z'
loop_
 _atom_site_type_symbol
 _atom_site_label
 _atom_site_symmetry_multiplicity
 _atom_site_fract_x
 _atom_site_fract_y
 _atom_site_fract_z
 _atom_site_occupancy
  Na  Na0  1  0.00000000  0.33628100  0.76540600  1
  Na  Na1  1  0.50000000  0.16371900  0.26540600  1
  Na  Na2  1  0.50000000  0.83628100  0.76540600  1
  Na  Na3  1  0.00000000  0.66371900  0.26540600  1
  V  V4  1  0.25089850  0.25018050  0.99990600  1
  V  V5  1  0.00000000  0.33076300  0.24747600  1
  V  V6  1  0.74910150  0.25018050  0.99990600  1
  V  V7  1  0.00000000  0.00186600  0.14620000  1
  V  V8  1  0.50000000  0.49932200  0.85445700  1
  V  V9  1  0.00000000  0.00067800  0.35445700  1
  V  V10  1  0.50000000  0.00114400  0.99992100  1
  V  V11  1  0.50000000  0.16923700  0.74747600  1
  V  V12  1  0.24910150  0.24981950  0.49990600  1
  V  V13  1  0.00000000  0.49885600  0.49992100  1
  V  V14  1  0.50000000  0.49813400  0.64620000  1
  V  V15  1  0.75089850  0.24981950  0.49990600  1
  V  V16  1  0.75089850  0.75018050  0.99990600  1
  V  V17  1  0.50000000  0.83076300  0.24747600  1
  V  V18  1  0.24910150  0.75018050  0.99990600  1
  V  V19  1  0.50000000  0.50186600  0.14620000  1
  V  V20  1  0.00000000  0.99932200  0.85445700  1
  V  V21  1  0.50000000  0.50067800  0.35445700  1
  V  V22  1  0.00000000  0.50114400  0.99992100  1
  V  V23  1  0.00000000  0.66923700  0.74747600  1
  V  V24  1  0.74910150  0.74981950  0.49990600  1
  V  V25  1  0.50000000  0.99885600  0.49992100  1
  V  V26  1  0.00000000  0.99813400  0.64620000  1
  V  V27  1  0.25089850  0.74981950  0.49990600  1
  O  O28  1  0.50000000  0.32575900  0.07582800  1
  O  O29  1  0.27030650  0.42767850  0.24921500  1
  O  O30  1  0.00000000  0.32767600  0.41187800  1
  O  O31  1  0.24585200  0.40887500  0.57692600  1
  O  O32  1  0.74585200  0.09112500  0.07692600  1
  O  O33  1  0.50000000  0.17120800  0.58777800  1
  O  O34  1  0.50000000  0.32316500  0.42170000  1
  O  O35  1  0.74251450  0.09023950  0.42162900  1
  O  O36  1  0.00000000  0.32879200  0.08777800  1
  O  O37  1  0.24251450  0.40976050  0.92162900  1
  O  O38  1  0.00000000  0.15987000  0.25000500  1
  O  O39  1  0.75414800  0.40887500  0.57692600  1
  O  O40  1  0.00000000  0.17683500  0.92170000  1
  O  O41  1  0.00000000  0.17424100  0.57582800  1
  O  O42  1  0.50000000  0.17232400  0.91187800  1
  O  O43  1  0.22969350  0.07232150  0.74921500  1
  O  O44  1  0.75748550  0.40976050  0.92162900  1
  O  O45  1  0.72969350  0.42767850  0.24921500  1
  O  O46  1  0.50000000  0.34013000  0.75000500  1
  O  O47  1  0.77030650  0.07232150  0.74921500  1
  O  O48  1  0.25414800  0.09112500  0.07692600  1
  O  O49  1  0.25748550  0.09023950  0.42162900  1
  O  O50  1  0.00000000  0.82575900  0.07582800  1
  O  O51  1  0.77030650  0.92767850  0.24921500  1
  O  O52  1  0.50000000  0.82767600  0.41187800  1
  O  O53  1  0.74585200  0.90887500  0.57692600  1
  O  O54  1  0.24585200  0.59112500  0.07692600  1
  O  O55  1  0.00000000  0.67120800  0.58777800  1
  O  O56  1  0.00000000  0.82316500  0.42170000  1
  O  O57  1  0.24251450  0.59023950  0.42162900  1
  O  O58  1  0.50000000  0.82879200  0.08777800  1
  O  O59  1  0.74251450  0.90976050  0.92162900  1
  O  O60  1  0.50000000  0.65987000  0.25000500  1
  O  O61  1  0.25414800  0.90887500  0.57692600  1
  O  O62  1  0.50000000  0.67683500  0.92170000  1
  O  O63  1  0.50000000  0.67424100  0.57582800  1
  O  O64  1  0.00000000  0.67232400  0.91187800  1
  O  O65  1  0.72969350  0.57232150  0.74921500  1
  O  O66  1  0.25748550  0.90976050  0.92162900  1
  O  O67  1  0.22969350  0.92767850  0.24921500  1
  O  O68  1  0.00000000  0.84013000  0.75000500  1
  O  O69  1  0.27030650  0.57232150  0.74921500  1
  O  O70  1  0.75414800  0.59112500  0.07692600  1
  O  O71  1  0.75748550  0.59023950  0.42162900  1
