# generated using pymatgen
data_Li3V2(PO4)3
_symmetry_space_group_name_H-M   'P 1'
_cell_length_a   11.76099600
_cell_length_b   12.56217000
_cell_length_c   6.38619734
_cell_angle_alpha   90.00000000
_cell_angle_beta   113.74466943
_cell_angle_gamma   90.00000000
_symmetry_Int_Tables_number   1
_chemical_formula_structural   Li3V2(PO4)3
_chemical_formula_sum   'Li12 V8 P12 O48'
_cell_volume   863.65002234
_cell_formula_units_Z   4
loop_
 _symmetry_equiv_pos_site_id
 _symmetry_equiv_pos_as_xyz
  1  'x, y, z'
loop_
 _atom_site_type_symbol
 _atom_site_label
 _atom_site_symmetry_multiplicity
 _atom_site_fract_x
 _atom_site_fract_y
 _atom_site_fract_z
 _atom_site_occupancy
  Li  Li0  1  0.50000000  0.21390500  0.25000000  1
  Li  Li1  1  0.50000000  0.78609500  0.75000000  1
  Li  Li2  1  0.50000000  0.00000000  0.50000000  1
  Li  Li3  1  0.50000000  0.50931000  0.25000000  1
  Li  Li4  1  0.50000000  0.49069000  0.75000000  1
  Li  Li5  1  0.50000000  0.00000000  0.00000000  1
  Li  Li6  1  0.00000000  0.71390500  0.25000000  1
  Li  Li7  1  0.00000000  0.28609500  0.75000000  1
  Li  Li8  1  0.00000000  0.50000000  0.50000000  1
  Li  Li9  1  0.00000000  0.00931000  0.25000000  1
  Li  Li10  1  0.00000000  0.99069000  0.75000000  1
  Li  Li11  1  0.00000000  0.50000000  0.00000000  1
  V  V12  1  0.78142500  0.83873800  0.35739900  1
  V  V13  1  0.21857500  0.83873800  0.14260100  1
  V  V14  1  0.21857500  0.16126200  0.64260100  1
  V  V15  1  0.78142500  0.16126200  0.85739900  1
  V  V16  1  0.28142500  0.33873800  0.35739900  1
  V  V17  1  0.71857500  0.33873800  0.14260100  1
  V  V18  1  0.71857500  0.66126200  0.64260100  1
  V  V19  1  0.28142500  0.66126200  0.85739900  1
  P  P20  1  0.23820750  0.89917150  0.63746300  1
  P  P21  1  0.50000000  0.21550500  0.75000000  1
  P  P22  1  0.76179250  0.89917150  0.86253700  1
  P  P23  1  0.23820750  0.10082850  0.13746300  1
  P  P24  1  0.76179250  0.10082850  0.36253700  1
  P  P25  1  0.50000000  0.78449500  0.25000000  1
  P  P26  1  0.73820750  0.39917150  0.63746300  1
  P  P27  1  0.00000000  0.71550500  0.75000000  1
  P  P28  1  0.26179250  0.39917150  0.86253700  1
  P  P29  1  0.73820750  0.60082850  0.13746300  1
  P  P30  1  0.26179250  0.60082850  0.36253700  1
  P  P31  1  0.00000000  0.28449500  0.25000000  1
  O  O32  1  0.17634350  0.16479650  0.91075400  1
  O  O33  1  0.82365650  0.16479650  0.58924600  1
  O  O34  1  0.15634200  0.00115900  0.60955000  1
  O  O35  1  0.15634200  0.99884100  0.10955000  1
  O  O36  1  0.22572750  0.17429350  0.32858500  1
  O  O37  1  0.62426550  0.07956850  0.29735200  1
  O  O38  1  0.40052600  0.13842000  0.76746100  1
  O  O39  1  0.59947400  0.86158000  0.23253900  1
  O  O40  1  0.22572750  0.82570650  0.82858500  1
  O  O41  1  0.77427250  0.17429350  0.17141500  1
  O  O42  1  0.77427250  0.82570650  0.67141500  1
  O  O43  1  0.84365800  0.00115900  0.89045000  1
  O  O44  1  0.45720500  0.28719500  0.53339300  1
  O  O45  1  0.54279500  0.71280500  0.46660700  1
  O  O46  1  0.37573450  0.07956850  0.20264800  1
  O  O47  1  0.84365800  0.99884100  0.39045000  1
  O  O48  1  0.37573450  0.92043150  0.70264800  1
  O  O49  1  0.54279500  0.28719500  0.96660700  1
  O  O50  1  0.40052600  0.86158000  0.26746100  1
  O  O51  1  0.17634350  0.83520350  0.41075400  1
  O  O52  1  0.62426550  0.92043150  0.79735200  1
  O  O53  1  0.45720500  0.71280500  0.03339300  1
  O  O54  1  0.82365650  0.83520350  0.08924600  1
  O  O55  1  0.59947400  0.13842000  0.73253900  1
  O  O56  1  0.67634350  0.66479650  0.91075400  1
  O  O57  1  0.32365650  0.66479650  0.58924600  1
  O  O58  1  0.65634200  0.50115900  0.60955000  1
  O  O59  1  0.65634200  0.49884100  0.10955000  1
  O  O60  1  0.72572750  0.67429350  0.32858500  1
  O  O61  1  0.12426550  0.57956850  0.29735200  1
  O  O62  1  0.90052600  0.63842000  0.76746100  1
  O  O63  1  0.09947400  0.36158000  0.23253900  1
  O  O64  1  0.72572750  0.32570650  0.82858500  1
  O  O65  1  0.27427250  0.67429350  0.17141500  1
  O  O66  1  0.27427250  0.32570650  0.67141500  1
  O  O67  1  0.34365800  0.50115900  0.89045000  1
  O  O68  1  0.95720500  0.78719500  0.53339300  1
  O  O69  1  0.04279500  0.21280500  0.46660700  1
  O  O70  1  0.87573450  0.57956850  0.20264800  1
  O  O71  1  0.34365800  0.49884100  0.39045000  1
  O  O72  1  0.87573450  0.42043150  0.70264800  1
  O  O73  1  0.04279500  0.78719500  0.96660700  1
  O  O74  1  0.90052600  0.36158000  0.26746100  1
  O  O75  1  0.67634350  0.33520350  0.41075400  1
  O  O76  1  0.12426550  0.42043150  0.79735200  1
  O  O77  1  0.95720500  0.21280500  0.03339300  1
  O  O78  1  0.32365650  0.33520350  0.08924600  1
  O  O79  1  0.09947400  0.63842000  0.73253900  1
