# generated using pymatgen
data_SrV13O18
_symmetry_space_group_name_H-M   'P 1'
_cell_length_a   13.15285826
_cell_length_b   13.15285826
_cell_length_c   7.49989994
_cell_angle_alpha   90.00000000
_cell_angle_beta   90.00000000
_cell_angle_gamma   120.00000000
_symmetry_Int_Tables_number   1
_chemical_formula_structural   SrV13O18
_chemical_formula_sum   'Sr3 V39 O54'
_cell_volume   1123.63790457
_cell_formula_units_Z   3
loop_
 _symmetry_equiv_pos_site_id
 _symmetry_equiv_pos_as_xyz
  1  'x, y, z'
loop_
 _atom_site_type_symbol
 _atom_site_label
 _atom_site_symmetry_multiplicity
 _atom_site_fract_x
 _atom_site_fract_y
 _atom_site_fract_z
 _atom_site_occupancy
  Sr  Sr0  1  0.00000000  0.00000000  0.00000000  1
  Sr  Sr1  1  0.66666667  0.33333333  0.33333333  1
  Sr  Sr2  1  0.33333333  0.66666667  0.66666667  1
  V  V3  1  0.00000000  0.00000000  0.50000000  1
  V  V4  1  0.95906933  0.23362767  0.16154067  1
  V  V5  1  0.09970567  0.39210833  0.82820733  1
  V  V6  1  0.94122500  0.37426400  0.49487400  1
  V  V7  1  0.70759733  0.09970567  0.17179267  1
  V  V8  1  0.56696100  0.94122500  0.50512600  1
  V  V9  1  0.72544167  0.95906933  0.83845933  1
  V  V10  1  0.83931233  0.10350367  0.50296167  1
  V  V11  1  0.56316300  0.06914200  0.83629500  1
  V  V12  1  0.59752467  0.82735433  0.16962833  1
  V  V13  1  0.82735433  0.22982967  0.83037167  1
  V  V14  1  0.10350367  0.26419133  0.49703833  1
  V  V15  1  0.06914200  0.50597900  0.16370500  1
  V  V16  1  0.66666667  0.33333333  0.83333333  1
  V  V17  1  0.62573600  0.56696100  0.49487400  1
  V  V18  1  0.76637233  0.72544167  0.16154067  1
  V  V19  1  0.60789167  0.70759733  0.82820733  1
  V  V20  1  0.37426400  0.43303900  0.50512600  1
  V  V21  1  0.23362767  0.27455833  0.83845933  1
  V  V22  1  0.39210833  0.29240267  0.17179267  1
  V  V23  1  0.50597900  0.43683700  0.83629500  1
  V  V24  1  0.22982967  0.40247533  0.16962833  1
  V  V25  1  0.26419133  0.16068767  0.50296167  1
  V  V26  1  0.49402100  0.56316300  0.16370500  1
  V  V27  1  0.77017033  0.59752467  0.83037167  1
  V  V28  1  0.73580867  0.83931233  0.49703833  1
  V  V29  1  0.33333333  0.66666667  0.16666667  1
  V  V30  1  0.29240267  0.90029433  0.82820733  1
  V  V31  1  0.43303900  0.05877500  0.49487400  1
  V  V32  1  0.27455833  0.04093067  0.16154067  1
  V  V33  1  0.04093067  0.76637233  0.83845933  1
  V  V34  1  0.90029433  0.60789167  0.17179267  1
  V  V35  1  0.05877500  0.62573600  0.50512600  1
  V  V36  1  0.17264567  0.77017033  0.16962833  1
  V  V37  1  0.89649633  0.73580867  0.50296167  1
  V  V38  1  0.93085800  0.49402100  0.83629500  1
  V  V39  1  0.16068767  0.89649633  0.49703833  1
  V  V40  1  0.43683700  0.93085800  0.16370500  1
  V  V41  1  0.40247533  0.17264567  0.83037167  1
  O  O42  1  0.46000100  0.81605200  0.31267200  1
  O  O43  1  0.85061467  0.97728233  0.64600533  1
  O  O44  1  0.68938433  0.20666567  0.97933867  1
  O  O45  1  0.20666567  0.51728133  0.02066133  1
  O  O46  1  0.81605200  0.35605100  0.68732800  1
  O  O47  1  0.97728233  0.12666767  0.35399467  1
  O  O48  1  0.82865000  0.22307600  0.34479100  1
  O  O49  1  0.11025733  0.27224067  0.01145767  1
  O  O50  1  0.06109267  0.50468333  0.67812433  1
  O  O51  1  0.83801667  0.11025733  0.98854233  1
  O  O52  1  0.55640933  0.06109267  0.32187567  1
  O  O53  1  0.60557400  0.82865000  0.65520900  1
  O  O54  1  0.70792867  0.96102433  0.34416733  1
  O  O55  1  0.70564233  0.08023767  0.67750067  1
  O  O56  1  0.58642900  0.95873800  0.01083400  1
  O  O57  1  0.95873800  0.37230900  0.98916600  1
  O  O58  1  0.96102433  0.25309567  0.65583267  1
  O  O59  1  0.08023767  0.37459533  0.32249933  1
  O  O60  1  0.12666767  0.14938533  0.64600533  1
  O  O61  1  0.51728133  0.31061567  0.97933867  1
  O  O62  1  0.35605100  0.53999900  0.31267200  1
  O  O63  1  0.87333233  0.85061467  0.35399467  1
  O  O64  1  0.48271867  0.68938433  0.02066133  1
  O  O65  1  0.64394900  0.46000100  0.68732800  1
  O  O66  1  0.49531667  0.55640933  0.67812433  1
  O  O67  1  0.77692400  0.60557400  0.34479100  1
  O  O68  1  0.72775933  0.83801667  0.01145767  1
  O  O69  1  0.50468333  0.44359067  0.32187567  1
  O  O70  1  0.22307600  0.39442600  0.65520900  1
  O  O71  1  0.27224067  0.16198333  0.98854233  1
  O  O72  1  0.37459533  0.29435767  0.67750067  1
  O  O73  1  0.37230900  0.41357100  0.01083400  1
  O  O74  1  0.25309567  0.29207133  0.34416733  1
  O  O75  1  0.62540467  0.70564233  0.32249933  1
  O  O76  1  0.62769100  0.58642900  0.98916600  1
  O  O77  1  0.74690433  0.70792867  0.65583267  1
  O  O78  1  0.79333433  0.48271867  0.97933867  1
  O  O79  1  0.18394800  0.64394900  0.31267200  1
  O  O80  1  0.02271767  0.87333233  0.64600533  1
  O  O81  1  0.53999900  0.18394800  0.68732800  1
  O  O82  1  0.14938533  0.02271767  0.35399467  1
  O  O83  1  0.31061567  0.79333433  0.02066133  1
  O  O84  1  0.16198333  0.88974267  0.01145767  1
  O  O85  1  0.44359067  0.93890733  0.67812433  1
  O  O86  1  0.39442600  0.17135000  0.34479100  1
  O  O87  1  0.17135000  0.77692400  0.65520900  1
  O  O88  1  0.88974267  0.72775933  0.98854233  1
  O  O89  1  0.93890733  0.49531667  0.32187567  1
  O  O90  1  0.04126200  0.62769100  0.01083400  1
  O  O91  1  0.03897567  0.74690433  0.34416733  1
  O  O92  1  0.91976233  0.62540467  0.67750067  1
  O  O93  1  0.29207133  0.03897567  0.65583267  1
  O  O94  1  0.29435767  0.91976233  0.32249933  1
  O  O95  1  0.41357100  0.04126200  0.98916600  1
