# generated using pymatgen
data_Rb2MnO4
_symmetry_space_group_name_H-M   'P 1'
_cell_length_a   6.16520201
_cell_length_b   8.14637102
_cell_length_c   10.94039902
_cell_angle_alpha   90.00000000
_cell_angle_beta   90.00000000
_cell_angle_gamma   90.00000000
_symmetry_Int_Tables_number   1
_chemical_formula_structural   Rb2MnO4
_chemical_formula_sum   'Rb8 Mn4 O16'
_cell_volume   549.47085125
_cell_formula_units_Z   4
loop_
 _symmetry_equiv_pos_site_id
 _symmetry_equiv_pos_as_xyz
  1  'x, y, z'
loop_
 _atom_site_type_symbol
 _atom_site_label
 _atom_site_symmetry_multiplicity
 _atom_site_fract_x
 _atom_site_fract_y
 _atom_site_fract_z
 _atom_site_occupancy
  Rb  Rb0  1  0.25000000  0.83245850  0.08803350  1
  Rb  Rb1  1  0.75000000  0.16754150  0.91196650  1
  Rb  Rb2  1  0.25000000  0.33245850  0.41196650  1
  Rb  Rb3  1  0.75000000  0.66754150  0.58803350  1
  Rb  Rb4  1  0.25000000  0.51312250  0.80396950  1
  Rb  Rb5  1  0.75000000  0.48687750  0.19603050  1
  Rb  Rb6  1  0.25000000  0.01312250  0.69603050  1
  Rb  Rb7  1  0.75000000  0.98687750  0.30396950  1
  Mn  Mn8  1  0.25000000  0.76753150  0.42054850  1
  Mn  Mn9  1  0.75000000  0.23246850  0.57945150  1
  Mn  Mn10  1  0.25000000  0.26753150  0.07945150  1
  Mn  Mn11  1  0.75000000  0.73246850  0.92054850  1
  O  O12  1  0.25000000  0.20591150  0.93381550  1
  O  O13  1  0.75000000  0.79408850  0.06618450  1
  O  O14  1  0.25000000  0.70591150  0.56618450  1
  O  O15  1  0.75000000  0.29408850  0.43381550  1
  O  O16  1  0.25000000  0.97111750  0.41700650  1
  O  O17  1  0.75000000  0.02888250  0.58299350  1
  O  O18  1  0.25000000  0.47111750  0.08299350  1
  O  O19  1  0.75000000  0.52888250  0.91700650  1
  O  O20  1  0.03077650  0.69338250  0.35063450  1
  O  O21  1  0.53077650  0.30661750  0.64936550  1
  O  O22  1  0.46922350  0.19338250  0.14936550  1
  O  O23  1  0.96922350  0.80661750  0.85063450  1
  O  O24  1  0.96922350  0.30661750  0.64936550  1
  O  O25  1  0.46922350  0.69338250  0.35063450  1
  O  O26  1  0.53077650  0.80661750  0.85063450  1
  O  O27  1  0.03077650  0.19338250  0.14936550  1
