# generated using pymatgen
data_LiMoAsO6
_symmetry_space_group_name_H-M   'P 1'
_cell_length_a   5.23351300
_cell_length_b   8.70693900
_cell_length_c   10.49866475
_cell_angle_alpha   90.00000000
_cell_angle_beta   95.18567506
_cell_angle_gamma   90.00000000
_symmetry_Int_Tables_number   1
_chemical_formula_structural   LiMoAsO6
_chemical_formula_sum   'Li4 Mo4 As4 O24'
_cell_volume   476.44379327
_cell_formula_units_Z   4
loop_
 _symmetry_equiv_pos_site_id
 _symmetry_equiv_pos_as_xyz
  1  'x, y, z'
loop_
 _atom_site_type_symbol
 _atom_site_label
 _atom_site_symmetry_multiplicity
 _atom_site_fract_x
 _atom_site_fract_y
 _atom_site_fract_z
 _atom_site_occupancy
  Li  Li0  1  0.31103700  0.09381800  0.89705900  1
  Li  Li1  1  0.96558000  0.26445600  0.60984300  1
  Li  Li2  1  0.68896300  0.59381800  0.10294100  1
  Li  Li3  1  0.03442000  0.76445600  0.39015700  1
  Mo  Mo4  1  0.11784800  0.41914700  0.33574100  1
  Mo  Mo5  1  0.67699300  0.43258200  0.84335900  1
  Mo  Mo6  1  0.32300700  0.93258200  0.15664100  1
  Mo  Mo7  1  0.88215200  0.91914700  0.66425900  1
  As  As8  1  0.15799700  0.69804000  0.89377400  1
  As  As9  1  0.37825000  0.07435300  0.46406600  1
  As  As10  1  0.84200300  0.19804000  0.10622600  1
  As  As11  1  0.62175000  0.57435300  0.53593400  1
  O  O12  1  0.93237700  0.57140700  0.26649800  1
  O  O13  1  0.04281800  0.88754500  0.22651500  1
  O  O14  1  0.60787600  0.06548500  0.06891600  1
  O  O15  1  0.39212400  0.56548500  0.93108400  1
  O  O16  1  0.12872200  0.13409400  0.06154200  1
  O  O17  1  0.32248200  0.57705600  0.44940900  1
  O  O18  1  0.17862700  0.93232700  0.50549500  1
  O  O19  1  0.67751800  0.07705600  0.55059100  1
  O  O20  1  0.24396200  0.25389500  0.48314800  1
  O  O21  1  0.87127800  0.63409400  0.93845800  1
  O  O22  1  0.06762300  0.07140700  0.73350200  1
  O  O23  1  0.54097000  0.55395600  0.69140700  1
  O  O24  1  0.82137300  0.43232700  0.49450500  1
  O  O25  1  0.22719100  0.87253800  0.96872900  1
  O  O26  1  0.77280900  0.37253800  0.03127100  1
  O  O27  1  0.50129300  0.26343900  0.82075500  1
  O  O28  1  0.35118300  0.39418500  0.23313100  1
  O  O29  1  0.49870700  0.76343900  0.17924500  1
  O  O30  1  0.10888200  0.74827700  0.73240300  1
  O  O31  1  0.95718200  0.38754500  0.77348500  1
  O  O32  1  0.45903000  0.05395600  0.30859300  1
  O  O33  1  0.89111800  0.24827700  0.26759700  1
  O  O34  1  0.75603800  0.75389500  0.51685200  1
  O  O35  1  0.64881700  0.89418500  0.76686900  1
