# generated using pymatgen
data_V2Cu2O7
_symmetry_space_group_name_H-M   'P 1'
_cell_length_a   7.97515000
_cell_length_b   8.07877600
_cell_length_c   10.25811878
_cell_angle_alpha   90.00000000
_cell_angle_beta   109.63414222
_cell_angle_gamma   90.00000000
_symmetry_Int_Tables_number   1
_chemical_formula_structural   V2Cu2O7
_chemical_formula_sum   'V8 Cu8 O28'
_cell_volume   622.49705465
_cell_formula_units_Z   4
loop_
 _symmetry_equiv_pos_site_id
 _symmetry_equiv_pos_as_xyz
  1  'x, y, z'
loop_
 _atom_site_type_symbol
 _atom_site_label
 _atom_site_symmetry_multiplicity
 _atom_site_fract_x
 _atom_site_fract_y
 _atom_site_fract_z
 _atom_site_occupancy
  V  V0  1  0.72069850  0.27766450  0.28651400  1
  V  V1  1  0.27930150  0.27766450  0.21348600  1
  V  V2  1  0.27930150  0.72233550  0.71348600  1
  V  V3  1  0.72069850  0.72233550  0.78651400  1
  V  V4  1  0.22069850  0.77766450  0.28651400  1
  V  V5  1  0.77930150  0.77766450  0.21348600  1
  V  V6  1  0.77930150  0.22233550  0.71348600  1
  V  V7  1  0.22069850  0.22233550  0.78651400  1
  Cu  Cu8  1  0.30431800  0.07177200  0.51258600  1
  Cu  Cu9  1  0.69568200  0.07177200  0.98741400  1
  Cu  Cu10  1  0.69568200  0.92822800  0.48741400  1
  Cu  Cu11  1  0.30431800  0.92822800  0.01258600  1
  Cu  Cu12  1  0.80431800  0.57177200  0.51258600  1
  Cu  Cu13  1  0.19568200  0.57177200  0.98741400  1
  Cu  Cu14  1  0.19568200  0.42822800  0.48741400  1
  Cu  Cu15  1  0.80431800  0.42822800  0.01258600  1
  O  O16  1  0.50000000  0.63819500  0.75000000  1
  O  O17  1  0.50000000  0.36180500  0.25000000  1
  O  O18  1  0.27054350  0.90816950  0.63544200  1
  O  O19  1  0.72945650  0.90816950  0.86455800  1
  O  O20  1  0.72945650  0.09183050  0.36455800  1
  O  O21  1  0.27054350  0.09183050  0.13544200  1
  O  O22  1  0.36939250  0.91209350  0.39749400  1
  O  O23  1  0.63060750  0.91209350  0.10250600  1
  O  O24  1  0.63060750  0.08790650  0.60250600  1
  O  O25  1  0.36939250  0.08790650  0.89749400  1
  O  O26  1  0.73889800  0.25114700  0.87338500  1
  O  O27  1  0.26110200  0.25114700  0.62661500  1
  O  O28  1  0.26110200  0.74885300  0.12661500  1
  O  O29  1  0.73889800  0.74885300  0.37338500  1
  O  O30  1  0.00000000  0.13819500  0.75000000  1
  O  O31  1  0.00000000  0.86180500  0.25000000  1
  O  O32  1  0.77054350  0.40816950  0.63544200  1
  O  O33  1  0.22945650  0.40816950  0.86455800  1
  O  O34  1  0.22945650  0.59183050  0.36455800  1
  O  O35  1  0.77054350  0.59183050  0.13544200  1
  O  O36  1  0.86939250  0.41209350  0.39749400  1
  O  O37  1  0.13060750  0.41209350  0.10250600  1
  O  O38  1  0.13060750  0.58790650  0.60250600  1
  O  O39  1  0.86939250  0.58790650  0.89749400  1
  O  O40  1  0.23889800  0.75114700  0.87338500  1
  O  O41  1  0.76110200  0.75114700  0.62661500  1
  O  O42  1  0.76110200  0.24885300  0.12661500  1
  O  O43  1  0.23889800  0.24885300  0.37338500  1
