# generated using pymatgen
data_La3(BN2)2
_symmetry_space_group_name_H-M   'P 1'
_cell_length_a   3.64126000
_cell_length_b   6.41829600
_cell_length_c   10.99837400
_cell_angle_alpha   90.00000000
_cell_angle_beta   90.00000000
_cell_angle_gamma   90.00000000
_symmetry_Int_Tables_number   1
_chemical_formula_structural   La3(BN2)2
_chemical_formula_sum   'La6 B4 N8'
_cell_volume   257.03952869
_cell_formula_units_Z   2
loop_
 _symmetry_equiv_pos_site_id
 _symmetry_equiv_pos_as_xyz
  1  'x, y, z'
loop_
 _atom_site_type_symbol
 _atom_site_label
 _atom_site_symmetry_multiplicity
 _atom_site_fract_x
 _atom_site_fract_y
 _atom_site_fract_z
 _atom_site_occupancy
  La  La0  1  0.50000000  0.00000000  0.70077300  1
  La  La1  1  0.00000000  0.00000000  0.00000000  1
  La  La2  1  0.00000000  0.50000000  0.79922700  1
  La  La3  1  0.00000000  0.50000000  0.20077300  1
  La  La4  1  0.50000000  0.50000000  0.50000000  1
  La  La5  1  0.50000000  0.00000000  0.29922700  1
  B  B6  1  0.50000000  0.35747400  0.00000000  1
  B  B7  1  0.50000000  0.64252600  0.00000000  1
  B  B8  1  0.00000000  0.85747400  0.50000000  1
  B  B9  1  0.00000000  0.14252600  0.50000000  1
  N  N10  1  0.00000000  0.74499450  0.61752250  1
  N  N11  1  0.50000000  0.24499450  0.88247750  1
  N  N12  1  0.50000000  0.75500550  0.88247750  1
  N  N13  1  0.00000000  0.25500550  0.61752250  1
  N  N14  1  0.50000000  0.24499450  0.11752250  1
  N  N15  1  0.00000000  0.74499450  0.38247750  1
  N  N16  1  0.00000000  0.25500550  0.38247750  1
  N  N17  1  0.50000000  0.75500550  0.11752250  1
