# generated using pymatgen
data_K3CaV5O15
_symmetry_space_group_name_H-M   'P 1'
_cell_length_a   16.00243400
_cell_length_b   26.45226600
_cell_length_c   7.96624300
_cell_angle_alpha   90.00000000
_cell_angle_beta   90.00000000
_cell_angle_gamma   90.00000000
_symmetry_Int_Tables_number   1
_chemical_formula_structural   K3CaV5O15
_chemical_formula_sum   'K24 Ca8 V40 O120'
_cell_volume   3372.11576679
_cell_formula_units_Z   8
loop_
 _symmetry_equiv_pos_site_id
 _symmetry_equiv_pos_as_xyz
  1  'x, y, z'
loop_
 _atom_site_type_symbol
 _atom_site_label
 _atom_site_symmetry_multiplicity
 _atom_site_fract_x
 _atom_site_fract_y
 _atom_site_fract_z
 _atom_site_occupancy
  K  K0  1  0.62989900  0.25000000  0.79863700  1
  K  K1  1  0.37010100  0.25000000  0.79863700  1
  K  K2  1  0.50000000  0.39975950  0.92189100  1
  K  K3  1  0.75000000  0.91348900  0.50000000  1
  K  K4  1  0.62989900  0.75000000  0.20136300  1
  K  K5  1  0.50000000  0.10024050  0.92189100  1
  K  K6  1  0.25000000  0.91348900  0.50000000  1
  K  K7  1  0.50000000  0.60024050  0.07810900  1
  K  K8  1  0.50000000  0.89975950  0.07810900  1
  K  K9  1  0.25000000  0.08651100  0.50000000  1
  K  K10  1  0.75000000  0.08651100  0.50000000  1
  K  K11  1  0.37010100  0.75000000  0.20136300  1
  K  K12  1  0.12989900  0.75000000  0.79863700  1
  K  K13  1  0.87010100  0.75000000  0.79863700  1
  K  K14  1  0.00000000  0.89975950  0.92189100  1
  K  K15  1  0.25000000  0.41348900  0.50000000  1
  K  K16  1  0.12989900  0.25000000  0.20136300  1
  K  K17  1  0.00000000  0.60024050  0.92189100  1
  K  K18  1  0.75000000  0.41348900  0.50000000  1
  K  K19  1  0.00000000  0.10024050  0.07810900  1
  K  K20  1  0.00000000  0.39975950  0.07810900  1
  K  K21  1  0.75000000  0.58651100  0.50000000  1
  K  K22  1  0.25000000  0.58651100  0.50000000  1
  K  K23  1  0.87010100  0.25000000  0.20136300  1
  Ca  Ca24  1  0.75000000  0.09493300  0.00000000  1
  Ca  Ca25  1  0.25000000  0.90506700  0.00000000  1
  Ca  Ca26  1  0.75000000  0.90506700  0.00000000  1
  Ca  Ca27  1  0.25000000  0.09493300  0.00000000  1
  Ca  Ca28  1  0.25000000  0.59493300  0.00000000  1
  Ca  Ca29  1  0.75000000  0.40506700  0.00000000  1
  Ca  Ca30  1  0.25000000  0.40506700  0.00000000  1
  Ca  Ca31  1  0.75000000  0.59493300  0.00000000  1
  V  V32  1  0.50000000  0.15499900  0.51727600  1
  V  V33  1  0.33878800  0.31712800  0.22139400  1
  V  V34  1  0.88945400  0.00181100  0.72384500  1
  V  V35  1  0.66121200  0.31712800  0.22139400  1
  V  V36  1  0.61054600  0.00181100  0.27615500  1
  V  V37  1  0.61054600  0.99818900  0.72384500  1
  V  V38  1  0.88945400  0.99818900  0.27615500  1
  V  V39  1  0.33878800  0.81712800  0.77860600  1
  V  V40  1  0.38945400  0.99818900  0.72384500  1
  V  V41  1  0.66121200  0.68287200  0.77860600  1
  V  V42  1  0.50000000  0.84500100  0.48272400  1
  V  V43  1  0.11054600  0.00181100  0.72384500  1
  V  V44  1  0.33878800  0.68287200  0.77860600  1
  V  V45  1  0.11054600  0.99818900  0.27615500  1
  V  V46  1  0.66121200  0.18287200  0.22139400  1
  V  V47  1  0.38945400  0.00181100  0.27615500  1
  V  V48  1  0.33878800  0.18287200  0.22139400  1
  V  V49  1  0.50000000  0.65499900  0.48272400  1
  V  V50  1  0.66121200  0.81712800  0.77860600  1
  V  V51  1  0.50000000  0.34500100  0.51727600  1
  V  V52  1  0.00000000  0.65499900  0.51727600  1
  V  V53  1  0.83878800  0.81712800  0.22139400  1
  V  V54  1  0.38945400  0.50181100  0.72384500  1
  V  V55  1  0.16121200  0.81712800  0.22139400  1
  V  V56  1  0.11054600  0.50181100  0.27615500  1
  V  V57  1  0.11054600  0.49818900  0.72384500  1
  V  V58  1  0.38945400  0.49818900  0.27615500  1
  V  V59  1  0.83878800  0.31712800  0.77860600  1
  V  V60  1  0.88945400  0.49818900  0.72384500  1
  V  V61  1  0.16121200  0.18287200  0.77860600  1
  V  V62  1  0.00000000  0.34500100  0.48272400  1
  V  V63  1  0.61054600  0.50181100  0.72384500  1
  V  V64  1  0.83878800  0.18287200  0.77860600  1
  V  V65  1  0.61054600  0.49818900  0.27615500  1
  V  V66  1  0.16121200  0.68287200  0.22139400  1
  V  V67  1  0.88945400  0.50181100  0.27615500  1
  V  V68  1  0.83878800  0.68287200  0.22139400  1
  V  V69  1  0.00000000  0.15499900  0.48272400  1
  V  V70  1  0.16121200  0.31712800  0.77860600  1
  V  V71  1  0.00000000  0.84500100  0.51727600  1
  O  O72  1  0.50000000  0.59355900  0.44108000  1
  O  O73  1  0.50000000  0.90644100  0.44108000  1
  O  O74  1  0.34887600  0.05021000  0.81430500  1
  O  O75  1  0.75472450  0.84519550  0.75108700  1
  O  O76  1  0.59452450  0.32789450  0.39916500  1
  O  O77  1  0.86509900  0.00000000  0.50000000  1
  O  O78  1  0.25472450  0.15480450  0.75108700  1
  O  O79  1  0.40547550  0.17210550  0.39916500  1
  O  O80  1  0.62397550  0.84158850  0.95793300  1
  O  O81  1  0.37602450  0.65841150  0.95793300  1
  O  O82  1  0.84115750  0.05312450  0.80112400  1
  O  O83  1  0.50000000  0.00558900  0.22519800  1
  O  O84  1  0.15884250  0.05312450  0.80112400  1
  O  O85  1  0.50000000  0.18677800  0.70001800  1
  O  O86  1  0.63490100  0.00000000  0.50000000  1
  O  O87  1  0.24527550  0.84519550  0.75108700  1
  O  O88  1  0.59452450  0.17210550  0.39916500  1
  O  O89  1  0.84115750  0.94687550  0.19887600  1
  O  O90  1  0.50000000  0.09355900  0.55892000  1
  O  O91  1  0.15112400  0.94979000  0.81430500  1
  O  O92  1  0.65884250  0.05312450  0.19887600  1
  O  O93  1  0.59452450  0.82789450  0.60083500  1
  O  O94  1  0.24527550  0.15480450  0.24891300  1
  O  O95  1  0.15884250  0.94687550  0.19887600  1
  O  O96  1  0.65884250  0.94687550  0.80112400  1
  O  O97  1  0.68029700  0.75000000  0.81087800  1
  O  O98  1  0.65112400  0.94979000  0.18569500  1
  O  O99  1  0.62397550  0.15841150  0.04206700  1
  O  O100  1  0.84887600  0.05021000  0.18569500  1
  O  O101  1  0.62397550  0.34158850  0.04206700  1
  O  O102  1  0.75472450  0.15480450  0.24891300  1
  O  O103  1  0.59452450  0.67210550  0.60083500  1
  O  O104  1  0.65112400  0.05021000  0.81430500  1
  O  O105  1  0.31970300  0.25000000  0.18912200  1
  O  O106  1  0.50000000  0.50558900  0.77480200  1
  O  O107  1  0.50000000  0.81322200  0.29998200  1
  O  O108  1  0.84887600  0.94979000  0.81430500  1
  O  O109  1  0.50000000  0.31322200  0.70001800  1
  O  O110  1  0.50000000  0.49441100  0.22519800  1
  O  O111  1  0.36509900  0.00000000  0.50000000  1
  O  O112  1  0.25472450  0.84519550  0.24891300  1
  O  O113  1  0.50000000  0.99441100  0.77480200  1
  O  O114  1  0.37602450  0.34158850  0.04206700  1
  O  O115  1  0.13490100  0.00000000  0.50000000  1
  O  O116  1  0.40547550  0.82789450  0.60083500  1
  O  O117  1  0.50000000  0.68677800  0.29998200  1
  O  O118  1  0.37602450  0.84158850  0.95793300  1
  O  O119  1  0.74527550  0.15480450  0.75108700  1
  O  O120  1  0.40547550  0.32789450  0.39916500  1
  O  O121  1  0.31970300  0.75000000  0.81087800  1
  O  O122  1  0.34887600  0.94979000  0.18569500  1
  O  O123  1  0.34115750  0.05312450  0.19887600  1
  O  O124  1  0.68029700  0.25000000  0.18912200  1
  O  O125  1  0.34115750  0.94687550  0.80112400  1
  O  O126  1  0.62397550  0.65841150  0.95793300  1
  O  O127  1  0.74527550  0.84519550  0.24891300  1
  O  O128  1  0.37602450  0.15841150  0.04206700  1
  O  O129  1  0.40547550  0.67210550  0.60083500  1
  O  O130  1  0.50000000  0.40644100  0.55892000  1
  O  O131  1  0.15112400  0.05021000  0.18569500  1
  O  O132  1  0.00000000  0.09355900  0.44108000  1
  O  O133  1  0.00000000  0.40644100  0.44108000  1
  O  O134  1  0.84887600  0.55021000  0.81430500  1
  O  O135  1  0.25472450  0.34519550  0.75108700  1
  O  O136  1  0.09452450  0.82789450  0.39916500  1
  O  O137  1  0.36509900  0.50000000  0.50000000  1
  O  O138  1  0.75472450  0.65480450  0.75108700  1
  O  O139  1  0.90547550  0.67210550  0.39916500  1
  O  O140  1  0.12397550  0.34158850  0.95793300  1
  O  O141  1  0.87602450  0.15841150  0.95793300  1
  O  O142  1  0.34115750  0.55312450  0.80112400  1
  O  O143  1  0.00000000  0.50558900  0.22519800  1
  O  O144  1  0.65884250  0.55312450  0.80112400  1
  O  O145  1  0.00000000  0.68677800  0.70001800  1
  O  O146  1  0.13490100  0.50000000  0.50000000  1
  O  O147  1  0.74527550  0.34519550  0.75108700  1
  O  O148  1  0.09452450  0.67210550  0.39916500  1
  O  O149  1  0.34115750  0.44687550  0.19887600  1
  O  O150  1  0.00000000  0.59355900  0.55892000  1
  O  O151  1  0.65112400  0.44979000  0.81430500  1
  O  O152  1  0.15884250  0.55312450  0.19887600  1
  O  O153  1  0.09452450  0.32789450  0.60083500  1
  O  O154  1  0.74527550  0.65480450  0.24891300  1
  O  O155  1  0.65884250  0.44687550  0.19887600  1
  O  O156  1  0.15884250  0.44687550  0.80112400  1
  O  O157  1  0.18029700  0.25000000  0.81087800  1
  O  O158  1  0.15112400  0.44979000  0.18569500  1
  O  O159  1  0.12397550  0.65841150  0.04206700  1
  O  O160  1  0.34887600  0.55021000  0.18569500  1
  O  O161  1  0.12397550  0.84158850  0.04206700  1
  O  O162  1  0.25472450  0.65480450  0.24891300  1
  O  O163  1  0.09452450  0.17210550  0.60083500  1
  O  O164  1  0.15112400  0.55021000  0.81430500  1
  O  O165  1  0.81970300  0.75000000  0.18912200  1
  O  O166  1  0.00000000  0.00558900  0.77480200  1
  O  O167  1  0.00000000  0.31322200  0.29998200  1
  O  O168  1  0.34887600  0.44979000  0.81430500  1
  O  O169  1  0.00000000  0.81322200  0.70001800  1
  O  O170  1  0.00000000  0.99441100  0.22519800  1
  O  O171  1  0.86509900  0.50000000  0.50000000  1
  O  O172  1  0.75472450  0.34519550  0.24891300  1
  O  O173  1  0.00000000  0.49441100  0.77480200  1
  O  O174  1  0.87602450  0.84158850  0.04206700  1
  O  O175  1  0.63490100  0.50000000  0.50000000  1
  O  O176  1  0.90547550  0.32789450  0.60083500  1
  O  O177  1  0.00000000  0.18677800  0.29998200  1
  O  O178  1  0.87602450  0.34158850  0.95793300  1
  O  O179  1  0.24527550  0.65480450  0.75108700  1
  O  O180  1  0.90547550  0.82789450  0.39916500  1
  O  O181  1  0.81970300  0.25000000  0.81087800  1
  O  O182  1  0.84887600  0.44979000  0.18569500  1
  O  O183  1  0.84115750  0.55312450  0.19887600  1
  O  O184  1  0.18029700  0.75000000  0.18912200  1
  O  O185  1  0.84115750  0.44687550  0.80112400  1
  O  O186  1  0.12397550  0.15841150  0.95793300  1
  O  O187  1  0.24527550  0.34519550  0.24891300  1
  O  O188  1  0.87602450  0.65841150  0.04206700  1
  O  O189  1  0.90547550  0.17210550  0.60083500  1
  O  O190  1  0.00000000  0.90644100  0.55892000  1
  O  O191  1  0.65112400  0.55021000  0.18569500  1
