# generated using pymatgen
data_Rb3FeO3
_symmetry_space_group_name_H-M   'P 1'
_cell_length_a   7.52319348
_cell_length_b   11.76461172
_cell_length_c   6.93567824
_cell_angle_alpha   90.00000000
_cell_angle_beta   103.34887860
_cell_angle_gamma   90.00000000
_symmetry_Int_Tables_number   1
_chemical_formula_structural   Rb3FeO3
_chemical_formula_sum   'Rb12 Fe4 O12'
_cell_volume   597.27411165
_cell_formula_units_Z   4
loop_
 _symmetry_equiv_pos_site_id
 _symmetry_equiv_pos_as_xyz
  1  'x, y, z'
loop_
 _atom_site_type_symbol
 _atom_site_label
 _atom_site_symmetry_multiplicity
 _atom_site_fract_x
 _atom_site_fract_y
 _atom_site_fract_z
 _atom_site_occupancy
  Rb  Rb0  1  0.50000000  0.76115150  0.00000000  1
  Rb  Rb1  1  0.50000000  0.23884850  0.00000000  1
  Rb  Rb2  1  0.50000000  0.69285275  0.50000000  1
  Rb  Rb3  1  0.50000000  0.30714725  0.50000000  1
  Rb  Rb4  1  0.37315325  0.00000000  0.65370275  1
  Rb  Rb5  1  0.62684675  0.00000000  0.34629725  1
  Rb  Rb6  1  0.00000000  0.26115150  0.00000000  1
  Rb  Rb7  1  0.00000000  0.73884850  0.00000000  1
  Rb  Rb8  1  0.00000000  0.19285275  0.50000000  1
  Rb  Rb9  1  0.00000000  0.80714725  0.50000000  1
  Rb  Rb10  1  0.87315325  0.50000000  0.65370275  1
  Rb  Rb11  1  0.12684675  0.50000000  0.34629725  1
  Fe  Fe12  1  0.16327975  0.00000000  0.14596675  1
  Fe  Fe13  1  0.83672025  0.00000000  0.85403325  1
  Fe  Fe14  1  0.66327975  0.50000000  0.14596675  1
  Fe  Fe15  1  0.33672025  0.50000000  0.85403325  1
  O  O16  1  0.09873075  0.00000000  0.85159825  1
  O  O17  1  0.90126925  0.00000000  0.14840175  1
  O  O18  1  0.71546475  0.13178525  0.73552775  1
  O  O19  1  0.28453525  0.86821475  0.26447225  1
  O  O20  1  0.71546475  0.86821475  0.73552775  1
  O  O21  1  0.28453525  0.13178525  0.26447225  1
  O  O22  1  0.59873075  0.50000000  0.85159825  1
  O  O23  1  0.40126925  0.50000000  0.14840175  1
  O  O24  1  0.21546475  0.63178525  0.73552775  1
  O  O25  1  0.78453525  0.36821475  0.26447225  1
  O  O26  1  0.21546475  0.36821475  0.73552775  1
  O  O27  1  0.78453525  0.63178525  0.26447225  1
