# generated using pymatgen
data_Ba4NdMn3O12
_symmetry_space_group_name_H-M   'P 1'
_cell_length_a   5.91438380
_cell_length_b   5.91438380
_cell_length_c   29.76074027
_cell_angle_alpha   90.00000000
_cell_angle_beta   90.00000000
_cell_angle_gamma   120.00000000
_symmetry_Int_Tables_number   1
_chemical_formula_structural   Ba4NdMn3O12
_chemical_formula_sum   'Ba12 Nd3 Mn9 O36'
_cell_volume   901.55737006
_cell_formula_units_Z   3
loop_
 _symmetry_equiv_pos_site_id
 _symmetry_equiv_pos_as_xyz
  1  'x, y, z'
loop_
 _atom_site_type_symbol
 _atom_site_label
 _atom_site_symmetry_multiplicity
 _atom_site_fract_x
 _atom_site_fract_y
 _atom_site_fract_z
 _atom_site_occupancy
  Ba  Ba0  1  0.00000000  0.00000000  0.13070800  1
  Ba  Ba1  1  0.66666667  0.33333333  0.20262533  1
  Ba  Ba2  1  0.00000000  0.00000000  0.27950500  1
  Ba  Ba3  1  0.66666667  0.33333333  0.05382833  1
  Ba  Ba4  1  0.66666667  0.33333333  0.46404133  1
  Ba  Ba5  1  0.33333333  0.66666667  0.53595867  1
  Ba  Ba6  1  0.66666667  0.33333333  0.61283833  1
  Ba  Ba7  1  0.33333333  0.66666667  0.38716167  1
  Ba  Ba8  1  0.33333333  0.66666667  0.79737467  1
  Ba  Ba9  1  0.00000000  0.00000000  0.86929200  1
  Ba  Ba10  1  0.33333333  0.66666667  0.94617167  1
  Ba  Ba11  1  0.00000000  0.00000000  0.72049500  1
  Nd  Nd12  1  0.00000000  0.00000000  0.00000000  1
  Nd  Nd13  1  0.66666667  0.33333333  0.33333333  1
  Nd  Nd14  1  0.33333333  0.66666667  0.66666667  1
  Mn  Mn15  1  0.33333333  0.66666667  0.25310367  1
  Mn  Mn16  1  0.33333333  0.66666667  0.16666667  1
  Mn  Mn17  1  0.33333333  0.66666667  0.08022967  1
  Mn  Mn18  1  0.00000000  0.00000000  0.58643700  1
  Mn  Mn19  1  1.00000000  1.00000000  0.50000000  1
  Mn  Mn20  1  0.00000000  0.00000000  0.41356300  1
  Mn  Mn21  1  0.66666667  0.33333333  0.91977033  1
  Mn  Mn22  1  0.66666667  0.33333333  0.83333333  1
  Mn  Mn23  1  0.66666667  0.33333333  0.74689633  1
  O  O24  1  0.64232333  0.82116167  0.04701267  1
  O  O25  1  0.47985700  0.95971400  0.12563000  1
  O  O26  1  0.18680967  0.37361933  0.20770333  1
  O  O27  1  0.48782833  0.97565667  0.28632067  1
  O  O28  1  0.48782833  0.51217167  0.28632067  1
  O  O29  1  0.47985700  0.52014300  0.12563000  1
  O  O30  1  0.17883833  0.35767667  0.04701267  1
  O  O31  1  0.04028600  0.52014300  0.12563000  1
  O  O32  1  0.02434333  0.51217167  0.28632067  1
  O  O33  1  0.62638067  0.81319033  0.20770333  1
  O  O34  1  0.18680967  0.81319033  0.20770333  1
  O  O35  1  0.17883833  0.82116167  0.04701267  1
  O  O36  1  0.30899000  0.15449500  0.38034600  1
  O  O37  1  0.14652367  0.29304733  0.45896333  1
  O  O38  1  0.85347633  0.70695267  0.54103667  1
  O  O39  1  0.15449500  0.30899000  0.61965400  1
  O  O40  1  0.15449500  0.84550500  0.61965400  1
  O  O41  1  0.14652367  0.85347633  0.45896333  1
  O  O42  1  0.84550500  0.69101000  0.38034600  1
  O  O43  1  0.70695267  0.85347633  0.45896333  1
  O  O44  1  0.69101000  0.84550500  0.61965400  1
  O  O45  1  0.29304733  0.14652367  0.54103667  1
  O  O46  1  0.85347633  0.14652367  0.54103667  1
  O  O47  1  0.84550500  0.15449500  0.38034600  1
  O  O48  1  0.97565667  0.48782833  0.71367933  1
  O  O49  1  0.81319033  0.62638067  0.79229667  1
  O  O50  1  0.52014300  0.04028600  0.87437000  1
  O  O51  1  0.82116167  0.64232333  0.95298733  1
  O  O52  1  0.82116167  0.17883833  0.95298733  1
  O  O53  1  0.81319033  0.18680967  0.79229667  1
  O  O54  1  0.51217167  0.02434333  0.71367933  1
  O  O55  1  0.37361933  0.18680967  0.79229667  1
  O  O56  1  0.35767667  0.17883833  0.95298733  1
  O  O57  1  0.95971400  0.47985700  0.87437000  1
  O  O58  1  0.52014300  0.47985700  0.87437000  1
  O  O59  1  0.51217167  0.48782833  0.71367933  1
