# generated using pymatgen
data_Ni18Bi3AsS16
_symmetry_space_group_name_H-M   'P 1'
_cell_length_a   10.27072600
_cell_length_b   10.27072600
_cell_length_c   10.82428800
_cell_angle_alpha   90.00000000
_cell_angle_beta   90.00000000
_cell_angle_gamma   90.00000000
_symmetry_Int_Tables_number   1
_chemical_formula_structural   Ni18Bi3AsS16
_chemical_formula_sum   'Ni36 Bi6 As2 S32'
_cell_volume   1141.83046372
_cell_formula_units_Z   2
loop_
 _symmetry_equiv_pos_site_id
 _symmetry_equiv_pos_as_xyz
  1  'x, y, z'
loop_
 _atom_site_type_symbol
 _atom_site_label
 _atom_site_symmetry_multiplicity
 _atom_site_fract_x
 _atom_site_fract_y
 _atom_site_fract_z
 _atom_site_occupancy
  Ni  Ni0  1  0.35687500  0.35687500  0.87875000  1
  Ni  Ni1  1  0.14312500  0.85687500  0.37875000  1
  Ni  Ni2  1  0.50000000  0.00000000  0.00000000  1
  Ni  Ni3  1  0.32848200  0.67151800  0.62620800  1
  Ni  Ni4  1  0.32848200  0.67151800  0.37379200  1
  Ni  Ni5  1  0.17151800  0.17151800  0.87379200  1
  Ni  Ni6  1  0.14312500  0.85687500  0.62125000  1
  Ni  Ni7  1  0.32848200  0.32848200  0.62620800  1
  Ni  Ni8  1  0.35687500  0.35687500  0.12125000  1
  Ni  Ni9  1  0.17151800  0.17151800  0.12620800  1
  Ni  Ni10  1  0.67151800  0.32848200  0.62620800  1
  Ni  Ni11  1  0.14312500  0.14312500  0.37875000  1
  Ni  Ni12  1  0.14312500  0.14312500  0.62125000  1
  Ni  Ni13  1  0.85687500  0.14312500  0.37875000  1
  Ni  Ni14  1  0.32848200  0.32848200  0.37379200  1
  Ni  Ni15  1  0.00000000  0.50000000  0.00000000  1
  Ni  Ni16  1  0.85687500  0.14312500  0.62125000  1
  Ni  Ni17  1  0.67151800  0.32848200  0.37379200  1
  Ni  Ni18  1  0.85687500  0.85687500  0.37875000  1
  Ni  Ni19  1  0.64312500  0.35687500  0.87875000  1
  Ni  Ni20  1  0.00000000  0.50000000  0.50000000  1
  Ni  Ni21  1  0.82848200  0.17151800  0.12620800  1
  Ni  Ni22  1  0.82848200  0.17151800  0.87379200  1
  Ni  Ni23  1  0.67151800  0.67151800  0.37379200  1
  Ni  Ni24  1  0.64312500  0.35687500  0.12125000  1
  Ni  Ni25  1  0.82848200  0.82848200  0.12620800  1
  Ni  Ni26  1  0.85687500  0.85687500  0.62125000  1
  Ni  Ni27  1  0.67151800  0.67151800  0.62620800  1
  Ni  Ni28  1  0.17151800  0.82848200  0.12620800  1
  Ni  Ni29  1  0.64312500  0.64312500  0.87875000  1
  Ni  Ni30  1  0.64312500  0.64312500  0.12125000  1
  Ni  Ni31  1  0.35687500  0.64312500  0.87875000  1
  Ni  Ni32  1  0.82848200  0.82848200  0.87379200  1
  Ni  Ni33  1  0.50000000  0.00000000  0.50000000  1
  Ni  Ni34  1  0.35687500  0.64312500  0.12125000  1
  Ni  Ni35  1  0.17151800  0.82848200  0.87379200  1
  Bi  Bi36  1  0.00000000  0.50000000  0.25000000  1
  Bi  Bi37  1  0.50000000  0.00000000  0.25000000  1
  Bi  Bi38  1  0.00000000  0.00000000  0.00000000  1
  Bi  Bi39  1  0.50000000  0.00000000  0.75000000  1
  Bi  Bi40  1  0.00000000  0.50000000  0.75000000  1
  Bi  Bi41  1  0.50000000  0.50000000  0.50000000  1
  As  As42  1  0.00000000  0.00000000  0.50000000  1
  As  As43  1  0.50000000  0.50000000  0.00000000  1
  S  S44  1  0.27271200  0.50000000  0.25947600  1
  S  S45  1  0.00000000  0.22728800  0.24052400  1
  S  S46  1  0.34765250  0.16350350  0.00000000  1
  S  S47  1  0.15234750  0.33649650  0.50000000  1
  S  S48  1  0.33649650  0.84765250  0.50000000  1
  S  S49  1  0.84765250  0.33649650  0.50000000  1
  S  S50  1  0.33649650  0.15234750  0.50000000  1
  S  S51  1  0.65234750  0.16350350  0.00000000  1
  S  S52  1  0.27271200  0.50000000  0.74052400  1
  S  S53  1  0.16350350  0.34765250  0.00000000  1
  S  S54  1  0.50000000  0.27271200  0.74052400  1
  S  S55  1  0.22728800  0.00000000  0.24052400  1
  S  S56  1  0.16350350  0.65234750  0.00000000  1
  S  S57  1  0.00000000  0.22728800  0.75947600  1
  S  S58  1  0.22728800  0.00000000  0.75947600  1
  S  S59  1  0.50000000  0.27271200  0.25947600  1
  S  S60  1  0.77271200  0.00000000  0.75947600  1
  S  S61  1  0.50000000  0.72728800  0.74052400  1
  S  S62  1  0.84765250  0.66350350  0.50000000  1
  S  S63  1  0.65234750  0.83649650  0.00000000  1
  S  S64  1  0.83649650  0.34765250  0.00000000  1
  S  S65  1  0.34765250  0.83649650  0.00000000  1
  S  S66  1  0.83649650  0.65234750  0.00000000  1
  S  S67  1  0.15234750  0.66350350  0.50000000  1
  S  S68  1  0.77271200  0.00000000  0.24052400  1
  S  S69  1  0.66350350  0.84765250  0.50000000  1
  S  S70  1  0.00000000  0.77271200  0.24052400  1
  S  S71  1  0.72728800  0.50000000  0.74052400  1
  S  S72  1  0.66350350  0.15234750  0.50000000  1
  S  S73  1  0.50000000  0.72728800  0.25947600  1
  S  S74  1  0.72728800  0.50000000  0.25947600  1
  S  S75  1  0.00000000  0.77271200  0.75947600  1
