# generated using pymatgen
data_Sm3(CoGe2)2
_symmetry_space_group_name_H-M   'P 1'
_cell_length_a   10.94462800
_cell_length_b   4.18876000
_cell_length_c   8.15062386
_cell_angle_alpha   90.00000000
_cell_angle_beta   107.70551125
_cell_angle_gamma   90.00000000
_symmetry_Int_Tables_number   1
_chemical_formula_structural   Sm3(CoGe2)2
_chemical_formula_sum   'Sm6 Co4 Ge8'
_cell_volume   355.96115363
_cell_formula_units_Z   2
loop_
 _symmetry_equiv_pos_site_id
 _symmetry_equiv_pos_as_xyz
  1  'x, y, z'
loop_
 _atom_site_type_symbol
 _atom_site_label
 _atom_site_symmetry_multiplicity
 _atom_site_fract_x
 _atom_site_fract_y
 _atom_site_fract_z
 _atom_site_occupancy
  Sm  Sm0  1  0.61903100  0.00000000  0.69226900  1
  Sm  Sm1  1  0.00000000  0.00000000  0.00000000  1
  Sm  Sm2  1  0.88096900  0.50000000  0.30773100  1
  Sm  Sm3  1  0.11903100  0.50000000  0.69226900  1
  Sm  Sm4  1  0.50000000  0.50000000  0.00000000  1
  Sm  Sm5  1  0.38096900  0.00000000  0.30773100  1
  Co  Co6  1  0.80496200  0.50000000  0.62740200  1
  Co  Co7  1  0.69503800  0.00000000  0.37259800  1
  Co  Co8  1  0.30496200  0.00000000  0.62740200  1
  Co  Co9  1  0.19503800  0.50000000  0.37259800  1
  Ge  Ge10  1  0.71129300  0.00000000  0.08262500  1
  Ge  Ge11  1  0.60460200  0.50000000  0.39859000  1
  Ge  Ge12  1  0.78870700  0.50000000  0.91737500  1
  Ge  Ge13  1  0.89539800  0.00000000  0.60141000  1
  Ge  Ge14  1  0.21129300  0.50000000  0.08262500  1
  Ge  Ge15  1  0.10460200  0.00000000  0.39859000  1
  Ge  Ge16  1  0.28870700  0.00000000  0.91737500  1
  Ge  Ge17  1  0.39539800  0.50000000  0.60141000  1
