# generated using pymatgen
data_K2UCu3S5
_symmetry_space_group_name_H-M   'P 1'
_cell_length_a   3.94325000
_cell_length_b   13.99372400
_cell_length_c   17.61941800
_cell_angle_alpha   90.00000000
_cell_angle_beta   90.00000000
_cell_angle_gamma   90.00000000
_symmetry_Int_Tables_number   1
_chemical_formula_structural   K2UCu3S5
_chemical_formula_sum   'K8 U4 Cu12 S20'
_cell_volume   972.25273791
_cell_formula_units_Z   4
loop_
 _symmetry_equiv_pos_site_id
 _symmetry_equiv_pos_as_xyz
  1  'x, y, z'
loop_
 _atom_site_type_symbol
 _atom_site_label
 _atom_site_symmetry_multiplicity
 _atom_site_fract_x
 _atom_site_fract_y
 _atom_site_fract_z
 _atom_site_occupancy
  K  K0  1  0.00000000  0.23634100  0.63402600  1
  K  K1  1  0.50000000  0.26365900  0.36597400  1
  K  K2  1  0.50000000  0.26365900  0.13402600  1
  K  K3  1  0.00000000  0.23634100  0.86597400  1
  K  K4  1  0.50000000  0.73634100  0.63402600  1
  K  K5  1  0.00000000  0.76365900  0.36597400  1
  K  K6  1  0.00000000  0.76365900  0.13402600  1
  K  K7  1  0.50000000  0.73634100  0.86597400  1
  U  U8  1  0.50000000  0.00000000  0.50000000  1
  U  U9  1  0.50000000  0.00000000  0.00000000  1
  U  U10  1  0.00000000  0.50000000  0.50000000  1
  U  U11  1  0.00000000  0.50000000  0.00000000  1
  Cu  Cu12  1  0.50000000  0.05346900  0.25000000  1
  Cu  Cu13  1  0.50000000  0.45640900  0.64367200  1
  Cu  Cu14  1  0.00000000  0.04359100  0.14367200  1
  Cu  Cu15  1  0.00000000  0.04359100  0.35632800  1
  Cu  Cu16  1  0.00000000  0.44653100  0.75000000  1
  Cu  Cu17  1  0.50000000  0.45640900  0.85632800  1
  Cu  Cu18  1  0.00000000  0.55346900  0.25000000  1
  Cu  Cu19  1  0.00000000  0.95640900  0.64367200  1
  Cu  Cu20  1  0.50000000  0.54359100  0.14367200  1
  Cu  Cu21  1  0.50000000  0.54359100  0.35632800  1
  Cu  Cu22  1  0.50000000  0.94653100  0.75000000  1
  Cu  Cu23  1  0.00000000  0.95640900  0.85632800  1
  S  S24  1  0.00000000  0.44785600  0.35809700  1
  S  S25  1  0.50000000  0.05214400  0.85809700  1
  S  S26  1  0.00000000  0.12453000  0.47009500  1
  S  S27  1  0.50000000  0.05214400  0.64190300  1
  S  S28  1  0.50000000  0.37547000  0.97009500  1
  S  S29  1  0.00000000  0.12453000  0.02990500  1
  S  S30  1  0.50000000  0.35350300  0.75000000  1
  S  S31  1  0.00000000  0.14649700  0.25000000  1
  S  S32  1  0.50000000  0.37547000  0.52990500  1
  S  S33  1  0.00000000  0.44785600  0.14190300  1
  S  S34  1  0.50000000  0.94785600  0.35809700  1
  S  S35  1  0.00000000  0.55214400  0.85809700  1
  S  S36  1  0.50000000  0.62453000  0.47009500  1
  S  S37  1  0.00000000  0.55214400  0.64190300  1
  S  S38  1  0.00000000  0.87547000  0.97009500  1
  S  S39  1  0.50000000  0.62453000  0.02990500  1
  S  S40  1  0.00000000  0.85350300  0.75000000  1
  S  S41  1  0.50000000  0.64649700  0.25000000  1
  S  S42  1  0.00000000  0.87547000  0.52990500  1
  S  S43  1  0.50000000  0.94785600  0.14190300  1
