# generated using pymatgen
data_Cu4Bi7S12
_symmetry_space_group_name_H-M   'P 1'
_cell_length_a   18.47081600
_cell_length_b   3.94500600
_cell_length_c   15.22347288
_cell_angle_alpha   90.00000000
_cell_angle_beta   102.48719163
_cell_angle_gamma   90.00000000
_symmetry_Int_Tables_number   1
_chemical_formula_structural   Cu4Bi7S12
_chemical_formula_sum   'Cu8 Bi14 S24'
_cell_volume   1083.05500377
_cell_formula_units_Z   2
loop_
 _symmetry_equiv_pos_site_id
 _symmetry_equiv_pos_as_xyz
  1  'x, y, z'
loop_
 _atom_site_type_symbol
 _atom_site_label
 _atom_site_symmetry_multiplicity
 _atom_site_fract_x
 _atom_site_fract_y
 _atom_site_fract_z
 _atom_site_occupancy
  Cu  Cu0  1  0.59162700  0.00000000  0.98979900  1
  Cu  Cu1  1  0.90837300  0.50000000  0.01020100  1
  Cu  Cu2  1  0.65315800  0.00000000  0.63866000  1
  Cu  Cu3  1  0.84684200  0.50000000  0.36134000  1
  Cu  Cu4  1  0.09162700  0.50000000  0.98979900  1
  Cu  Cu5  1  0.40837300  0.00000000  0.01020100  1
  Cu  Cu6  1  0.15315800  0.50000000  0.63866000  1
  Cu  Cu7  1  0.34684200  0.00000000  0.36134000  1
  Bi  Bi8  1  0.00000000  0.00000000  0.50000000  1
  Bi  Bi9  1  0.73788500  0.50000000  0.87087400  1
  Bi  Bi10  1  0.76211500  0.00000000  0.12912600  1
  Bi  Bi11  1  0.99157700  0.00000000  0.77992800  1
  Bi  Bi12  1  0.50842300  0.50000000  0.22007200  1
  Bi  Bi13  1  0.82877500  0.50000000  0.58884300  1
  Bi  Bi14  1  0.67122500  0.00000000  0.41115700  1
  Bi  Bi15  1  0.50000000  0.50000000  0.50000000  1
  Bi  Bi16  1  0.23788500  0.00000000  0.87087400  1
  Bi  Bi17  1  0.26211500  0.50000000  0.12912600  1
  Bi  Bi18  1  0.49157700  0.50000000  0.77992800  1
  Bi  Bi19  1  0.00842300  0.00000000  0.22007200  1
  Bi  Bi20  1  0.32877500  0.00000000  0.58884300  1
  Bi  Bi21  1  0.17122500  0.50000000  0.41115700  1
  S  S22  1  0.66141500  0.50000000  0.99789900  1
  S  S23  1  0.83858500  0.00000000  0.00210100  1
  S  S24  1  0.97454100  0.50000000  0.89261300  1
  S  S25  1  0.52545900  0.00000000  0.10738700  1
  S  S26  1  0.64920500  0.00000000  0.78440800  1
  S  S27  1  0.85079500  0.50000000  0.21559200  1
  S  S28  1  0.84262100  0.00000000  0.71685500  1
  S  S29  1  0.65737900  0.50000000  0.28314500  1
  S  S30  1  0.98264500  0.50000000  0.62437700  1
  S  S31  1  0.51735500  0.00000000  0.37562300  1
  S  S32  1  0.66042000  0.50000000  0.56082800  1
  S  S33  1  0.83958000  0.00000000  0.43917200  1
  S  S34  1  0.16141500  0.00000000  0.99789900  1
  S  S35  1  0.33858500  0.50000000  0.00210100  1
  S  S36  1  0.47454100  0.00000000  0.89261300  1
  S  S37  1  0.02545900  0.50000000  0.10738700  1
  S  S38  1  0.14920500  0.50000000  0.78440800  1
  S  S39  1  0.35079500  0.00000000  0.21559200  1
  S  S40  1  0.34262100  0.50000000  0.71685500  1
  S  S41  1  0.15737900  0.00000000  0.28314500  1
  S  S42  1  0.48264500  0.00000000  0.62437700  1
  S  S43  1  0.01735500  0.50000000  0.37562300  1
  S  S44  1  0.16042000  0.00000000  0.56082800  1
  S  S45  1  0.33958000  0.50000000  0.43917200  1
