# generated using pymatgen
data_Tb3Se4
_symmetry_space_group_name_H-M   'P 1'
_cell_length_a   8.72372400
_cell_length_b   8.72372400
_cell_length_c   8.72372400
_cell_angle_alpha   90.00000000
_cell_angle_beta   90.00000000
_cell_angle_gamma   90.00000000
_symmetry_Int_Tables_number   1
_chemical_formula_structural   Tb3Se4
_chemical_formula_sum   'Tb12 Se16'
_cell_volume   663.90471185
_cell_formula_units_Z   4
loop_
 _symmetry_equiv_pos_site_id
 _symmetry_equiv_pos_as_xyz
  1  'x, y, z'
loop_
 _atom_site_type_symbol
 _atom_site_label
 _atom_site_symmetry_multiplicity
 _atom_site_fract_x
 _atom_site_fract_y
 _atom_site_fract_z
 _atom_site_occupancy
  Tb  Tb0  1  0.12500000  0.00000000  0.75000000  1
  Tb  Tb1  1  0.25000000  0.37500000  0.00000000  1
  Tb  Tb2  1  0.37500000  0.00000000  0.25000000  1
  Tb  Tb3  1  0.00000000  0.75000000  0.12500000  1
  Tb  Tb4  1  0.00000000  0.25000000  0.37500000  1
  Tb  Tb5  1  0.75000000  0.12500000  0.00000000  1
  Tb  Tb6  1  0.62500000  0.50000000  0.25000000  1
  Tb  Tb7  1  0.75000000  0.87500000  0.50000000  1
  Tb  Tb8  1  0.87500000  0.50000000  0.75000000  1
  Tb  Tb9  1  0.50000000  0.25000000  0.62500000  1
  Tb  Tb10  1  0.50000000  0.75000000  0.87500000  1
  Tb  Tb11  1  0.25000000  0.62500000  0.50000000  1
  Se  Se12  1  0.32239350  0.32239350  0.32239350  1
  Se  Se13  1  0.82239350  0.17760650  0.67760650  1
  Se  Se14  1  0.17760650  0.67760650  0.82239350  1
  Se  Se15  1  0.07239350  0.92760650  0.42760650  1
  Se  Se16  1  0.67760650  0.82239350  0.17760650  1
  Se  Se17  1  0.42760650  0.07239350  0.92760650  1
  Se  Se18  1  0.92760650  0.42760650  0.07239350  1
  Se  Se19  1  0.07239350  0.07239350  0.07239350  1
  Se  Se20  1  0.82239350  0.82239350  0.82239350  1
  Se  Se21  1  0.32239350  0.67760650  0.17760650  1
  Se  Se22  1  0.67760650  0.17760650  0.32239350  1
  Se  Se23  1  0.57239350  0.42760650  0.92760650  1
  Se  Se24  1  0.17760650  0.32239350  0.67760650  1
  Se  Se25  1  0.92760650  0.57239350  0.42760650  1
  Se  Se26  1  0.42760650  0.92760650  0.57239350  1
  Se  Se27  1  0.57239350  0.57239350  0.57239350  1
