# generated using pymatgen
data_Sr8In4Cu3N5
_symmetry_space_group_name_H-M   'P 1'
_cell_length_a   3.85980600
_cell_length_b   12.46837400
_cell_length_c   19.06734800
_cell_angle_alpha   90.00000000
_cell_angle_beta   90.00000000
_cell_angle_gamma   90.00000000
_symmetry_Int_Tables_number   1
_chemical_formula_structural   Sr8In4Cu3N5
_chemical_formula_sum   'Sr16 In8 Cu6 N10'
_cell_volume   917.62574723
_cell_formula_units_Z   2
loop_
 _symmetry_equiv_pos_site_id
 _symmetry_equiv_pos_as_xyz
  1  'x, y, z'
loop_
 _atom_site_type_symbol
 _atom_site_label
 _atom_site_symmetry_multiplicity
 _atom_site_fract_x
 _atom_site_fract_y
 _atom_site_fract_z
 _atom_site_occupancy
  Sr  Sr0  1  0.50000000  0.35178800  0.21090100  1
  Sr  Sr1  1  0.00000000  0.84778550  0.90163750  1
  Sr  Sr2  1  0.50000000  0.64821200  0.78909900  1
  Sr  Sr3  1  0.50000000  0.64821200  0.21090100  1
  Sr  Sr4  1  0.50000000  0.35178800  0.78909900  1
  Sr  Sr5  1  0.00000000  0.15221450  0.09836250  1
  Sr  Sr6  1  0.00000000  0.15221450  0.90163750  1
  Sr  Sr7  1  0.00000000  0.84778550  0.09836250  1
  Sr  Sr8  1  0.00000000  0.85178800  0.71090100  1
  Sr  Sr9  1  0.50000000  0.34778550  0.40163750  1
  Sr  Sr10  1  0.00000000  0.14821200  0.28909900  1
  Sr  Sr11  1  0.00000000  0.14821200  0.71090100  1
  Sr  Sr12  1  0.00000000  0.85178800  0.28909900  1
  Sr  Sr13  1  0.50000000  0.65221450  0.59836250  1
  Sr  Sr14  1  0.50000000  0.65221450  0.40163750  1
  Sr  Sr15  1  0.50000000  0.34778550  0.59836250  1
  In  In16  1  0.50000000  0.64774500  0.00000000  1
  In  In17  1  0.50000000  0.35225500  0.00000000  1
  In  In18  1  0.00000000  0.50000000  0.91607200  1
  In  In19  1  0.00000000  0.50000000  0.08392800  1
  In  In20  1  0.00000000  0.14774500  0.50000000  1
  In  In21  1  0.00000000  0.85225500  0.50000000  1
  In  In22  1  0.50000000  0.00000000  0.41607200  1
  In  In23  1  0.50000000  0.00000000  0.58392800  1
  Cu  Cu24  1  0.00000000  0.50000000  0.69242200  1
  Cu  Cu25  1  0.00000000  0.50000000  0.30757800  1
  Cu  Cu26  1  0.50000000  0.00000000  0.00000000  1
  Cu  Cu27  1  0.50000000  0.00000000  0.19242200  1
  Cu  Cu28  1  0.50000000  0.00000000  0.80757800  1
  Cu  Cu29  1  0.00000000  0.50000000  0.50000000  1
  N  N30  1  0.00000000  0.65133600  0.69429700  1
  N  N31  1  0.00000000  0.65133600  0.30570300  1
  N  N32  1  0.00000000  0.34866400  0.69429700  1
  N  N33  1  0.00000000  0.00000000  0.00000000  1
  N  N34  1  0.00000000  0.34866400  0.30570300  1
  N  N35  1  0.50000000  0.15133600  0.19429700  1
  N  N36  1  0.50000000  0.15133600  0.80570300  1
  N  N37  1  0.50000000  0.84866400  0.19429700  1
  N  N38  1  0.50000000  0.50000000  0.50000000  1
  N  N39  1  0.50000000  0.84866400  0.80570300  1
