# generated using pymatgen
data_Sb(MoO4)2
_symmetry_space_group_name_H-M   'P 1'
_cell_length_a   23.34047800
_cell_length_b   4.95751400
_cell_length_c   5.50263249
_cell_angle_alpha   90.00000000
_cell_angle_beta   102.51836992
_cell_angle_gamma   90.00000000
_symmetry_Int_Tables_number   1
_chemical_formula_structural   Sb(MoO4)2
_chemical_formula_sum   'Sb4 Mo8 O32'
_cell_volume   621.57683916
_cell_formula_units_Z   4
loop_
 _symmetry_equiv_pos_site_id
 _symmetry_equiv_pos_as_xyz
  1  'x, y, z'
loop_
 _atom_site_type_symbol
 _atom_site_label
 _atom_site_symmetry_multiplicity
 _atom_site_fract_x
 _atom_site_fract_y
 _atom_site_fract_z
 _atom_site_occupancy
  Sb  Sb0  1  0.00000000  0.32592300  0.25000000  1
  Sb  Sb1  1  0.00000000  0.67407700  0.75000000  1
  Sb  Sb2  1  0.50000000  0.82592300  0.25000000  1
  Sb  Sb3  1  0.50000000  0.17407700  0.75000000  1
  Mo  Mo4  1  0.13971400  0.76998400  0.54580400  1
  Mo  Mo5  1  0.36028600  0.73001600  0.45419600  1
  Mo  Mo6  1  0.36028600  0.26998400  0.95419600  1
  Mo  Mo7  1  0.13971400  0.23001600  0.04580400  1
  Mo  Mo8  1  0.63971400  0.26998400  0.54580400  1
  Mo  Mo9  1  0.86028600  0.23001600  0.45419600  1
  Mo  Mo10  1  0.86028600  0.76998400  0.95419600  1
  Mo  Mo11  1  0.63971400  0.73001600  0.04580400  1
  O  O12  1  0.04681950  0.39936450  0.97644800  1
  O  O13  1  0.10104900  0.95475300  0.81280200  1
  O  O14  1  0.10104900  0.04524700  0.31280200  1
  O  O15  1  0.20737000  0.08890200  0.14142200  1
  O  O16  1  0.39895100  0.54524700  0.18719800  1
  O  O17  1  0.39895100  0.45475300  0.68719800  1
  O  O18  1  0.29263000  0.41109800  0.85857800  1
  O  O19  1  0.29263000  0.58890200  0.35857800  1
  O  O20  1  0.15095700  0.52964200  0.30544100  1
  O  O21  1  0.15095700  0.47035800  0.80544100  1
  O  O22  1  0.04681950  0.60063550  0.47644800  1
  O  O23  1  0.34904300  0.97035800  0.69455900  1
  O  O24  1  0.45318050  0.10063550  0.02355200  1
  O  O25  1  0.45318050  0.89936450  0.52355200  1
  O  O26  1  0.34904300  0.02964200  0.19455900  1
  O  O27  1  0.20737000  0.91109800  0.64142200  1
  O  O28  1  0.54681950  0.89936450  0.97644800  1
  O  O29  1  0.60104900  0.45475300  0.81280200  1
  O  O30  1  0.60104900  0.54524700  0.31280200  1
  O  O31  1  0.70737000  0.58890200  0.14142200  1
  O  O32  1  0.89895100  0.04524700  0.18719800  1
  O  O33  1  0.89895100  0.95475300  0.68719800  1
  O  O34  1  0.79263000  0.91109800  0.85857800  1
  O  O35  1  0.79263000  0.08890200  0.35857800  1
  O  O36  1  0.65095700  0.02964200  0.30544100  1
  O  O37  1  0.65095700  0.97035800  0.80544100  1
  O  O38  1  0.54681950  0.10063550  0.47644800  1
  O  O39  1  0.84904300  0.47035800  0.69455900  1
  O  O40  1  0.95318050  0.60063550  0.02355200  1
  O  O41  1  0.95318050  0.39936450  0.52355200  1
  O  O42  1  0.84904300  0.52964200  0.19455900  1
  O  O43  1  0.70737000  0.41109800  0.64142200  1
