# generated using pymatgen
data_V2CdO6
_symmetry_space_group_name_H-M   'P 1'
_cell_length_a   9.57092600
_cell_length_b   3.61384800
_cell_length_c   7.08481268
_cell_angle_alpha   90.00000000
_cell_angle_beta   112.47465732
_cell_angle_gamma   90.00000000
_symmetry_Int_Tables_number   1
_chemical_formula_structural   V2CdO6
_chemical_formula_sum   'V4 Cd2 O12'
_cell_volume   226.43683526
_cell_formula_units_Z   2
loop_
 _symmetry_equiv_pos_site_id
 _symmetry_equiv_pos_as_xyz
  1  'x, y, z'
loop_
 _atom_site_type_symbol
 _atom_site_label
 _atom_site_symmetry_multiplicity
 _atom_site_fract_x
 _atom_site_fract_y
 _atom_site_fract_z
 _atom_site_occupancy
  V  V0  1  0.31324800  0.50000000  0.36242900  1
  V  V1  1  0.18675200  0.00000000  0.63757100  1
  V  V2  1  0.81324800  0.00000000  0.36242900  1
  V  V3  1  0.68675200  0.50000000  0.63757100  1
  Cd  Cd4  1  0.00000000  0.00000000  0.00000000  1
  Cd  Cd5  1  0.50000000  0.50000000  0.00000000  1
  O  O6  1  0.46985100  0.50000000  0.30222000  1
  O  O7  1  0.03014900  0.00000000  0.69778000  1
  O  O8  1  0.16515800  0.50000000  0.12976400  1
  O  O9  1  0.33484200  0.00000000  0.87023600  1
  O  O10  1  0.19637100  0.50000000  0.56430600  1
  O  O11  1  0.30362900  0.00000000  0.43569400  1
  O  O12  1  0.96985100  0.00000000  0.30222000  1
  O  O13  1  0.53014900  0.50000000  0.69778000  1
  O  O14  1  0.66515800  0.00000000  0.12976400  1
  O  O15  1  0.83484200  0.50000000  0.87023600  1
  O  O16  1  0.69637100  0.00000000  0.56430600  1
  O  O17  1  0.80362900  0.50000000  0.43569400  1
