# generated using pymatgen
data_Lu11Te4
_symmetry_space_group_name_H-M   'P 1'
_cell_length_a   30.63234200
_cell_length_b   3.94650600
_cell_length_c   21.27051978
_cell_angle_alpha   90.00000000
_cell_angle_beta   102.79721090
_cell_angle_gamma   90.00000000
_symmetry_Int_Tables_number   1
_chemical_formula_structural   Lu11Te4
_chemical_formula_sum   'Lu66 Te24'
_cell_volume   2507.53505048
_cell_formula_units_Z   6
loop_
 _symmetry_equiv_pos_site_id
 _symmetry_equiv_pos_as_xyz
  1  'x, y, z'
loop_
 _atom_site_type_symbol
 _atom_site_label
 _atom_site_symmetry_multiplicity
 _atom_site_fract_x
 _atom_site_fract_y
 _atom_site_fract_z
 _atom_site_occupancy
  Lu  Lu0  1  0.74503000  0.00000000  0.92700500  1
  Lu  Lu1  1  0.53202000  0.50000000  0.83468800  1
  Lu  Lu2  1  0.96798000  0.00000000  0.16531200  1
  Lu  Lu3  1  0.67212400  0.50000000  0.56507900  1
  Lu  Lu4  1  0.57419800  0.00000000  0.96214800  1
  Lu  Lu5  1  0.71430900  0.00000000  0.45605200  1
  Lu  Lu6  1  0.89381000  0.50000000  0.22104300  1
  Lu  Lu7  1  0.75742700  0.00000000  0.65431300  1
  Lu  Lu8  1  0.56142200  0.00000000  0.58629200  1
  Lu  Lu9  1  0.53603800  0.00000000  0.30792300  1
  Lu  Lu10  1  0.92580200  0.50000000  0.03785200  1
  Lu  Lu11  1  0.87310000  0.00000000  0.90779900  1
  Lu  Lu12  1  0.63071100  0.50000000  0.36908000  1
  Lu  Lu13  1  0.60619000  0.00000000  0.77895700  1
  Lu  Lu14  1  0.62690000  0.50000000  0.09220100  1
  Lu  Lu15  1  0.82787600  0.00000000  0.43492100  1
  Lu  Lu16  1  0.93857800  0.50000000  0.41370800  1
  Lu  Lu17  1  0.75497000  0.50000000  0.07299500  1
  Lu  Lu18  1  0.96812400  0.00000000  0.55509900  1
  Lu  Lu19  1  0.70389300  0.50000000  0.78113000  1
  Lu  Lu20  1  0.78569100  0.50000000  0.54394800  1
  Lu  Lu21  1  0.86928900  0.00000000  0.63092000  1
  Lu  Lu22  1  0.00000000  0.00000000  0.00000000  1
  Lu  Lu23  1  0.79610700  0.00000000  0.21887000  1
  Lu  Lu24  1  0.96396200  0.50000000  0.69207700  1
  Lu  Lu25  1  0.65913000  0.00000000  0.25488300  1
  Lu  Lu26  1  0.84087000  0.50000000  0.74511700  1
  Lu  Lu27  1  0.54348800  0.00000000  0.11778100  1
  Lu  Lu28  1  0.65088100  0.50000000  0.90397100  1
  Lu  Lu29  1  0.84911900  0.00000000  0.09602900  1
  Lu  Lu30  1  0.95651200  0.50000000  0.88221900  1
  Lu  Lu31  1  0.53187600  0.50000000  0.44490100  1
  Lu  Lu32  1  0.74257300  0.50000000  0.34568700  1
  Lu  Lu33  1  0.24503000  0.50000000  0.92700500  1
  Lu  Lu34  1  0.03202000  0.00000000  0.83468800  1
  Lu  Lu35  1  0.46798000  0.50000000  0.16531200  1
  Lu  Lu36  1  0.17212400  0.00000000  0.56507900  1
  Lu  Lu37  1  0.07419800  0.50000000  0.96214800  1
  Lu  Lu38  1  0.21430900  0.50000000  0.45605200  1
  Lu  Lu39  1  0.39381000  0.00000000  0.22104300  1
  Lu  Lu40  1  0.25742700  0.50000000  0.65431300  1
  Lu  Lu41  1  0.06142200  0.50000000  0.58629200  1
  Lu  Lu42  1  0.03603800  0.50000000  0.30792300  1
  Lu  Lu43  1  0.42580200  0.00000000  0.03785200  1
  Lu  Lu44  1  0.37310000  0.50000000  0.90779900  1
  Lu  Lu45  1  0.13071100  0.00000000  0.36908000  1
  Lu  Lu46  1  0.10619000  0.50000000  0.77895700  1
  Lu  Lu47  1  0.12690000  0.00000000  0.09220100  1
  Lu  Lu48  1  0.32787600  0.50000000  0.43492100  1
  Lu  Lu49  1  0.43857800  0.00000000  0.41370800  1
  Lu  Lu50  1  0.25497000  0.00000000  0.07299500  1
  Lu  Lu51  1  0.46812400  0.50000000  0.55509900  1
  Lu  Lu52  1  0.20389300  0.00000000  0.78113000  1
  Lu  Lu53  1  0.28569100  0.00000000  0.54394800  1
  Lu  Lu54  1  0.36928900  0.50000000  0.63092000  1
  Lu  Lu55  1  0.50000000  0.50000000  0.00000000  1
  Lu  Lu56  1  0.29610700  0.50000000  0.21887000  1
  Lu  Lu57  1  0.46396200  0.00000000  0.69207700  1
  Lu  Lu58  1  0.15913000  0.50000000  0.25488300  1
  Lu  Lu59  1  0.34087000  0.00000000  0.74511700  1
  Lu  Lu60  1  0.04348800  0.50000000  0.11778100  1
  Lu  Lu61  1  0.15088100  0.00000000  0.90397100  1
  Lu  Lu62  1  0.34911900  0.50000000  0.09602900  1
  Lu  Lu63  1  0.45651200  0.00000000  0.88221900  1
  Lu  Lu64  1  0.03187600  0.00000000  0.44490100  1
  Lu  Lu65  1  0.24257300  0.00000000  0.34568700  1
  Te  Te66  1  0.78404200  0.00000000  0.80562200  1
  Te  Te67  1  0.95810300  0.00000000  0.31076800  1
  Te  Te68  1  0.61263500  0.00000000  0.47256000  1
  Te  Te69  1  0.71595800  0.50000000  0.19437800  1
  Te  Te70  1  0.57998600  0.50000000  0.22539000  1
  Te  Te71  1  0.88736500  0.50000000  0.52744000  1
  Te  Te72  1  0.54189700  0.50000000  0.68923200  1
  Te  Te73  1  0.65819300  0.00000000  0.67171200  1
  Te  Te74  1  0.92001400  0.00000000  0.77461000  1
  Te  Te75  1  0.67822500  0.00000000  0.02002000  1
  Te  Te76  1  0.82177500  0.50000000  0.97998000  1
  Te  Te77  1  0.84180700  0.50000000  0.32828800  1
  Te  Te78  1  0.28404200  0.50000000  0.80562200  1
  Te  Te79  1  0.45810300  0.50000000  0.31076800  1
  Te  Te80  1  0.11263500  0.50000000  0.47256000  1
  Te  Te81  1  0.21595800  0.00000000  0.19437800  1
  Te  Te82  1  0.07998600  0.00000000  0.22539000  1
  Te  Te83  1  0.38736500  0.00000000  0.52744000  1
  Te  Te84  1  0.04189700  0.00000000  0.68923200  1
  Te  Te85  1  0.15819300  0.50000000  0.67171200  1
  Te  Te86  1  0.42001400  0.50000000  0.77461000  1
  Te  Te87  1  0.17822500  0.50000000  0.02002000  1
  Te  Te88  1  0.32177500  0.00000000  0.97998000  1
  Te  Te89  1  0.34180700  0.00000000  0.32828800  1
