# generated using pymatgen
data_Dy2(WO4)3
_symmetry_space_group_name_H-M   'P 1'
_cell_length_a   7.75975400
_cell_length_b   11.47738400
_cell_length_c   11.40896666
_cell_angle_alpha   90.00000000
_cell_angle_beta   109.48054312
_cell_angle_gamma   90.00000000
_symmetry_Int_Tables_number   1
_chemical_formula_structural   Dy2(WO4)3
_chemical_formula_sum   'Dy8 W12 O48'
_cell_volume   957.93474464
_cell_formula_units_Z   4
loop_
 _symmetry_equiv_pos_site_id
 _symmetry_equiv_pos_as_xyz
  1  'x, y, z'
loop_
 _atom_site_type_symbol
 _atom_site_label
 _atom_site_symmetry_multiplicity
 _atom_site_fract_x
 _atom_site_fract_y
 _atom_site_fract_z
 _atom_site_occupancy
  Dy  Dy0  1  0.16499500  0.87676400  0.59280000  1
  Dy  Dy1  1  0.83500500  0.87676400  0.90720000  1
  Dy  Dy2  1  0.83500500  0.12323600  0.40720000  1
  Dy  Dy3  1  0.16499500  0.12323600  0.09280000  1
  Dy  Dy4  1  0.66499500  0.37676400  0.59280000  1
  Dy  Dy5  1  0.33500500  0.37676400  0.90720000  1
  Dy  Dy6  1  0.33500500  0.62323600  0.40720000  1
  Dy  Dy7  1  0.66499500  0.62323600  0.09280000  1
  W  W8  1  0.50000000  0.63175900  0.75000000  1
  W  W9  1  0.50000000  0.36824100  0.25000000  1
  W  W10  1  0.35334900  0.89349600  0.94991700  1
  W  W11  1  0.64665100  0.89349600  0.55008300  1
  W  W12  1  0.64665100  0.10650400  0.05008300  1
  W  W13  1  0.35334900  0.10650400  0.44991700  1
  W  W14  1  0.00000000  0.13175900  0.75000000  1
  W  W15  1  0.00000000  0.86824100  0.25000000  1
  W  W16  1  0.85334900  0.39349600  0.94991700  1
  W  W17  1  0.14665100  0.39349600  0.55008300  1
  W  W18  1  0.14665100  0.60650400  0.05008300  1
  W  W19  1  0.85334900  0.60650400  0.44991700  1
  O  O20  1  0.56785000  0.03855800  0.42630700  1
  O  O21  1  0.43215000  0.03855800  0.07369300  1
  O  O22  1  0.43215000  0.96144200  0.57369300  1
  O  O23  1  0.56785000  0.96144200  0.92630700  1
  O  O24  1  0.44859250  0.78154950  0.06124300  1
  O  O25  1  0.55140750  0.78154950  0.43875700  1
  O  O26  1  0.55140750  0.21845050  0.93875700  1
  O  O27  1  0.44859250  0.21845050  0.56124300  1
  O  O28  1  0.27917950  0.17922650  0.29810700  1
  O  O29  1  0.72082050  0.17922650  0.20189300  1
  O  O30  1  0.36894500  0.70840100  0.60515700  1
  O  O31  1  0.63105500  0.70840100  0.89484300  1
  O  O32  1  0.63105500  0.29159900  0.39484300  1
  O  O33  1  0.36894500  0.29159900  0.10515700  1
  O  O34  1  0.16896850  0.03972850  0.72037700  1
  O  O35  1  0.83103150  0.03972850  0.77962300  1
  O  O36  1  0.83103150  0.96027150  0.27962300  1
  O  O37  1  0.72082050  0.82077350  0.70189300  1
  O  O38  1  0.86959050  0.94935650  0.54001500  1
  O  O39  1  0.13040950  0.94935650  0.95998500  1
  O  O40  1  0.13040950  0.05064350  0.45998500  1
  O  O41  1  0.86959050  0.05064350  0.04001500  1
  O  O42  1  0.27917950  0.82077350  0.79810700  1
  O  O43  1  0.16896850  0.96027150  0.22037700  1
  O  O44  1  0.06785000  0.53855800  0.42630700  1
  O  O45  1  0.93215000  0.53855800  0.07369300  1
  O  O46  1  0.93215000  0.46144200  0.57369300  1
  O  O47  1  0.06785000  0.46144200  0.92630700  1
  O  O48  1  0.94859250  0.28154950  0.06124300  1
  O  O49  1  0.05140750  0.28154950  0.43875700  1
  O  O50  1  0.05140750  0.71845050  0.93875700  1
  O  O51  1  0.94859250  0.71845050  0.56124300  1
  O  O52  1  0.77917950  0.67922650  0.29810700  1
  O  O53  1  0.22082050  0.67922650  0.20189300  1
  O  O54  1  0.86894500  0.20840100  0.60515700  1
  O  O55  1  0.13105500  0.20840100  0.89484300  1
  O  O56  1  0.13105500  0.79159900  0.39484300  1
  O  O57  1  0.86894500  0.79159900  0.10515700  1
  O  O58  1  0.66896850  0.53972850  0.72037700  1
  O  O59  1  0.33103150  0.53972850  0.77962300  1
  O  O60  1  0.33103150  0.46027150  0.27962300  1
  O  O61  1  0.22082050  0.32077350  0.70189300  1
  O  O62  1  0.36959050  0.44935650  0.54001500  1
  O  O63  1  0.63040950  0.44935650  0.95998500  1
  O  O64  1  0.63040950  0.55064350  0.45998500  1
  O  O65  1  0.36959050  0.55064350  0.04001500  1
  O  O66  1  0.77917950  0.32077350  0.79810700  1
  O  O67  1  0.66896850  0.46027150  0.22037700  1
