# generated using pymatgen
data_Na10U8W5O44
_symmetry_space_group_name_H-M   'P 1'
_cell_length_a   25.03537400
_cell_length_b   23.87560400
_cell_length_c   6.83892504
_cell_angle_alpha   90.00000000
_cell_angle_beta   94.70330936
_cell_angle_gamma   90.00000000
_symmetry_Int_Tables_number   1
_chemical_formula_structural   Na10U8W5O44
_chemical_formula_sum   'Na40 U32 W20 O176'
_cell_volume   4074.09738459
_cell_formula_units_Z   4
loop_
 _symmetry_equiv_pos_site_id
 _symmetry_equiv_pos_as_xyz
  1  'x, y, z'
loop_
 _atom_site_type_symbol
 _atom_site_label
 _atom_site_symmetry_multiplicity
 _atom_site_fract_x
 _atom_site_fract_y
 _atom_site_fract_z
 _atom_site_occupancy
  Na  Na0  1  0.25020650  0.87767250  0.31697400  1
  Na  Na1  1  0.24773600  0.79455800  0.79399000  1
  Na  Na2  1  0.50000000  0.54714400  0.25000000  1
  Na  Na3  1  0.74979350  0.12232750  0.68302600  1
  Na  Na4  1  0.25305450  0.95794950  0.82733800  1
  Na  Na5  1  0.25020650  0.12232750  0.81697400  1
  Na  Na6  1  0.50000000  0.10738900  0.25000000  1
  Na  Na7  1  0.24773600  0.20544200  0.29399000  1
  Na  Na8  1  0.50000000  0.60620400  0.75000000  1
  Na  Na9  1  0.25305450  0.04205050  0.32733800  1
  Na  Na10  1  0.50000000  0.39379600  0.25000000  1
  Na  Na11  1  0.75226400  0.20544200  0.20601000  1
  Na  Na12  1  0.74979350  0.87767250  0.18302600  1
  Na  Na13  1  0.50000000  0.95258400  0.25000000  1
  Na  Na14  1  0.74694550  0.04205050  0.17266200  1
  Na  Na15  1  0.50000000  0.45285600  0.75000000  1
  Na  Na16  1  0.75226400  0.79455800  0.70601000  1
  Na  Na17  1  0.50000000  0.89261100  0.75000000  1
  Na  Na18  1  0.50000000  0.04741600  0.75000000  1
  Na  Na19  1  0.74694550  0.95794950  0.67266200  1
  Na  Na20  1  0.75020650  0.37767250  0.31697400  1
  Na  Na21  1  0.74773600  0.29455800  0.79399000  1
  Na  Na22  1  0.00000000  0.04714400  0.25000000  1
  Na  Na23  1  0.24979350  0.62232750  0.68302600  1
  Na  Na24  1  0.75305450  0.45794950  0.82733800  1
  Na  Na25  1  0.75020650  0.62232750  0.81697400  1
  Na  Na26  1  0.00000000  0.60738900  0.25000000  1
  Na  Na27  1  0.74773600  0.70544200  0.29399000  1
  Na  Na28  1  0.00000000  0.10620400  0.75000000  1
  Na  Na29  1  0.75305450  0.54205050  0.32733800  1
  Na  Na30  1  0.00000000  0.89379600  0.25000000  1
  Na  Na31  1  0.25226400  0.70544200  0.20601000  1
  Na  Na32  1  0.24979350  0.37767250  0.18302600  1
  Na  Na33  1  0.00000000  0.45258400  0.25000000  1
  Na  Na34  1  0.24694550  0.54205050  0.17266200  1
  Na  Na35  1  0.00000000  0.95285600  0.75000000  1
  Na  Na36  1  0.25226400  0.29455800  0.70601000  1
  Na  Na37  1  0.00000000  0.39261100  0.75000000  1
  Na  Na38  1  0.00000000  0.54741600  0.75000000  1
  Na  Na39  1  0.24694550  0.45794950  0.67266200  1
  U  U40  1  0.62359200  0.87427100  0.48418500  1
  U  U41  1  0.37316400  0.03431800  0.04525500  1
  U  U42  1  0.37551750  0.37379550  0.90495800  1
  U  U43  1  0.62448250  0.37379550  0.59504200  1
  U  U44  1  0.37551750  0.62620450  0.40495800  1
  U  U45  1  0.62448250  0.62620450  0.09504200  1
  U  U46  1  0.12754450  0.03386550  0.62633500  1
  U  U47  1  0.37316400  0.96568200  0.54525500  1
  U  U48  1  0.62683600  0.96568200  0.95474500  1
  U  U49  1  0.37640800  0.87427100  0.01581500  1
  U  U50  1  0.12754450  0.96613450  0.12633500  1
  U  U51  1  0.37640800  0.12572900  0.51581500  1
  U  U52  1  0.87245550  0.03386550  0.87366500  1
  U  U53  1  0.87245550  0.96613450  0.37366500  1
  U  U54  1  0.62683600  0.03431800  0.45474500  1
  U  U55  1  0.62359200  0.12572900  0.98418500  1
  U  U56  1  0.12359200  0.37427100  0.48418500  1
  U  U57  1  0.87316400  0.53431800  0.04525500  1
  U  U58  1  0.87551750  0.87379550  0.90495800  1
  U  U59  1  0.12448250  0.87379550  0.59504200  1
  U  U60  1  0.87551750  0.12620450  0.40495800  1
  U  U61  1  0.12448250  0.12620450  0.09504200  1
  U  U62  1  0.62754450  0.53386550  0.62633500  1
  U  U63  1  0.87316400  0.46568200  0.54525500  1
  U  U64  1  0.12683600  0.46568200  0.95474500  1
  U  U65  1  0.87640800  0.37427100  0.01581500  1
  U  U66  1  0.62754450  0.46613450  0.12633500  1
  U  U67  1  0.87640800  0.62572900  0.51581500  1
  U  U68  1  0.37245550  0.53386550  0.87366500  1
  U  U69  1  0.37245550  0.46613450  0.37366500  1
  U  U70  1  0.12683600  0.53431800  0.45474500  1
  U  U71  1  0.12359200  0.62572900  0.98418500  1
  W  W72  1  0.63510800  0.70248100  0.62213600  1
  W  W73  1  0.63073550  0.79972350  0.96381900  1
  W  W74  1  0.36489200  0.70248100  0.87786400  1
  W  W75  1  0.36926450  0.20027650  0.03618100  1
  W  W76  1  0.36489200  0.29751900  0.37786400  1
  W  W77  1  0.63073550  0.20027650  0.46381900  1
  W  W78  1  0.36926450  0.79972350  0.53618100  1
  W  W79  1  0.50000000  0.25361600  0.25000000  1
  W  W80  1  0.63510800  0.29751900  0.12213600  1
  W  W81  1  0.50000000  0.74638400  0.75000000  1
  W  W82  1  0.13510800  0.20248100  0.62213600  1
  W  W83  1  0.13073550  0.29972350  0.96381900  1
  W  W84  1  0.86489200  0.20248100  0.87786400  1
  W  W85  1  0.86926450  0.70027650  0.03618100  1
  W  W86  1  0.86489200  0.79751900  0.37786400  1
  W  W87  1  0.13073550  0.70027650  0.46381900  1
  W  W88  1  0.86926450  0.29972350  0.53618100  1
  W  W89  1  0.00000000  0.75361600  0.25000000  1
  W  W90  1  0.13510800  0.79751900  0.12213600  1
  W  W91  1  0.00000000  0.24638400  0.75000000  1
  O  O92  1  0.54088950  0.79153250  0.91437900  1
  O  O93  1  0.62860100  0.62876500  0.72328200  1
  O  O94  1  0.19941100  0.12970200  0.12587400  1
  O  O95  1  0.37139900  0.62876500  0.77671800  1
  O  O96  1  0.38155050  0.81270650  0.28045100  1
  O  O97  1  0.62756950  0.71778050  0.93293000  1
  O  O98  1  0.62435500  0.21660600  0.14726400  1
  O  O99  1  0.44984800  0.62203000  0.44294600  1
  O  O100  1  0.36309000  0.04338500  0.36516000  1
  O  O101  1  0.05165550  0.96666350  0.10925400  1
  O  O102  1  0.12513600  0.06065800  0.32002900  1
  O  O103  1  0.80058900  0.12970200  0.37412600  1
  O  O104  1  0.87020100  0.04354200  0.55050300  1
  O  O105  1  0.54939750  0.88059250  0.47557200  1
  O  O106  1  0.87486400  0.06065800  0.17997100  1
  O  O107  1  0.54473150  0.29879250  0.12511900  1
  O  O108  1  0.45911050  0.79153250  0.58562100  1
  O  O109  1  0.62215950  0.68794550  0.35961000  1
  O  O110  1  0.54473150  0.70120750  0.62511900  1
  O  O111  1  0.37564500  0.21660600  0.35273600  1
  O  O112  1  0.45526850  0.29879250  0.37488100  1
  O  O113  1  0.63691000  0.95661500  0.63484000  1
  O  O114  1  0.29762950  0.80465850  0.51397000  1
  O  O115  1  0.61589650  0.87223650  0.85509900  1
  O  O116  1  0.55136750  0.02984750  0.42106600  1
  O  O117  1  0.70237050  0.80465850  0.98603000  1
  O  O118  1  0.37784050  0.68794550  0.14039000  1
  O  O119  1  0.62207700  0.93937300  0.25899100  1
  O  O120  1  0.62435500  0.78339400  0.64726400  1
  O  O121  1  0.37792300  0.93937300  0.24100900  1
  O  O122  1  0.12979900  0.04354200  0.94949700  1
  O  O123  1  0.62207700  0.06062700  0.75899100  1
  O  O124  1  0.20336650  0.03655650  0.64613100  1
  O  O125  1  0.70237050  0.19534150  0.48603000  1
  O  O126  1  0.55015200  0.37797000  0.55705400  1
  O  O127  1  0.44984800  0.37797000  0.94294600  1
  O  O128  1  0.62756950  0.28221950  0.43293000  1
  O  O129  1  0.30134600  0.86818000  0.00022100  1
  O  O130  1  0.54939750  0.11940750  0.97557200  1
  O  O131  1  0.29779250  0.95798950  0.51247500  1
  O  O132  1  0.79663350  0.96344350  0.35386900  1
  O  O133  1  0.37564500  0.78339400  0.85273600  1
  O  O134  1  0.45526850  0.70120750  0.87488100  1
  O  O135  1  0.12513600  0.93934200  0.82002900  1
  O  O136  1  0.37784050  0.31205450  0.64039000  1
  O  O137  1  0.38155050  0.18729350  0.78045100  1
  O  O138  1  0.55015200  0.62203000  0.05705400  1
  O  O139  1  0.19941100  0.87029800  0.62587400  1
  O  O140  1  0.45060250  0.88059250  0.02442800  1
  O  O141  1  0.55136750  0.97015250  0.92106600  1
  O  O142  1  0.37243050  0.71778050  0.56707000  1
  O  O143  1  0.62860100  0.37123500  0.22328200  1
  O  O144  1  0.94834450  0.96666350  0.39074600  1
  O  O145  1  0.62215950  0.31205450  0.85961000  1
  O  O146  1  0.37139900  0.37123500  0.27671800  1
  O  O147  1  0.38410350  0.12776350  0.14490100  1
  O  O148  1  0.80058900  0.87029800  0.87412600  1
  O  O149  1  0.61589650  0.12776350  0.35509900  1
  O  O150  1  0.87486400  0.93934200  0.67997100  1
  O  O151  1  0.20726800  0.20631700  0.63195600  1
  O  O152  1  0.37792300  0.06062700  0.74100900  1
  O  O153  1  0.70220750  0.95798950  0.98752500  1
  O  O154  1  0.94834450  0.03333650  0.89074600  1
  O  O155  1  0.79273200  0.20631700  0.86804400  1
  O  O156  1  0.20726800  0.79368300  0.13195600  1
  O  O157  1  0.61844950  0.18729350  0.71954900  1
  O  O158  1  0.44863250  0.02984750  0.07893400  1
  O  O159  1  0.69865400  0.86818000  0.49977900  1
  O  O160  1  0.79663350  0.03655650  0.85386900  1
  O  O161  1  0.38410350  0.87223650  0.64490100  1
  O  O162  1  0.44863250  0.97015250  0.57893400  1
  O  O163  1  0.69865400  0.13182000  0.99977900  1
  O  O164  1  0.12979900  0.95645800  0.44949700  1
  O  O165  1  0.45060250  0.11940750  0.52442800  1
  O  O166  1  0.36309000  0.95661500  0.86516000  1
  O  O167  1  0.05165550  0.03333650  0.60925400  1
  O  O168  1  0.45911050  0.20846750  0.08562100  1
  O  O169  1  0.61844950  0.81270650  0.21954900  1
  O  O170  1  0.70220750  0.04201050  0.48752500  1
  O  O171  1  0.30134600  0.13182000  0.50022100  1
  O  O172  1  0.20336650  0.96344350  0.14613100  1
  O  O173  1  0.79273200  0.79368300  0.36804400  1
  O  O174  1  0.63691000  0.04338500  0.13484000  1
  O  O175  1  0.54088950  0.20846750  0.41437900  1
  O  O176  1  0.87020100  0.95645800  0.05050300  1
  O  O177  1  0.29762950  0.19534150  0.01397000  1
  O  O178  1  0.37243050  0.28221950  0.06707000  1
  O  O179  1  0.29779250  0.04201050  0.01247500  1
  O  O180  1  0.04088950  0.29153250  0.91437900  1
  O  O181  1  0.12860100  0.12876500  0.72328200  1
  O  O182  1  0.69941100  0.62970200  0.12587400  1
  O  O183  1  0.87139900  0.12876500  0.77671800  1
  O  O184  1  0.88155050  0.31270650  0.28045100  1
  O  O185  1  0.12756950  0.21778050  0.93293000  1
  O  O186  1  0.12435500  0.71660600  0.14726400  1
  O  O187  1  0.94984800  0.12203000  0.44294600  1
  O  O188  1  0.86309000  0.54338500  0.36516000  1
  O  O189  1  0.55165550  0.46666350  0.10925400  1
  O  O190  1  0.62513600  0.56065800  0.32002900  1
  O  O191  1  0.30058900  0.62970200  0.37412600  1
  O  O192  1  0.37020100  0.54354200  0.55050300  1
  O  O193  1  0.04939750  0.38059250  0.47557200  1
  O  O194  1  0.37486400  0.56065800  0.17997100  1
  O  O195  1  0.04473150  0.79879250  0.12511900  1
  O  O196  1  0.95911050  0.29153250  0.58562100  1
  O  O197  1  0.12215950  0.18794550  0.35961000  1
  O  O198  1  0.04473150  0.20120750  0.62511900  1
  O  O199  1  0.87564500  0.71660600  0.35273600  1
  O  O200  1  0.95526850  0.79879250  0.37488100  1
  O  O201  1  0.13691000  0.45661500  0.63484000  1
  O  O202  1  0.79762950  0.30465850  0.51397000  1
  O  O203  1  0.11589650  0.37223650  0.85509900  1
  O  O204  1  0.05136750  0.52984750  0.42106600  1
  O  O205  1  0.20237050  0.30465850  0.98603000  1
  O  O206  1  0.87784050  0.18794550  0.14039000  1
  O  O207  1  0.12207700  0.43937300  0.25899100  1
  O  O208  1  0.12435500  0.28339400  0.64726400  1
  O  O209  1  0.87792300  0.43937300  0.24100900  1
  O  O210  1  0.62979900  0.54354200  0.94949700  1
  O  O211  1  0.12207700  0.56062700  0.75899100  1
  O  O212  1  0.70336650  0.53655650  0.64613100  1
  O  O213  1  0.20237050  0.69534150  0.48603000  1
  O  O214  1  0.05015200  0.87797000  0.55705400  1
  O  O215  1  0.94984800  0.87797000  0.94294600  1
  O  O216  1  0.12756950  0.78221950  0.43293000  1
  O  O217  1  0.80134600  0.36818000  0.00022100  1
  O  O218  1  0.04939750  0.61940750  0.97557200  1
  O  O219  1  0.79779250  0.45798950  0.51247500  1
  O  O220  1  0.29663350  0.46344350  0.35386900  1
  O  O221  1  0.87564500  0.28339400  0.85273600  1
  O  O222  1  0.95526850  0.20120750  0.87488100  1
  O  O223  1  0.62513600  0.43934200  0.82002900  1
  O  O224  1  0.87784050  0.81205450  0.64039000  1
  O  O225  1  0.88155050  0.68729350  0.78045100  1
  O  O226  1  0.05015200  0.12203000  0.05705400  1
  O  O227  1  0.69941100  0.37029800  0.62587400  1
  O  O228  1  0.95060250  0.38059250  0.02442800  1
  O  O229  1  0.05136750  0.47015250  0.92106600  1
  O  O230  1  0.87243050  0.21778050  0.56707000  1
  O  O231  1  0.12860100  0.87123500  0.22328200  1
  O  O232  1  0.44834450  0.46666350  0.39074600  1
  O  O233  1  0.12215950  0.81205450  0.85961000  1
  O  O234  1  0.87139900  0.87123500  0.27671800  1
  O  O235  1  0.88410350  0.62776350  0.14490100  1
  O  O236  1  0.30058900  0.37029800  0.87412600  1
  O  O237  1  0.11589650  0.62776350  0.35509900  1
  O  O238  1  0.37486400  0.43934200  0.67997100  1
  O  O239  1  0.70726800  0.70631700  0.63195600  1
  O  O240  1  0.87792300  0.56062700  0.74100900  1
  O  O241  1  0.20220750  0.45798950  0.98752500  1
  O  O242  1  0.44834450  0.53333650  0.89074600  1
  O  O243  1  0.29273200  0.70631700  0.86804400  1
  O  O244  1  0.70726800  0.29368300  0.13195600  1
  O  O245  1  0.11844950  0.68729350  0.71954900  1
  O  O246  1  0.94863250  0.52984750  0.07893400  1
  O  O247  1  0.19865400  0.36818000  0.49977900  1
  O  O248  1  0.29663350  0.53655650  0.85386900  1
  O  O249  1  0.88410350  0.37223650  0.64490100  1
  O  O250  1  0.94863250  0.47015250  0.57893400  1
  O  O251  1  0.19865400  0.63182000  0.99977900  1
  O  O252  1  0.62979900  0.45645800  0.44949700  1
  O  O253  1  0.95060250  0.61940750  0.52442800  1
  O  O254  1  0.86309000  0.45661500  0.86516000  1
  O  O255  1  0.55165550  0.53333650  0.60925400  1
  O  O256  1  0.95911050  0.70846750  0.08562100  1
  O  O257  1  0.11844950  0.31270650  0.21954900  1
  O  O258  1  0.20220750  0.54201050  0.48752500  1
  O  O259  1  0.80134600  0.63182000  0.50022100  1
  O  O260  1  0.70336650  0.46344350  0.14613100  1
  O  O261  1  0.29273200  0.29368300  0.36804400  1
  O  O262  1  0.13691000  0.54338500  0.13484000  1
  O  O263  1  0.04088950  0.70846750  0.41437900  1
  O  O264  1  0.37020100  0.45645800  0.05050300  1
  O  O265  1  0.79762950  0.69534150  0.01397000  1
  O  O266  1  0.87243050  0.78221950  0.06707000  1
  O  O267  1  0.79779250  0.54201050  0.01247500  1
