# generated using pymatgen
data_Mn3(AgO2)4
_symmetry_space_group_name_H-M   'P 1'
_cell_length_a   12.89362632
_cell_length_b   12.89362632
_cell_length_c   15.57224018
_cell_angle_alpha   90.00000000
_cell_angle_beta   90.00000000
_cell_angle_gamma   120.00000000
_symmetry_Int_Tables_number   1
_chemical_formula_structural   Mn3(AgO2)4
_chemical_formula_sum   'Mn36 Ag48 O96'
_cell_volume   2241.98077462
_cell_formula_units_Z   12
loop_
 _symmetry_equiv_pos_site_id
 _symmetry_equiv_pos_as_xyz
  1  'x, y, z'
loop_
 _atom_site_type_symbol
 _atom_site_label
 _atom_site_symmetry_multiplicity
 _atom_site_fract_x
 _atom_site_fract_y
 _atom_site_fract_z
 _atom_site_occupancy
  Mn  Mn0  1  0.53896400  0.00000000  0.50000000  1
  Mn  Mn1  1  0.00000000  0.53896400  0.50000000  1
  Mn  Mn2  1  0.46103600  0.46103600  0.50000000  1
  Mn  Mn3  1  0.37472467  0.33333333  0.33333333  1
  Mn  Mn4  1  0.66666667  0.04139133  0.33333333  1
  Mn  Mn5  1  0.95860867  0.62527533  0.33333333  1
  Mn  Mn6  1  0.94379000  0.84693800  0.30679000  1
  Mn  Mn7  1  0.15306200  0.09685200  0.30679000  1
  Mn  Mn8  1  0.90314800  0.05621000  0.30679000  1
  Mn  Mn9  1  0.09685200  0.15306200  0.69321000  1
  Mn  Mn10  1  0.84693800  0.94379000  0.69321000  1
  Mn  Mn11  1  0.05621000  0.90314800  0.69321000  1
  Mn  Mn12  1  0.20563067  0.33333333  0.83333333  1
  Mn  Mn13  1  0.66666667  0.87229733  0.83333333  1
  Mn  Mn14  1  0.12770267  0.79436933  0.83333333  1
  Mn  Mn15  1  0.04139133  0.66666667  0.66666667  1
  Mn  Mn16  1  0.33333333  0.37472467  0.66666667  1
  Mn  Mn17  1  0.62527533  0.95860867  0.66666667  1
  Mn  Mn18  1  0.61045667  0.18027133  0.64012333  1
  Mn  Mn19  1  0.81972867  0.43018533  0.64012333  1
  Mn  Mn20  1  0.56981467  0.38954333  0.64012333  1
  Mn  Mn21  1  0.76351867  0.48639533  0.02654333  1
  Mn  Mn22  1  0.51360467  0.27712333  0.02654333  1
  Mn  Mn23  1  0.72287667  0.23648133  0.02654333  1
  Mn  Mn24  1  0.87229733  0.66666667  0.16666667  1
  Mn  Mn25  1  0.33333333  0.20563067  0.16666667  1
  Mn  Mn26  1  0.79436933  0.12770267  0.16666667  1
  Mn  Mn27  1  0.70805800  0.00000000  0.00000000  1
  Mn  Mn28  1  0.00000000  0.70805800  0.00000000  1
  Mn  Mn29  1  0.29194200  0.29194200  0.00000000  1
  Mn  Mn30  1  0.27712333  0.51360467  0.97345667  1
  Mn  Mn31  1  0.48639533  0.76351867  0.97345667  1
  Mn  Mn32  1  0.23648133  0.72287667  0.97345667  1
  Mn  Mn33  1  0.43018533  0.81972867  0.35987667  1
  Mn  Mn34  1  0.18027133  0.61045667  0.35987667  1
  Mn  Mn35  1  0.38954333  0.56981467  0.35987667  1
  Ag  Ag36  1  0.00000000  0.00000000  0.50000000  1
  Ag  Ag37  1  0.78288533  0.29562667  0.43097867  1
  Ag  Ag38  1  0.70437333  0.48725867  0.43097867  1
  Ag  Ag39  1  0.51274133  0.21711467  0.43097867  1
  Ag  Ag40  1  0.48725867  0.70437333  0.56902133  1
  Ag  Ag41  1  0.29562667  0.78288533  0.56902133  1
  Ag  Ag42  1  0.21711467  0.51274133  0.56902133  1
  Ag  Ag43  1  0.26570133  0.12789767  0.52238067  1
  Ag  Ag44  1  0.87210233  0.13780367  0.52238067  1
  Ag  Ag45  1  0.86219633  0.73429867  0.52238067  1
  Ag  Ag46  1  0.13780367  0.87210233  0.47761933  1
  Ag  Ag47  1  0.12789767  0.26570133  0.47761933  1
  Ag  Ag48  1  0.73429867  0.86219633  0.47761933  1
  Ag  Ag49  1  0.00225167  0.33333333  0.33333333  1
  Ag  Ag50  1  0.66666667  0.66891833  0.33333333  1
  Ag  Ag51  1  0.33108167  0.99774833  0.33333333  1
  Ag  Ag52  1  0.66666667  0.33333333  0.83333333  1
  Ag  Ag53  1  0.44955200  0.62896000  0.76431200  1
  Ag  Ag54  1  0.37104000  0.82059200  0.76431200  1
  Ag  Ag55  1  0.17940800  0.55044800  0.76431200  1
  Ag  Ag56  1  0.15392533  0.03770667  0.90235467  1
  Ag  Ag57  1  0.96229333  0.11621867  0.90235467  1
  Ag  Ag58  1  0.88378133  0.84607467  0.90235467  1
  Ag  Ag59  1  0.93236800  0.46123100  0.85571400  1
  Ag  Ag60  1  0.53876900  0.47113700  0.85571400  1
  Ag  Ag61  1  0.52886300  0.06763200  0.85571400  1
  Ag  Ag62  1  0.80447033  0.20543567  0.81095267  1
  Ag  Ag63  1  0.79456433  0.59903467  0.81095267  1
  Ag  Ag64  1  0.40096533  0.19552967  0.81095267  1
  Ag  Ag65  1  0.66891833  0.66666667  0.66666667  1
  Ag  Ag66  1  0.33333333  0.00225167  0.66666667  1
  Ag  Ag67  1  0.99774833  0.33108167  0.66666667  1
  Ag  Ag68  1  0.33333333  0.66666667  0.16666667  1
  Ag  Ag69  1  0.11621867  0.96229333  0.09764533  1
  Ag  Ag70  1  0.03770667  0.15392533  0.09764533  1
  Ag  Ag71  1  0.84607467  0.88378133  0.09764533  1
  Ag  Ag72  1  0.82059200  0.37104000  0.23568800  1
  Ag  Ag73  1  0.62896000  0.44955200  0.23568800  1
  Ag  Ag74  1  0.55044800  0.17940800  0.23568800  1
  Ag  Ag75  1  0.59903467  0.79456433  0.18904733  1
  Ag  Ag76  1  0.20543567  0.80447033  0.18904733  1
  Ag  Ag77  1  0.19552967  0.40096533  0.18904733  1
  Ag  Ag78  1  0.47113700  0.53876900  0.14428600  1
  Ag  Ag79  1  0.46123100  0.93236800  0.14428600  1
  Ag  Ag80  1  0.06763200  0.52886300  0.14428600  1
  Ag  Ag81  1  0.33558500  0.00000000  0.00000000  1
  Ag  Ag82  1  0.00000000  0.33558500  0.00000000  1
  Ag  Ag83  1  0.66441500  0.66441500  0.00000000  1
  O  O84  1  0.24548300  0.05745700  0.22916100  1
  O  O85  1  0.94254300  0.18802600  0.22916100  1
  O  O86  1  0.81197400  0.75451700  0.22916100  1
  O  O87  1  0.18802600  0.94254300  0.77083900  1
  O  O88  1  0.05745700  0.24548300  0.77083900  1
  O  O89  1  0.75451700  0.81197400  0.77083900  1
  O  O90  1  0.05270433  0.14412667  0.36671367  1
  O  O91  1  0.85587333  0.90857767  0.36671367  1
  O  O92  1  0.09142233  0.94729567  0.36671367  1
  O  O93  1  0.90857767  0.85587333  0.63328633  1
  O  O94  1  0.14412667  0.05270433  0.63328633  1
  O  O95  1  0.94729567  0.09142233  0.63328633  1
  O  O96  1  0.00000000  0.00000000  0.24036000  1
  O  O97  1  0.00000000  0.00000000  0.75964000  1
  O  O98  1  0.89080533  0.71401567  0.38515267  1
  O  O99  1  0.12075333  0.61560167  0.58626567  1
  O  O100  1  0.49484833  0.87924667  0.58626567  1
  O  O101  1  0.50515167  0.38439833  0.41373433  1
  O  O102  1  0.61560167  0.12075333  0.41373433  1
  O  O103  1  0.87924667  0.49484833  0.41373433  1
  O  O104  1  0.41032533  0.32163367  0.57973767  1
  O  O105  1  0.67836633  0.08869167  0.57973767  1
  O  O106  1  0.91130833  0.58967467  0.57973767  1
  O  O107  1  0.08869167  0.67836633  0.42026233  1
  O  O108  1  0.32163367  0.41032533  0.42026233  1
  O  O109  1  0.58967467  0.91130833  0.42026233  1
  O  O110  1  0.28598433  0.17678967  0.38515267  1
  O  O111  1  0.82321033  0.10919467  0.38515267  1
  O  O112  1  0.71401567  0.89080533  0.61484733  1
  O  O113  1  0.17678967  0.28598433  0.61484733  1
  O  O114  1  0.10919467  0.82321033  0.61484733  1
  O  O115  1  0.38439833  0.50515167  0.58626567  1
  O  O116  1  0.91214967  0.39079033  0.56249433  1
  O  O117  1  0.60920967  0.52135933  0.56249433  1
  O  O118  1  0.47864067  0.08785033  0.56249433  1
  O  O119  1  0.85469267  0.27587633  0.10417233  1
  O  O120  1  0.72412367  0.57881633  0.10417233  1
  O  O121  1  0.42118367  0.14530733  0.10417233  1
  O  O122  1  0.71937100  0.47746000  0.70004700  1
  O  O123  1  0.52254000  0.24191100  0.70004700  1
  O  O124  1  0.75808900  0.28062900  0.70004700  1
  O  O125  1  0.57524433  0.18920667  0.96661967  1
  O  O126  1  0.81079333  0.38603767  0.96661967  1
  O  O127  1  0.61396233  0.42475567  0.96661967  1
  O  O128  1  0.66666667  0.33333333  0.57369333  1
  O  O129  1  0.66666667  0.33333333  0.09297333  1
  O  O130  1  0.55747200  0.04734900  0.71848600  1
  O  O131  1  0.78742000  0.94893500  0.91959900  1
  O  O132  1  0.16151500  0.21258000  0.91959900  1
  O  O133  1  0.17181833  0.71773167  0.74706767  1
  O  O134  1  0.28226833  0.45408667  0.74706767  1
  O  O135  1  0.54591333  0.82818167  0.74706767  1
  O  O136  1  0.07699200  0.65496700  0.91307100  1
  O  O137  1  0.34503300  0.42202500  0.91307100  1
  O  O138  1  0.57797500  0.92300800  0.91307100  1
  O  O139  1  0.75535833  0.01169967  0.75359567  1
  O  O140  1  0.98830033  0.74365867  0.75359567  1
  O  O141  1  0.25634133  0.24464167  0.75359567  1
  O  O142  1  0.95265100  0.51012300  0.71848600  1
  O  O143  1  0.48987700  0.44252800  0.71848600  1
  O  O144  1  0.38068233  0.22413867  0.94818067  1
  O  O145  1  0.84345633  0.61931767  0.94818067  1
  O  O146  1  0.77586133  0.15654367  0.94818067  1
  O  O147  1  0.05106500  0.83848500  0.91959900  1
  O  O148  1  0.57881633  0.72412367  0.89582767  1
  O  O149  1  0.27587633  0.85469267  0.89582767  1
  O  O150  1  0.14530733  0.42118367  0.89582767  1
  O  O151  1  0.52135933  0.60920967  0.43750567  1
  O  O152  1  0.39079033  0.91214967  0.43750567  1
  O  O153  1  0.08785033  0.47864067  0.43750567  1
  O  O154  1  0.38603767  0.81079333  0.03338033  1
  O  O155  1  0.18920667  0.57524433  0.03338033  1
  O  O156  1  0.42475567  0.61396233  0.03338033  1
  O  O157  1  0.24191100  0.52254000  0.29995300  1
  O  O158  1  0.47746000  0.71937100  0.29995300  1
  O  O159  1  0.28062900  0.75808900  0.29995300  1
  O  O160  1  0.33333333  0.66666667  0.90702667  1
  O  O161  1  0.33333333  0.66666667  0.42630667  1
  O  O162  1  0.22413867  0.38068233  0.05181933  1
  O  O163  1  0.45408667  0.28226833  0.25293233  1
  O  O164  1  0.82818167  0.54591333  0.25293233  1
  O  O165  1  0.83848500  0.05106500  0.08040100  1
  O  O166  1  0.94893500  0.78742000  0.08040100  1
  O  O167  1  0.21258000  0.16151500  0.08040100  1
  O  O168  1  0.74365867  0.98830033  0.24640433  1
  O  O169  1  0.01169967  0.75535833  0.24640433  1
  O  O170  1  0.24464167  0.25634133  0.24640433  1
  O  O171  1  0.42202500  0.34503300  0.08692900  1
  O  O172  1  0.65496700  0.07699200  0.08692900  1
  O  O173  1  0.92300800  0.57797500  0.08692900  1
  O  O174  1  0.61931767  0.84345633  0.05181933  1
  O  O175  1  0.15654367  0.77586133  0.05181933  1
  O  O176  1  0.04734900  0.55747200  0.28151400  1
  O  O177  1  0.51012300  0.95265100  0.28151400  1
  O  O178  1  0.44252800  0.48987700  0.28151400  1
  O  O179  1  0.71773167  0.17181833  0.25293233  1
