# generated using pymatgen
data_Ti3Al2NiN
_symmetry_space_group_name_H-M   'P 1'
_cell_length_a   11.37428800
_cell_length_b   11.37428800
_cell_length_c   11.37428800
_cell_angle_alpha   90.00000000
_cell_angle_beta   90.00000000
_cell_angle_gamma   90.00000000
_symmetry_Int_Tables_number   1
_chemical_formula_structural   Ti3Al2NiN
_chemical_formula_sum   'Ti48 Al32 Ni16 N16'
_cell_volume   1471.54199830
_cell_formula_units_Z   16
loop_
 _symmetry_equiv_pos_site_id
 _symmetry_equiv_pos_as_xyz
  1  'x, y, z'
loop_
 _atom_site_type_symbol
 _atom_site_label
 _atom_site_symmetry_multiplicity
 _atom_site_fract_x
 _atom_site_fract_y
 _atom_site_fract_z
 _atom_site_occupancy
  Ti  Ti0  1  0.00000000  0.00000000  0.31461500  1
  Ti  Ti1  1  0.43538500  0.75000000  0.25000000  1
  Ti  Ti2  1  0.06461500  0.75000000  0.25000000  1
  Ti  Ti3  1  0.25000000  0.75000000  0.06461500  1
  Ti  Ti4  1  0.25000000  0.56461500  0.25000000  1
  Ti  Ti5  1  0.25000000  0.93538500  0.25000000  1
  Ti  Ti6  1  0.50000000  0.68538500  0.50000000  1
  Ti  Ti7  1  0.81461500  0.00000000  0.50000000  1
  Ti  Ti8  1  0.18538500  0.00000000  0.50000000  1
  Ti  Ti9  1  0.50000000  0.31461500  0.50000000  1
  Ti  Ti10  1  0.25000000  0.75000000  0.43538500  1
  Ti  Ti11  1  0.50000000  0.00000000  0.18538500  1
  Ti  Ti12  1  0.00000000  0.50000000  0.81461500  1
  Ti  Ti13  1  0.43538500  0.25000000  0.75000000  1
  Ti  Ti14  1  0.06461500  0.25000000  0.75000000  1
  Ti  Ti15  1  0.25000000  0.25000000  0.56461500  1
  Ti  Ti16  1  0.25000000  0.06461500  0.75000000  1
  Ti  Ti17  1  0.25000000  0.43538500  0.75000000  1
  Ti  Ti18  1  0.50000000  0.18538500  0.00000000  1
  Ti  Ti19  1  0.81461500  0.50000000  0.00000000  1
  Ti  Ti20  1  0.18538500  0.50000000  0.00000000  1
  Ti  Ti21  1  0.50000000  0.81461500  0.00000000  1
  Ti  Ti22  1  0.25000000  0.25000000  0.93538500  1
  Ti  Ti23  1  0.50000000  0.50000000  0.68538500  1
  Ti  Ti24  1  0.50000000  0.00000000  0.81461500  1
  Ti  Ti25  1  0.93538500  0.75000000  0.75000000  1
  Ti  Ti26  1  0.56461500  0.75000000  0.75000000  1
  Ti  Ti27  1  0.75000000  0.75000000  0.56461500  1
  Ti  Ti28  1  0.75000000  0.56461500  0.75000000  1
  Ti  Ti29  1  0.75000000  0.93538500  0.75000000  1
  Ti  Ti30  1  0.00000000  0.68538500  0.00000000  1
  Ti  Ti31  1  0.31461500  0.00000000  0.00000000  1
  Ti  Ti32  1  0.68538500  0.00000000  0.00000000  1
  Ti  Ti33  1  0.00000000  0.31461500  0.00000000  1
  Ti  Ti34  1  0.75000000  0.75000000  0.93538500  1
  Ti  Ti35  1  0.00000000  0.00000000  0.68538500  1
  Ti  Ti36  1  0.50000000  0.50000000  0.31461500  1
  Ti  Ti37  1  0.93538500  0.25000000  0.25000000  1
  Ti  Ti38  1  0.56461500  0.25000000  0.25000000  1
  Ti  Ti39  1  0.75000000  0.25000000  0.06461500  1
  Ti  Ti40  1  0.75000000  0.06461500  0.25000000  1
  Ti  Ti41  1  0.75000000  0.43538500  0.25000000  1
  Ti  Ti42  1  0.00000000  0.18538500  0.50000000  1
  Ti  Ti43  1  0.31461500  0.50000000  0.50000000  1
  Ti  Ti44  1  0.68538500  0.50000000  0.50000000  1
  Ti  Ti45  1  0.00000000  0.81461500  0.50000000  1
  Ti  Ti46  1  0.75000000  0.25000000  0.43538500  1
  Ti  Ti47  1  0.00000000  0.50000000  0.18538500  1
  Al  Al48  1  0.08282567  0.91717433  0.08282567  1
  Al  Al49  1  0.16717433  0.16717433  0.33282567  1
  Al  Al50  1  0.33282567  0.16717433  0.16717433  1
  Al  Al51  1  0.33282567  0.33282567  0.33282567  1
  Al  Al52  1  0.91717433  0.08282567  0.08282567  1
  Al  Al53  1  0.41717433  0.91717433  0.41717433  1
  Al  Al54  1  0.58282567  0.08282567  0.41717433  1
  Al  Al55  1  0.16717433  0.33282567  0.16717433  1
  Al  Al56  1  0.08282567  0.41717433  0.58282567  1
  Al  Al57  1  0.16717433  0.66717433  0.83282567  1
  Al  Al58  1  0.33282567  0.66717433  0.66717433  1
  Al  Al59  1  0.33282567  0.83282567  0.83282567  1
  Al  Al60  1  0.91717433  0.58282567  0.58282567  1
  Al  Al61  1  0.41717433  0.41717433  0.91717433  1
  Al  Al62  1  0.58282567  0.58282567  0.91717433  1
  Al  Al63  1  0.16717433  0.83282567  0.66717433  1
  Al  Al64  1  0.58282567  0.91717433  0.58282567  1
  Al  Al65  1  0.66717433  0.16717433  0.83282567  1
  Al  Al66  1  0.83282567  0.16717433  0.66717433  1
  Al  Al67  1  0.83282567  0.33282567  0.83282567  1
  Al  Al68  1  0.41717433  0.08282567  0.58282567  1
  Al  Al69  1  0.91717433  0.91717433  0.91717433  1
  Al  Al70  1  0.08282567  0.08282567  0.91717433  1
  Al  Al71  1  0.66717433  0.33282567  0.66717433  1
  Al  Al72  1  0.58282567  0.41717433  0.08282567  1
  Al  Al73  1  0.66717433  0.66717433  0.33282567  1
  Al  Al74  1  0.83282567  0.66717433  0.16717433  1
  Al  Al75  1  0.83282567  0.83282567  0.33282567  1
  Al  Al76  1  0.41717433  0.58282567  0.08282567  1
  Al  Al77  1  0.91717433  0.41717433  0.41717433  1
  Al  Al78  1  0.08282567  0.58282567  0.41717433  1
  Al  Al79  1  0.66717433  0.83282567  0.16717433  1
  Ni  Ni80  1  0.37500000  0.12500000  0.37500000  1
  Ni  Ni81  1  0.87500000  0.87500000  0.12500000  1
  Ni  Ni82  1  0.62500000  0.87500000  0.37500000  1
  Ni  Ni83  1  0.12500000  0.12500000  0.12500000  1
  Ni  Ni84  1  0.37500000  0.62500000  0.87500000  1
  Ni  Ni85  1  0.87500000  0.37500000  0.62500000  1
  Ni  Ni86  1  0.62500000  0.37500000  0.87500000  1
  Ni  Ni87  1  0.12500000  0.62500000  0.62500000  1
  Ni  Ni88  1  0.87500000  0.12500000  0.87500000  1
  Ni  Ni89  1  0.37500000  0.87500000  0.62500000  1
  Ni  Ni90  1  0.12500000  0.87500000  0.87500000  1
  Ni  Ni91  1  0.62500000  0.12500000  0.62500000  1
  Ni  Ni92  1  0.87500000  0.62500000  0.37500000  1
  Ni  Ni93  1  0.37500000  0.37500000  0.12500000  1
  Ni  Ni94  1  0.12500000  0.37500000  0.37500000  1
  Ni  Ni95  1  0.62500000  0.62500000  0.12500000  1
  N  N96  1  0.37500000  0.62500000  0.37500000  1
  N  N97  1  0.37500000  0.87500000  0.12500000  1
  N  N98  1  0.12500000  0.87500000  0.37500000  1
  N  N99  1  0.12500000  0.62500000  0.12500000  1
  N  N100  1  0.37500000  0.12500000  0.87500000  1
  N  N101  1  0.37500000  0.37500000  0.62500000  1
  N  N102  1  0.12500000  0.37500000  0.87500000  1
  N  N103  1  0.12500000  0.12500000  0.62500000  1
  N  N104  1  0.87500000  0.62500000  0.87500000  1
  N  N105  1  0.87500000  0.87500000  0.62500000  1
  N  N106  1  0.62500000  0.87500000  0.87500000  1
  N  N107  1  0.62500000  0.62500000  0.62500000  1
  N  N108  1  0.87500000  0.12500000  0.37500000  1
  N  N109  1  0.87500000  0.37500000  0.12500000  1
  N  N110  1  0.62500000  0.37500000  0.37500000  1
  N  N111  1  0.62500000  0.12500000  0.12500000  1
