# generated using pymatgen
data_UAl4
_symmetry_space_group_name_H-M   'P 1'
_cell_length_a   4.35002400
_cell_length_b   6.24157600
_cell_length_c   13.81757600
_cell_angle_alpha   90.00000000
_cell_angle_beta   90.00000000
_cell_angle_gamma   90.00000000
_symmetry_Int_Tables_number   1
_chemical_formula_structural   UAl4
_chemical_formula_sum   'U4 Al16'
_cell_volume   375.16108056
_cell_formula_units_Z   4
loop_
 _symmetry_equiv_pos_site_id
 _symmetry_equiv_pos_as_xyz
  1  'x, y, z'
loop_
 _atom_site_type_symbol
 _atom_site_label
 _atom_site_symmetry_multiplicity
 _atom_site_fract_x
 _atom_site_fract_y
 _atom_site_fract_z
 _atom_site_occupancy
  U  U0  1  0.50000000  0.25000000  0.61367200  1
  U  U1  1  0.00000000  0.25000000  0.88632800  1
  U  U2  1  0.00000000  0.75000000  0.11367200  1
  U  U3  1  0.50000000  0.75000000  0.38632800  1
  Al  Al4  1  0.50000000  0.97229900  0.80213500  1
  Al  Al5  1  0.00000000  0.97229900  0.69786500  1
  Al  Al6  1  0.50000000  0.52770100  0.80213500  1
  Al  Al7  1  0.50000000  0.00000000  0.00000000  1
  Al  Al8  1  0.00000000  0.52770100  0.69786500  1
  Al  Al9  1  0.50000000  0.75000000  0.60919900  1
  Al  Al10  1  0.00000000  0.75000000  0.89080100  1
  Al  Al11  1  0.50000000  0.50000000  0.00000000  1
  Al  Al12  1  0.00000000  0.47229900  0.30213500  1
  Al  Al13  1  0.50000000  0.47229900  0.19786500  1
  Al  Al14  1  0.00000000  0.02770100  0.30213500  1
  Al  Al15  1  0.00000000  0.50000000  0.50000000  1
  Al  Al16  1  0.50000000  0.02770100  0.19786500  1
  Al  Al17  1  0.00000000  0.25000000  0.10919900  1
  Al  Al18  1  0.50000000  0.25000000  0.39080100  1
  Al  Al19  1  0.00000000  0.00000000  0.50000000  1
