# generated using pymatgen
data_Fe2NiP
_symmetry_space_group_name_H-M   'P 1'
_cell_length_a   8.95427600
_cell_length_b   8.95427600
_cell_length_c   4.38319200
_cell_angle_alpha   90.00000000
_cell_angle_beta   90.00000000
_cell_angle_gamma   90.00000000
_symmetry_Int_Tables_number   1
_chemical_formula_structural   Fe2NiP
_chemical_formula_sum   'Fe16 Ni8 P8'
_cell_volume   351.44020859
_cell_formula_units_Z   8
loop_
 _symmetry_equiv_pos_site_id
 _symmetry_equiv_pos_as_xyz
  1  'x, y, z'
loop_
 _atom_site_type_symbol
 _atom_site_label
 _atom_site_symmetry_multiplicity
 _atom_site_fract_x
 _atom_site_fract_y
 _atom_site_fract_z
 _atom_site_occupancy
  Fe  Fe0  1  0.07856750  0.10717300  0.76967475  1
  Fe  Fe1  1  0.96837500  0.36129450  0.98215925  1
  Fe  Fe2  1  0.39282700  0.57856750  0.73032525  1
  Fe  Fe3  1  0.60717300  0.42143250  0.73032525  1
  Fe  Fe4  1  0.03162500  0.63870550  0.98215925  1
  Fe  Fe5  1  0.92143250  0.89282700  0.76967475  1
  Fe  Fe6  1  0.13870550  0.46837500  0.51784075  1
  Fe  Fe7  1  0.86129450  0.53162500  0.51784075  1
  Fe  Fe8  1  0.57856750  0.60717300  0.26967475  1
  Fe  Fe9  1  0.46837500  0.86129450  0.48215925  1
  Fe  Fe10  1  0.89282700  0.07856750  0.23032525  1
  Fe  Fe11  1  0.10717300  0.92143250  0.23032525  1
  Fe  Fe12  1  0.53162500  0.13870550  0.48215925  1
  Fe  Fe13  1  0.42143250  0.39282700  0.26967475  1
  Fe  Fe14  1  0.63870550  0.96837500  0.01784075  1
  Fe  Fe15  1  0.36129450  0.03162500  0.01784075  1
  Ni  Ni16  1  0.28097050  0.67171700  0.25044675  1
  Ni  Ni17  1  0.82828300  0.78097050  0.24955325  1
  Ni  Ni18  1  0.17171700  0.21902950  0.24955325  1
  Ni  Ni19  1  0.71902950  0.32828300  0.25044675  1
  Ni  Ni20  1  0.78097050  0.17171700  0.75044675  1
  Ni  Ni21  1  0.32828300  0.28097050  0.74955325  1
  Ni  Ni22  1  0.67171700  0.71902950  0.74955325  1
  Ni  Ni23  1  0.21902950  0.82828300  0.75044675  1
  P  P24  1  0.04620750  0.70784900  0.48681675  1
  P  P25  1  0.20784900  0.45379250  0.01318325  1
  P  P26  1  0.95379250  0.29215100  0.48681675  1
  P  P27  1  0.79215100  0.54620750  0.01318325  1
  P  P28  1  0.54620750  0.20784900  0.98681675  1
  P  P29  1  0.70784900  0.95379250  0.51318325  1
  P  P30  1  0.45379250  0.79215100  0.98681675  1
  P  P31  1  0.29215100  0.04620750  0.51318325  1
