# generated using pymatgen
data_BiPd2Pb
_symmetry_space_group_name_H-M   'P 1'
_cell_length_a   7.31903800
_cell_length_b   8.88138800
_cell_length_c   10.73243000
_cell_angle_alpha   90.00000000
_cell_angle_beta   90.00000000
_cell_angle_gamma   90.00000000
_symmetry_Int_Tables_number   1
_chemical_formula_structural   BiPd2Pb
_chemical_formula_sum   'Bi8 Pd16 Pb8'
_cell_volume   697.64246834
_cell_formula_units_Z   8
loop_
 _symmetry_equiv_pos_site_id
 _symmetry_equiv_pos_as_xyz
  1  'x, y, z'
loop_
 _atom_site_type_symbol
 _atom_site_label
 _atom_site_symmetry_multiplicity
 _atom_site_fract_x
 _atom_site_fract_y
 _atom_site_fract_z
 _atom_site_occupancy
  Bi  Bi0  1  0.62212800  0.77405500  0.28682500  1
  Bi  Bi1  1  0.37787200  0.22594500  0.78682500  1
  Bi  Bi2  1  0.62212800  0.22594500  0.28682500  1
  Bi  Bi3  1  0.37787200  0.77405500  0.78682500  1
  Bi  Bi4  1  0.12212800  0.27405500  0.28682500  1
  Bi  Bi5  1  0.87787200  0.72594500  0.78682500  1
  Bi  Bi6  1  0.12212800  0.72594500  0.28682500  1
  Bi  Bi7  1  0.87787200  0.27405500  0.78682500  1
  Pd  Pd8  1  0.62070300  0.75481300  0.56539700  1
  Pd  Pd9  1  0.91715200  0.00000000  0.23178500  1
  Pd  Pd10  1  0.37929700  0.24518700  0.06539700  1
  Pd  Pd11  1  0.67306400  0.00000000  0.73729300  1
  Pd  Pd12  1  0.32693600  0.00000000  0.23729300  1
  Pd  Pd13  1  0.37929700  0.75481300  0.06539700  1
  Pd  Pd14  1  0.08284800  0.00000000  0.73178500  1
  Pd  Pd15  1  0.62070300  0.24518700  0.56539700  1
  Pd  Pd16  1  0.12070300  0.25481300  0.56539700  1
  Pd  Pd17  1  0.41715200  0.50000000  0.23178500  1
  Pd  Pd18  1  0.87929700  0.74518700  0.06539700  1
  Pd  Pd19  1  0.17306400  0.50000000  0.73729300  1
  Pd  Pd20  1  0.82693600  0.50000000  0.23729300  1
  Pd  Pd21  1  0.87929700  0.25481300  0.06539700  1
  Pd  Pd22  1  0.58284800  0.50000000  0.73178500  1
  Pd  Pd23  1  0.12070300  0.74518700  0.56539700  1
  Pb  Pb24  1  0.12233200  0.00000000  0.00059900  1
  Pb  Pb25  1  0.36339600  0.00000000  0.50988000  1
  Pb  Pb26  1  0.63660400  0.00000000  0.00988000  1
  Pb  Pb27  1  0.87766800  0.00000000  0.50059900  1
  Pb  Pb28  1  0.62233200  0.50000000  0.00059900  1
  Pb  Pb29  1  0.86339600  0.50000000  0.50988000  1
  Pb  Pb30  1  0.13660400  0.50000000  0.00988000  1
  Pb  Pb31  1  0.37766800  0.50000000  0.50059900  1
