# generated using pymatgen
data_Na4Zr(MoO4)4
_symmetry_space_group_name_H-M   'P 1'
_cell_length_a   11.24104600
_cell_length_b   11.24104600
_cell_length_c   11.87864600
_cell_angle_alpha   90.00000000
_cell_angle_beta   90.00000000
_cell_angle_gamma   90.00000000
_symmetry_Int_Tables_number   1
_chemical_formula_structural   Na4Zr(MoO4)4
_chemical_formula_sum   'Na16 Zr4 Mo16 O64'
_cell_volume   1500.99895532
_cell_formula_units_Z   4
loop_
 _symmetry_equiv_pos_site_id
 _symmetry_equiv_pos_as_xyz
  1  'x, y, z'
loop_
 _atom_site_type_symbol
 _atom_site_label
 _atom_site_symmetry_multiplicity
 _atom_site_fract_x
 _atom_site_fract_y
 _atom_site_fract_z
 _atom_site_occupancy
  Na  Na0  1  0.11364200  0.22681100  0.27944000  1
  Na  Na1  1  0.38635800  0.27318900  0.77944000  1
  Na  Na2  1  0.22681100  0.38635800  0.52944000  1
  Na  Na3  1  0.27318900  0.61364200  0.22056000  1
  Na  Na4  1  0.38635800  0.77318900  0.47056000  1
  Na  Na5  1  0.27318900  0.11364200  0.02944000  1
  Na  Na6  1  0.22681100  0.88635800  0.72056000  1
  Na  Na7  1  0.11364200  0.72681100  0.97056000  1
  Na  Na8  1  0.61364200  0.72681100  0.77944000  1
  Na  Na9  1  0.88635800  0.77318900  0.27944000  1
  Na  Na10  1  0.72681100  0.88635800  0.02944000  1
  Na  Na11  1  0.77318900  0.11364200  0.72056000  1
  Na  Na12  1  0.88635800  0.27318900  0.97056000  1
  Na  Na13  1  0.77318900  0.61364200  0.52944000  1
  Na  Na14  1  0.72681100  0.38635800  0.22056000  1
  Na  Na15  1  0.61364200  0.22681100  0.47056000  1
  Zr  Zr16  1  0.50000000  0.00000000  0.25000000  1
  Zr  Zr17  1  0.00000000  0.00000000  0.50000000  1
  Zr  Zr18  1  0.00000000  0.50000000  0.75000000  1
  Zr  Zr19  1  0.50000000  0.50000000  0.00000000  1
  Mo  Mo20  1  0.17861150  0.91464250  0.25133450  1
  Mo  Mo21  1  0.17861150  0.41464250  0.99866550  1
  Mo  Mo22  1  0.32138850  0.08535750  0.49866550  1
  Mo  Mo23  1  0.91464250  0.32138850  0.50133450  1
  Mo  Mo24  1  0.32138850  0.58535750  0.75133450  1
  Mo  Mo25  1  0.08535750  0.17861150  0.74866550  1
  Mo  Mo26  1  0.58535750  0.17861150  0.00133450  1
  Mo  Mo27  1  0.41464250  0.32138850  0.24866550  1
  Mo  Mo28  1  0.67861150  0.41464250  0.75133450  1
  Mo  Mo29  1  0.67861150  0.91464250  0.49866550  1
  Mo  Mo30  1  0.82138850  0.58535750  0.99866550  1
  Mo  Mo31  1  0.41464250  0.82138850  0.00133450  1
  Mo  Mo32  1  0.82138850  0.08535750  0.25133450  1
  Mo  Mo33  1  0.58535750  0.67861150  0.24866550  1
  Mo  Mo34  1  0.08535750  0.67861150  0.50133450  1
  Mo  Mo35  1  0.91464250  0.82138850  0.74866550  1
  O  O36  1  0.33023000  0.20620900  0.59388800  1
  O  O37  1  0.91977650  0.17002550  0.56454050  1
  O  O38  1  0.41977650  0.17002550  0.18545950  1
  O  O39  1  0.20620900  0.16977000  0.84388800  1
  O  O40  1  0.45407950  0.14859850  0.92568750  1
  O  O41  1  0.44252100  0.11023900  0.39776700  1
  O  O42  1  0.38976100  0.94252100  0.10223300  1
  O  O43  1  0.54592050  0.35140150  0.32431250  1
  O  O44  1  0.55747900  0.88976100  0.39776700  1
  O  O45  1  0.55747900  0.38976100  0.85223300  1
  O  O46  1  0.04592050  0.35140150  0.42568750  1
  O  O47  1  0.35140150  0.45407950  0.67568750  1
  O  O48  1  0.14859850  0.54592050  0.07431250  1
  O  O49  1  0.67002550  0.08022350  0.31454050  1
  O  O50  1  0.79379100  0.33023000  0.40611200  1
  O  O51  1  0.33023000  0.70620900  0.65611200  1
  O  O52  1  0.17002550  0.08022350  0.43545950  1
  O  O53  1  0.95407950  0.14859850  0.82431250  1
  O  O54  1  0.16977000  0.29379100  0.09388800  1
  O  O55  1  0.32997450  0.41977650  0.93545950  1
  O  O56  1  0.11023900  0.05747900  0.64776700  1
  O  O57  1  0.16977000  0.79379100  0.15611200  1
  O  O58  1  0.94252100  0.11023900  0.35223300  1
  O  O59  1  0.70620900  0.16977000  0.90611200  1
  O  O60  1  0.29379100  0.33023000  0.34388800  1
  O  O61  1  0.58022350  0.82997450  0.18545950  1
  O  O62  1  0.58022350  0.32997450  0.06454050  1
  O  O63  1  0.61023900  0.05747900  0.10223300  1
  O  O64  1  0.14859850  0.04592050  0.17568750  1
  O  O65  1  0.35140150  0.95407950  0.57431250  1
  O  O66  1  0.32997450  0.91977650  0.31454050  1
  O  O67  1  0.38976100  0.44252100  0.14776700  1
  O  O68  1  0.83023000  0.70620900  0.09388800  1
  O  O69  1  0.41977650  0.67002550  0.06454050  1
  O  O70  1  0.91977650  0.67002550  0.68545950  1
  O  O71  1  0.70620900  0.66977000  0.34388800  1
  O  O72  1  0.95407950  0.64859850  0.42568750  1
  O  O73  1  0.94252100  0.61023900  0.89776700  1
  O  O74  1  0.88976100  0.44252100  0.60223300  1
  O  O75  1  0.04592050  0.85140150  0.82431250  1
  O  O76  1  0.05747900  0.38976100  0.89776700  1
  O  O77  1  0.05747900  0.88976100  0.35223300  1
  O  O78  1  0.54592050  0.85140150  0.92568750  1
  O  O79  1  0.85140150  0.95407950  0.17568750  1
  O  O80  1  0.64859850  0.04592050  0.57431250  1
  O  O81  1  0.17002550  0.58022350  0.81454050  1
  O  O82  1  0.29379100  0.83023000  0.90611200  1
  O  O83  1  0.83023000  0.20620900  0.15611200  1
  O  O84  1  0.67002550  0.58022350  0.93545950  1
  O  O85  1  0.45407950  0.64859850  0.32431250  1
  O  O86  1  0.66977000  0.79379100  0.59388800  1
  O  O87  1  0.82997450  0.91977650  0.43545950  1
  O  O88  1  0.61023900  0.55747900  0.14776700  1
  O  O89  1  0.66977000  0.29379100  0.65611200  1
  O  O90  1  0.44252100  0.61023900  0.85223300  1
  O  O91  1  0.20620900  0.66977000  0.40611200  1
  O  O92  1  0.79379100  0.83023000  0.84388800  1
  O  O93  1  0.08022350  0.32997450  0.68545950  1
  O  O94  1  0.08022350  0.82997450  0.56454050  1
  O  O95  1  0.11023900  0.55747900  0.60223300  1
  O  O96  1  0.64859850  0.54592050  0.67568750  1
  O  O97  1  0.85140150  0.45407950  0.07431250  1
  O  O98  1  0.82997450  0.41977650  0.81454050  1
  O  O99  1  0.88976100  0.94252100  0.64776700  1
