# generated using pymatgen
data_Al17Mo4
_symmetry_space_group_name_H-M   'P 1'
_cell_length_a   9.18915800
_cell_length_b   4.93790800
_cell_length_c   28.97887118
_cell_angle_alpha   90.00000000
_cell_angle_beta   96.64960419
_cell_angle_gamma   90.00000000
_symmetry_Int_Tables_number   1
_chemical_formula_structural   Al17Mo4
_chemical_formula_sum   'Al68 Mo16'
_cell_volume   1306.07692802
_cell_formula_units_Z   4
loop_
 _symmetry_equiv_pos_site_id
 _symmetry_equiv_pos_as_xyz
  1  'x, y, z'
loop_
 _atom_site_type_symbol
 _atom_site_label
 _atom_site_symmetry_multiplicity
 _atom_site_fract_x
 _atom_site_fract_y
 _atom_site_fract_z
 _atom_site_occupancy
  Al  Al0  1  0.12710300  0.86219000  0.00711100  1
  Al  Al1  1  0.50000000  0.19343900  0.75000000  1
  Al  Al2  1  0.59770300  0.68812100  0.60549700  1
  Al  Al3  1  0.53255900  0.32725600  0.20064700  1
  Al  Al4  1  0.46744100  0.67274400  0.79935300  1
  Al  Al5  1  0.53255900  0.67274400  0.70064700  1
  Al  Al6  1  0.36918100  0.34689000  0.58570300  1
  Al  Al7  1  0.90229700  0.18812100  0.89450300  1
  Al  Al8  1  0.31692200  0.16226000  0.13034000  1
  Al  Al9  1  0.46744100  0.32725600  0.29935300  1
  Al  Al10  1  0.87289700  0.13781000  0.99288900  1
  Al  Al11  1  0.56114550  0.82838350  0.15603500  1
  Al  Al12  1  0.72578950  0.84806450  0.77280900  1
  Al  Al13  1  0.27421050  0.15193550  0.22719100  1
  Al  Al14  1  0.43885450  0.82838350  0.34396500  1
  Al  Al15  1  0.63081900  0.65311000  0.41429700  1
  Al  Al16  1  0.77421050  0.34806450  0.72719100  1
  Al  Al17  1  0.09770300  0.81187900  0.10549700  1
  Al  Al18  1  0.62710300  0.63781000  0.50711100  1
  Al  Al19  1  0.56114550  0.17161650  0.65603500  1
  Al  Al20  1  0.50000000  0.80656100  0.25000000  1
  Al  Al21  1  0.36918100  0.65311000  0.08570300  1
  Al  Al22  1  0.22578950  0.65193550  0.27280900  1
  Al  Al23  1  0.12660100  0.33796600  0.05407700  1
  Al  Al24  1  0.68307800  0.16226000  0.36966000  1
  Al  Al25  1  0.37339900  0.83796600  0.44592300  1
  Al  Al26  1  0.43885450  0.17161650  0.84396500  1
  Al  Al27  1  0.40229700  0.31187900  0.39450300  1
  Al  Al28  1  0.63081900  0.34689000  0.91429700  1
  Al  Al29  1  0.37289700  0.36219000  0.49288900  1
  Al  Al30  1  0.62660100  0.16203400  0.55407700  1
  Al  Al31  1  0.31692200  0.83774000  0.63034000  1
  Al  Al32  1  0.68307800  0.83774000  0.86966000  1
  Al  Al33  1  0.87339900  0.66203400  0.94592300  1
  Al  Al34  1  0.62710300  0.36219000  0.00711100  1
  Al  Al35  1  0.00000000  0.69343900  0.75000000  1
  Al  Al36  1  0.09770300  0.18812100  0.60549700  1
  Al  Al37  1  0.03255900  0.82725600  0.20064700  1
  Al  Al38  1  0.96744100  0.17274400  0.79935300  1
  Al  Al39  1  0.03255900  0.17274400  0.70064700  1
  Al  Al40  1  0.86918100  0.84689000  0.58570300  1
  Al  Al41  1  0.40229700  0.68812100  0.89450300  1
  Al  Al42  1  0.81692200  0.66226000  0.13034000  1
  Al  Al43  1  0.96744100  0.82725600  0.29935300  1
  Al  Al44  1  0.37289700  0.63781000  0.99288900  1
  Al  Al45  1  0.06114550  0.32838350  0.15603500  1
  Al  Al46  1  0.22578950  0.34806450  0.77280900  1
  Al  Al47  1  0.77421050  0.65193550  0.22719100  1
  Al  Al48  1  0.93885450  0.32838350  0.34396500  1
  Al  Al49  1  0.13081900  0.15311000  0.41429700  1
  Al  Al50  1  0.27421050  0.84806450  0.72719100  1
  Al  Al51  1  0.59770300  0.31187900  0.10549700  1
  Al  Al52  1  0.12710300  0.13781000  0.50711100  1
  Al  Al53  1  0.06114550  0.67161650  0.65603500  1
  Al  Al54  1  0.00000000  0.30656100  0.25000000  1
  Al  Al55  1  0.86918100  0.15311000  0.08570300  1
  Al  Al56  1  0.72578950  0.15193550  0.27280900  1
  Al  Al57  1  0.62660100  0.83796600  0.05407700  1
  Al  Al58  1  0.18307800  0.66226000  0.36966000  1
  Al  Al59  1  0.87339900  0.33796600  0.44592300  1
  Al  Al60  1  0.93885450  0.67161650  0.84396500  1
  Al  Al61  1  0.90229700  0.81187900  0.39450300  1
  Al  Al62  1  0.13081900  0.84689000  0.91429700  1
  Al  Al63  1  0.87289700  0.86219000  0.49288900  1
  Al  Al64  1  0.12660100  0.66203400  0.55407700  1
  Al  Al65  1  0.81692200  0.33774000  0.63034000  1
  Al  Al66  1  0.18307800  0.33774000  0.86966000  1
  Al  Al67  1  0.37339900  0.16203400  0.94592300  1
  Mo  Mo68  1  0.61160000  0.14004300  0.45885000  1
  Mo  Mo69  1  0.29635300  0.65467600  0.17973200  1
  Mo  Mo70  1  0.79635300  0.84532400  0.67973200  1
  Mo  Mo71  1  0.70364700  0.34532400  0.82026800  1
  Mo  Mo72  1  0.38840000  0.85995700  0.54115000  1
  Mo  Mo73  1  0.20364700  0.15467600  0.32026800  1
  Mo  Mo74  1  0.38840000  0.14004300  0.04115000  1
  Mo  Mo75  1  0.61160000  0.85995700  0.95885000  1
  Mo  Mo76  1  0.11160000  0.64004300  0.45885000  1
  Mo  Mo77  1  0.79635300  0.15467600  0.17973200  1
  Mo  Mo78  1  0.29635300  0.34532400  0.67973200  1
  Mo  Mo79  1  0.20364700  0.84532400  0.82026800  1
  Mo  Mo80  1  0.88840000  0.35995700  0.54115000  1
  Mo  Mo81  1  0.70364700  0.65467600  0.32026800  1
  Mo  Mo82  1  0.88840000  0.64004300  0.04115000  1
  Mo  Mo83  1  0.11160000  0.35995700  0.95885000  1
