# generated using pymatgen
data_Ni5Te4(ClO6)2
_symmetry_space_group_name_H-M   'P 1'
_cell_length_a   19.85498800
_cell_length_b   5.31059400
_cell_length_c   16.41661004
_cell_angle_alpha   90.00000000
_cell_angle_beta   125.08805224
_cell_angle_gamma   90.00000000
_symmetry_Int_Tables_number   1
_chemical_formula_structural   Ni5Te4(ClO6)2
_chemical_formula_sum   'Ni20 Te16 Cl8 O48'
_cell_volume   1416.42189176
_cell_formula_units_Z   4
loop_
 _symmetry_equiv_pos_site_id
 _symmetry_equiv_pos_as_xyz
  1  'x, y, z'
loop_
 _atom_site_type_symbol
 _atom_site_label
 _atom_site_symmetry_multiplicity
 _atom_site_fract_x
 _atom_site_fract_y
 _atom_site_fract_z
 _atom_site_occupancy
  Ni  Ni0  1  0.40942450  0.71366550  0.02682800  1
  Ni  Ni1  1  0.59057550  0.71366550  0.47317200  1
  Ni  Ni2  1  0.50000000  0.74030100  0.25000000  1
  Ni  Ni3  1  0.59057550  0.28633450  0.97317200  1
  Ni  Ni4  1  0.50879950  0.28201250  0.12099000  1
  Ni  Ni5  1  0.49120050  0.71798750  0.87901000  1
  Ni  Ni6  1  0.49120050  0.28201250  0.37901000  1
  Ni  Ni7  1  0.50879950  0.71798750  0.62099000  1
  Ni  Ni8  1  0.40942450  0.28633450  0.52682800  1
  Ni  Ni9  1  0.50000000  0.25969900  0.75000000  1
  Ni  Ni10  1  0.90942450  0.21366550  0.02682800  1
  Ni  Ni11  1  0.09057550  0.21366550  0.47317200  1
  Ni  Ni12  1  0.00000000  0.24030100  0.25000000  1
  Ni  Ni13  1  0.09057550  0.78633450  0.97317200  1
  Ni  Ni14  1  0.00879950  0.78201250  0.12099000  1
  Ni  Ni15  1  0.99120050  0.21798750  0.87901000  1
  Ni  Ni16  1  0.99120050  0.78201250  0.37901000  1
  Ni  Ni17  1  0.00879950  0.21798750  0.62099000  1
  Ni  Ni18  1  0.90942450  0.78633450  0.52682800  1
  Ni  Ni19  1  0.00000000  0.75969900  0.75000000  1
  Te  Te20  1  0.64778850  0.21003250  0.37992200  1
  Te  Te21  1  0.64778850  0.78996750  0.87992200  1
  Te  Te22  1  0.35221150  0.21003250  0.12007800  1
  Te  Te23  1  0.12559700  0.32143600  0.13803500  1
  Te  Te24  1  0.37440300  0.82143600  0.36196500  1
  Te  Te25  1  0.62559700  0.17856400  0.63803500  1
  Te  Te26  1  0.35221150  0.78996750  0.62007800  1
  Te  Te27  1  0.87440300  0.67856400  0.86196500  1
  Te  Te28  1  0.14778850  0.71003250  0.37992200  1
  Te  Te29  1  0.14778850  0.28996750  0.87992200  1
  Te  Te30  1  0.85221150  0.71003250  0.12007800  1
  Te  Te31  1  0.62559700  0.82143600  0.13803500  1
  Te  Te32  1  0.87440300  0.32143600  0.36196500  1
  Te  Te33  1  0.12559700  0.67856400  0.63803500  1
  Te  Te34  1  0.85221150  0.28996750  0.62007800  1
  Te  Te35  1  0.37440300  0.17856400  0.86196500  1
  Cl  Cl36  1  0.26382500  0.18632900  0.40704000  1
  Cl  Cl37  1  0.23617500  0.68632900  0.09296000  1
  Cl  Cl38  1  0.76382500  0.31367100  0.90704000  1
  Cl  Cl39  1  0.73617500  0.81367100  0.59296000  1
  Cl  Cl40  1  0.76382500  0.68632900  0.40704000  1
  Cl  Cl41  1  0.73617500  0.18632900  0.09296000  1
  Cl  Cl42  1  0.26382500  0.81367100  0.90704000  1
  Cl  Cl43  1  0.23617500  0.31367100  0.59296000  1
  O  O44  1  0.09729400  0.14861900  0.02009200  1
  O  O45  1  0.38374500  0.16373400  0.25007400  1
  O  O46  1  0.07043450  0.62213150  0.06920100  1
  O  O47  1  0.57685950  0.51210350  0.85524600  1
  O  O48  1  0.45958400  0.33424200  0.85666000  1
  O  O49  1  0.42956550  0.12213150  0.43079900  1
  O  O50  1  0.92956550  0.37786850  0.93079900  1
  O  O51  1  0.56451900  0.99103900  0.36872900  1
  O  O52  1  0.43548100  0.99103900  0.13127100  1
  O  O53  1  0.40270600  0.64861900  0.47990800  1
  O  O54  1  0.42314050  0.51210350  0.64475400  1
  O  O55  1  0.57685950  0.48789650  0.35524600  1
  O  O56  1  0.38374500  0.83626600  0.75007400  1
  O  O57  1  0.61625500  0.83626600  0.74992600  1
  O  O58  1  0.54041600  0.66575800  0.14334000  1
  O  O59  1  0.90270600  0.85138100  0.97990800  1
  O  O60  1  0.57043450  0.87786850  0.56920100  1
  O  O61  1  0.42314050  0.48789650  0.14475400  1
  O  O62  1  0.43548100  0.00896100  0.63127100  1
  O  O63  1  0.56451900  0.00896100  0.86872900  1
  O  O64  1  0.59729400  0.35138100  0.52009200  1
  O  O65  1  0.54041600  0.33424200  0.64334000  1
  O  O66  1  0.45958400  0.66575800  0.35666000  1
  O  O67  1  0.61625500  0.16373400  0.24992600  1
  O  O68  1  0.59729400  0.64861900  0.02009200  1
  O  O69  1  0.88374500  0.66373400  0.25007400  1
  O  O70  1  0.57043450  0.12213150  0.06920100  1
  O  O71  1  0.07685950  0.01210350  0.85524600  1
  O  O72  1  0.95958400  0.83424200  0.85666000  1
  O  O73  1  0.92956550  0.62213150  0.43079900  1
  O  O74  1  0.42956550  0.87786850  0.93079900  1
  O  O75  1  0.06451900  0.49103900  0.36872900  1
  O  O76  1  0.93548100  0.49103900  0.13127100  1
  O  O77  1  0.90270600  0.14861900  0.47990800  1
  O  O78  1  0.92314050  0.01210350  0.64475400  1
  O  O79  1  0.07685950  0.98789650  0.35524600  1
  O  O80  1  0.88374500  0.33626600  0.75007400  1
  O  O81  1  0.11625500  0.33626600  0.74992600  1
  O  O82  1  0.04041600  0.16575800  0.14334000  1
  O  O83  1  0.40270600  0.35138100  0.97990800  1
  O  O84  1  0.07043450  0.37786850  0.56920100  1
  O  O85  1  0.92314050  0.98789650  0.14475400  1
  O  O86  1  0.93548100  0.50896100  0.63127100  1
  O  O87  1  0.06451900  0.50896100  0.86872900  1
  O  O88  1  0.09729400  0.85138100  0.52009200  1
  O  O89  1  0.04041600  0.83424200  0.64334000  1
  O  O90  1  0.95958400  0.16575800  0.35666000  1
  O  O91  1  0.11625500  0.66373400  0.24992600  1
