# generated using pymatgen
data_UCu2(PO5)2
_symmetry_space_group_name_H-M   'P 1'
_cell_length_a   14.29536800
_cell_length_b   5.82644000
_cell_length_c   5.08973513
_cell_angle_alpha   90.00000000
_cell_angle_beta   106.35848485
_cell_angle_gamma   90.00000000
_symmetry_Int_Tables_number   1
_chemical_formula_structural   UCu2(PO5)2
_chemical_formula_sum   'U2 Cu4 P4 O20'
_cell_volume   406.76826452
_cell_formula_units_Z   2
loop_
 _symmetry_equiv_pos_site_id
 _symmetry_equiv_pos_as_xyz
  1  'x, y, z'
loop_
 _atom_site_type_symbol
 _atom_site_label
 _atom_site_symmetry_multiplicity
 _atom_site_fract_x
 _atom_site_fract_y
 _atom_site_fract_z
 _atom_site_occupancy
  U  U0  1  0.00000000  0.00000000  0.00000000  1
  U  U1  1  0.50000000  0.50000000  0.00000000  1
  Cu  Cu2  1  0.25000000  0.75000000  0.50000000  1
  Cu  Cu3  1  0.25000000  0.25000000  0.50000000  1
  Cu  Cu4  1  0.75000000  0.25000000  0.50000000  1
  Cu  Cu5  1  0.75000000  0.75000000  0.50000000  1
  P  P6  1  0.14964200  0.50000000  0.92166500  1
  P  P7  1  0.35035800  0.00000000  0.07833500  1
  P  P8  1  0.64964200  0.00000000  0.92166500  1
  P  P9  1  0.85035800  0.50000000  0.07833500  1
  O  O10  1  0.21901400  0.50000000  0.22424800  1
  O  O11  1  0.08837200  0.28163800  0.87269000  1
  O  O12  1  0.28098600  0.00000000  0.77575200  1
  O  O13  1  0.08837200  0.71836200  0.87269000  1
  O  O14  1  0.40995100  0.50000000  0.66335100  1
  O  O15  1  0.09004900  0.00000000  0.33664900  1
  O  O16  1  0.28371600  0.00000000  0.27755100  1
  O  O17  1  0.41162800  0.21836200  0.12731000  1
  O  O18  1  0.41162800  0.78163800  0.12731000  1
  O  O19  1  0.21628400  0.50000000  0.72244900  1
  O  O20  1  0.71901400  0.00000000  0.22424800  1
  O  O21  1  0.58837200  0.78163800  0.87269000  1
  O  O22  1  0.78098600  0.50000000  0.77575200  1
  O  O23  1  0.58837200  0.21836200  0.87269000  1
  O  O24  1  0.90995100  0.00000000  0.66335100  1
  O  O25  1  0.59004900  0.50000000  0.33664900  1
  O  O26  1  0.78371600  0.50000000  0.27755100  1
  O  O27  1  0.91162800  0.71836200  0.12731000  1
  O  O28  1  0.91162800  0.28163800  0.12731000  1
  O  O29  1  0.71628400  0.00000000  0.72244900  1
