# generated using pymatgen
data_BaCaSn3
_symmetry_space_group_name_H-M   'P 1'
_cell_length_a   9.56742000
_cell_length_b   16.10353400
_cell_length_c   17.42365000
_cell_angle_alpha   90.00000000
_cell_angle_beta   90.00000000
_cell_angle_gamma   90.00000000
_symmetry_Int_Tables_number   1
_chemical_formula_structural   BaCaSn3
_chemical_formula_sum   'Ba16 Ca16 Sn48'
_cell_volume   2684.44909308
_cell_formula_units_Z   16
loop_
 _symmetry_equiv_pos_site_id
 _symmetry_equiv_pos_as_xyz
  1  'x, y, z'
loop_
 _atom_site_type_symbol
 _atom_site_label
 _atom_site_symmetry_multiplicity
 _atom_site_fract_x
 _atom_site_fract_y
 _atom_site_fract_z
 _atom_site_occupancy
  Ba  Ba0  1  0.32350000  0.00000000  0.91395800  1
  Ba  Ba1  1  0.50000000  0.21654300  0.50000000  1
  Ba  Ba2  1  0.67650000  0.00000000  0.08604200  1
  Ba  Ba3  1  0.17650000  0.00000000  0.41395800  1
  Ba  Ba4  1  0.50000000  0.78345700  0.50000000  1
  Ba  Ba5  1  0.50000000  0.28345700  0.00000000  1
  Ba  Ba6  1  0.82350000  0.00000000  0.58604200  1
  Ba  Ba7  1  0.50000000  0.71654300  0.00000000  1
  Ba  Ba8  1  0.82350000  0.50000000  0.91395800  1
  Ba  Ba9  1  0.00000000  0.71654300  0.50000000  1
  Ba  Ba10  1  0.17650000  0.50000000  0.08604200  1
  Ba  Ba11  1  0.67650000  0.50000000  0.41395800  1
  Ba  Ba12  1  0.00000000  0.28345700  0.50000000  1
  Ba  Ba13  1  0.00000000  0.78345700  0.00000000  1
  Ba  Ba14  1  0.32350000  0.50000000  0.58604200  1
  Ba  Ba15  1  0.00000000  0.21654300  0.00000000  1
  Ca  Ca16  1  0.50985800  0.63427900  0.22849000  1
  Ca  Ca17  1  0.49014200  0.63427900  0.77151000  1
  Ca  Ca18  1  0.49014200  0.86572100  0.72849000  1
  Ca  Ca19  1  0.50985800  0.86572100  0.27151000  1
  Ca  Ca20  1  0.49014200  0.13427900  0.72849000  1
  Ca  Ca21  1  0.50985800  0.13427900  0.27151000  1
  Ca  Ca22  1  0.50985800  0.36572100  0.22849000  1
  Ca  Ca23  1  0.49014200  0.36572100  0.77151000  1
  Ca  Ca24  1  0.00985800  0.13427900  0.22849000  1
  Ca  Ca25  1  0.99014200  0.13427900  0.77151000  1
  Ca  Ca26  1  0.99014200  0.36572100  0.72849000  1
  Ca  Ca27  1  0.00985800  0.36572100  0.27151000  1
  Ca  Ca28  1  0.99014200  0.63427900  0.72849000  1
  Ca  Ca29  1  0.00985800  0.63427900  0.27151000  1
  Ca  Ca30  1  0.00985800  0.86572100  0.22849000  1
  Ca  Ca31  1  0.99014200  0.86572100  0.77151000  1
  Sn  Sn32  1  0.18480250  0.88160150  0.59190800  1
  Sn  Sn33  1  0.31519750  0.11839850  0.09190800  1
  Sn  Sn34  1  0.43365600  0.00000000  0.58499300  1
  Sn  Sn35  1  0.26463500  0.22339000  0.83637800  1
  Sn  Sn36  1  0.77974600  0.00000000  0.28073900  1
  Sn  Sn37  1  0.76463500  0.22339000  0.66362200  1
  Sn  Sn38  1  0.76463500  0.77661000  0.66362200  1
  Sn  Sn39  1  0.18480250  0.11839850  0.59190800  1
  Sn  Sn40  1  0.23536500  0.77661000  0.33637800  1
  Sn  Sn41  1  0.73536500  0.77661000  0.16362200  1
  Sn  Sn42  1  0.31519750  0.88160150  0.09190800  1
  Sn  Sn43  1  0.72025400  0.00000000  0.78073900  1
  Sn  Sn44  1  0.56634400  0.00000000  0.41500700  1
  Sn  Sn45  1  0.27974600  0.00000000  0.21926100  1
  Sn  Sn46  1  0.68480250  0.88160150  0.90809200  1
  Sn  Sn47  1  0.68480250  0.11839850  0.90809200  1
  Sn  Sn48  1  0.26463500  0.77661000  0.83637800  1
  Sn  Sn49  1  0.06634400  0.00000000  0.08499300  1
  Sn  Sn50  1  0.23536500  0.22339000  0.33637800  1
  Sn  Sn51  1  0.22025400  0.00000000  0.71926100  1
  Sn  Sn52  1  0.81519750  0.88160150  0.40809200  1
  Sn  Sn53  1  0.73536500  0.22339000  0.16362200  1
  Sn  Sn54  1  0.81519750  0.11839850  0.40809200  1
  Sn  Sn55  1  0.93365600  0.00000000  0.91500700  1
  Sn  Sn56  1  0.68480250  0.38160150  0.59190800  1
  Sn  Sn57  1  0.81519750  0.61839850  0.09190800  1
  Sn  Sn58  1  0.93365600  0.50000000  0.58499300  1
  Sn  Sn59  1  0.76463500  0.72339000  0.83637800  1
  Sn  Sn60  1  0.27974600  0.50000000  0.28073900  1
  Sn  Sn61  1  0.26463500  0.72339000  0.66362200  1
  Sn  Sn62  1  0.26463500  0.27661000  0.66362200  1
  Sn  Sn63  1  0.68480250  0.61839850  0.59190800  1
  Sn  Sn64  1  0.73536500  0.27661000  0.33637800  1
  Sn  Sn65  1  0.23536500  0.27661000  0.16362200  1
  Sn  Sn66  1  0.81519750  0.38160150  0.09190800  1
  Sn  Sn67  1  0.22025400  0.50000000  0.78073900  1
  Sn  Sn68  1  0.06634400  0.50000000  0.41500700  1
  Sn  Sn69  1  0.77974600  0.50000000  0.21926100  1
  Sn  Sn70  1  0.18480250  0.38160150  0.90809200  1
  Sn  Sn71  1  0.18480250  0.61839850  0.90809200  1
  Sn  Sn72  1  0.76463500  0.27661000  0.83637800  1
  Sn  Sn73  1  0.56634400  0.50000000  0.08499300  1
  Sn  Sn74  1  0.73536500  0.72339000  0.33637800  1
  Sn  Sn75  1  0.72025400  0.50000000  0.71926100  1
  Sn  Sn76  1  0.31519750  0.38160150  0.40809200  1
  Sn  Sn77  1  0.23536500  0.72339000  0.16362200  1
  Sn  Sn78  1  0.31519750  0.61839850  0.40809200  1
  Sn  Sn79  1  0.43365600  0.50000000  0.91500700  1
