# generated using pymatgen
data_Zn5(BRh2)4
_symmetry_space_group_name_H-M   'P 1'
_cell_length_a   8.51881600
_cell_length_b   17.15734600
_cell_length_c   2.86837300
_cell_angle_alpha   90.00000000
_cell_angle_beta   90.00000000
_cell_angle_gamma   90.00000000
_symmetry_Int_Tables_number   1
_chemical_formula_structural   Zn5(BRh2)4
_chemical_formula_sum   'Zn10 B8 Rh16'
_cell_volume   419.24218253
_cell_formula_units_Z   2
loop_
 _symmetry_equiv_pos_site_id
 _symmetry_equiv_pos_as_xyz
  1  'x, y, z'
loop_
 _atom_site_type_symbol
 _atom_site_label
 _atom_site_symmetry_multiplicity
 _atom_site_fract_x
 _atom_site_fract_y
 _atom_site_fract_z
 _atom_site_occupancy
  Zn  Zn0  1  0.50000000  0.30156900  0.50000000  1
  Zn  Zn1  1  0.00000000  0.19843100  0.50000000  1
  Zn  Zn2  1  0.35358500  0.00000000  0.50000000  1
  Zn  Zn3  1  0.00000000  0.00000000  0.50000000  1
  Zn  Zn4  1  0.64641500  0.00000000  0.50000000  1
  Zn  Zn5  1  0.00000000  0.80156900  0.50000000  1
  Zn  Zn6  1  0.50000000  0.69843100  0.50000000  1
  Zn  Zn7  1  0.85358500  0.50000000  0.50000000  1
  Zn  Zn8  1  0.50000000  0.50000000  0.50000000  1
  Zn  Zn9  1  0.14641500  0.50000000  0.50000000  1
  B  B10  1  0.81121400  0.34486900  0.50000000  1
  B  B11  1  0.31121400  0.15513100  0.50000000  1
  B  B12  1  0.68878600  0.15513100  0.50000000  1
  B  B13  1  0.18878600  0.34486900  0.50000000  1
  B  B14  1  0.31121400  0.84486900  0.50000000  1
  B  B15  1  0.81121400  0.65513100  0.50000000  1
  B  B16  1  0.18878600  0.65513100  0.50000000  1
  B  B17  1  0.68878600  0.84486900  0.50000000  1
  Rh  Rh18  1  0.00000000  0.37639000  0.00000000  1
  Rh  Rh19  1  0.50000000  0.12361000  0.00000000  1
  Rh  Rh20  1  0.32607100  0.40674500  0.00000000  1
  Rh  Rh21  1  0.17392900  0.09325500  0.00000000  1
  Rh  Rh22  1  0.75000000  0.25000000  0.00000000  1
  Rh  Rh23  1  0.67392900  0.40674500  0.00000000  1
  Rh  Rh24  1  0.82607100  0.09325500  0.00000000  1
  Rh  Rh25  1  0.25000000  0.25000000  0.00000000  1
  Rh  Rh26  1  0.50000000  0.87639000  0.00000000  1
  Rh  Rh27  1  0.00000000  0.62361000  0.00000000  1
  Rh  Rh28  1  0.82607100  0.90674500  0.00000000  1
  Rh  Rh29  1  0.67392900  0.59325500  0.00000000  1
  Rh  Rh30  1  0.25000000  0.75000000  0.00000000  1
  Rh  Rh31  1  0.17392900  0.90674500  0.00000000  1
  Rh  Rh32  1  0.32607100  0.59325500  0.00000000  1
  Rh  Rh33  1  0.75000000  0.75000000  0.00000000  1
