# generated using pymatgen
data_LiNiPO4
_symmetry_space_group_name_H-M   'P 1'
_cell_length_a   4.95115424
_cell_length_b   9.93418945
_cell_length_c   8.47367173
_cell_angle_alpha   90.00000000
_cell_angle_beta   124.71014848
_cell_angle_gamma   90.00000000
_symmetry_Int_Tables_number   1
_chemical_formula_structural   LiNiPO4
_chemical_formula_sum   'Li4 Ni4 P4 O16'
_cell_volume   342.61404897
_cell_formula_units_Z   4
loop_
 _symmetry_equiv_pos_site_id
 _symmetry_equiv_pos_as_xyz
  1  'x, y, z'
loop_
 _atom_site_type_symbol
 _atom_site_label
 _atom_site_symmetry_multiplicity
 _atom_site_fract_x
 _atom_site_fract_y
 _atom_site_fract_z
 _atom_site_occupancy
  Li  Li0  1  0.30909950  0.84128000  0.00707150  1
  Li  Li1  1  0.69090050  0.34128000  0.49292850  1
  Li  Li2  1  0.69090050  0.15872000  0.99292850  1
  Li  Li3  1  0.30909950  0.65872000  0.50707150  1
  Ni  Ni4  1  0.20572850  0.35791600  0.99274850  1
  Ni  Ni5  1  0.79427150  0.64208400  0.00725150  1
  Ni  Ni6  1  0.79427150  0.85791600  0.50725150  1
  Ni  Ni7  1  0.20572850  0.14208400  0.49274850  1
  P  P8  1  0.94872850  0.09614600  0.75171850  1
  P  P9  1  0.05127150  0.59614600  0.74828150  1
  P  P10  1  0.94872850  0.40385400  0.25171850  1
  P  P11  1  0.05127150  0.90385400  0.24828150  1
  O  O12  1  0.87889450  0.14970200  0.55781750  1
  O  O13  1  0.12110550  0.64970200  0.94218250  1
  O  O14  1  0.12110550  0.85029800  0.44218250  1
  O  O15  1  0.87889450  0.35029800  0.05781750  1
  O  O16  1  0.36720150  0.87884200  0.25389550  1
  O  O17  1  0.63279850  0.37884200  0.24610450  1
  O  O18  1  0.36720150  0.62115800  0.75389550  1
  O  O19  1  0.63279850  0.12115800  0.74610450  1
  O  O20  1  0.76026950  0.66978200  0.57274850  1
  O  O21  1  0.23973050  0.33021800  0.42725150  1
  O  O22  1  0.76026950  0.83021800  0.07274850  1
  O  O23  1  0.23973050  0.16978200  0.92725150  1
  O  O24  1  0.97199350  0.05658300  0.23347250  1
  O  O25  1  0.97199350  0.44341700  0.73347250  1
  O  O26  1  0.02800650  0.55658300  0.26652750  1
  O  O27  1  0.02800650  0.94341700  0.76652750  1
