# generated using pymatgen
data_NaZr2FeF11
_symmetry_space_group_name_H-M   'P 1'
_cell_length_a   9.28453600
_cell_length_b   6.87715000
_cell_length_c   7.93713489
_cell_angle_alpha   90.00000000
_cell_angle_beta   116.32393520
_cell_angle_gamma   90.00000000
_symmetry_Int_Tables_number   1
_chemical_formula_structural   NaZr2FeF11
_chemical_formula_sum   'Na2 Zr4 Fe2 F22'
_cell_volume   454.24114447
_cell_formula_units_Z   2
loop_
 _symmetry_equiv_pos_site_id
 _symmetry_equiv_pos_as_xyz
  1  'x, y, z'
loop_
 _atom_site_type_symbol
 _atom_site_label
 _atom_site_symmetry_multiplicity
 _atom_site_fract_x
 _atom_site_fract_y
 _atom_site_fract_z
 _atom_site_occupancy
  Na  Na0  1  0.00000000  0.00000000  0.00000000  1
  Na  Na1  1  0.50000000  0.50000000  0.00000000  1
  Zr  Zr2  1  0.00456700  0.50000000  0.23497000  1
  Zr  Zr3  1  0.99543300  0.50000000  0.76503000  1
  Zr  Zr4  1  0.50456700  0.00000000  0.23497000  1
  Zr  Zr5  1  0.49543300  0.00000000  0.76503000  1
  Fe  Fe6  1  0.00000000  0.00000000  0.50000000  1
  Fe  Fe7  1  0.50000000  0.50000000  0.50000000  1
  F  F8  1  0.01477600  0.79173200  0.30837000  1
  F  F9  1  0.98522400  0.79173200  0.69163000  1
  F  F10  1  0.98522400  0.20826800  0.69163000  1
  F  F11  1  0.01477600  0.20826800  0.30837000  1
  F  F12  1  0.00000000  0.50000000  0.50000000  1
  F  F13  1  0.00000000  0.33022500  0.00000000  1
  F  F14  1  0.00000000  0.66977500  0.00000000  1
  F  F15  1  0.74688200  0.50000000  0.64771500  1
  F  F16  1  0.25311800  0.50000000  0.35228500  1
  F  F17  1  0.76647800  0.50000000  0.10894600  1
  F  F18  1  0.23352200  0.50000000  0.89105400  1
  F  F19  1  0.51477600  0.29173200  0.30837000  1
  F  F20  1  0.48522400  0.29173200  0.69163000  1
  F  F21  1  0.48522400  0.70826800  0.69163000  1
  F  F22  1  0.51477600  0.70826800  0.30837000  1
  F  F23  1  0.50000000  0.00000000  0.50000000  1
  F  F24  1  0.50000000  0.83022500  0.00000000  1
  F  F25  1  0.50000000  0.16977500  0.00000000  1
  F  F26  1  0.24688200  0.00000000  0.64771500  1
  F  F27  1  0.75311800  0.00000000  0.35228500  1
  F  F28  1  0.26647800  0.00000000  0.10894600  1
  F  F29  1  0.73352200  0.00000000  0.89105400  1
