# generated using pymatgen
data_TlFeO3
_symmetry_space_group_name_H-M   'P 1'
_cell_length_a   5.40263203
_cell_length_b   5.54573300
_cell_length_c   7.92921104
_cell_angle_alpha   90.00000000
_cell_angle_beta   90.00000000
_cell_angle_gamma   90.00000000
_symmetry_Int_Tables_number   1
_chemical_formula_structural   TlFeO3
_chemical_formula_sum   'Tl4 Fe4 O12'
_cell_volume   237.57149073
_cell_formula_units_Z   4
loop_
 _symmetry_equiv_pos_site_id
 _symmetry_equiv_pos_as_xyz
  1  'x, y, z'
loop_
 _atom_site_type_symbol
 _atom_site_label
 _atom_site_symmetry_multiplicity
 _atom_site_fract_x
 _atom_site_fract_y
 _atom_site_fract_z
 _atom_site_occupancy
  Tl  Tl0  1  0.48236700  0.54984600  0.75000000  1
  Tl  Tl1  1  0.98236700  0.95015400  0.25000000  1
  Tl  Tl2  1  0.01763300  0.04984600  0.75000000  1
  Tl  Tl3  1  0.51763300  0.45015400  0.25000000  1
  Fe  Fe4  1  0.50000000  0.00000000  0.50000000  1
  Fe  Fe5  1  0.00000000  0.50000000  0.00000000  1
  Fe  Fe6  1  0.00000000  0.50000000  0.50000000  1
  Fe  Fe7  1  0.50000000  0.00000000  0.00000000  1
  O  O8  1  0.61213000  0.94689400  0.75000000  1
  O  O9  1  0.11213000  0.55310600  0.25000000  1
  O  O10  1  0.88787000  0.44689400  0.75000000  1
  O  O11  1  0.38787000  0.05310600  0.25000000  1
  O  O12  1  0.19735500  0.79979700  0.56059600  1
  O  O13  1  0.69735500  0.70020300  0.43940400  1
  O  O14  1  0.30264500  0.29979700  0.93940400  1
  O  O15  1  0.80264500  0.20020300  0.06059600  1
  O  O16  1  0.80264500  0.20020300  0.43940400  1
  O  O17  1  0.30264500  0.29979700  0.56059600  1
  O  O18  1  0.69735500  0.70020300  0.06059600  1
  O  O19  1  0.19735500  0.79979700  0.93940400  1
