# generated using pymatgen
data_TlCr3S5
_symmetry_space_group_name_H-M   'P 1'
_cell_length_a   19.51355000
_cell_length_b   3.51075400
_cell_length_c   12.09023532
_cell_angle_alpha   90.00000000
_cell_angle_beta   122.18458023
_cell_angle_gamma   90.00000000
_symmetry_Int_Tables_number   1
_chemical_formula_structural   TlCr3S5
_chemical_formula_sum   'Tl4 Cr12 S20'
_cell_volume   700.99437564
_cell_formula_units_Z   4
loop_
 _symmetry_equiv_pos_site_id
 _symmetry_equiv_pos_as_xyz
  1  'x, y, z'
loop_
 _atom_site_type_symbol
 _atom_site_label
 _atom_site_symmetry_multiplicity
 _atom_site_fract_x
 _atom_site_fract_y
 _atom_site_fract_z
 _atom_site_occupancy
  Tl  Tl0  1  0.23867200  0.50000000  0.82573600  1
  Tl  Tl1  1  0.76132800  0.50000000  0.17426400  1
  Tl  Tl2  1  0.73867200  0.00000000  0.82573600  1
  Tl  Tl3  1  0.26132800  0.00000000  0.17426400  1
  Cr  Cr4  1  0.00000000  0.50000000  0.00000000  1
  Cr  Cr5  1  0.00000000  0.50000000  0.50000000  1
  Cr  Cr6  1  0.83556400  0.00000000  0.61188200  1
  Cr  Cr7  1  0.16443600  0.00000000  0.38811800  1
  Cr  Cr8  1  0.01648600  0.00000000  0.77258300  1
  Cr  Cr9  1  0.98351400  0.00000000  0.22741700  1
  Cr  Cr10  1  0.50000000  0.00000000  0.00000000  1
  Cr  Cr11  1  0.50000000  0.00000000  0.50000000  1
  Cr  Cr12  1  0.33556400  0.50000000  0.61188200  1
  Cr  Cr13  1  0.66443600  0.50000000  0.38811800  1
  Cr  Cr14  1  0.51648600  0.50000000  0.77258300  1
  Cr  Cr15  1  0.48351400  0.50000000  0.22741700  1
  S  S16  1  0.42405100  0.50000000  0.84877600  1
  S  S17  1  0.57594900  0.50000000  0.15122400  1
  S  S18  1  0.08971600  0.50000000  0.91733400  1
  S  S19  1  0.91028400  0.50000000  0.08266600  1
  S  S20  1  0.92408300  0.50000000  0.60745100  1
  S  S21  1  0.07591700  0.50000000  0.39254900  1
  S  S22  1  0.25565400  0.00000000  0.61778300  1
  S  S23  1  0.74434600  0.00000000  0.38221700  1
  S  S24  1  0.07999100  0.00000000  0.65190700  1
  S  S25  1  0.92000900  0.00000000  0.34809300  1
  S  S26  1  0.92405100  0.00000000  0.84877600  1
  S  S27  1  0.07594900  0.00000000  0.15122400  1
  S  S28  1  0.58971600  0.00000000  0.91733400  1
  S  S29  1  0.41028400  0.00000000  0.08266600  1
  S  S30  1  0.42408300  0.00000000  0.60745100  1
  S  S31  1  0.57591700  0.00000000  0.39254900  1
  S  S32  1  0.75565400  0.50000000  0.61778300  1
  S  S33  1  0.24434600  0.50000000  0.38221700  1
  S  S34  1  0.57999100  0.50000000  0.65190700  1
  S  S35  1  0.42000900  0.50000000  0.34809300  1
