# generated using pymatgen
data_CrCdF6
_symmetry_space_group_name_H-M   'P 1'
_cell_length_a   5.30591841
_cell_length_b   5.30591841
_cell_length_c   14.33371504
_cell_angle_alpha   90.00000000
_cell_angle_beta   90.00000000
_cell_angle_gamma   120.00000000
_symmetry_Int_Tables_number   1
_chemical_formula_structural   CrCdF6
_chemical_formula_sum   'Cr3 Cd3 F18'
_cell_volume   349.47050922
_cell_formula_units_Z   3
loop_
 _symmetry_equiv_pos_site_id
 _symmetry_equiv_pos_as_xyz
  1  'x, y, z'
loop_
 _atom_site_type_symbol
 _atom_site_label
 _atom_site_symmetry_multiplicity
 _atom_site_fract_x
 _atom_site_fract_y
 _atom_site_fract_z
 _atom_site_occupancy
  Cr  Cr0  1  0.00000000  0.00000000  0.00000000  1
  Cr  Cr1  1  0.66666667  0.33333333  0.33333333  1
  Cr  Cr2  1  0.33333333  0.66666667  0.66666667  1
  Cd  Cd3  1  0.33333333  0.66666667  0.16666667  1
  Cd  Cd4  1  1.00000000  0.00000000  0.50000000  1
  Cd  Cd5  1  0.66666667  0.33333333  0.83333333  1
  F  F6  1  0.38886267  0.04015533  0.25787933  1
  F  F7  1  0.65129267  0.61113733  0.25787933  1
  F  F8  1  0.70682200  0.98462600  0.07545400  1
  F  F9  1  0.01537400  0.72219600  0.07545400  1
  F  F10  1  0.27780400  0.29317800  0.07545400  1
  F  F11  1  0.95984467  0.34870733  0.25787933  1
  F  F12  1  0.05552933  0.37348867  0.59121267  1
  F  F13  1  0.31795933  0.94447067  0.59121267  1
  F  F14  1  0.37348867  0.31795933  0.40878733  1
  F  F15  1  0.68204067  0.05552933  0.40878733  1
  F  F16  1  0.94447067  0.62651133  0.40878733  1
  F  F17  1  0.62651133  0.68204067  0.59121267  1
  F  F18  1  0.72219600  0.70682200  0.92454600  1
  F  F19  1  0.98462600  0.27780400  0.92454600  1
  F  F20  1  0.04015533  0.65129267  0.74212067  1
  F  F21  1  0.34870733  0.38886267  0.74212067  1
  F  F22  1  0.61113733  0.95984467  0.74212067  1
  F  F23  1  0.29317800  0.01537400  0.92454600  1
