# generated using pymatgen
data_Sr9YbV7O28
_symmetry_space_group_name_H-M   'P 1'
_cell_length_a   11.36322620
_cell_length_b   11.36322620
_cell_length_c   40.31494404
_cell_angle_alpha   90.00000000
_cell_angle_beta   90.00000000
_cell_angle_gamma   120.00000000
_symmetry_Int_Tables_number   1
_chemical_formula_structural   Sr9YbV7O28
_chemical_formula_sum   'Sr54 Yb6 V42 O168'
_cell_volume   4508.16701237
_cell_formula_units_Z   6
loop_
 _symmetry_equiv_pos_site_id
 _symmetry_equiv_pos_as_xyz
  1  'x, y, z'
loop_
 _atom_site_type_symbol
 _atom_site_label
 _atom_site_symmetry_multiplicity
 _atom_site_fract_x
 _atom_site_fract_y
 _atom_site_fract_z
 _atom_site_occupancy
  Sr  Sr0  1  0.14686667  0.27596233  0.32593933  1
  Sr  Sr1  1  0.87139700  0.71591500  0.06518400  1
  Sr  Sr2  1  0.05652733  0.53265467  0.09943767  1
  Sr  Sr3  1  0.80067867  0.61013933  0.26610433  1
  Sr  Sr4  1  0.46734533  0.52387267  0.09943767  1
  Sr  Sr5  1  0.72403767  0.87090433  0.32593933  1
  Sr  Sr6  1  0.38986067  0.19053933  0.26610433  1
  Sr  Sr7  1  0.61741833  0.79526967  0.23185067  1
  Sr  Sr8  1  0.80946067  0.19932133  0.26610433  1
  Sr  Sr9  1  0.79576233  0.60929567  0.15927267  1
  Sr  Sr10  1  0.84451800  0.12860300  0.06518400  1
  Sr  Sr11  1  0.39070433  0.18646667  0.15927267  1
  Sr  Sr12  1  0.20473033  0.82214867  0.23185067  1
  Sr  Sr13  1  0.81353333  0.20423767  0.15927267  1
  Sr  Sr14  1  0.12909567  0.85313333  0.32593933  1
  Sr  Sr15  1  0.17785133  0.38258167  0.23185067  1
  Sr  Sr16  1  0.47612733  0.94347267  0.09943767  1
  Sr  Sr17  1  0.28408500  0.15548200  0.06518400  1
  Sr  Sr18  1  0.81353333  0.60929567  0.65927267  1
  Sr  Sr19  1  0.53806367  0.04924833  0.39851733  1
  Sr  Sr20  1  0.72319400  0.86598800  0.43277100  1
  Sr  Sr21  1  0.46734533  0.94347267  0.59943767  1
  Sr  Sr22  1  0.13401200  0.85720600  0.43277100  1
  Sr  Sr23  1  0.39070433  0.20423767  0.65927267  1
  Sr  Sr24  1  0.05652733  0.52387267  0.59943767  1
  Sr  Sr25  1  0.28408500  0.12860300  0.56518400  1
  Sr  Sr26  1  0.47612733  0.53265467  0.59943767  1
  Sr  Sr27  1  0.46242900  0.94262900  0.49260600  1
  Sr  Sr28  1  0.51118467  0.46193633  0.39851733  1
  Sr  Sr29  1  0.05737100  0.51980000  0.49260600  1
  Sr  Sr30  1  0.87139700  0.15548200  0.56518400  1
  Sr  Sr31  1  0.48020000  0.53757100  0.49260600  1
  Sr  Sr32  1  0.79576233  0.18646667  0.65927267  1
  Sr  Sr33  1  0.84451800  0.71591500  0.56518400  1
  Sr  Sr34  1  0.14279400  0.27680600  0.43277100  1
  Sr  Sr35  1  0.95075167  0.48881533  0.39851733  1
  Sr  Sr36  1  0.48020000  0.94262900  0.99260600  1
  Sr  Sr37  1  0.20473033  0.38258167  0.73185067  1
  Sr  Sr38  1  0.38986067  0.19932133  0.76610433  1
  Sr  Sr39  1  0.13401200  0.27680600  0.93277100  1
  Sr  Sr40  1  0.80067867  0.19053933  0.76610433  1
  Sr  Sr41  1  0.05737100  0.53757100  0.99260600  1
  Sr  Sr42  1  0.72319400  0.85720600  0.93277100  1
  Sr  Sr43  1  0.95075167  0.46193633  0.89851733  1
  Sr  Sr44  1  0.14279400  0.86598800  0.93277100  1
  Sr  Sr45  1  0.12909567  0.27596233  0.82593933  1
  Sr  Sr46  1  0.17785133  0.79526967  0.73185067  1
  Sr  Sr47  1  0.72403767  0.85313333  0.82593933  1
  Sr  Sr48  1  0.53806367  0.48881533  0.89851733  1
  Sr  Sr49  1  0.14686667  0.87090433  0.82593933  1
  Sr  Sr50  1  0.46242900  0.51980000  0.99260600  1
  Sr  Sr51  1  0.51118467  0.04924833  0.89851733  1
  Sr  Sr52  1  0.80946067  0.61013933  0.76610433  1
  Sr  Sr53  1  0.61741833  0.82214867  0.73185067  1
  Yb  Yb54  1  0.66666667  0.33333333  0.33324333  1
  Yb  Yb55  1  0.33333333  0.66666667  0.16657667  1
  Yb  Yb56  1  0.33333333  0.66666667  0.66657667  1
  Yb  Yb57  1  0.00000000  0.00000000  0.49991000  1
  Yb  Yb58  1  0.00000000  0.00000000  0.99991000  1
  Yb  Yb59  1  0.66666667  0.33333333  0.83324333  1
  V  V60  1  0.50651567  0.98155133  0.30113833  1
  V  V61  1  0.98860467  0.50988933  0.19877633  1
  V  V62  1  0.01844867  0.52496433  0.30113833  1
  V  V63  1  0.18795133  0.84322267  0.03210967  1
  V  V64  1  0.49011067  0.47871533  0.19877633  1
  V  V65  1  0.47503567  0.49348433  0.30113833  1
  V  V66  1  0.14170233  0.31488467  0.13447167  1
  V  V67  1  0.68511533  0.82681767  0.13447167  1
  V  V68  1  0.15677733  0.34472867  0.03210967  1
  V  V69  1  0.52128467  0.01139533  0.19877633  1
  V  V70  1  0.17318233  0.85829767  0.13447167  1
  V  V71  1  0.65527133  0.81204867  0.03210967  1
  V  V72  1  0.00000000  0.00000000  0.27059000  1
  V  V73  1  0.66666667  0.33333333  0.10392333  1
  V  V74  1  0.17318233  0.31488467  0.63447167  1
  V  V75  1  0.65527133  0.84322267  0.53210967  1
  V  V76  1  0.68511533  0.85829767  0.63447167  1
  V  V77  1  0.85461800  0.17655600  0.36544300  1
  V  V78  1  0.15677733  0.81204867  0.53210967  1
  V  V79  1  0.14170233  0.82681767  0.63447167  1
  V  V80  1  0.80836900  0.64821800  0.46780500  1
  V  V81  1  0.35178200  0.16015100  0.46780500  1
  V  V82  1  0.82344400  0.67806200  0.36544300  1
  V  V83  1  0.18795133  0.34472867  0.53210967  1
  V  V84  1  0.83984900  0.19163100  0.46780500  1
  V  V85  1  0.32193800  0.14538200  0.36544300  1
  V  V86  1  0.66666667  0.33333333  0.60392333  1
  V  V87  1  0.33333333  0.66666667  0.43725667  1
  V  V88  1  0.83984900  0.64821800  0.96780500  1
  V  V89  1  0.32193800  0.17655600  0.86544300  1
  V  V90  1  0.35178200  0.19163100  0.96780500  1
  V  V91  1  0.52128467  0.50988933  0.69877633  1
  V  V92  1  0.82344400  0.14538200  0.86544300  1
  V  V93  1  0.80836900  0.16015100  0.96780500  1
  V  V94  1  0.47503567  0.98155133  0.80113833  1
  V  V95  1  0.01844867  0.49348433  0.80113833  1
  V  V96  1  0.49011067  0.01139533  0.69877633  1
  V  V97  1  0.85461800  0.67806200  0.86544300  1
  V  V98  1  0.50651567  0.52496433  0.80113833  1
  V  V99  1  0.98860467  0.47871533  0.69877633  1
  V  V100  1  0.33333333  0.66666667  0.93725667  1
  V  V101  1  0.00000000  0.00000000  0.77059000  1
  O  O102  1  0.32605900  0.38471800  0.27922400  1
  O  O103  1  0.85087033  0.61006367  0.00853367  1
  O  O104  1  0.09161067  0.43104133  0.28716033  1
  O  O105  1  0.80592667  0.48857733  0.09227233  1
  O  O106  1  0.99272567  0.27467433  0.11255733  1
  O  O107  1  0.72532567  0.71805133  0.11255733  1
  O  O108  1  0.68265067  0.19407333  0.09227233  1
  O  O109  1  0.38993633  0.24080667  0.00853367  1
  O  O110  1  0.42745633  0.83681367  0.20609767  1
  O  O111  1  0.61528200  0.94134100  0.27922400  1
  O  O112  1  0.07602400  0.17014700  0.03943100  1
  O  O113  1  0.04872967  0.40247833  0.04552633  1
  O  O114  1  0.86386267  0.14844633  0.32349133  1
  O  O115  1  0.85155367  0.71541633  0.32349133  1
  O  O116  1  0.01598400  0.15524400  0.25893900  1
  O  O117  1  0.40935733  0.57254367  0.20609767  1
  O  O118  1  0.09252667  0.27673033  0.17520033  1
  O  O119  1  0.95125033  0.48177967  0.15682467  1
  O  O120  1  0.28194867  0.00727433  0.11255733  1
  O  O121  1  0.16318633  0.59064267  0.20609767  1
  O  O122  1  0.57859467  0.42038333  0.29535433  1
  O  O123  1  0.31498833  0.41816167  0.05096767  1
  O  O124  1  0.64832167  0.56349333  0.21763433  1
  O  O125  1  0.53052933  0.04874967  0.15682467  1
  O  O126  1  0.72326967  0.81579633  0.17520033  1
  O  O127  1  0.13926000  0.98401600  0.25893900  1
  O  O128  1  0.66666667  0.33333333  0.14734333  1
  O  O129  1  0.51822033  0.46947067  0.15682467  1
  O  O130  1  0.82985300  0.90587700  0.03943100  1
  O  O131  1  0.91517167  0.35167833  0.21763433  1
  O  O132  1  0.75827733  0.99390267  0.12049367  1
  O  O133  1  0.43650667  0.08482833  0.21763433  1
  O  O134  1  0.84178867  0.42140533  0.29535433  1
  O  O135  1  0.33943067  0.90838933  0.28716033  1
  O  O136  1  0.75919333  0.14912967  0.00853367  1
  O  O137  1  0.09412300  0.92397600  0.03943100  1
  O  O138  1  0.24526133  0.49154467  0.12868767  1
  O  O139  1  0.35374867  0.95127033  0.04552633  1
  O  O140  1  0.28458367  0.13613733  0.32349133  1
  O  O141  1  0.68708200  0.06914500  0.21219300  1
  O  O142  1  0.24628333  0.75473867  0.12868767  1
  O  O143  1  0.23562533  0.24172267  0.12049367  1
  O  O144  1  0.56895867  0.66056933  0.28716033  1
  O  O145  1  0.00000000  0.00000000  0.31401000  1
  O  O146  1  0.50845533  0.75371667  0.12868767  1
  O  O147  1  0.84475600  0.86074000  0.25893900  1
  O  O148  1  0.59752167  0.64625133  0.04552633  1
  O  O149  1  0.10317333  0.68501167  0.05096767  1
  O  O150  1  0.57961667  0.15821133  0.29535433  1
  O  O151  1  0.18420367  0.90747333  0.17520033  1
  O  O152  1  0.58183833  0.89682667  0.05096767  1
  O  O153  1  0.93085500  0.61793700  0.21219300  1
  O  O154  1  0.05865900  0.67394100  0.27922400  1
  O  O155  1  0.51142267  0.31734933  0.09227233  1
  O  O156  1  0.38206300  0.31291800  0.21219300  1
  O  O157  1  0.00609733  0.76437467  0.12049367  1
  O  O158  1  0.99272567  0.71805133  0.61255733  1
  O  O159  1  0.51753700  0.94339700  0.34186700  1
  O  O160  1  0.75827733  0.76437467  0.62049367  1
  O  O161  1  0.47259333  0.82191067  0.42560567  1
  O  O162  1  0.65939233  0.60800767  0.44589067  1
  O  O163  1  0.39199233  0.05138467  0.44589067  1
  O  O164  1  0.34931733  0.52740667  0.42560567  1
  O  O165  1  0.05660300  0.57414000  0.34186700  1
  O  O166  1  0.09412300  0.17014700  0.53943100  1
  O  O167  1  0.28194867  0.27467433  0.61255733  1
  O  O168  1  0.74269067  0.50348033  0.37276433  1
  O  O169  1  0.71539633  0.73581167  0.37885967  1
  O  O170  1  0.53052933  0.48177967  0.65682467  1
  O  O171  1  0.51822033  0.04874967  0.65682467  1
  O  O172  1  0.68265067  0.48857733  0.59227233  1
  O  O173  1  0.07602400  0.90587700  0.53943100  1
  O  O174  1  0.75919333  0.61006367  0.50853367  1
  O  O175  1  0.61791700  0.81511300  0.49015800  1
  O  O176  1  0.94861533  0.34060767  0.44589067  1
  O  O177  1  0.82985300  0.92397600  0.53943100  1
  O  O178  1  0.24526133  0.75371667  0.62868767  1
  O  O179  1  0.98165500  0.75149500  0.38430100  1
  O  O180  1  0.31498833  0.89682667  0.55096767  1
  O  O181  1  0.19719600  0.38208300  0.49015800  1
  O  O182  1  0.38993633  0.14912967  0.50853367  1
  O  O183  1  0.80592667  0.31734933  0.59227233  1
  O  O184  1  0.33333333  0.66666667  0.48067667  1
  O  O185  1  0.18488700  0.80280400  0.49015800  1
  O  O186  1  0.49651967  0.23921033  0.37276433  1
  O  O187  1  0.58183833  0.68501167  0.55096767  1
  O  O188  1  0.42494400  0.32723600  0.45382700  1
  O  O189  1  0.10317333  0.41816167  0.55096767  1
  O  O190  1  0.50845533  0.75473867  0.62868767  1
  O  O191  1  0.00609733  0.24172267  0.62049367  1
  O  O192  1  0.42586000  0.48246300  0.34186700  1
  O  O193  1  0.76078967  0.25730933  0.37276433  1
  O  O194  1  0.91192800  0.82487800  0.46202100  1
  O  O195  1  0.02041533  0.28460367  0.37885967  1
  O  O196  1  0.95125033  0.46947067  0.65682467  1
  O  O197  1  0.35374867  0.40247833  0.54552633  1
  O  O198  1  0.91295000  0.08807200  0.46202100  1
  O  O199  1  0.90229200  0.57505600  0.45382700  1
  O  O200  1  0.23562533  0.99390267  0.62049367  1
  O  O201  1  0.66666667  0.33333333  0.64734333  1
  O  O202  1  0.17512200  0.08705000  0.46202100  1
  O  O203  1  0.51142267  0.19407333  0.59227233  1
  O  O204  1  0.26418833  0.97958467  0.37885967  1
  O  O205  1  0.76984000  0.01834500  0.38430100  1
  O  O206  1  0.24628333  0.49154467  0.62868767  1
  O  O207  1  0.85087033  0.24080667  0.50853367  1
  O  O208  1  0.24850500  0.23016000  0.38430100  1
  O  O209  1  0.59752167  0.95127033  0.54552633  1
  O  O210  1  0.72532567  0.00727433  0.61255733  1
  O  O211  1  0.17808933  0.65068267  0.42560567  1
  O  O212  1  0.04872967  0.64625133  0.54552633  1
  O  O213  1  0.67276400  0.09770800  0.45382700  1
  O  O214  1  0.65939233  0.05138467  0.94589067  1
  O  O215  1  0.18420367  0.27673033  0.67520033  1
  O  O216  1  0.42494400  0.09770800  0.95382700  1
  O  O217  1  0.13926000  0.15524400  0.75893900  1
  O  O218  1  0.32605900  0.94134100  0.77922400  1
  O  O219  1  0.05865900  0.38471800  0.77922400  1
  O  O220  1  0.01598400  0.86074000  0.75893900  1
  O  O221  1  0.72326967  0.90747333  0.67520033  1
  O  O222  1  0.76078967  0.50348033  0.87276433  1
  O  O223  1  0.94861533  0.60800767  0.94589067  1
  O  O224  1  0.40935733  0.83681367  0.70609767  1
  O  O225  1  0.38206300  0.06914500  0.71219300  1
  O  O226  1  0.19719600  0.81511300  0.99015800  1
  O  O227  1  0.18488700  0.38208300  0.99015800  1
  O  O228  1  0.34931733  0.82191067  0.92560567  1
  O  O229  1  0.74269067  0.23921033  0.87276433  1
  O  O230  1  0.42586000  0.94339700  0.84186700  1
  O  O231  1  0.28458367  0.14844633  0.82349133  1
  O  O232  1  0.61528200  0.67394100  0.77922400  1
  O  O233  1  0.49651967  0.25730933  0.87276433  1
  O  O234  1  0.91192800  0.08705000  0.96202100  1
  O  O235  1  0.64832167  0.08482833  0.71763433  1
  O  O236  1  0.98165500  0.23016000  0.88430100  1
  O  O237  1  0.86386267  0.71541633  0.82349133  1
  O  O238  1  0.05660300  0.48246300  0.84186700  1
  O  O239  1  0.47259333  0.65068267  0.92560567  1
  O  O240  1  0.00000000  0.00000000  0.81401000  1
  O  O241  1  0.85155367  0.13613733  0.82349133  1
  O  O242  1  0.16318633  0.57254367  0.70609767  1
  O  O243  1  0.24850500  0.01834500  0.88430100  1
  O  O244  1  0.09161067  0.66056933  0.78716033  1
  O  O245  1  0.76984000  0.75149500  0.88430100  1
  O  O246  1  0.17512200  0.08807200  0.96202100  1
  O  O247  1  0.67276400  0.57505600  0.95382700  1
  O  O248  1  0.09252667  0.81579633  0.67520033  1
  O  O249  1  0.42745633  0.59064267  0.70609767  1
  O  O250  1  0.57859467  0.15821133  0.79535433  1
  O  O251  1  0.68708200  0.61793700  0.71219300  1
  O  O252  1  0.61791700  0.80280400  0.99015800  1
  O  O253  1  0.02041533  0.73581167  0.87885967  1
  O  O254  1  0.57961667  0.42140533  0.79535433  1
  O  O255  1  0.56895867  0.90838933  0.78716033  1
  O  O256  1  0.90229200  0.32723600  0.95382700  1
  O  O257  1  0.33333333  0.66666667  0.98067667  1
  O  O258  1  0.84178867  0.42038333  0.79535433  1
  O  O259  1  0.17808933  0.52740667  0.92560567  1
  O  O260  1  0.93085500  0.31291800  0.71219300  1
  O  O261  1  0.43650667  0.35167833  0.71763433  1
  O  O262  1  0.91295000  0.82487800  0.96202100  1
  O  O263  1  0.51753700  0.57414000  0.84186700  1
  O  O264  1  0.91517167  0.56349333  0.71763433  1
  O  O265  1  0.26418833  0.28460367  0.87885967  1
  O  O266  1  0.39199233  0.34060767  0.94589067  1
  O  O267  1  0.84475600  0.98401600  0.75893900  1
  O  O268  1  0.71539633  0.97958467  0.87885967  1
  O  O269  1  0.33943067  0.43104133  0.78716033  1
