# generated using pymatgen
data_LiV(PO4)2
_symmetry_space_group_name_H-M   'P 1'
_cell_length_a   8.85998200
_cell_length_b   4.69267800
_cell_length_c   13.92556776
_cell_angle_alpha   90.00000000
_cell_angle_beta   95.98881259
_cell_angle_gamma   90.00000000
_symmetry_Int_Tables_number   1
_chemical_formula_structural   LiV(PO4)2
_chemical_formula_sum   'Li4 V4 P8 O32'
_cell_volume   575.82399574
_cell_formula_units_Z   4
loop_
 _symmetry_equiv_pos_site_id
 _symmetry_equiv_pos_as_xyz
  1  'x, y, z'
loop_
 _atom_site_type_symbol
 _atom_site_label
 _atom_site_symmetry_multiplicity
 _atom_site_fract_x
 _atom_site_fract_y
 _atom_site_fract_z
 _atom_site_occupancy
  Li  Li0  1  0.00000000  0.06909900  0.25000000  1
  Li  Li1  1  0.00000000  0.93090100  0.75000000  1
  Li  Li2  1  0.50000000  0.56909900  0.25000000  1
  Li  Li3  1  0.50000000  0.43090100  0.75000000  1
  V  V4  1  0.00000000  0.00000000  0.50000000  1
  V  V5  1  0.00000000  0.00000000  0.00000000  1
  V  V6  1  0.50000000  0.50000000  0.50000000  1
  V  V7  1  0.50000000  0.50000000  0.00000000  1
  P  P8  1  0.65873350  0.98002450  0.88384000  1
  P  P9  1  0.65873350  0.01997550  0.38384000  1
  P  P10  1  0.84126650  0.48002450  0.61616000  1
  P  P11  1  0.84126650  0.51997550  0.11616000  1
  P  P12  1  0.15873350  0.48002450  0.88384000  1
  P  P13  1  0.15873350  0.51997550  0.38384000  1
  P  P14  1  0.34126650  0.98002450  0.61616000  1
  P  P15  1  0.34126650  0.01997550  0.11616000  1
  O  O16  1  0.60030900  0.18185100  0.96273600  1
  O  O17  1  0.60030900  0.81814900  0.46273600  1
  O  O18  1  0.65443500  0.87231000  0.28903200  1
  O  O19  1  0.82434400  0.88586800  0.92363900  1
  O  O20  1  0.82434400  0.11413200  0.42363900  1
  O  O21  1  0.65443500  0.12769000  0.78903200  1
  O  O22  1  0.56026400  0.70267800  0.88448500  1
  O  O23  1  0.93973600  0.20267800  0.61551500  1
  O  O24  1  0.56026400  0.29732200  0.38448500  1
  O  O25  1  0.89969100  0.31814900  0.03726400  1
  O  O26  1  0.93973600  0.79732200  0.11551500  1
  O  O27  1  0.67565600  0.38586800  0.57636100  1
  O  O28  1  0.67565600  0.61413200  0.07636100  1
  O  O29  1  0.84556500  0.62769000  0.71096800  1
  O  O30  1  0.89969100  0.68185100  0.53726400  1
  O  O31  1  0.84556500  0.37231000  0.21096800  1
  O  O32  1  0.10030900  0.68185100  0.96273600  1
  O  O33  1  0.10030900  0.31814900  0.46273600  1
  O  O34  1  0.15443500  0.37231000  0.28903200  1
  O  O35  1  0.32434400  0.38586800  0.92363900  1
  O  O36  1  0.32434400  0.61413200  0.42363900  1
  O  O37  1  0.15443500  0.62769000  0.78903200  1
  O  O38  1  0.06026400  0.20267800  0.88448500  1
  O  O39  1  0.43973600  0.70267800  0.61551500  1
  O  O40  1  0.06026400  0.79732200  0.38448500  1
  O  O41  1  0.39969100  0.81814900  0.03726400  1
  O  O42  1  0.43973600  0.29732200  0.11551500  1
  O  O43  1  0.17565600  0.88586800  0.57636100  1
  O  O44  1  0.17565600  0.11413200  0.07636100  1
  O  O45  1  0.34556500  0.12769000  0.71096800  1
  O  O46  1  0.39969100  0.18185100  0.53726400  1
  O  O47  1  0.34556500  0.87231000  0.21096800  1
