# generated using pymatgen
data_LiV(PO3)4
_symmetry_space_group_name_H-M   'P 1'
_cell_length_a   8.10565200
_cell_length_b   11.45802400
_cell_length_c   9.66947791
_cell_angle_alpha   90.00000000
_cell_angle_beta   92.02355083
_cell_angle_gamma   90.00000000
_symmetry_Int_Tables_number   1
_chemical_formula_structural   LiV(PO3)4
_chemical_formula_sum   'Li4 V4 P16 O48'
_cell_volume   897.49036692
_cell_formula_units_Z   4
loop_
 _symmetry_equiv_pos_site_id
 _symmetry_equiv_pos_as_xyz
  1  'x, y, z'
loop_
 _atom_site_type_symbol
 _atom_site_label
 _atom_site_symmetry_multiplicity
 _atom_site_fract_x
 _atom_site_fract_y
 _atom_site_fract_z
 _atom_site_occupancy
  Li  Li0  1  0.50000000  0.66805300  0.25000000  1
  Li  Li1  1  0.50000000  0.33194700  0.75000000  1
  Li  Li2  1  0.00000000  0.16805300  0.25000000  1
  Li  Li3  1  0.00000000  0.83194700  0.75000000  1
  V  V4  1  0.50000000  0.38935800  0.25000000  1
  V  V5  1  0.50000000  0.61064200  0.75000000  1
  V  V6  1  0.00000000  0.88935800  0.25000000  1
  V  V7  1  0.00000000  0.11064200  0.75000000  1
  P  P8  1  0.44745550  0.82250650  0.96641400  1
  P  P9  1  0.55254450  0.17749350  0.03358600  1
  P  P10  1  0.55254450  0.82250650  0.53358600  1
  P  P11  1  0.44745550  0.17749350  0.46641400  1
  P  P12  1  0.75885700  0.03864800  0.47142900  1
  P  P13  1  0.24114300  0.03864800  0.02857100  1
  P  P14  1  0.24114300  0.96135200  0.52857100  1
  P  P15  1  0.75885700  0.96135200  0.97142900  1
  P  P16  1  0.94745550  0.32250650  0.96641400  1
  P  P17  1  0.05254450  0.67749350  0.03358600  1
  P  P18  1  0.05254450  0.32250650  0.53358600  1
  P  P19  1  0.94745550  0.67749350  0.46641400  1
  P  P20  1  0.25885700  0.53864800  0.47142900  1
  P  P21  1  0.74114300  0.53864800  0.02857100  1
  P  P22  1  0.74114300  0.46135200  0.52857100  1
  P  P23  1  0.25885700  0.46135200  0.97142900  1
  O  O24  1  0.49477100  0.77703100  0.10442500  1
  O  O25  1  0.12794600  0.02101000  0.14899500  1
  O  O26  1  0.50522900  0.77703100  0.39557500  1
  O  O27  1  0.29793450  0.91611150  0.96974700  1
  O  O28  1  0.38970400  0.25792300  0.35088700  1
  O  O29  1  0.87205400  0.97899000  0.85100500  1
  O  O30  1  0.82785000  0.10794800  0.59223000  1
  O  O31  1  0.49477100  0.22296900  0.60442500  1
  O  O32  1  0.59533950  0.90303150  0.90639100  1
  O  O33  1  0.59533950  0.09696850  0.40639100  1
  O  O34  1  0.17215000  0.10794800  0.90777000  1
  O  O35  1  0.70206550  0.91611150  0.53025300  1
  O  O36  1  0.61029600  0.74207700  0.64911300  1
  O  O37  1  0.61029600  0.25792300  0.14911300  1
  O  O38  1  0.40466050  0.09696850  0.09360900  1
  O  O39  1  0.70206550  0.08388850  0.03025300  1
  O  O40  1  0.17215000  0.89205200  0.40777000  1
  O  O41  1  0.38970400  0.74207700  0.85088700  1
  O  O42  1  0.87205400  0.02101000  0.35100500  1
  O  O43  1  0.40466050  0.90303150  0.59360900  1
  O  O44  1  0.50522900  0.22296900  0.89557500  1
  O  O45  1  0.12794600  0.97899000  0.64899500  1
  O  O46  1  0.29793450  0.08388850  0.46974700  1
  O  O47  1  0.82785000  0.89205200  0.09223000  1
  O  O48  1  0.99477100  0.27703100  0.10442500  1
  O  O49  1  0.62794600  0.52101000  0.14899500  1
  O  O50  1  0.00522900  0.27703100  0.39557500  1
  O  O51  1  0.79793450  0.41611150  0.96974700  1
  O  O52  1  0.88970400  0.75792300  0.35088700  1
  O  O53  1  0.37205400  0.47899000  0.85100500  1
  O  O54  1  0.32785000  0.60794800  0.59223000  1
  O  O55  1  0.99477100  0.72296900  0.60442500  1
  O  O56  1  0.09533950  0.40303150  0.90639100  1
  O  O57  1  0.09533950  0.59696850  0.40639100  1
  O  O58  1  0.67215000  0.60794800  0.90777000  1
  O  O59  1  0.20206550  0.41611150  0.53025300  1
  O  O60  1  0.11029600  0.24207700  0.64911300  1
  O  O61  1  0.11029600  0.75792300  0.14911300  1
  O  O62  1  0.90466050  0.59696850  0.09360900  1
  O  O63  1  0.20206550  0.58388850  0.03025300  1
  O  O64  1  0.67215000  0.39205200  0.40777000  1
  O  O65  1  0.88970400  0.24207700  0.85088700  1
  O  O66  1  0.37205400  0.52101000  0.35100500  1
  O  O67  1  0.90466050  0.40303150  0.59360900  1
  O  O68  1  0.00522900  0.72296900  0.89557500  1
  O  O69  1  0.62794600  0.47899000  0.64899500  1
  O  O70  1  0.79793450  0.58388850  0.46974700  1
  O  O71  1  0.32785000  0.39205200  0.09223000  1
