# generated using pymatgen
data_Ba2La2Mn(WO6)2
_symmetry_space_group_name_H-M   'P 1'
_cell_length_a   5.79976120
_cell_length_b   5.79976120
_cell_length_c   27.75463832
_cell_angle_alpha   90.00000000
_cell_angle_beta   90.00000000
_cell_angle_gamma   120.00000000
_symmetry_Int_Tables_number   1
_chemical_formula_structural   Ba2La2Mn(WO6)2
_chemical_formula_sum   'Ba6 La6 Mn3 W6 O36'
_cell_volume   808.51192242
_cell_formula_units_Z   3
loop_
 _symmetry_equiv_pos_site_id
 _symmetry_equiv_pos_as_xyz
  1  'x, y, z'
loop_
 _atom_site_type_symbol
 _atom_site_label
 _atom_site_symmetry_multiplicity
 _atom_site_fract_x
 _atom_site_fract_y
 _atom_site_fract_z
 _atom_site_occupancy
  Ba  Ba0  1  0.33333333  0.66666667  0.80142667  1
  Ba  Ba1  1  0.00000000  0.00000000  0.86524000  1
  Ba  Ba2  1  0.00000000  0.00000000  0.13476000  1
  Ba  Ba3  1  0.66666667  0.33333333  0.19857333  1
  Ba  Ba4  1  0.66666667  0.33333333  0.46809333  1
  Ba  Ba5  1  0.33333333  0.66666667  0.53190667  1
  La  La6  1  0.33333333  0.66666667  0.95979733  1
  La  La7  1  0.00000000  0.00000000  0.70686933  1
  La  La8  1  0.00000000  0.00000000  0.29313067  1
  La  La9  1  0.66666667  0.33333333  0.04020267  1
  La  La10  1  0.66666667  0.33333333  0.62646400  1
  La  La11  1  0.33333333  0.66666667  0.37353600  1
  Mn  Mn12  1  0.00000000  0.00000000  0.00000000  1
  Mn  Mn13  1  0.66666667  0.33333333  0.33333333  1
  Mn  Mn14  1  0.33333333  0.66666667  0.66666667  1
  W  W15  1  0.66666667  0.33333333  0.75181933  1
  W  W16  1  0.66666667  0.33333333  0.91484733  1
  W  W17  1  0.33333333  0.66666667  0.08515267  1
  W  W18  1  0.33333333  0.66666667  0.24818067  1
  W  W19  1  0.00000000  0.00000000  0.41848600  1
  W  W20  1  0.00000000  0.00000000  0.58151400  1
  O  O21  1  0.99962633  0.49981317  0.88261367  1
  O  O22  1  0.33370700  0.16685350  0.78405300  1
  O  O23  1  0.50018683  0.00037367  0.88261367  1
  O  O24  1  0.50018683  0.49981317  0.88261367  1
  O  O25  1  0.83314650  0.66629300  0.78405300  1
  O  O26  1  0.83314650  0.16685350  0.78405300  1
  O  O27  1  0.81833483  0.18166517  0.96182567  1
  O  O28  1  0.36333033  0.18166517  0.96182567  1
  O  O29  1  0.51499850  0.02999700  0.70484100  1
  O  O30  1  0.97000300  0.48500150  0.70484100  1
  O  O31  1  0.51499850  0.48500150  0.70484100  1
  O  O32  1  0.81833483  0.63666967  0.96182567  1
  O  O33  1  0.66629300  0.83314650  0.21594700  1
  O  O34  1  0.00037367  0.50018683  0.11738633  1
  O  O35  1  0.16685350  0.33370700  0.21594700  1
  O  O36  1  0.16685350  0.83314650  0.21594700  1
  O  O37  1  0.49981317  0.99962633  0.11738633  1
  O  O38  1  0.49981317  0.50018683  0.11738633  1
  O  O39  1  0.48500150  0.51499850  0.29515900  1
  O  O40  1  0.02999700  0.51499850  0.29515900  1
  O  O41  1  0.18166517  0.36333033  0.03817433  1
  O  O42  1  0.63666967  0.81833483  0.03817433  1
  O  O43  1  0.18166517  0.81833483  0.03817433  1
  O  O44  1  0.48500150  0.97000300  0.29515900  1
  O  O45  1  0.33295967  0.16647983  0.54928033  1
  O  O46  1  0.66704033  0.83352017  0.45071967  1
  O  O47  1  0.83352017  0.66704033  0.54928033  1
  O  O48  1  0.83352017  0.16647983  0.54928033  1
  O  O49  1  0.16647983  0.33295967  0.45071967  1
  O  O50  1  0.16647983  0.83352017  0.45071967  1
  O  O51  1  0.15166817  0.84833183  0.62849233  1
  O  O52  1  0.69666367  0.84833183  0.62849233  1
  O  O53  1  0.84833183  0.69666367  0.37150767  1
  O  O54  1  0.30333633  0.15166817  0.37150767  1
  O  O55  1  0.84833183  0.15166817  0.37150767  1
  O  O56  1  0.15166817  0.30333633  0.62849233  1
