# generated using pymatgen
data_FeMoO4
_symmetry_space_group_name_H-M   'P 1'
_cell_length_a   10.50293600
_cell_length_b   9.57379800
_cell_length_c   7.22045414
_cell_angle_alpha   90.00000000
_cell_angle_beta   105.91901937
_cell_angle_gamma   90.00000000
_symmetry_Int_Tables_number   1
_chemical_formula_structural   FeMoO4
_chemical_formula_sum   'Fe8 Mo8 O32'
_cell_volume   698.19489865
_cell_formula_units_Z   8
loop_
 _symmetry_equiv_pos_site_id
 _symmetry_equiv_pos_as_xyz
  1  'x, y, z'
loop_
 _atom_site_type_symbol
 _atom_site_label
 _atom_site_symmetry_multiplicity
 _atom_site_fract_x
 _atom_site_fract_y
 _atom_site_fract_z
 _atom_site_occupancy
  Fe  Fe0  1  0.00000000  0.18271500  0.50000000  1
  Fe  Fe1  1  0.00000000  0.81728500  0.50000000  1
  Fe  Fe2  1  0.70445100  0.50000000  0.86131500  1
  Fe  Fe3  1  0.29554900  0.50000000  0.13868500  1
  Fe  Fe4  1  0.50000000  0.68271500  0.50000000  1
  Fe  Fe5  1  0.50000000  0.31728500  0.50000000  1
  Fe  Fe6  1  0.20445100  0.00000000  0.86131500  1
  Fe  Fe7  1  0.79554900  0.00000000  0.13868500  1
  Mo  Mo8  1  0.00000000  0.25125900  0.00000000  1
  Mo  Mo9  1  0.00000000  0.74874100  0.00000000  1
  Mo  Mo10  1  0.23013900  0.50000000  0.59447900  1
  Mo  Mo11  1  0.76986100  0.50000000  0.40552100  1
  Mo  Mo12  1  0.50000000  0.75125900  0.00000000  1
  Mo  Mo13  1  0.50000000  0.24874100  0.00000000  1
  Mo  Mo14  1  0.73013900  0.00000000  0.59447900  1
  Mo  Mo15  1  0.26986100  0.00000000  0.40552100  1
  O  O16  1  0.63918800  0.50000000  0.53862500  1
  O  O17  1  0.36081200  0.50000000  0.46137500  1
  O  O18  1  0.29766100  0.50000000  0.85020900  1
  O  O19  1  0.70233900  0.50000000  0.14979100  1
  O  O20  1  0.86123350  0.35697650  0.89215800  1
  O  O21  1  0.86123350  0.64302350  0.89215800  1
  O  O22  1  0.13876650  0.64302350  0.10784200  1
  O  O23  1  0.13876650  0.35697650  0.10784200  1
  O  O24  1  0.04380750  0.84721550  0.80733600  1
  O  O25  1  0.04380750  0.15278450  0.80733600  1
  O  O26  1  0.95619250  0.15278450  0.19266400  1
  O  O27  1  0.95619250  0.84721550  0.19266400  1
  O  O28  1  0.13352250  0.65291650  0.52998800  1
  O  O29  1  0.13352250  0.34708350  0.52998800  1
  O  O30  1  0.86647750  0.34708350  0.47001200  1
  O  O31  1  0.86647750  0.65291650  0.47001200  1
  O  O32  1  0.13918800  0.00000000  0.53862500  1
  O  O33  1  0.86081200  0.00000000  0.46137500  1
  O  O34  1  0.79766100  0.00000000  0.85020900  1
  O  O35  1  0.20233900  0.00000000  0.14979100  1
  O  O36  1  0.36123350  0.85697650  0.89215800  1
  O  O37  1  0.36123350  0.14302350  0.89215800  1
  O  O38  1  0.63876650  0.14302350  0.10784200  1
  O  O39  1  0.63876650  0.85697650  0.10784200  1
  O  O40  1  0.54380750  0.34721550  0.80733600  1
  O  O41  1  0.54380750  0.65278450  0.80733600  1
  O  O42  1  0.45619250  0.65278450  0.19266400  1
  O  O43  1  0.45619250  0.34721550  0.19266400  1
  O  O44  1  0.63352250  0.15291650  0.52998800  1
  O  O45  1  0.63352250  0.84708350  0.52998800  1
  O  O46  1  0.36647750  0.84708350  0.47001200  1
  O  O47  1  0.36647750  0.15291650  0.47001200  1
