# generated using pymatgen
data_Ga2NiP3H8NO14
_symmetry_space_group_name_H-M   'P 1'
_cell_length_a   13.43474600
_cell_length_b   10.19569000
_cell_length_c   9.02057660
_cell_angle_alpha   90.00000000
_cell_angle_beta   107.96393639
_cell_angle_gamma   90.00000000
_symmetry_Int_Tables_number   1
_chemical_formula_structural   Ga2NiP3H8NO14
_chemical_formula_sum   'Ga8 Ni4 P12 H32 N4 O56'
_cell_volume   1175.37224419
_cell_formula_units_Z   4
loop_
 _symmetry_equiv_pos_site_id
 _symmetry_equiv_pos_as_xyz
  1  'x, y, z'
loop_
 _atom_site_type_symbol
 _atom_site_label
 _atom_site_symmetry_multiplicity
 _atom_site_fract_x
 _atom_site_fract_y
 _atom_site_fract_z
 _atom_site_occupancy
  Ga  Ga0  1  0.17213800  0.92597300  0.56837600  1
  Ga  Ga1  1  0.82786200  0.92597300  0.93162400  1
  Ga  Ga2  1  0.82786200  0.07402700  0.43162400  1
  Ga  Ga3  1  0.17213800  0.07402700  0.06837600  1
  Ga  Ga4  1  0.67213800  0.42597300  0.56837600  1
  Ga  Ga5  1  0.32786200  0.42597300  0.93162400  1
  Ga  Ga6  1  0.32786200  0.57402700  0.43162400  1
  Ga  Ga7  1  0.67213800  0.57402700  0.06837600  1
  Ni  Ni8  1  0.50000000  0.77548100  0.25000000  1
  Ni  Ni9  1  0.50000000  0.22451900  0.75000000  1
  Ni  Ni10  1  0.00000000  0.27548100  0.25000000  1
  Ni  Ni11  1  0.00000000  0.72451900  0.75000000  1
  P  P12  1  0.29175800  0.12584800  0.82271400  1
  P  P13  1  0.70824200  0.12584800  0.67728600  1
  P  P14  1  0.70824200  0.87415200  0.17728600  1
  P  P15  1  0.50000000  0.50081300  0.25000000  1
  P  P16  1  0.50000000  0.49918700  0.75000000  1
  P  P17  1  0.29175800  0.87415200  0.32271400  1
  P  P18  1  0.79175800  0.62584800  0.82271400  1
  P  P19  1  0.20824200  0.62584800  0.67728600  1
  P  P20  1  0.20824200  0.37415200  0.17728600  1
  P  P21  1  0.00000000  0.00081300  0.25000000  1
  P  P22  1  0.00000000  0.99918700  0.75000000  1
  P  P23  1  0.79175800  0.37415200  0.32271400  1
  H  H24  1  0.44186200  0.80674600  0.68335500  1
  H  H25  1  0.55813800  0.80674600  0.81664500  1
  H  H26  1  0.55813800  0.19325400  0.31664500  1
  H  H27  1  0.44186200  0.19325400  0.18335500  1
  H  H28  1  0.47009150  0.92686150  0.81875000  1
  H  H29  1  0.52990850  0.92686150  0.68125000  1
  H  H30  1  0.52990850  0.07313850  0.18125000  1
  H  H31  1  0.47009150  0.07313850  0.31875000  1
  H  H32  1  0.64892950  0.12698350  0.99343500  1
  H  H33  1  0.35107050  0.12698350  0.50656500  1
  H  H34  1  0.35107050  0.87301650  0.00656500  1
  H  H35  1  0.64892950  0.87301650  0.49343500  1
  H  H36  1  0.35612500  0.72409800  0.95641000  1
  H  H37  1  0.64387500  0.72409800  0.54359000  1
  H  H38  1  0.64387500  0.27590200  0.04359000  1
  H  H39  1  0.35612500  0.27590200  0.45641000  1
  H  H40  1  0.94186200  0.30674600  0.68335500  1
  H  H41  1  0.05813800  0.30674600  0.81664500  1
  H  H42  1  0.05813800  0.69325400  0.31664500  1
  H  H43  1  0.94186200  0.69325400  0.18335500  1
  H  H44  1  0.97009150  0.42686150  0.81875000  1
  H  H45  1  0.02990850  0.42686150  0.68125000  1
  H  H46  1  0.02990850  0.57313850  0.18125000  1
  H  H47  1  0.97009150  0.57313850  0.31875000  1
  H  H48  1  0.14892950  0.62698350  0.99343500  1
  H  H49  1  0.85107050  0.62698350  0.50656500  1
  H  H50  1  0.85107050  0.37301650  0.00656500  1
  H  H51  1  0.14892950  0.37301650  0.49343500  1
  H  H52  1  0.85612500  0.22409800  0.95641000  1
  H  H53  1  0.14387500  0.22409800  0.54359000  1
  H  H54  1  0.14387500  0.77590200  0.04359000  1
  H  H55  1  0.85612500  0.77590200  0.45641000  1
  N  N56  1  0.50000000  0.13325700  0.25000000  1
  N  N57  1  0.50000000  0.86674300  0.75000000  1
  N  N58  1  0.00000000  0.63325700  0.25000000  1
  N  N59  1  0.00000000  0.36674300  0.75000000  1
  O  O60  1  0.79214150  0.09065650  0.83749500  1
  O  O61  1  0.40308850  0.10123450  0.81848400  1
  O  O62  1  0.57117550  0.59858350  0.19620900  1
  O  O63  1  0.42882450  0.59858350  0.30379100  1
  O  O64  1  0.55971250  0.40759550  0.38287700  1
  O  O65  1  0.57117550  0.40141650  0.69620900  1
  O  O66  1  0.60224800  0.79619800  0.48028300  1
  O  O67  1  0.39775200  0.79619800  0.01971700  1
  O  O68  1  0.39775200  0.20380200  0.51971700  1
  O  O69  1  0.60224800  0.20380200  0.98028300  1
  O  O70  1  0.20785850  0.90934350  0.16250500  1
  O  O71  1  0.44028750  0.40759550  0.11712300  1
  O  O72  1  0.59691150  0.10123450  0.68151600  1
  O  O73  1  0.20785850  0.09065650  0.66250500  1
  O  O74  1  0.27535750  0.04061150  0.95617600  1
  O  O75  1  0.72464250  0.04061150  0.54382400  1
  O  O76  1  0.72464250  0.95938850  0.04382400  1
  O  O77  1  0.27535750  0.95938850  0.45617600  1
  O  O78  1  0.23630950  0.22881950  0.15669400  1
  O  O79  1  0.76369050  0.22881950  0.34330600  1
  O  O80  1  0.76369050  0.77118050  0.84330600  1
  O  O81  1  0.23630950  0.77118050  0.65669400  1
  O  O82  1  0.40308850  0.89876550  0.31848400  1
  O  O83  1  0.59691150  0.89876550  0.18151600  1
  O  O84  1  0.44028750  0.59240450  0.61712300  1
  O  O85  1  0.55971250  0.59240450  0.88287700  1
  O  O86  1  0.42882450  0.40141650  0.80379100  1
  O  O87  1  0.79214150  0.90934350  0.33749500  1
  O  O88  1  0.29214150  0.59065650  0.83749500  1
  O  O89  1  0.90308850  0.60123450  0.81848400  1
  O  O90  1  0.07117550  0.09858350  0.19620900  1
  O  O91  1  0.92882450  0.09858350  0.30379100  1
  O  O92  1  0.05971250  0.90759550  0.38287700  1
  O  O93  1  0.07117550  0.90141650  0.69620900  1
  O  O94  1  0.10224800  0.29619800  0.48028300  1
  O  O95  1  0.89775200  0.29619800  0.01971700  1
  O  O96  1  0.89775200  0.70380200  0.51971700  1
  O  O97  1  0.10224800  0.70380200  0.98028300  1
  O  O98  1  0.70785850  0.40934350  0.16250500  1
  O  O99  1  0.94028750  0.90759550  0.11712300  1
  O  O100  1  0.09691150  0.60123450  0.68151600  1
  O  O101  1  0.70785850  0.59065650  0.66250500  1
  O  O102  1  0.77535750  0.54061150  0.95617600  1
  O  O103  1  0.22464250  0.54061150  0.54382400  1
  O  O104  1  0.22464250  0.45938850  0.04382400  1
  O  O105  1  0.77535750  0.45938850  0.45617600  1
  O  O106  1  0.73630950  0.72881950  0.15669400  1
  O  O107  1  0.26369050  0.72881950  0.34330600  1
  O  O108  1  0.26369050  0.27118050  0.84330600  1
  O  O109  1  0.73630950  0.27118050  0.65669400  1
  O  O110  1  0.90308850  0.39876550  0.31848400  1
  O  O111  1  0.09691150  0.39876550  0.18151600  1
  O  O112  1  0.94028750  0.09240450  0.61712300  1
  O  O113  1  0.05971250  0.09240450  0.88287700  1
  O  O114  1  0.92882450  0.90141650  0.80379100  1
  O  O115  1  0.29214150  0.40934350  0.33749500  1
