# generated using pymatgen
data_LiVP2O7
_symmetry_space_group_name_H-M   'P 1'
_cell_length_a   9.75322600
_cell_length_b   8.27992200
_cell_length_c   13.34890624
_cell_angle_alpha   90.00000000
_cell_angle_beta   110.03357649
_cell_angle_gamma   90.00000000
_symmetry_Int_Tables_number   1
_chemical_formula_structural   LiVP2O7
_chemical_formula_sum   'Li8 V8 P16 O56'
_cell_volume   1012.77579996
_cell_formula_units_Z   8
loop_
 _symmetry_equiv_pos_site_id
 _symmetry_equiv_pos_as_xyz
  1  'x, y, z'
loop_
 _atom_site_type_symbol
 _atom_site_label
 _atom_site_symmetry_multiplicity
 _atom_site_fract_x
 _atom_site_fract_y
 _atom_site_fract_z
 _atom_site_occupancy
  Li  Li0  1  0.87340650  0.89093850  0.84990700  1
  Li  Li1  1  0.87340650  0.10906150  0.34990700  1
  Li  Li2  1  0.62659350  0.39093850  0.65009300  1
  Li  Li3  1  0.62659350  0.60906150  0.15009300  1
  Li  Li4  1  0.37340650  0.39093850  0.84990700  1
  Li  Li5  1  0.37340650  0.60906150  0.34990700  1
  Li  Li6  1  0.12659350  0.89093850  0.65009300  1
  Li  Li7  1  0.12659350  0.10906150  0.15009300  1
  V  V8  1  0.63718200  0.23529100  0.14052900  1
  V  V9  1  0.86281800  0.73529100  0.35947100  1
  V  V10  1  0.63718200  0.76470900  0.64052900  1
  V  V11  1  0.86281800  0.26470900  0.85947100  1
  V  V12  1  0.13718200  0.73529100  0.14052900  1
  V  V13  1  0.36281800  0.23529100  0.35947100  1
  V  V14  1  0.13718200  0.26470900  0.64052900  1
  V  V15  1  0.36281800  0.76470900  0.85947100  1
  P  P16  1  0.66893750  0.42291250  0.36244300  1
  P  P17  1  0.87173300  0.54062700  0.57044800  1
  P  P18  1  0.12826700  0.54062700  0.92955200  1
  P  P19  1  0.66893750  0.57708750  0.86244300  1
  P  P20  1  0.83106250  0.92291250  0.13755700  1
  P  P21  1  0.37173300  0.95937300  0.07044800  1
  P  P22  1  0.62826700  0.95937300  0.42955200  1
  P  P23  1  0.83106250  0.07708750  0.63755700  1
  P  P24  1  0.16893750  0.92291250  0.36244300  1
  P  P25  1  0.37173300  0.04062700  0.57044800  1
  P  P26  1  0.62826700  0.04062700  0.92955200  1
  P  P27  1  0.16893750  0.07708750  0.86244300  1
  P  P28  1  0.33106250  0.42291250  0.13755700  1
  P  P29  1  0.87173300  0.45937300  0.07044800  1
  P  P30  1  0.12826700  0.45937300  0.42955200  1
  P  P31  1  0.33106250  0.57708750  0.63755700  1
  O  O32  1  0.02239250  0.91141250  0.38068100  1
  O  O33  1  0.97760750  0.91141250  0.11931900  1
  O  O34  1  0.75864000  0.57202600  0.62508000  1
  O  O35  1  0.68194900  0.58683600  0.31293400  1
  O  O36  1  0.99389300  0.45227800  0.85868600  1
  O  O37  1  0.70245050  0.27875350  0.30148700  1
  O  O38  1  0.79531600  0.41045800  0.47671300  1
  O  O39  1  0.09237900  0.69312500  0.98169100  1
  O  O40  1  0.90762100  0.69312500  0.51830900  1
  O  O41  1  0.00610700  0.45227800  0.64131400  1
  O  O42  1  0.70468400  0.91045800  0.02328700  1
  O  O43  1  0.25864000  0.92797400  0.12508000  1
  O  O44  1  0.79754950  0.77875350  0.19851300  1
  O  O45  1  0.81805100  0.08683600  0.18706600  1
  O  O46  1  0.68194900  0.41316400  0.81293400  1
  O  O47  1  0.70245050  0.72124650  0.80148700  1
  O  O48  1  0.24136000  0.57202600  0.87492000  1
  O  O49  1  0.79531600  0.58954200  0.97671300  1
  O  O50  1  0.49389300  0.04772200  0.35868600  1
  O  O51  1  0.59237900  0.80687500  0.48169100  1
  O  O52  1  0.40762100  0.80687500  0.01830900  1
  O  O53  1  0.70468400  0.08954200  0.52328700  1
  O  O54  1  0.79754950  0.22124650  0.69851300  1
  O  O55  1  0.50610700  0.04772200  0.14131400  1
  O  O56  1  0.81805100  0.91316400  0.68706600  1
  O  O57  1  0.74136000  0.92797400  0.37492000  1
  O  O58  1  0.52239250  0.58858750  0.88068100  1
  O  O59  1  0.47760750  0.58858750  0.61931900  1
  O  O60  1  0.52239250  0.41141250  0.38068100  1
  O  O61  1  0.47760750  0.41141250  0.11931900  1
  O  O62  1  0.25864000  0.07202600  0.62508000  1
  O  O63  1  0.18194900  0.08683600  0.31293400  1
  O  O64  1  0.49389300  0.95227800  0.85868600  1
  O  O65  1  0.20245050  0.77875350  0.30148700  1
  O  O66  1  0.29531600  0.91045800  0.47671300  1
  O  O67  1  0.59237900  0.19312500  0.98169100  1
  O  O68  1  0.40762100  0.19312500  0.51830900  1
  O  O69  1  0.50610700  0.95227800  0.64131400  1
  O  O70  1  0.20468400  0.41045800  0.02328700  1
  O  O71  1  0.75864000  0.42797400  0.12508000  1
  O  O72  1  0.29754950  0.27875350  0.19851300  1
  O  O73  1  0.31805100  0.58683600  0.18706600  1
  O  O74  1  0.18194900  0.91316400  0.81293400  1
  O  O75  1  0.20245050  0.22124650  0.80148700  1
  O  O76  1  0.74136000  0.07202600  0.87492000  1
  O  O77  1  0.29531600  0.08954200  0.97671300  1
  O  O78  1  0.99389300  0.54772200  0.35868600  1
  O  O79  1  0.09237900  0.30687500  0.48169100  1
  O  O80  1  0.90762100  0.30687500  0.01830900  1
  O  O81  1  0.20468400  0.58954200  0.52328700  1
  O  O82  1  0.29754950  0.72124650  0.69851300  1
  O  O83  1  0.00610700  0.54772200  0.14131400  1
  O  O84  1  0.31805100  0.41316400  0.68706600  1
  O  O85  1  0.24136000  0.42797400  0.37492000  1
  O  O86  1  0.02239250  0.08858750  0.88068100  1
  O  O87  1  0.97760750  0.08858750  0.61931900  1
