# generated using pymatgen
data_Tm2Ni12P7
_symmetry_space_group_name_H-M   'P 1'
_cell_length_a   9.01611420
_cell_length_b   9.01611420
_cell_length_c   3.66147300
_cell_angle_alpha   90.00000000
_cell_angle_beta   90.00000000
_cell_angle_gamma   120.00000000
_symmetry_Int_Tables_number   1
_chemical_formula_structural   Tm2Ni12P7
_chemical_formula_sum   'Tm2 Ni12 P7'
_cell_volume   257.76578837
_cell_formula_units_Z   1
loop_
 _symmetry_equiv_pos_site_id
 _symmetry_equiv_pos_as_xyz
  1  'x, y, z'
loop_
 _atom_site_type_symbol
 _atom_site_label
 _atom_site_symmetry_multiplicity
 _atom_site_fract_x
 _atom_site_fract_y
 _atom_site_fract_z
 _atom_site_occupancy
  Tm  Tm0  1  0.66666667  0.33333333  0.50000000  1
  Tm  Tm1  1  0.33333333  0.66666667  0.00000000  1
  Ni  Ni2  1  0.43510067  0.06095733  0.00000000  1
  Ni  Ni3  1  0.62585667  0.56489933  0.00000000  1
  Ni  Ni4  1  0.93904267  0.37414333  0.00000000  1
  Ni  Ni5  1  0.15310367  0.27522733  0.00000000  1
  Ni  Ni6  1  0.12212367  0.84689633  0.00000000  1
  Ni  Ni7  1  0.72477267  0.87787633  0.00000000  1
  Ni  Ni8  1  0.38233167  0.43182033  0.50000000  1
  Ni  Ni9  1  0.04948867  0.61766833  0.50000000  1
  Ni  Ni10  1  0.56817967  0.95051133  0.50000000  1
  Ni  Ni11  1  0.21768267  0.09459633  0.50000000  1
  Ni  Ni12  1  0.87691367  0.78231733  0.50000000  1
  Ni  Ni13  1  0.90540367  0.12308633  0.50000000  1
  P  P14  1  0.00000000  0.00000000  0.00000000  1
  P  P15  1  0.40818967  0.29318933  0.00000000  1
  P  P16  1  0.88499967  0.59181033  0.00000000  1
  P  P17  1  0.70681067  0.11500033  0.00000000  1
  P  P18  1  0.11268667  0.40675333  0.50000000  1
  P  P19  1  0.29406667  0.88731333  0.50000000  1
  P  P20  1  0.59324667  0.70593333  0.50000000  1
