# generated using pymatgen
data_Dy7(TeIr)2
_symmetry_space_group_name_H-M   'P 1'
_cell_length_a   3.95465200
_cell_length_b   9.45520200
_cell_length_c   15.83088400
_cell_angle_alpha   90.00000000
_cell_angle_beta   90.00000000
_cell_angle_gamma   90.00000000
_symmetry_Int_Tables_number   1
_chemical_formula_structural   Dy7(TeIr)2
_chemical_formula_sum   'Dy14 Te4 Ir4'
_cell_volume   591.94894486
_cell_formula_units_Z   2
loop_
 _symmetry_equiv_pos_site_id
 _symmetry_equiv_pos_as_xyz
  1  'x, y, z'
loop_
 _atom_site_type_symbol
 _atom_site_label
 _atom_site_symmetry_multiplicity
 _atom_site_fract_x
 _atom_site_fract_y
 _atom_site_fract_z
 _atom_site_occupancy
  Dy  Dy0  1  0.50000000  0.60268800  0.31630000  1
  Dy  Dy1  1  0.00000000  0.74240000  0.85220300  1
  Dy  Dy2  1  0.50000000  0.97654100  0.00000000  1
  Dy  Dy3  1  0.50000000  0.39371900  0.13127300  1
  Dy  Dy4  1  0.50000000  0.39371900  0.86872700  1
  Dy  Dy5  1  0.50000000  0.60268800  0.68370000  1
  Dy  Dy6  1  0.00000000  0.74240000  0.14779700  1
  Dy  Dy7  1  0.00000000  0.10268800  0.81630000  1
  Dy  Dy8  1  0.50000000  0.24240000  0.35220300  1
  Dy  Dy9  1  0.00000000  0.47654100  0.50000000  1
  Dy  Dy10  1  0.00000000  0.89371900  0.63127300  1
  Dy  Dy11  1  0.00000000  0.89371900  0.36872700  1
  Dy  Dy12  1  0.00000000  0.10268800  0.18370000  1
  Dy  Dy13  1  0.50000000  0.24240000  0.64779700  1
  Te  Te14  1  0.00000000  0.24001400  0.00000000  1
  Te  Te15  1  0.50000000  0.64096200  0.00000000  1
  Te  Te16  1  0.50000000  0.74001400  0.50000000  1
  Te  Te17  1  0.00000000  0.14096200  0.50000000  1
  Ir  Ir18  1  0.00000000  0.40549400  0.73901200  1
  Ir  Ir19  1  0.00000000  0.40549400  0.26098800  1
  Ir  Ir20  1  0.50000000  0.90549400  0.23901200  1
  Ir  Ir21  1  0.50000000  0.90549400  0.76098800  1
