# generated using pymatgen
data_Tm(CuGe)2
_symmetry_space_group_name_H-M   'P 1'
_cell_length_a   4.01356400
_cell_length_b   4.01356400
_cell_length_c   10.35985200
_cell_angle_alpha   90.00000000
_cell_angle_beta   90.00000000
_cell_angle_gamma   90.00000000
_symmetry_Int_Tables_number   1
_chemical_formula_structural   Tm(CuGe)2
_chemical_formula_sum   'Tm2 Cu4 Ge4'
_cell_volume   166.88370629
_cell_formula_units_Z   2
loop_
 _symmetry_equiv_pos_site_id
 _symmetry_equiv_pos_as_xyz
  1  'x, y, z'
loop_
 _atom_site_type_symbol
 _atom_site_label
 _atom_site_symmetry_multiplicity
 _atom_site_fract_x
 _atom_site_fract_y
 _atom_site_fract_z
 _atom_site_occupancy
  Tm  Tm0  1  0.00000000  0.00000000  0.00000000  1
  Tm  Tm1  1  0.50000000  0.50000000  0.50000000  1
  Cu  Cu2  1  0.00000000  0.50000000  0.25000000  1
  Cu  Cu3  1  0.50000000  0.00000000  0.25000000  1
  Cu  Cu4  1  0.50000000  0.00000000  0.75000000  1
  Cu  Cu5  1  0.00000000  0.50000000  0.75000000  1
  Ge  Ge6  1  0.00000000  0.00000000  0.38208000  1
  Ge  Ge7  1  0.50000000  0.50000000  0.11792000  1
  Ge  Ge8  1  0.50000000  0.50000000  0.88208000  1
  Ge  Ge9  1  0.00000000  0.00000000  0.61792000  1
