# generated using pymatgen
data_Ba5Yb8Ni4O21
_symmetry_space_group_name_H-M   'P 1'
_cell_length_a   13.52025800
_cell_length_b   13.52025800
_cell_length_c   5.65872800
_cell_angle_alpha   90.00000000
_cell_angle_beta   90.00000000
_cell_angle_gamma   90.00000000
_symmetry_Int_Tables_number   1
_chemical_formula_structural   Ba5Yb8Ni4O21
_chemical_formula_sum   'Ba10 Yb16 Ni8 O42'
_cell_volume   1034.40063209
_cell_formula_units_Z   2
loop_
 _symmetry_equiv_pos_site_id
 _symmetry_equiv_pos_as_xyz
  1  'x, y, z'
loop_
 _atom_site_type_symbol
 _atom_site_label
 _atom_site_symmetry_multiplicity
 _atom_site_fract_x
 _atom_site_fract_y
 _atom_site_fract_z
 _atom_site_occupancy
  Ba  Ba0  1  0.96790550  0.35262350  0.50000000  1
  Ba  Ba1  1  0.14737650  0.46790550  0.00000000  1
  Ba  Ba2  1  0.85262350  0.53209450  0.00000000  1
  Ba  Ba3  1  0.03209450  0.64737650  0.50000000  1
  Ba  Ba4  1  0.50000000  0.50000000  0.50000000  1
  Ba  Ba5  1  0.46790550  0.85262350  0.00000000  1
  Ba  Ba6  1  0.64737650  0.96790550  0.50000000  1
  Ba  Ba7  1  0.35262350  0.03209450  0.50000000  1
  Ba  Ba8  1  0.53209450  0.14737650  0.00000000  1
  Ba  Ba9  1  0.00000000  0.00000000  0.00000000  1
  Yb  Yb10  1  0.16985750  0.74950550  0.00000000  1
  Yb  Yb11  1  0.75049450  0.66985750  0.50000000  1
  Yb  Yb12  1  0.24950550  0.33014250  0.50000000  1
  Yb  Yb13  1  0.83014250  0.25049450  0.00000000  1
  Yb  Yb14  1  0.36089550  0.59266150  0.00000000  1
  Yb  Yb15  1  0.90733850  0.86089550  0.50000000  1
  Yb  Yb16  1  0.09266150  0.13910450  0.50000000  1
  Yb  Yb17  1  0.63910450  0.40733850  0.00000000  1
  Yb  Yb18  1  0.66985750  0.24950550  0.50000000  1
  Yb  Yb19  1  0.25049450  0.16985750  0.00000000  1
  Yb  Yb20  1  0.74950550  0.83014250  0.00000000  1
  Yb  Yb21  1  0.33014250  0.75049450  0.50000000  1
  Yb  Yb22  1  0.86089550  0.09266150  0.50000000  1
  Yb  Yb23  1  0.40733850  0.36089550  0.00000000  1
  Yb  Yb24  1  0.59266150  0.63910450  0.00000000  1
  Yb  Yb25  1  0.13910450  0.90733850  0.50000000  1
  Ni  Ni26  1  0.74331850  0.45861550  0.50000000  1
  Ni  Ni27  1  0.04138450  0.24331850  0.00000000  1
  Ni  Ni28  1  0.95861550  0.75668150  0.00000000  1
  Ni  Ni29  1  0.25668150  0.54138450  0.50000000  1
  Ni  Ni30  1  0.24331850  0.95861550  0.00000000  1
  Ni  Ni31  1  0.54138450  0.74331850  0.50000000  1
  Ni  Ni32  1  0.45861550  0.25668150  0.50000000  1
  Ni  Ni33  1  0.75668150  0.04138450  0.00000000  1
  O  O34  1  0.50000000  0.50000000  0.00000000  1
  O  O35  1  0.02521350  0.63870950  0.00000000  1
  O  O36  1  0.86129050  0.52521350  0.50000000  1
  O  O37  1  0.13870950  0.47478650  0.50000000  1
  O  O38  1  0.97478650  0.36129050  0.00000000  1
  O  O39  1  0.76762200  0.36270000  0.72940600  1
  O  O40  1  0.13730000  0.26762200  0.22940600  1
  O  O41  1  0.86270000  0.73237800  0.22940600  1
  O  O42  1  0.23237800  0.63730000  0.72940600  1
  O  O43  1  0.23237800  0.63730000  0.27059400  1
  O  O44  1  0.86270000  0.73237800  0.77059400  1
  O  O45  1  0.13730000  0.26762200  0.77059400  1
  O  O46  1  0.76762200  0.36270000  0.27059400  1
  O  O47  1  0.04019550  0.81467150  0.23300350  1
  O  O48  1  0.68532850  0.54019550  0.73300350  1
  O  O49  1  0.31467150  0.45980450  0.73300350  1
  O  O50  1  0.95980450  0.18532850  0.23300350  1
  O  O51  1  0.95980450  0.18532850  0.76699650  1
  O  O52  1  0.31467150  0.45980450  0.26699650  1
  O  O53  1  0.68532850  0.54019550  0.26699650  1
  O  O54  1  0.04019550  0.81467150  0.76699650  1
  O  O55  1  0.00000000  0.00000000  0.50000000  1
  O  O56  1  0.52521350  0.13870950  0.50000000  1
  O  O57  1  0.36129050  0.02521350  0.00000000  1
  O  O58  1  0.63870950  0.97478650  0.00000000  1
  O  O59  1  0.47478650  0.86129050  0.50000000  1
  O  O60  1  0.26762200  0.86270000  0.22940600  1
  O  O61  1  0.63730000  0.76762200  0.72940600  1
  O  O62  1  0.36270000  0.23237800  0.72940600  1
  O  O63  1  0.73237800  0.13730000  0.22940600  1
  O  O64  1  0.73237800  0.13730000  0.77059400  1
  O  O65  1  0.36270000  0.23237800  0.27059400  1
  O  O66  1  0.63730000  0.76762200  0.27059400  1
  O  O67  1  0.26762200  0.86270000  0.77059400  1
  O  O68  1  0.54019550  0.31467150  0.73300350  1
  O  O69  1  0.18532850  0.04019550  0.23300350  1
  O  O70  1  0.81467150  0.95980450  0.23300350  1
  O  O71  1  0.45980450  0.68532850  0.73300350  1
  O  O72  1  0.45980450  0.68532850  0.26699650  1
  O  O73  1  0.81467150  0.95980450  0.76699650  1
  O  O74  1  0.18532850  0.04019550  0.76699650  1
  O  O75  1  0.54019550  0.31467150  0.26699650  1
