# generated using pymatgen
data_NaLi2Mo2P3O14
_symmetry_space_group_name_H-M   'P 1'
_cell_length_a   15.98173000
_cell_length_b   8.25004000
_cell_length_c   18.06727063
_cell_angle_alpha   90.00000000
_cell_angle_beta   108.04161325
_cell_angle_gamma   90.00000000
_symmetry_Int_Tables_number   1
_chemical_formula_structural   NaLi2Mo2P3O14
_chemical_formula_sum   'Na8 Li16 Mo16 P24 O112'
_cell_volume   2265.04119589
_cell_formula_units_Z   8
loop_
 _symmetry_equiv_pos_site_id
 _symmetry_equiv_pos_as_xyz
  1  'x, y, z'
loop_
 _atom_site_type_symbol
 _atom_site_label
 _atom_site_symmetry_multiplicity
 _atom_site_fract_x
 _atom_site_fract_y
 _atom_site_fract_z
 _atom_site_occupancy
  Na  Na0  1  0.25000000  0.25000000  0.00000000  1
  Na  Na1  1  0.00000000  0.09344400  0.75000000  1
  Na  Na2  1  0.75000000  0.25000000  0.50000000  1
  Na  Na3  1  0.00000000  0.90655600  0.25000000  1
  Na  Na4  1  0.75000000  0.75000000  0.00000000  1
  Na  Na5  1  0.50000000  0.59344400  0.75000000  1
  Na  Na6  1  0.25000000  0.75000000  0.50000000  1
  Na  Na7  1  0.50000000  0.40655600  0.25000000  1
  Li  Li8  1  0.39573350  0.67015750  0.85444300  1
  Li  Li9  1  0.11981100  0.60199700  0.25698500  1
  Li  Li10  1  0.88018900  0.60199700  0.24301500  1
  Li  Li11  1  0.11981100  0.39800300  0.75698500  1
  Li  Li12  1  0.88018900  0.39800300  0.74301500  1
  Li  Li13  1  0.10426650  0.17015750  0.64555700  1
  Li  Li14  1  0.60426650  0.32984250  0.14555700  1
  Li  Li15  1  0.89573350  0.82984250  0.35444300  1
  Li  Li16  1  0.89573350  0.17015750  0.85444300  1
  Li  Li17  1  0.61981100  0.10199700  0.25698500  1
  Li  Li18  1  0.38018900  0.10199700  0.24301500  1
  Li  Li19  1  0.61981100  0.89800300  0.75698500  1
  Li  Li20  1  0.38018900  0.89800300  0.74301500  1
  Li  Li21  1  0.60426650  0.67015750  0.64555700  1
  Li  Li22  1  0.10426650  0.82984250  0.14555700  1
  Li  Li23  1  0.39573350  0.32984250  0.35444300  1
  Mo  Mo24  1  0.92798350  0.22990550  0.43996800  1
  Mo  Mo25  1  0.07201650  0.77009450  0.56003200  1
  Mo  Mo26  1  0.42798350  0.27009450  0.93996800  1
  Mo  Mo27  1  0.17073400  0.73749000  0.84097200  1
  Mo  Mo28  1  0.32926600  0.23749000  0.65902800  1
  Mo  Mo29  1  0.57201650  0.72990550  0.06003200  1
  Mo  Mo30  1  0.82926600  0.26251000  0.15902800  1
  Mo  Mo31  1  0.67073400  0.76251000  0.34097200  1
  Mo  Mo32  1  0.42798350  0.72990550  0.43996800  1
  Mo  Mo33  1  0.57201650  0.27009450  0.56003200  1
  Mo  Mo34  1  0.92798350  0.77009450  0.93996800  1
  Mo  Mo35  1  0.67073400  0.23749000  0.84097200  1
  Mo  Mo36  1  0.82926600  0.73749000  0.65902800  1
  Mo  Mo37  1  0.07201650  0.22990550  0.06003200  1
  Mo  Mo38  1  0.32926600  0.76251000  0.15902800  1
  Mo  Mo39  1  0.17073400  0.26251000  0.34097200  1
  P  P40  1  0.25390450  0.10257350  0.80604700  1
  P  P41  1  0.96102850  0.44754650  0.61145400  1
  P  P42  1  0.13958600  0.11387000  0.51170400  1
  P  P43  1  0.03897150  0.55245350  0.38854600  1
  P  P44  1  0.63958600  0.38613000  0.01170400  1
  P  P45  1  0.03897150  0.44754650  0.88854600  1
  P  P46  1  0.96102850  0.55245350  0.11145400  1
  P  P47  1  0.75390450  0.39742650  0.30604700  1
  P  P48  1  0.86041400  0.88613000  0.48829600  1
  P  P49  1  0.24609550  0.60257350  0.69395300  1
  P  P50  1  0.74609550  0.89742650  0.19395300  1
  P  P51  1  0.36041400  0.61387000  0.98829600  1
  P  P52  1  0.75390450  0.60257350  0.80604700  1
  P  P53  1  0.46102850  0.94754650  0.61145400  1
  P  P54  1  0.63958600  0.61387000  0.51170400  1
  P  P55  1  0.53897150  0.05245350  0.38854600  1
  P  P56  1  0.13958600  0.88613000  0.01170400  1
  P  P57  1  0.53897150  0.94754650  0.88854600  1
  P  P58  1  0.46102850  0.05245350  0.11145400  1
  P  P59  1  0.25390450  0.89742650  0.30604700  1
  P  P60  1  0.36041400  0.38613000  0.48829600  1
  P  P61  1  0.74609550  0.10257350  0.69395300  1
  P  P62  1  0.24609550  0.39742650  0.19395300  1
  P  P63  1  0.86041400  0.11387000  0.98829600  1
  O  O64  1  0.20080750  0.70234950  0.61810200  1
  O  O65  1  0.02548750  0.41607850  0.10539600  1
  O  O66  1  0.10763150  0.51981850  0.85100100  1
  O  O67  1  0.83707750  0.82784050  0.23483000  1
  O  O68  1  0.56588800  0.57316300  0.12193800  1
  O  O69  1  0.16292250  0.17215950  0.76517000  1
  O  O70  1  0.89236850  0.48018150  0.14899900  1
  O  O71  1  0.89236850  0.51981850  0.64899900  1
  O  O72  1  0.66292250  0.32784050  0.26517000  1
  O  O73  1  0.08123450  0.14687250  0.29438700  1
  O  O74  1  0.98509600  0.31853600  0.83297500  1
  O  O75  1  0.55296150  0.30687850  0.01692700  1
  O  O76  1  0.70080750  0.79765050  0.11810200  1
  O  O77  1  0.18585550  0.60830450  0.74841800  1
  O  O78  1  0.01490400  0.31853600  0.66702500  1
  O  O79  1  0.33707750  0.67215950  0.73483000  1
  O  O80  1  0.06588800  0.92683700  0.62193800  1
  O  O81  1  0.31414450  0.10830450  0.75158200  1
  O  O82  1  0.91876550  0.85312750  0.70561300  1
  O  O83  1  0.90995500  0.38182600  0.52996900  1
  O  O84  1  0.01490400  0.68146400  0.16702500  1
  O  O85  1  0.43411200  0.42683700  0.87806200  1
  O  O86  1  0.05296150  0.19312150  0.51692700  1
  O  O87  1  0.10763150  0.48018150  0.35100100  1
  O  O88  1  0.68585550  0.89169550  0.24841800  1
  O  O89  1  0.17226150  0.80951650  0.94925600  1
  O  O90  1  0.20497900  0.13715600  0.59444100  1
  O  O91  1  0.12705350  0.07105350  0.99528900  1
  O  O92  1  0.91876550  0.14687250  0.20561300  1
  O  O93  1  0.12705350  0.92894650  0.49528900  1
  O  O94  1  0.29919250  0.20234950  0.88189800  1
  O  O95  1  0.98509600  0.68146400  0.33297500  1
  O  O96  1  0.70497900  0.36284400  0.09444100  1
  O  O97  1  0.97451250  0.41607850  0.39460400  1
  O  O98  1  0.17226150  0.19048350  0.44925600  1
  O  O99  1  0.08123450  0.85312750  0.79438700  1
  O  O100  1  0.29502100  0.63715600  0.90555900  1
  O  O101  1  0.44703850  0.69312150  0.98307300  1
  O  O102  1  0.97451250  0.58392150  0.89460400  1
  O  O103  1  0.25447700  0.92129400  0.82832100  1
  O  O104  1  0.87294650  0.07105350  0.50471100  1
  O  O105  1  0.09004500  0.38182600  0.97003100  1
  O  O106  1  0.75447700  0.57870600  0.32832100  1
  O  O107  1  0.82773850  0.80951650  0.55074400  1
  O  O108  1  0.82773850  0.19048350  0.05074400  1
  O  O109  1  0.02548750  0.58392150  0.60539600  1
  O  O110  1  0.87294650  0.92894650  0.00471100  1
  O  O111  1  0.90995500  0.61817400  0.02996900  1
  O  O112  1  0.79502100  0.86284400  0.40555900  1
  O  O113  1  0.93411200  0.07316300  0.37806200  1
  O  O114  1  0.74552300  0.07870600  0.17167900  1
  O  O115  1  0.24552300  0.42129400  0.67167900  1
  O  O116  1  0.79919250  0.29765050  0.38189800  1
  O  O117  1  0.81414450  0.39169550  0.25158200  1
  O  O118  1  0.94703850  0.80687850  0.48307300  1
  O  O119  1  0.09004500  0.61817400  0.47003100  1
  O  O120  1  0.70080750  0.20234950  0.61810200  1
  O  O121  1  0.52548750  0.91607850  0.10539600  1
  O  O122  1  0.60763150  0.01981850  0.85100100  1
  O  O123  1  0.33707750  0.32784050  0.23483000  1
  O  O124  1  0.06588800  0.07316300  0.12193800  1
  O  O125  1  0.66292250  0.67215950  0.76517000  1
  O  O126  1  0.39236850  0.98018150  0.14899900  1
  O  O127  1  0.39236850  0.01981850  0.64899900  1
  O  O128  1  0.16292250  0.82784050  0.26517000  1
  O  O129  1  0.58123450  0.64687250  0.29438700  1
  O  O130  1  0.48509600  0.81853600  0.83297500  1
  O  O131  1  0.05296150  0.80687850  0.01692700  1
  O  O132  1  0.20080750  0.29765050  0.11810200  1
  O  O133  1  0.68585550  0.10830450  0.74841800  1
  O  O134  1  0.51490400  0.81853600  0.66702500  1
  O  O135  1  0.83707750  0.17215950  0.73483000  1
  O  O136  1  0.56588800  0.42683700  0.62193800  1
  O  O137  1  0.81414450  0.60830450  0.75158200  1
  O  O138  1  0.41876550  0.35312750  0.70561300  1
  O  O139  1  0.40995500  0.88182600  0.52996900  1
  O  O140  1  0.51490400  0.18146400  0.16702500  1
  O  O141  1  0.93411200  0.92683700  0.87806200  1
  O  O142  1  0.55296150  0.69312150  0.51692700  1
  O  O143  1  0.60763150  0.98018150  0.35100100  1
  O  O144  1  0.18585550  0.39169550  0.24841800  1
  O  O145  1  0.67226150  0.30951650  0.94925600  1
  O  O146  1  0.70497900  0.63715600  0.59444100  1
  O  O147  1  0.62705350  0.57105350  0.99528900  1
  O  O148  1  0.41876550  0.64687250  0.20561300  1
  O  O149  1  0.62705350  0.42894650  0.49528900  1
  O  O150  1  0.79919250  0.70234950  0.88189800  1
  O  O151  1  0.48509600  0.18146400  0.33297500  1
  O  O152  1  0.20497900  0.86284400  0.09444100  1
  O  O153  1  0.47451250  0.91607850  0.39460400  1
  O  O154  1  0.67226150  0.69048350  0.44925600  1
  O  O155  1  0.58123450  0.35312750  0.79438700  1
  O  O156  1  0.79502100  0.13715600  0.90555900  1
  O  O157  1  0.94703850  0.19312150  0.98307300  1
  O  O158  1  0.47451250  0.08392150  0.89460400  1
  O  O159  1  0.75447700  0.42129400  0.82832100  1
  O  O160  1  0.37294650  0.57105350  0.50471100  1
  O  O161  1  0.59004500  0.88182600  0.97003100  1
  O  O162  1  0.25447700  0.07870600  0.32832100  1
  O  O163  1  0.32773850  0.30951650  0.55074400  1
  O  O164  1  0.32773850  0.69048350  0.05074400  1
  O  O165  1  0.52548750  0.08392150  0.60539600  1
  O  O166  1  0.37294650  0.42894650  0.00471100  1
  O  O167  1  0.40995500  0.11817400  0.02996900  1
  O  O168  1  0.29502100  0.36284400  0.40555900  1
  O  O169  1  0.43411200  0.57316300  0.37806200  1
  O  O170  1  0.24552300  0.57870600  0.17167900  1
  O  O171  1  0.74552300  0.92129400  0.67167900  1
  O  O172  1  0.29919250  0.79765050  0.38189800  1
  O  O173  1  0.31414450  0.89169550  0.25158200  1
  O  O174  1  0.44703850  0.30687850  0.48307300  1
  O  O175  1  0.59004500  0.11817400  0.47003100  1
