# generated using pymatgen
data_DySbMo2O9
_symmetry_space_group_name_H-M   'P 1'
_cell_length_a   13.07219000
_cell_length_b   14.36714400
_cell_length_c   10.86397118
_cell_angle_alpha   90.00000000
_cell_angle_beta   123.62776425
_cell_angle_gamma   90.00000000
_symmetry_Int_Tables_number   1
_chemical_formula_structural   DySbMo2O9
_chemical_formula_sum   'Dy8 Sb8 Mo16 O72'
_cell_volume   1698.91418637
_cell_formula_units_Z   8
loop_
 _symmetry_equiv_pos_site_id
 _symmetry_equiv_pos_as_xyz
  1  'x, y, z'
loop_
 _atom_site_type_symbol
 _atom_site_label
 _atom_site_symmetry_multiplicity
 _atom_site_fract_x
 _atom_site_fract_y
 _atom_site_fract_z
 _atom_site_occupancy
  Dy  Dy0  1  0.50000000  0.62563600  0.25000000  1
  Dy  Dy1  1  0.50000000  0.17168700  0.25000000  1
  Dy  Dy2  1  0.50000000  0.37436400  0.75000000  1
  Dy  Dy3  1  0.50000000  0.82831300  0.75000000  1
  Dy  Dy4  1  0.00000000  0.12563600  0.25000000  1
  Dy  Dy5  1  0.00000000  0.67168700  0.25000000  1
  Dy  Dy6  1  0.00000000  0.87436400  0.75000000  1
  Dy  Dy7  1  0.00000000  0.32831300  0.75000000  1
  Sb  Sb8  1  0.63533100  0.01546400  0.03578200  1
  Sb  Sb9  1  0.36466900  0.98453600  0.96421800  1
  Sb  Sb10  1  0.63533100  0.98453600  0.53578200  1
  Sb  Sb11  1  0.36466900  0.01546400  0.46421800  1
  Sb  Sb12  1  0.13533100  0.51546400  0.03578200  1
  Sb  Sb13  1  0.86466900  0.48453600  0.96421800  1
  Sb  Sb14  1  0.13533100  0.48453600  0.53578200  1
  Sb  Sb15  1  0.86466900  0.51546400  0.46421800  1
  Mo  Mo16  1  0.15272300  0.10641000  0.02506700  1
  Mo  Mo17  1  0.24572600  0.18827100  0.69290500  1
  Mo  Mo18  1  0.75427400  0.18827100  0.80709500  1
  Mo  Mo19  1  0.84727700  0.89359000  0.97493300  1
  Mo  Mo20  1  0.24572600  0.81172900  0.19290500  1
  Mo  Mo21  1  0.84727700  0.10641000  0.47493300  1
  Mo  Mo22  1  0.75427400  0.81172900  0.30709500  1
  Mo  Mo23  1  0.15272300  0.89359000  0.52506700  1
  Mo  Mo24  1  0.65272300  0.60641000  0.02506700  1
  Mo  Mo25  1  0.74572600  0.68827100  0.69290500  1
  Mo  Mo26  1  0.25427400  0.68827100  0.80709500  1
  Mo  Mo27  1  0.34727700  0.39359000  0.97493300  1
  Mo  Mo28  1  0.74572600  0.31172900  0.19290500  1
  Mo  Mo29  1  0.34727700  0.60641000  0.47493300  1
  Mo  Mo30  1  0.25427400  0.31172900  0.30709500  1
  Mo  Mo31  1  0.65272300  0.39359000  0.52506700  1
  O  O32  1  0.28664300  0.07792000  0.79744100  1
  O  O33  1  0.86834550  0.08907450  0.32638700  1
  O  O34  1  0.13165450  0.91092550  0.67361300  1
  O  O35  1  0.68630350  0.90789150  0.92056900  1
  O  O36  1  0.41569450  0.28618350  0.06845000  1
  O  O37  1  0.38239000  0.76125000  0.22638400  1
  O  O38  1  0.08139650  0.98597950  0.39771000  1
  O  O39  1  0.35765750  0.66329850  0.99822700  1
  O  O40  1  0.61761000  0.76125000  0.27361600  1
  O  O41  1  0.71335700  0.92208000  0.20255900  1
  O  O42  1  0.61761000  0.23875000  0.77361600  1
  O  O43  1  0.64234250  0.33670150  0.00177300  1
  O  O44  1  0.51762450  0.94056850  0.59998200  1
  O  O45  1  0.68630350  0.09210850  0.42056900  1
  O  O46  1  0.28664300  0.92208000  0.29744100  1
  O  O47  1  0.31369650  0.09210850  0.07943100  1
  O  O48  1  0.13165450  0.08907450  0.17361300  1
  O  O49  1  0.38239000  0.23875000  0.72638400  1
  O  O50  1  0.51762450  0.05943150  0.09998200  1
  O  O51  1  0.41569450  0.71381650  0.56845000  1
  O  O52  1  0.58430550  0.28618350  0.43155000  1
  O  O53  1  0.86834550  0.91092550  0.82638700  1
  O  O54  1  0.08139650  0.01402050  0.89771000  1
  O  O55  1  0.67435800  0.76854200  0.74818300  1
  O  O56  1  0.32564200  0.76854200  0.75181700  1
  O  O57  1  0.31369650  0.90789150  0.57943100  1
  O  O58  1  0.67435800  0.23145800  0.24818300  1
  O  O59  1  0.48237550  0.94056850  0.90001800  1
  O  O60  1  0.91860350  0.98597950  0.10229000  1
  O  O61  1  0.48237550  0.05943150  0.40001800  1
  O  O62  1  0.32564200  0.23145800  0.25181700  1
  O  O63  1  0.71335700  0.07792000  0.70255900  1
  O  O64  1  0.35765750  0.33670150  0.49822700  1
  O  O65  1  0.91860350  0.01402050  0.60229000  1
  O  O66  1  0.64234250  0.66329850  0.50177300  1
  O  O67  1  0.58430550  0.71381650  0.93155000  1
  O  O68  1  0.78664300  0.57792000  0.79744100  1
  O  O69  1  0.36834550  0.58907450  0.32638700  1
  O  O70  1  0.63165450  0.41092550  0.67361300  1
  O  O71  1  0.18630350  0.40789150  0.92056900  1
  O  O72  1  0.91569450  0.78618350  0.06845000  1
  O  O73  1  0.88239000  0.26125000  0.22638400  1
  O  O74  1  0.58139650  0.48597950  0.39771000  1
  O  O75  1  0.85765750  0.16329850  0.99822700  1
  O  O76  1  0.11761000  0.26125000  0.27361600  1
  O  O77  1  0.21335700  0.42208000  0.20255900  1
  O  O78  1  0.11761000  0.73875000  0.77361600  1
  O  O79  1  0.14234250  0.83670150  0.00177300  1
  O  O80  1  0.01762450  0.44056850  0.59998200  1
  O  O81  1  0.18630350  0.59210850  0.42056900  1
  O  O82  1  0.78664300  0.42208000  0.29744100  1
  O  O83  1  0.81369650  0.59210850  0.07943100  1
  O  O84  1  0.63165450  0.58907450  0.17361300  1
  O  O85  1  0.88239000  0.73875000  0.72638400  1
  O  O86  1  0.01762450  0.55943150  0.09998200  1
  O  O87  1  0.91569450  0.21381650  0.56845000  1
  O  O88  1  0.08430550  0.78618350  0.43155000  1
  O  O89  1  0.36834550  0.41092550  0.82638700  1
  O  O90  1  0.58139650  0.51402050  0.89771000  1
  O  O91  1  0.17435800  0.26854200  0.74818300  1
  O  O92  1  0.82564200  0.26854200  0.75181700  1
  O  O93  1  0.81369650  0.40789150  0.57943100  1
  O  O94  1  0.17435800  0.73145800  0.24818300  1
  O  O95  1  0.98237550  0.44056850  0.90001800  1
  O  O96  1  0.41860350  0.48597950  0.10229000  1
  O  O97  1  0.98237550  0.55943150  0.40001800  1
  O  O98  1  0.82564200  0.73145800  0.25181700  1
  O  O99  1  0.21335700  0.57792000  0.70255900  1
  O  O100  1  0.85765750  0.83670150  0.49822700  1
  O  O101  1  0.41860350  0.51402050  0.60229000  1
  O  O102  1  0.14234250  0.16329850  0.50177300  1
  O  O103  1  0.08430550  0.21381650  0.93155000  1
