# generated using pymatgen
data_SrV2(PO5)2
_symmetry_space_group_name_H-M   'P 1'
_cell_length_a   7.35293000
_cell_length_b   12.01238400
_cell_length_c   16.22290200
_cell_angle_alpha   90.00000000
_cell_angle_beta   90.00000000
_cell_angle_gamma   90.00000000
_symmetry_Int_Tables_number   1
_chemical_formula_structural   SrV2(PO5)2
_chemical_formula_sum   'Sr8 V16 P16 O80'
_cell_volume   1432.90758976
_cell_formula_units_Z   8
loop_
 _symmetry_equiv_pos_site_id
 _symmetry_equiv_pos_as_xyz
  1  'x, y, z'
loop_
 _atom_site_type_symbol
 _atom_site_label
 _atom_site_symmetry_multiplicity
 _atom_site_fract_x
 _atom_site_fract_y
 _atom_site_fract_z
 _atom_site_occupancy
  Sr  Sr0  1  0.50310600  0.00000000  0.50000000  1
  Sr  Sr1  1  0.25310600  0.75000000  0.75000000  1
  Sr  Sr2  1  0.00310600  0.00000000  0.00000000  1
  Sr  Sr3  1  0.75310600  0.75000000  0.25000000  1
  Sr  Sr4  1  0.00310600  0.50000000  0.50000000  1
  Sr  Sr5  1  0.75310600  0.25000000  0.75000000  1
  Sr  Sr6  1  0.50310600  0.50000000  0.00000000  1
  Sr  Sr7  1  0.25310600  0.25000000  0.25000000  1
  V  V8  1  0.14464300  0.13638600  0.63023000  1
  V  V9  1  0.39464300  0.11361400  0.88023000  1
  V  V10  1  0.64464300  0.86361400  0.86977000  1
  V  V11  1  0.89464300  0.88638600  0.61977000  1
  V  V12  1  0.64464300  0.13638600  0.13023000  1
  V  V13  1  0.89464300  0.11361400  0.38023000  1
  V  V14  1  0.14464300  0.86361400  0.36977000  1
  V  V15  1  0.39464300  0.88638600  0.11977000  1
  V  V16  1  0.64464300  0.63638600  0.63023000  1
  V  V17  1  0.89464300  0.61361400  0.88023000  1
  V  V18  1  0.14464300  0.36361400  0.86977000  1
  V  V19  1  0.39464300  0.38638600  0.61977000  1
  V  V20  1  0.14464300  0.63638600  0.13023000  1
  V  V21  1  0.39464300  0.61361400  0.38023000  1
  V  V22  1  0.64464300  0.36361400  0.36977000  1
  V  V23  1  0.89464300  0.38638600  0.11977000  1
  P  P24  1  0.50780450  0.99970300  0.70939650  1
  P  P25  1  0.25780450  0.75029700  0.95939650  1
  P  P26  1  0.00780450  0.00029700  0.79060350  1
  P  P27  1  0.25780450  0.74970300  0.54060350  1
  P  P28  1  0.00780450  0.99970300  0.20939650  1
  P  P29  1  0.75780450  0.75029700  0.45939650  1
  P  P30  1  0.50780450  0.00029700  0.29060350  1
  P  P31  1  0.75780450  0.74970300  0.04060350  1
  P  P32  1  0.00780450  0.49970300  0.70939650  1
  P  P33  1  0.75780450  0.25029700  0.95939650  1
  P  P34  1  0.50780450  0.50029700  0.79060350  1
  P  P35  1  0.75780450  0.24970300  0.54060350  1
  P  P36  1  0.50780450  0.49970300  0.20939650  1
  P  P37  1  0.25780450  0.25029700  0.45939650  1
  P  P38  1  0.00780450  0.50029700  0.29060350  1
  P  P39  1  0.25780450  0.24970300  0.04060350  1
  O  O40  1  0.42385600  0.76154050  0.90120250  1
  O  O41  1  0.01944500  0.89703100  0.73299200  1
  O  O42  1  0.33854550  0.01345550  0.65301100  1
  O  O43  1  0.25970350  0.25075000  0.83549650  1
  O  O44  1  0.49574850  0.89466150  0.76532600  1
  O  O45  1  0.26944500  0.14703100  0.51700800  1
  O  O46  1  0.50970350  0.00075000  0.91450350  1
  O  O47  1  0.17385600  0.01154050  0.84879750  1
  O  O48  1  0.92385600  0.23845950  0.59879750  1
  O  O49  1  0.51944500  0.10296900  0.76700800  1
  O  O50  1  0.25970350  0.24925000  0.66450350  1
  O  O51  1  0.99574850  0.10533850  0.73467400  1
  O  O52  1  0.74574850  0.85533850  0.51532600  1
  O  O53  1  0.24574850  0.14466150  0.98467400  1
  O  O54  1  0.00970350  0.99925000  0.58549650  1
  O  O55  1  0.76944500  0.85296900  0.98299200  1
  O  O56  1  0.08854550  0.76345550  0.59698900  1
  O  O57  1  0.67385600  0.98845950  0.65120250  1
  O  O58  1  0.33854550  0.48654450  0.84698900  1
  O  O59  1  0.58854550  0.23654450  0.90301100  1
  O  O60  1  0.92385600  0.76154050  0.40120250  1
  O  O61  1  0.51944500  0.89703100  0.23299200  1
  O  O62  1  0.83854550  0.01345550  0.15301100  1
  O  O63  1  0.75970350  0.25075000  0.33549650  1
  O  O64  1  0.99574850  0.89466150  0.26532600  1
  O  O65  1  0.76944500  0.14703100  0.01700800  1
  O  O66  1  0.00970350  0.00075000  0.41450350  1
  O  O67  1  0.67385600  0.01154050  0.34879750  1
  O  O68  1  0.42385600  0.23845950  0.09879750  1
  O  O69  1  0.01944500  0.10296900  0.26700800  1
  O  O70  1  0.75970350  0.24925000  0.16450350  1
  O  O71  1  0.49574850  0.10533850  0.23467400  1
  O  O72  1  0.24574850  0.85533850  0.01532600  1
  O  O73  1  0.74574850  0.14466150  0.48467400  1
  O  O74  1  0.50970350  0.99925000  0.08549650  1
  O  O75  1  0.26944500  0.85296900  0.48299200  1
  O  O76  1  0.58854550  0.76345550  0.09698900  1
  O  O77  1  0.17385600  0.98845950  0.15120250  1
  O  O78  1  0.83854550  0.48654450  0.34698900  1
  O  O79  1  0.08854550  0.23654450  0.40301100  1
  O  O80  1  0.92385600  0.26154050  0.90120250  1
  O  O81  1  0.51944500  0.39703100  0.73299200  1
  O  O82  1  0.83854550  0.51345550  0.65301100  1
  O  O83  1  0.75970350  0.75075000  0.83549650  1
  O  O84  1  0.99574850  0.39466150  0.76532600  1
  O  O85  1  0.76944500  0.64703100  0.51700800  1
  O  O86  1  0.00970350  0.50075000  0.91450350  1
  O  O87  1  0.67385600  0.51154050  0.84879750  1
  O  O88  1  0.42385600  0.73845950  0.59879750  1
  O  O89  1  0.01944500  0.60296900  0.76700800  1
  O  O90  1  0.75970350  0.74925000  0.66450350  1
  O  O91  1  0.49574850  0.60533850  0.73467400  1
  O  O92  1  0.24574850  0.35533850  0.51532600  1
  O  O93  1  0.74574850  0.64466150  0.98467400  1
  O  O94  1  0.50970350  0.49925000  0.58549650  1
  O  O95  1  0.26944500  0.35296900  0.98299200  1
  O  O96  1  0.58854550  0.26345550  0.59698900  1
  O  O97  1  0.17385600  0.48845950  0.65120250  1
  O  O98  1  0.83854550  0.98654450  0.84698900  1
  O  O99  1  0.08854550  0.73654450  0.90301100  1
  O  O100  1  0.42385600  0.26154050  0.40120250  1
  O  O101  1  0.01944500  0.39703100  0.23299200  1
  O  O102  1  0.33854550  0.51345550  0.15301100  1
  O  O103  1  0.25970350  0.75075000  0.33549650  1
  O  O104  1  0.49574850  0.39466150  0.26532600  1
  O  O105  1  0.26944500  0.64703100  0.01700800  1
  O  O106  1  0.50970350  0.50075000  0.41450350  1
  O  O107  1  0.17385600  0.51154050  0.34879750  1
  O  O108  1  0.92385600  0.73845950  0.09879750  1
  O  O109  1  0.51944500  0.60296900  0.26700800  1
  O  O110  1  0.25970350  0.74925000  0.16450350  1
  O  O111  1  0.99574850  0.60533850  0.23467400  1
  O  O112  1  0.74574850  0.35533850  0.01532600  1
  O  O113  1  0.24574850  0.64466150  0.48467400  1
  O  O114  1  0.00970350  0.49925000  0.08549650  1
  O  O115  1  0.76944500  0.35296900  0.48299200  1
  O  O116  1  0.08854550  0.26345550  0.09698900  1
  O  O117  1  0.67385600  0.48845950  0.15120250  1
  O  O118  1  0.33854550  0.98654450  0.34698900  1
  O  O119  1  0.58854550  0.73654450  0.40301100  1
