# generated using pymatgen
data_Cs7Np3(Cl2O)6
_symmetry_space_group_name_H-M   'P 1'
_cell_length_a   15.37701600
_cell_length_b   15.37701600
_cell_length_c   15.37701600
_cell_angle_alpha   90.00000000
_cell_angle_beta   90.00000000
_cell_angle_gamma   90.00000000
_symmetry_Int_Tables_number   1
_chemical_formula_structural   Cs7Np3(Cl2O)6
_chemical_formula_sum   'Cs28 Np12 Cl48 O24'
_cell_volume   3635.93573735
_cell_formula_units_Z   4
loop_
 _symmetry_equiv_pos_site_id
 _symmetry_equiv_pos_as_xyz
  1  'x, y, z'
loop_
 _atom_site_type_symbol
 _atom_site_label
 _atom_site_symmetry_multiplicity
 _atom_site_fract_x
 _atom_site_fract_y
 _atom_site_fract_z
 _atom_site_occupancy
  Cs  Cs0  1  0.89796400  0.10203600  0.60203600  1
  Cs  Cs1  1  0.10203600  0.60203600  0.89796400  1
  Cs  Cs2  1  0.60203600  0.89796400  0.10203600  1
  Cs  Cs3  1  0.39796400  0.39796400  0.39796400  1
  Cs  Cs4  1  0.85203600  0.35203600  0.14796400  1
  Cs  Cs5  1  0.14796400  0.85203600  0.35203600  1
  Cs  Cs6  1  0.35203600  0.14796400  0.85203600  1
  Cs  Cs7  1  0.14796400  0.14796400  0.14796400  1
  Cs  Cs8  1  0.75000000  0.37500000  0.50000000  1
  Cs  Cs9  1  0.25000000  0.12500000  0.50000000  1
  Cs  Cs10  1  0.37500000  0.50000000  0.75000000  1
  Cs  Cs11  1  0.12500000  0.50000000  0.25000000  1
  Cs  Cs12  1  0.50000000  0.75000000  0.37500000  1
  Cs  Cs13  1  0.50000000  0.25000000  0.12500000  1
  Cs  Cs14  1  0.39796400  0.60203600  0.10203600  1
  Cs  Cs15  1  0.60203600  0.10203600  0.39796400  1
  Cs  Cs16  1  0.10203600  0.39796400  0.60203600  1
  Cs  Cs17  1  0.89796400  0.89796400  0.89796400  1
  Cs  Cs18  1  0.35203600  0.85203600  0.64796400  1
  Cs  Cs19  1  0.64796400  0.35203600  0.85203600  1
  Cs  Cs20  1  0.85203600  0.64796400  0.35203600  1
  Cs  Cs21  1  0.64796400  0.64796400  0.64796400  1
  Cs  Cs22  1  0.25000000  0.87500000  0.00000000  1
  Cs  Cs23  1  0.75000000  0.62500000  0.00000000  1
  Cs  Cs24  1  0.87500000  0.00000000  0.25000000  1
  Cs  Cs25  1  0.62500000  0.00000000  0.75000000  1
  Cs  Cs26  1  0.00000000  0.25000000  0.87500000  1
  Cs  Cs27  1  0.00000000  0.75000000  0.62500000  1
  Np  Np28  1  0.75000000  0.12500000  0.00000000  1
  Np  Np29  1  0.25000000  0.37500000  0.00000000  1
  Np  Np30  1  0.12500000  0.00000000  0.75000000  1
  Np  Np31  1  0.37500000  0.00000000  0.25000000  1
  Np  Np32  1  0.00000000  0.75000000  0.12500000  1
  Np  Np33  1  0.00000000  0.25000000  0.37500000  1
  Np  Np34  1  0.25000000  0.62500000  0.50000000  1
  Np  Np35  1  0.75000000  0.87500000  0.50000000  1
  Np  Np36  1  0.62500000  0.50000000  0.25000000  1
  Np  Np37  1  0.87500000  0.50000000  0.75000000  1
  Np  Np38  1  0.50000000  0.25000000  0.62500000  1
  Np  Np39  1  0.50000000  0.75000000  0.87500000  1
  Cl  Cl40  1  0.41572000  0.63013600  0.55920100  1
  Cl  Cl41  1  0.58428000  0.13013600  0.94079900  1
  Cl  Cl42  1  0.08428000  0.36986400  0.05920100  1
  Cl  Cl43  1  0.41572000  0.36986400  0.94079900  1
  Cl  Cl44  1  0.30920100  0.38013600  0.16572000  1
  Cl  Cl45  1  0.19079900  0.38013600  0.83428000  1
  Cl  Cl46  1  0.30920100  0.61986400  0.33428000  1
  Cl  Cl47  1  0.69079900  0.11986400  0.16572000  1
  Cl  Cl48  1  0.63013600  0.55920100  0.41572000  1
  Cl  Cl49  1  0.13013600  0.94079900  0.58428000  1
  Cl  Cl50  1  0.36986400  0.05920100  0.08428000  1
  Cl  Cl51  1  0.36986400  0.94079900  0.41572000  1
  Cl  Cl52  1  0.38013600  0.16572000  0.30920100  1
  Cl  Cl53  1  0.38013600  0.83428000  0.19079900  1
  Cl  Cl54  1  0.61986400  0.33428000  0.30920100  1
  Cl  Cl55  1  0.11986400  0.16572000  0.69079900  1
  Cl  Cl56  1  0.55920100  0.41572000  0.63013600  1
  Cl  Cl57  1  0.94079900  0.58428000  0.13013600  1
  Cl  Cl58  1  0.05920100  0.08428000  0.36986400  1
  Cl  Cl59  1  0.94079900  0.41572000  0.36986400  1
  Cl  Cl60  1  0.16572000  0.30920100  0.38013600  1
  Cl  Cl61  1  0.83428000  0.19079900  0.38013600  1
  Cl  Cl62  1  0.33428000  0.30920100  0.61986400  1
  Cl  Cl63  1  0.16572000  0.69079900  0.11986400  1
  Cl  Cl64  1  0.91572000  0.13013600  0.05920100  1
  Cl  Cl65  1  0.08428000  0.63013600  0.44079900  1
  Cl  Cl66  1  0.58428000  0.86986400  0.55920100  1
  Cl  Cl67  1  0.91572000  0.86986400  0.44079900  1
  Cl  Cl68  1  0.80920100  0.88013600  0.66572000  1
  Cl  Cl69  1  0.69079900  0.88013600  0.33428000  1
  Cl  Cl70  1  0.80920100  0.11986400  0.83428000  1
  Cl  Cl71  1  0.19079900  0.61986400  0.66572000  1
  Cl  Cl72  1  0.13013600  0.05920100  0.91572000  1
  Cl  Cl73  1  0.63013600  0.44079900  0.08428000  1
  Cl  Cl74  1  0.86986400  0.55920100  0.58428000  1
  Cl  Cl75  1  0.86986400  0.44079900  0.91572000  1
  Cl  Cl76  1  0.88013600  0.66572000  0.80920100  1
  Cl  Cl77  1  0.88013600  0.33428000  0.69079900  1
  Cl  Cl78  1  0.11986400  0.83428000  0.80920100  1
  Cl  Cl79  1  0.61986400  0.66572000  0.19079900  1
  Cl  Cl80  1  0.05920100  0.91572000  0.13013600  1
  Cl  Cl81  1  0.44079900  0.08428000  0.63013600  1
  Cl  Cl82  1  0.55920100  0.58428000  0.86986400  1
  Cl  Cl83  1  0.44079900  0.91572000  0.86986400  1
  Cl  Cl84  1  0.66572000  0.80920100  0.88013600  1
  Cl  Cl85  1  0.33428000  0.69079900  0.88013600  1
  Cl  Cl86  1  0.83428000  0.80920100  0.11986400  1
  Cl  Cl87  1  0.66572000  0.19079900  0.61986400  1
  O  O88  1  0.75000000  0.24283200  0.00000000  1
  O  O89  1  0.25000000  0.25716800  0.00000000  1
  O  O90  1  0.25000000  0.49283200  0.00000000  1
  O  O91  1  0.75000000  0.00716800  0.00000000  1
  O  O92  1  0.24283200  0.00000000  0.75000000  1
  O  O93  1  0.25716800  0.00000000  0.25000000  1
  O  O94  1  0.49283200  0.00000000  0.25000000  1
  O  O95  1  0.00716800  0.00000000  0.75000000  1
  O  O96  1  0.00000000  0.75000000  0.24283200  1
  O  O97  1  0.00000000  0.25000000  0.25716800  1
  O  O98  1  0.00000000  0.25000000  0.49283200  1
  O  O99  1  0.00000000  0.75000000  0.00716800  1
  O  O100  1  0.25000000  0.74283200  0.50000000  1
  O  O101  1  0.75000000  0.75716800  0.50000000  1
  O  O102  1  0.75000000  0.99283200  0.50000000  1
  O  O103  1  0.25000000  0.50716800  0.50000000  1
  O  O104  1  0.74283200  0.50000000  0.25000000  1
  O  O105  1  0.75716800  0.50000000  0.75000000  1
  O  O106  1  0.99283200  0.50000000  0.75000000  1
  O  O107  1  0.50716800  0.50000000  0.25000000  1
  O  O108  1  0.50000000  0.25000000  0.74283200  1
  O  O109  1  0.50000000  0.75000000  0.75716800  1
  O  O110  1  0.50000000  0.75000000  0.99283200  1
  O  O111  1  0.50000000  0.25000000  0.50716800  1
