# generated using pymatgen
data_Sr2CuWO6
_symmetry_space_group_name_H-M   'P 1'
_cell_length_a   5.45588600
_cell_length_b   5.45588600
_cell_length_c   8.72503800
_cell_angle_alpha   90.00000000
_cell_angle_beta   90.00000000
_cell_angle_gamma   90.00000000
_symmetry_Int_Tables_number   1
_chemical_formula_structural   Sr2CuWO6
_chemical_formula_sum   'Sr4 Cu2 W2 O12'
_cell_volume   259.71551923
_cell_formula_units_Z   2
loop_
 _symmetry_equiv_pos_site_id
 _symmetry_equiv_pos_as_xyz
  1  'x, y, z'
loop_
 _atom_site_type_symbol
 _atom_site_label
 _atom_site_symmetry_multiplicity
 _atom_site_fract_x
 _atom_site_fract_y
 _atom_site_fract_z
 _atom_site_occupancy
  Sr  Sr0  1  0.50000000  0.00000000  0.25000000  1
  Sr  Sr1  1  0.00000000  0.50000000  0.25000000  1
  Sr  Sr2  1  0.00000000  0.50000000  0.75000000  1
  Sr  Sr3  1  0.50000000  0.00000000  0.75000000  1
  Cu  Cu4  1  0.50000000  0.50000000  0.00000000  1
  Cu  Cu5  1  0.00000000  0.00000000  0.50000000  1
  W  W6  1  0.00000000  0.00000000  0.00000000  1
  W  W7  1  0.50000000  0.50000000  0.50000000  1
  O  O8  1  0.19343450  0.30054350  0.00000000  1
  O  O9  1  0.30656550  0.19945650  0.50000000  1
  O  O10  1  0.69945650  0.19343450  0.00000000  1
  O  O11  1  0.30054350  0.80656550  0.00000000  1
  O  O12  1  0.00000000  0.00000000  0.22484200  1
  O  O13  1  0.50000000  0.50000000  0.27515800  1
  O  O14  1  0.69343450  0.80054350  0.50000000  1
  O  O15  1  0.80656550  0.69945650  0.00000000  1
  O  O16  1  0.19945650  0.69343450  0.50000000  1
  O  O17  1  0.80054350  0.30656550  0.50000000  1
  O  O18  1  0.50000000  0.50000000  0.72484200  1
  O  O19  1  0.00000000  0.00000000  0.77515800  1
