# generated using pymatgen
data_V3SiP5O19
_symmetry_space_group_name_H-M   'P 1'
_cell_length_a   14.58948410
_cell_length_b   14.58948410
_cell_length_c   7.72138400
_cell_angle_alpha   90.00000000
_cell_angle_beta   90.00000000
_cell_angle_gamma   120.00000000
_symmetry_Int_Tables_number   1
_chemical_formula_structural   V3SiP5O19
_chemical_formula_sum   'V12 Si4 P20 O76'
_cell_volume   1423.33016324
_cell_formula_units_Z   4
loop_
 _symmetry_equiv_pos_site_id
 _symmetry_equiv_pos_as_xyz
  1  'x, y, z'
loop_
 _atom_site_type_symbol
 _atom_site_label
 _atom_site_symmetry_multiplicity
 _atom_site_fract_x
 _atom_site_fract_y
 _atom_site_fract_z
 _atom_site_occupancy
  V  V0  1  0.97720500  0.65723300  0.05549400  1
  V  V1  1  0.02279500  0.34276700  0.55549400  1
  V  V2  1  0.01435100  0.33871000  0.94682400  1
  V  V3  1  0.67564100  0.01435100  0.44682400  1
  V  V4  1  0.98564900  0.66129000  0.44682400  1
  V  V5  1  0.33871000  0.32435900  0.44682400  1
  V  V6  1  0.31997200  0.97720500  0.55549400  1
  V  V7  1  0.32435900  0.98564900  0.94682400  1
  V  V8  1  0.66129000  0.67564100  0.94682400  1
  V  V9  1  0.34276700  0.31997200  0.05549400  1
  V  V10  1  0.68002800  0.02279500  0.05549400  1
  V  V11  1  0.65723300  0.68002800  0.55549400  1
  Si  Si12  1  0.66666667  0.33333333  0.80153900  1
  Si  Si13  1  0.66666667  0.33333333  0.21518900  1
  Si  Si14  1  0.33333333  0.66666667  0.30153900  1
  Si  Si15  1  0.33333333  0.66666667  0.71518900  1
  P  P16  1  0.76883100  0.91649400  0.74731400  1
  P  P17  1  0.91649400  0.14766300  0.24731400  1
  P  P18  1  0.22172900  0.78940500  0.24828900  1
  P  P19  1  0.43232400  0.22172900  0.74828900  1
  P  P20  1  0.48379600  0.90475900  0.75967500  1
  P  P21  1  0.09524100  0.57903700  0.75967500  1
  P  P22  1  0.85233700  0.76883100  0.24731400  1
  P  P23  1  0.42096300  0.51620400  0.75967500  1
  P  P24  1  0.77827100  0.21059500  0.74828900  1
  P  P25  1  0.78940500  0.56767600  0.74828900  1
  P  P26  1  0.57903700  0.48379600  0.25967500  1
  P  P27  1  0.51620400  0.09524100  0.25967500  1
  P  P28  1  0.90475900  0.42096300  0.25967500  1
  P  P29  1  0.23116900  0.08350600  0.24731400  1
  P  P30  1  0.21059500  0.43232400  0.24828900  1
  P  P31  1  0.08350600  0.85233700  0.74731400  1
  P  P32  1  0.00000000  0.00000000  0.81492600  1
  P  P33  1  0.00000000  0.00000000  0.31492600  1
  P  P34  1  0.56767600  0.77827100  0.24828900  1
  P  P35  1  0.14766300  0.23116900  0.74731400  1
  O  O36  1  0.35778400  0.57723900  0.79074100  1
  O  O37  1  0.90302400  0.69650400  0.24938400  1
  O  O38  1  0.75458000  0.30546000  0.72766900  1
  O  O39  1  0.38564200  0.45758400  0.58904200  1
  O  O40  1  0.30349600  0.20652000  0.24938400  1
  O  O41  1  0.30546000  0.55088000  0.22766900  1
  O  O42  1  0.20652000  0.90302400  0.74938400  1
  O  O43  1  0.55078500  0.94858000  0.92230500  1
  O  O44  1  0.26691200  0.84281100  0.42175100  1
  O  O45  1  0.00000000  0.00000000  0.50190500  1
  O  O46  1  0.11665500  0.07277500  0.24489800  1
  O  O47  1  0.79561100  0.75631700  0.07566000  1
  O  O48  1  0.73186100  0.14269000  0.58799900  1
  O  O49  1  0.26548900  0.36403400  0.24751000  1
  O  O50  1  0.60181000  0.06078400  0.25707800  1
  O  O51  1  0.58917100  0.73186100  0.08799900  1
  O  O52  1  0.26813900  0.85731000  0.08799900  1
  O  O53  1  0.24542000  0.69454000  0.22766900  1
  O  O54  1  0.69454000  0.44912000  0.72766900  1
  O  O55  1  0.75826100  0.96909300  0.90878400  1
  O  O56  1  0.94858000  0.39779500  0.42230500  1
  O  O57  1  0.69650400  0.79348000  0.74938400  1
  O  O58  1  0.93921600  0.54102600  0.25707800  1
  O  O59  1  0.42410100  0.26691200  0.92175100  1
  O  O60  1  0.61435800  0.54241600  0.08904200  1
  O  O61  1  0.54241600  0.92805800  0.58904200  1
  O  O62  1  0.78916800  0.75826100  0.40878400  1
  O  O63  1  0.07277500  0.95612000  0.74489800  1
  O  O64  1  0.64221600  0.42276100  0.29074100  1
  O  O65  1  0.03090700  0.78916800  0.90878400  1
  O  O66  1  0.79348000  0.09697600  0.24938400  1
  O  O67  1  0.92805800  0.38564200  0.08904200  1
  O  O68  1  0.54102600  0.60181000  0.75707800  1
  O  O69  1  0.66666667  0.33333333  0.00831000  1
  O  O70  1  0.45758400  0.07194200  0.08904200  1
  O  O71  1  0.57589900  0.73308800  0.42175100  1
  O  O72  1  0.21083200  0.24173900  0.90878400  1
  O  O73  1  0.88334500  0.92722500  0.74489800  1
  O  O74  1  0.55088000  0.24542000  0.72766900  1
  O  O75  1  0.73451100  0.63596600  0.74751000  1
  O  O76  1  0.07194200  0.61435800  0.58904200  1
  O  O77  1  0.14269000  0.41082900  0.08799900  1
  O  O78  1  0.96070600  0.20438900  0.07566000  1
  O  O79  1  0.96909300  0.21083200  0.40878400  1
  O  O80  1  0.05142000  0.60220500  0.92230500  1
  O  O81  1  0.00000000  0.00000000  0.00190500  1
  O  O82  1  0.03929400  0.79561100  0.57566000  1
  O  O83  1  0.41082900  0.26813900  0.58799900  1
  O  O84  1  0.92722500  0.04388000  0.24489800  1
  O  O85  1  0.60220500  0.55078500  0.42230500  1
  O  O86  1  0.15718900  0.42410100  0.42175100  1
  O  O87  1  0.24368300  0.03929400  0.07566000  1
  O  O88  1  0.63596600  0.90145500  0.24751000  1
  O  O89  1  0.06078400  0.45897400  0.75707800  1
  O  O90  1  0.85731000  0.58917100  0.58799900  1
  O  O91  1  0.84281100  0.57589900  0.92175100  1
  O  O92  1  0.42276100  0.78054500  0.79074100  1
  O  O93  1  0.33333333  0.66666667  0.50831000  1
  O  O94  1  0.36403400  0.09854500  0.74751000  1
  O  O95  1  0.39819000  0.93921600  0.75707800  1
  O  O96  1  0.73308800  0.15718900  0.92175100  1
  O  O97  1  0.09697600  0.30349600  0.74938400  1
  O  O98  1  0.75631700  0.96070600  0.57566000  1
  O  O99  1  0.45897400  0.39819000  0.25707800  1
  O  O100  1  0.20438900  0.24368300  0.57566000  1
  O  O101  1  0.90145500  0.26548900  0.74751000  1
  O  O102  1  0.44921500  0.05142000  0.42230500  1
  O  O103  1  0.21945500  0.64221600  0.79074100  1
  O  O104  1  0.44912000  0.75458000  0.22766900  1
  O  O105  1  0.09854500  0.73451100  0.24751000  1
  O  O106  1  0.78054500  0.35778400  0.29074100  1
  O  O107  1  0.57723900  0.21945500  0.29074100  1
  O  O108  1  0.24173900  0.03090700  0.40878400  1
  O  O109  1  0.04388000  0.11665500  0.74489800  1
  O  O110  1  0.95612000  0.88334500  0.24489800  1
  O  O111  1  0.39779500  0.44921500  0.92230500  1
