# generated using pymatgen
data_Mn15(Br3O10)2
_symmetry_space_group_name_H-M   'P 1'
_cell_length_a   13.34336000
_cell_length_b   13.34336000
_cell_length_c   13.34336000
_cell_angle_alpha   90.00000000
_cell_angle_beta   90.00000000
_cell_angle_gamma   90.00000000
_symmetry_Int_Tables_number   1
_chemical_formula_structural   Mn15(Br3O10)2
_chemical_formula_sum   'Mn60 Br24 O80'
_cell_volume   2375.72194830
_cell_formula_units_Z   4
loop_
 _symmetry_equiv_pos_site_id
 _symmetry_equiv_pos_as_xyz
  1  'x, y, z'
loop_
 _atom_site_type_symbol
 _atom_site_label
 _atom_site_symmetry_multiplicity
 _atom_site_fract_x
 _atom_site_fract_y
 _atom_site_fract_z
 _atom_site_occupancy
  Mn  Mn0  1  0.67505150  0.00000000  0.67505150  1
  Mn  Mn1  1  0.25000000  0.75000000  0.75000000  1
  Mn  Mn2  1  0.25000000  0.25000000  0.75000000  1
  Mn  Mn3  1  0.32494850  0.67505150  0.00000000  1
  Mn  Mn4  1  0.32494850  0.32494850  0.00000000  1
  Mn  Mn5  1  0.17505150  0.17505150  0.00000000  1
  Mn  Mn6  1  0.17505150  0.82494850  0.00000000  1
  Mn  Mn7  1  0.17505150  0.00000000  0.82494850  1
  Mn  Mn8  1  0.82494850  0.00000000  0.82494850  1
  Mn  Mn9  1  0.32494850  0.00000000  0.67505150  1
  Mn  Mn10  1  0.00000000  0.82494850  0.82494850  1
  Mn  Mn11  1  0.00000000  0.17505150  0.82494850  1
  Mn  Mn12  1  0.00000000  0.32494850  0.67505150  1
  Mn  Mn13  1  0.00000000  0.67505150  0.67505150  1
  Mn  Mn14  1  0.00000000  0.00000000  0.00000000  1
  Mn  Mn15  1  0.67505150  0.50000000  0.17505150  1
  Mn  Mn16  1  0.25000000  0.25000000  0.25000000  1
  Mn  Mn17  1  0.25000000  0.75000000  0.25000000  1
  Mn  Mn18  1  0.32494850  0.17505150  0.50000000  1
  Mn  Mn19  1  0.32494850  0.82494850  0.50000000  1
  Mn  Mn20  1  0.17505150  0.67505150  0.50000000  1
  Mn  Mn21  1  0.17505150  0.32494850  0.50000000  1
  Mn  Mn22  1  0.17505150  0.50000000  0.32494850  1
  Mn  Mn23  1  0.82494850  0.50000000  0.32494850  1
  Mn  Mn24  1  0.32494850  0.50000000  0.17505150  1
  Mn  Mn25  1  0.00000000  0.32494850  0.32494850  1
  Mn  Mn26  1  0.00000000  0.67505150  0.32494850  1
  Mn  Mn27  1  0.00000000  0.82494850  0.17505150  1
  Mn  Mn28  1  0.00000000  0.17505150  0.17505150  1
  Mn  Mn29  1  0.00000000  0.50000000  0.50000000  1
  Mn  Mn30  1  0.17505150  0.00000000  0.17505150  1
  Mn  Mn31  1  0.75000000  0.75000000  0.25000000  1
  Mn  Mn32  1  0.75000000  0.25000000  0.25000000  1
  Mn  Mn33  1  0.82494850  0.67505150  0.50000000  1
  Mn  Mn34  1  0.82494850  0.32494850  0.50000000  1
  Mn  Mn35  1  0.67505150  0.17505150  0.50000000  1
  Mn  Mn36  1  0.67505150  0.82494850  0.50000000  1
  Mn  Mn37  1  0.67505150  0.00000000  0.32494850  1
  Mn  Mn38  1  0.32494850  0.00000000  0.32494850  1
  Mn  Mn39  1  0.82494850  0.00000000  0.17505150  1
  Mn  Mn40  1  0.50000000  0.82494850  0.32494850  1
  Mn  Mn41  1  0.50000000  0.17505150  0.32494850  1
  Mn  Mn42  1  0.50000000  0.32494850  0.17505150  1
  Mn  Mn43  1  0.50000000  0.67505150  0.17505150  1
  Mn  Mn44  1  0.50000000  0.00000000  0.50000000  1
  Mn  Mn45  1  0.17505150  0.50000000  0.67505150  1
  Mn  Mn46  1  0.75000000  0.25000000  0.75000000  1
  Mn  Mn47  1  0.75000000  0.75000000  0.75000000  1
  Mn  Mn48  1  0.82494850  0.17505150  0.00000000  1
  Mn  Mn49  1  0.82494850  0.82494850  0.00000000  1
  Mn  Mn50  1  0.67505150  0.67505150  0.00000000  1
  Mn  Mn51  1  0.67505150  0.32494850  0.00000000  1
  Mn  Mn52  1  0.67505150  0.50000000  0.82494850  1
  Mn  Mn53  1  0.32494850  0.50000000  0.82494850  1
  Mn  Mn54  1  0.82494850  0.50000000  0.67505150  1
  Mn  Mn55  1  0.50000000  0.32494850  0.82494850  1
  Mn  Mn56  1  0.50000000  0.67505150  0.82494850  1
  Mn  Mn57  1  0.50000000  0.82494850  0.67505150  1
  Mn  Mn58  1  0.50000000  0.17505150  0.67505150  1
  Mn  Mn59  1  0.50000000  0.50000000  0.00000000  1
  Br  Br60  1  0.50000000  0.00000000  0.79962000  1
  Br  Br61  1  0.70038000  0.00000000  0.00000000  1
  Br  Br62  1  0.50000000  0.20038000  0.00000000  1
  Br  Br63  1  0.50000000  0.79962000  0.00000000  1
  Br  Br64  1  0.29962000  0.00000000  0.00000000  1
  Br  Br65  1  0.00000000  0.00000000  0.70038000  1
  Br  Br66  1  0.50000000  0.50000000  0.29962000  1
  Br  Br67  1  0.70038000  0.50000000  0.50000000  1
  Br  Br68  1  0.50000000  0.70038000  0.50000000  1
  Br  Br69  1  0.50000000  0.29962000  0.50000000  1
  Br  Br70  1  0.29962000  0.50000000  0.50000000  1
  Br  Br71  1  0.00000000  0.50000000  0.20038000  1
  Br  Br72  1  0.00000000  0.00000000  0.29962000  1
  Br  Br73  1  0.20038000  0.00000000  0.50000000  1
  Br  Br74  1  0.00000000  0.20038000  0.50000000  1
  Br  Br75  1  0.00000000  0.79962000  0.50000000  1
  Br  Br76  1  0.79962000  0.00000000  0.50000000  1
  Br  Br77  1  0.50000000  0.00000000  0.20038000  1
  Br  Br78  1  0.00000000  0.50000000  0.79962000  1
  Br  Br79  1  0.20038000  0.50000000  0.00000000  1
  Br  Br80  1  0.00000000  0.70038000  0.00000000  1
  Br  Br81  1  0.00000000  0.29962000  0.00000000  1
  Br  Br82  1  0.79962000  0.50000000  0.00000000  1
  Br  Br83  1  0.50000000  0.50000000  0.70038000  1
  O  O84  1  0.09967600  0.09967600  0.90032400  1
  O  O85  1  0.09967600  0.40032400  0.59967600  1
  O  O86  1  0.25000000  0.25000000  0.90212900  1
  O  O87  1  0.25000000  0.75000000  0.90212900  1
  O  O88  1  0.25000000  0.75000000  0.59787100  1
  O  O89  1  0.25000000  0.25000000  0.59787100  1
  O  O90  1  0.40212900  0.25000000  0.75000000  1
  O  O91  1  0.25000000  0.90212900  0.75000000  1
  O  O92  1  0.25000000  0.59787100  0.75000000  1
  O  O93  1  0.09787100  0.25000000  0.75000000  1
  O  O94  1  0.09787100  0.75000000  0.75000000  1
  O  O95  1  0.25000000  0.09787100  0.75000000  1
  O  O96  1  0.25000000  0.40212900  0.75000000  1
  O  O97  1  0.40212900  0.75000000  0.75000000  1
  O  O98  1  0.09967600  0.59967600  0.59967600  1
  O  O99  1  0.40032400  0.40032400  0.90032400  1
  O  O100  1  0.40032400  0.09967600  0.59967600  1
  O  O101  1  0.09967600  0.90032400  0.90032400  1
  O  O102  1  0.40032400  0.59967600  0.90032400  1
  O  O103  1  0.40032400  0.90032400  0.59967600  1
  O  O104  1  0.09967600  0.59967600  0.40032400  1
  O  O105  1  0.09967600  0.90032400  0.09967600  1
  O  O106  1  0.25000000  0.75000000  0.40212900  1
  O  O107  1  0.25000000  0.25000000  0.40212900  1
  O  O108  1  0.25000000  0.25000000  0.09787100  1
  O  O109  1  0.25000000  0.75000000  0.09787100  1
  O  O110  1  0.40212900  0.75000000  0.25000000  1
  O  O111  1  0.25000000  0.40212900  0.25000000  1
  O  O112  1  0.25000000  0.09787100  0.25000000  1
  O  O113  1  0.09787100  0.75000000  0.25000000  1
  O  O114  1  0.09787100  0.25000000  0.25000000  1
  O  O115  1  0.25000000  0.59787100  0.25000000  1
  O  O116  1  0.25000000  0.90212900  0.25000000  1
  O  O117  1  0.40212900  0.25000000  0.25000000  1
  O  O118  1  0.09967600  0.09967600  0.09967600  1
  O  O119  1  0.40032400  0.90032400  0.40032400  1
  O  O120  1  0.40032400  0.59967600  0.09967600  1
  O  O121  1  0.09967600  0.40032400  0.40032400  1
  O  O122  1  0.40032400  0.09967600  0.40032400  1
  O  O123  1  0.40032400  0.40032400  0.09967600  1
  O  O124  1  0.59967600  0.09967600  0.40032400  1
  O  O125  1  0.59967600  0.40032400  0.09967600  1
  O  O126  1  0.75000000  0.25000000  0.40212900  1
  O  O127  1  0.75000000  0.75000000  0.40212900  1
  O  O128  1  0.75000000  0.75000000  0.09787100  1
  O  O129  1  0.75000000  0.25000000  0.09787100  1
  O  O130  1  0.90212900  0.25000000  0.25000000  1
  O  O131  1  0.75000000  0.90212900  0.25000000  1
  O  O132  1  0.75000000  0.59787100  0.25000000  1
  O  O133  1  0.59787100  0.25000000  0.25000000  1
  O  O134  1  0.59787100  0.75000000  0.25000000  1
  O  O135  1  0.75000000  0.09787100  0.25000000  1
  O  O136  1  0.75000000  0.40212900  0.25000000  1
  O  O137  1  0.90212900  0.75000000  0.25000000  1
  O  O138  1  0.59967600  0.59967600  0.09967600  1
  O  O139  1  0.90032400  0.40032400  0.40032400  1
  O  O140  1  0.90032400  0.09967600  0.09967600  1
  O  O141  1  0.59967600  0.90032400  0.40032400  1
  O  O142  1  0.90032400  0.59967600  0.40032400  1
  O  O143  1  0.90032400  0.90032400  0.09967600  1
  O  O144  1  0.59967600  0.59967600  0.90032400  1
  O  O145  1  0.59967600  0.90032400  0.59967600  1
  O  O146  1  0.75000000  0.75000000  0.90212900  1
  O  O147  1  0.75000000  0.25000000  0.90212900  1
  O  O148  1  0.75000000  0.25000000  0.59787100  1
  O  O149  1  0.75000000  0.75000000  0.59787100  1
  O  O150  1  0.90212900  0.75000000  0.75000000  1
  O  O151  1  0.75000000  0.40212900  0.75000000  1
  O  O152  1  0.75000000  0.09787100  0.75000000  1
  O  O153  1  0.59787100  0.75000000  0.75000000  1
  O  O154  1  0.59787100  0.25000000  0.75000000  1
  O  O155  1  0.75000000  0.59787100  0.75000000  1
  O  O156  1  0.75000000  0.90212900  0.75000000  1
  O  O157  1  0.90212900  0.25000000  0.75000000  1
  O  O158  1  0.59967600  0.09967600  0.59967600  1
  O  O159  1  0.90032400  0.90032400  0.90032400  1
  O  O160  1  0.90032400  0.59967600  0.59967600  1
  O  O161  1  0.59967600  0.40032400  0.90032400  1
  O  O162  1  0.90032400  0.09967600  0.90032400  1
  O  O163  1  0.90032400  0.40032400  0.59967600  1
