# generated using pymatgen
data_Li22Pb5
_symmetry_space_group_name_H-M   'P 1'
_cell_length_a   20.03507400
_cell_length_b   20.03507400
_cell_length_c   20.03507400
_cell_angle_alpha   90.00000000
_cell_angle_beta   90.00000000
_cell_angle_gamma   90.00000000
_symmetry_Int_Tables_number   1
_chemical_formula_structural   Li22Pb5
_chemical_formula_sum   'Li352 Pb80'
_cell_volume   8042.16265428
_cell_formula_units_Z   16
loop_
 _symmetry_equiv_pos_site_id
 _symmetry_equiv_pos_as_xyz
  1  'x, y, z'
loop_
 _atom_site_type_symbol
 _atom_site_label
 _atom_site_symmetry_multiplicity
 _atom_site_fract_x
 _atom_site_fract_y
 _atom_site_fract_z
 _atom_site_occupancy
  Li  Li0  1  0.42339258  0.42339258  0.57660742  1
  Li  Li1  1  0.41194050  0.74189075  0.58805950  1
  Li  Li2  1  0.75000000  0.25000000  0.92200525  1
  Li  Li3  1  0.16411375  0.49613825  0.33588625  1
  Li  Li4  1  0.58329292  0.58329292  0.41670708  1
  Li  Li5  1  0.75000000  0.25000000  0.57799475  1
  Li  Li6  1  0.50386175  0.66411375  0.16411375  1
  Li  Li7  1  0.99613825  0.66411375  0.33588625  1
  Li  Li8  1  0.17070242  0.67070242  0.17070242  1
  Li  Li9  1  0.33588625  0.49613825  0.16411375  1
  Li  Li10  1  0.34035425  0.50622175  0.34035425  1
  Li  Li11  1  0.33155342  0.66844658  0.16844658  1
  Li  Li12  1  0.66844658  0.33155342  0.16844658  1
  Li  Li13  1  0.66411375  0.50386175  0.16411375  1
  Li  Li14  1  0.42393425  0.57606575  0.92393425  1
  Li  Li15  1  0.41194050  0.25810925  0.41194050  1
  Li  Li16  1  0.58805950  0.74189075  0.41194050  1
  Li  Li17  1  0.50000000  0.67052075  0.00000000  1
  Li  Li18  1  0.25000000  0.42200525  0.25000000  1
  Li  Li19  1  0.84035425  0.34035425  0.00622175  1
  Li  Li20  1  0.58859675  0.25608275  0.08859675  1
  Li  Li21  1  0.74189075  0.41194050  0.58805950  1
  Li  Li22  1  0.41194050  0.41194050  0.25810925  1
  Li  Li23  1  0.42393425  0.42393425  0.07606575  1
  Li  Li24  1  0.07799475  0.25000000  0.25000000  1
  Li  Li25  1  0.25810925  0.58805950  0.58805950  1
  Li  Li26  1  0.41194050  0.58805950  0.74189075  1
  Li  Li27  1  0.65964575  0.34035425  0.49377825  1
  Li  Li28  1  0.99377825  0.34035425  0.15964575  1
  Li  Li29  1  0.50000000  0.50000000  0.82947925  1
  Li  Li30  1  0.00386175  0.33588625  0.33588625  1
  Li  Li31  1  0.41140325  0.74391725  0.08859675  1
  Li  Li32  1  0.34035425  0.65964575  0.49377825  1
  Li  Li33  1  0.32947925  0.50000000  0.00000000  1
  Li  Li34  1  0.32412508  0.32412508  0.32412508  1
  Li  Li35  1  0.83588625  0.50386175  0.33588625  1
  Li  Li36  1  0.67587492  0.32412508  0.67587492  1
  Li  Li37  1  0.32929758  0.67070242  0.32929758  1
  Li  Li38  1  0.58329292  0.41670708  0.58329292  1
  Li  Li39  1  0.65964575  0.49377825  0.34035425  1
  Li  Li40  1  0.50000000  0.50000000  0.50000000  1
  Li  Li41  1  0.25810925  0.41194050  0.41194050  1
  Li  Li42  1  0.91140325  0.41140325  0.25608275  1
  Li  Li43  1  0.42339258  0.57660742  0.42339258  1
  Li  Li44  1  0.08859675  0.58859675  0.25608275  1
  Li  Li45  1  0.49377825  0.65964575  0.34035425  1
  Li  Li46  1  0.82929758  0.32929758  0.17070242  1
  Li  Li47  1  0.74391725  0.41140325  0.08859675  1
  Li  Li48  1  0.25608275  0.58859675  0.08859675  1
  Li  Li49  1  0.57660742  0.57660742  0.57660742  1
  Li  Li50  1  0.50622175  0.34035425  0.34035425  1
  Li  Li51  1  0.57606575  0.57606575  0.07606575  1
  Li  Li52  1  0.67052075  0.50000000  0.00000000  1
  Li  Li53  1  0.41670708  0.58329292  0.58329292  1
  Li  Li54  1  0.41670708  0.41670708  0.41670708  1
  Li  Li55  1  0.84035425  0.49377825  0.15964575  1
  Li  Li56  1  0.75000000  0.57799475  0.25000000  1
  Li  Li57  1  0.41140325  0.58859675  0.24391725  1
  Li  Li58  1  0.50000000  0.50000000  0.17052075  1
  Li  Li59  1  0.57606575  0.42393425  0.92393425  1
  Li  Li60  1  0.42200525  0.25000000  0.25000000  1
  Li  Li61  1  0.15964575  0.65964575  0.00622175  1
  Li  Li62  1  0.67587492  0.67587492  0.32412508  1
  Li  Li63  1  0.83588625  0.33588625  0.50386175  1
  Li  Li64  1  0.75000000  0.25000000  0.25000000  1
  Li  Li65  1  0.25000000  0.25000000  0.25000000  1
  Li  Li66  1  0.50000000  0.32947925  0.00000000  1
  Li  Li67  1  0.67070242  0.32929758  0.32929758  1
  Li  Li68  1  0.16411375  0.66411375  0.50386175  1
  Li  Li69  1  0.08859675  0.74391725  0.41140325  1
  Li  Li70  1  0.58805950  0.41194050  0.74189075  1
  Li  Li71  1  0.57660742  0.42339258  0.42339258  1
  Li  Li72  1  0.58805950  0.58805950  0.25810925  1
  Li  Li73  1  0.66411375  0.33588625  0.99613825  1
  Li  Li74  1  0.75608275  0.41140325  0.41140325  1
  Li  Li75  1  0.33588625  0.66411375  0.99613825  1
  Li  Li76  1  0.58805950  0.25810925  0.58805950  1
  Li  Li77  1  0.24391725  0.58859675  0.41140325  1
  Li  Li78  1  0.00622175  0.65964575  0.15964575  1
  Li  Li79  1  0.58859675  0.41140325  0.24391725  1
  Li  Li80  1  0.15964575  0.50622175  0.15964575  1
  Li  Li81  1  0.49613825  0.33588625  0.16411375  1
  Li  Li82  1  0.50000000  0.50000000  0.00000000  1
  Li  Li83  1  0.16844658  0.66844658  0.33155342  1
  Li  Li84  1  0.74189075  0.58805950  0.41194050  1
  Li  Li85  1  0.91140325  0.25608275  0.41140325  1
  Li  Li86  1  0.83155342  0.33155342  0.33155342  1
  Li  Li87  1  0.32412508  0.67587492  0.67587492  1
  Li  Li88  1  0.42339258  0.92339258  0.07660742  1
  Li  Li89  1  0.41194050  0.24189075  0.08805950  1
  Li  Li90  1  0.75000000  0.75000000  0.42200525  1
  Li  Li91  1  0.16411375  0.99613825  0.83588625  1
  Li  Li92  1  0.58329292  0.08329292  0.91670708  1
  Li  Li93  1  0.75000000  0.75000000  0.07799475  1
  Li  Li94  1  0.50386175  0.16411375  0.66411375  1
  Li  Li95  1  0.99613825  0.16411375  0.83588625  1
  Li  Li96  1  0.17070242  0.17070242  0.67070242  1
  Li  Li97  1  0.33588625  0.99613825  0.66411375  1
  Li  Li98  1  0.34035425  0.00622175  0.84035425  1
  Li  Li99  1  0.33155342  0.16844658  0.66844658  1
  Li  Li100  1  0.66844658  0.83155342  0.66844658  1
  Li  Li101  1  0.66411375  0.00386175  0.66411375  1
  Li  Li102  1  0.42393425  0.07606575  0.42393425  1
  Li  Li103  1  0.41194050  0.75810925  0.91194050  1
  Li  Li104  1  0.58805950  0.24189075  0.91194050  1
  Li  Li105  1  0.50000000  0.17052075  0.50000000  1
  Li  Li106  1  0.25000000  0.92200525  0.75000000  1
  Li  Li107  1  0.84035425  0.84035425  0.50622175  1
  Li  Li108  1  0.58859675  0.75608275  0.58859675  1
  Li  Li109  1  0.74189075  0.91194050  0.08805950  1
  Li  Li110  1  0.41194050  0.91194050  0.75810925  1
  Li  Li111  1  0.42393425  0.92393425  0.57606575  1
  Li  Li112  1  0.07799475  0.75000000  0.75000000  1
  Li  Li113  1  0.25810925  0.08805950  0.08805950  1
  Li  Li114  1  0.41194050  0.08805950  0.24189075  1
  Li  Li115  1  0.65964575  0.84035425  0.99377825  1
  Li  Li116  1  0.99377825  0.84035425  0.65964575  1
  Li  Li117  1  0.50000000  0.00000000  0.32947925  1
  Li  Li118  1  0.00386175  0.83588625  0.83588625  1
  Li  Li119  1  0.41140325  0.24391725  0.58859675  1
  Li  Li120  1  0.34035425  0.15964575  0.99377825  1
  Li  Li121  1  0.32947925  0.00000000  0.50000000  1
  Li  Li122  1  0.32412508  0.82412508  0.82412508  1
  Li  Li123  1  0.83588625  0.00386175  0.83588625  1
  Li  Li124  1  0.67587492  0.82412508  0.17587492  1
  Li  Li125  1  0.32929758  0.17070242  0.82929758  1
  Li  Li126  1  0.58329292  0.91670708  0.08329292  1
  Li  Li127  1  0.65964575  0.99377825  0.84035425  1
  Li  Li128  1  0.50000000  0.00000000  0.00000000  1
  Li  Li129  1  0.25810925  0.91194050  0.91194050  1
  Li  Li130  1  0.91140325  0.91140325  0.75608275  1
  Li  Li131  1  0.42339258  0.07660742  0.92339258  1
  Li  Li132  1  0.08859675  0.08859675  0.75608275  1
  Li  Li133  1  0.49377825  0.15964575  0.84035425  1
  Li  Li134  1  0.82929758  0.82929758  0.67070242  1
  Li  Li135  1  0.74391725  0.91140325  0.58859675  1
  Li  Li136  1  0.25608275  0.08859675  0.58859675  1
  Li  Li137  1  0.57660742  0.07660742  0.07660742  1
  Li  Li138  1  0.50622175  0.84035425  0.84035425  1
  Li  Li139  1  0.57606575  0.07606575  0.57606575  1
  Li  Li140  1  0.67052075  0.00000000  0.50000000  1
  Li  Li141  1  0.41670708  0.08329292  0.08329292  1
  Li  Li142  1  0.41670708  0.91670708  0.91670708  1
  Li  Li143  1  0.84035425  0.99377825  0.65964575  1
  Li  Li144  1  0.75000000  0.07799475  0.75000000  1
  Li  Li145  1  0.41140325  0.08859675  0.74391725  1
  Li  Li146  1  0.50000000  0.00000000  0.67052075  1
  Li  Li147  1  0.57606575  0.92393425  0.42393425  1
  Li  Li148  1  0.42200525  0.75000000  0.75000000  1
  Li  Li149  1  0.15964575  0.15964575  0.50622175  1
  Li  Li150  1  0.67587492  0.17587492  0.82412508  1
  Li  Li151  1  0.83588625  0.83588625  0.00386175  1
  Li  Li152  1  0.75000000  0.75000000  0.75000000  1
  Li  Li153  1  0.25000000  0.75000000  0.75000000  1
  Li  Li154  1  0.50000000  0.82947925  0.50000000  1
  Li  Li155  1  0.67070242  0.82929758  0.82929758  1
  Li  Li156  1  0.16411375  0.16411375  0.00386175  1
  Li  Li157  1  0.08859675  0.24391725  0.91140325  1
  Li  Li158  1  0.58805950  0.91194050  0.24189075  1
  Li  Li159  1  0.57660742  0.92339258  0.92339258  1
  Li  Li160  1  0.58805950  0.08805950  0.75810925  1
  Li  Li161  1  0.66411375  0.83588625  0.49613825  1
  Li  Li162  1  0.75608275  0.91140325  0.91140325  1
  Li  Li163  1  0.33588625  0.16411375  0.49613825  1
  Li  Li164  1  0.58805950  0.75810925  0.08805950  1
  Li  Li165  1  0.24391725  0.08859675  0.91140325  1
  Li  Li166  1  0.00622175  0.15964575  0.65964575  1
  Li  Li167  1  0.58859675  0.91140325  0.74391725  1
  Li  Li168  1  0.15964575  0.00622175  0.65964575  1
  Li  Li169  1  0.49613825  0.83588625  0.66411375  1
  Li  Li170  1  0.50000000  0.00000000  0.50000000  1
  Li  Li171  1  0.16844658  0.16844658  0.83155342  1
  Li  Li172  1  0.74189075  0.08805950  0.91194050  1
  Li  Li173  1  0.91140325  0.75608275  0.91140325  1
  Li  Li174  1  0.83155342  0.83155342  0.83155342  1
  Li  Li175  1  0.32412508  0.17587492  0.17587492  1
  Li  Li176  1  0.92339258  0.42339258  0.07660742  1
  Li  Li177  1  0.91194050  0.74189075  0.08805950  1
  Li  Li178  1  0.25000000  0.25000000  0.42200525  1
  Li  Li179  1  0.66411375  0.49613825  0.83588625  1
  Li  Li180  1  0.08329292  0.58329292  0.91670708  1
  Li  Li181  1  0.25000000  0.25000000  0.07799475  1
  Li  Li182  1  0.00386175  0.66411375  0.66411375  1
  Li  Li183  1  0.49613825  0.66411375  0.83588625  1
  Li  Li184  1  0.67070242  0.67070242  0.67070242  1
  Li  Li185  1  0.83588625  0.49613825  0.66411375  1
  Li  Li186  1  0.84035425  0.50622175  0.84035425  1
  Li  Li187  1  0.83155342  0.66844658  0.66844658  1
  Li  Li188  1  0.16844658  0.33155342  0.66844658  1
  Li  Li189  1  0.16411375  0.50386175  0.66411375  1
  Li  Li190  1  0.92393425  0.57606575  0.42393425  1
  Li  Li191  1  0.91194050  0.25810925  0.91194050  1
  Li  Li192  1  0.08805950  0.74189075  0.91194050  1
  Li  Li193  1  0.00000000  0.67052075  0.50000000  1
  Li  Li194  1  0.75000000  0.42200525  0.75000000  1
  Li  Li195  1  0.34035425  0.34035425  0.50622175  1
  Li  Li196  1  0.08859675  0.25608275  0.58859675  1
  Li  Li197  1  0.24189075  0.41194050  0.08805950  1
  Li  Li198  1  0.91194050  0.41194050  0.75810925  1
  Li  Li199  1  0.92393425  0.42393425  0.57606575  1
  Li  Li200  1  0.57799475  0.25000000  0.75000000  1
  Li  Li201  1  0.75810925  0.58805950  0.08805950  1
  Li  Li202  1  0.91194050  0.58805950  0.24189075  1
  Li  Li203  1  0.15964575  0.34035425  0.99377825  1
  Li  Li204  1  0.49377825  0.34035425  0.65964575  1
  Li  Li205  1  0.00000000  0.50000000  0.32947925  1
  Li  Li206  1  0.50386175  0.33588625  0.83588625  1
  Li  Li207  1  0.91140325  0.74391725  0.58859675  1
  Li  Li208  1  0.84035425  0.65964575  0.99377825  1
  Li  Li209  1  0.82947925  0.50000000  0.50000000  1
  Li  Li210  1  0.82412508  0.32412508  0.82412508  1
  Li  Li211  1  0.33588625  0.50386175  0.83588625  1
  Li  Li212  1  0.17587492  0.32412508  0.17587492  1
  Li  Li213  1  0.82929758  0.67070242  0.82929758  1
  Li  Li214  1  0.08329292  0.41670708  0.08329292  1
  Li  Li215  1  0.15964575  0.49377825  0.84035425  1
  Li  Li216  1  0.00000000  0.50000000  0.00000000  1
  Li  Li217  1  0.75810925  0.41194050  0.91194050  1
  Li  Li218  1  0.41140325  0.41140325  0.75608275  1
  Li  Li219  1  0.92339258  0.57660742  0.92339258  1
  Li  Li220  1  0.58859675  0.58859675  0.75608275  1
  Li  Li221  1  0.99377825  0.65964575  0.84035425  1
  Li  Li222  1  0.32929758  0.32929758  0.67070242  1
  Li  Li223  1  0.24391725  0.41140325  0.58859675  1
  Li  Li224  1  0.75608275  0.58859675  0.58859675  1
  Li  Li225  1  0.07660742  0.57660742  0.07660742  1
  Li  Li226  1  0.00622175  0.34035425  0.84035425  1
  Li  Li227  1  0.07606575  0.57606575  0.57606575  1
  Li  Li228  1  0.17052075  0.50000000  0.50000000  1
  Li  Li229  1  0.91670708  0.58329292  0.08329292  1
  Li  Li230  1  0.91670708  0.41670708  0.91670708  1
  Li  Li231  1  0.34035425  0.49377825  0.65964575  1
  Li  Li232  1  0.25000000  0.57799475  0.75000000  1
  Li  Li233  1  0.91140325  0.58859675  0.74391725  1
  Li  Li234  1  0.00000000  0.50000000  0.67052075  1
  Li  Li235  1  0.07606575  0.42393425  0.42393425  1
  Li  Li236  1  0.92200525  0.25000000  0.75000000  1
  Li  Li237  1  0.65964575  0.65964575  0.50622175  1
  Li  Li238  1  0.17587492  0.67587492  0.82412508  1
  Li  Li239  1  0.33588625  0.33588625  0.00386175  1
  Li  Li240  1  0.25000000  0.25000000  0.75000000  1
  Li  Li241  1  0.75000000  0.25000000  0.75000000  1
  Li  Li242  1  0.00000000  0.32947925  0.50000000  1
  Li  Li243  1  0.17070242  0.32929758  0.82929758  1
  Li  Li244  1  0.66411375  0.66411375  0.00386175  1
  Li  Li245  1  0.58859675  0.74391725  0.91140325  1
  Li  Li246  1  0.08805950  0.41194050  0.24189075  1
  Li  Li247  1  0.07660742  0.42339258  0.92339258  1
  Li  Li248  1  0.08805950  0.58805950  0.75810925  1
  Li  Li249  1  0.16411375  0.33588625  0.49613825  1
  Li  Li250  1  0.25608275  0.41140325  0.91140325  1
  Li  Li251  1  0.83588625  0.66411375  0.49613825  1
  Li  Li252  1  0.08805950  0.25810925  0.08805950  1
  Li  Li253  1  0.74391725  0.58859675  0.91140325  1
  Li  Li254  1  0.50622175  0.65964575  0.65964575  1
  Li  Li255  1  0.08859675  0.41140325  0.74391725  1
  Li  Li256  1  0.65964575  0.50622175  0.65964575  1
  Li  Li257  1  0.99613825  0.33588625  0.66411375  1
  Li  Li258  1  0.00000000  0.50000000  0.50000000  1
  Li  Li259  1  0.66844658  0.66844658  0.83155342  1
  Li  Li260  1  0.24189075  0.58805950  0.91194050  1
  Li  Li261  1  0.41140325  0.25608275  0.91140325  1
  Li  Li262  1  0.33155342  0.33155342  0.83155342  1
  Li  Li263  1  0.82412508  0.67587492  0.17587492  1
  Li  Li264  1  0.92339258  0.92339258  0.57660742  1
  Li  Li265  1  0.91194050  0.24189075  0.58805950  1
  Li  Li266  1  0.25000000  0.75000000  0.92200525  1
  Li  Li267  1  0.66411375  0.99613825  0.33588625  1
  Li  Li268  1  0.08329292  0.08329292  0.41670708  1
  Li  Li269  1  0.25000000  0.75000000  0.57799475  1
  Li  Li270  1  0.00386175  0.16411375  0.16411375  1
  Li  Li271  1  0.49613825  0.16411375  0.33588625  1
  Li  Li272  1  0.67070242  0.17070242  0.17070242  1
  Li  Li273  1  0.83588625  0.99613825  0.16411375  1
  Li  Li274  1  0.84035425  0.00622175  0.34035425  1
  Li  Li275  1  0.83155342  0.16844658  0.16844658  1
  Li  Li276  1  0.16844658  0.83155342  0.16844658  1
  Li  Li277  1  0.16411375  0.00386175  0.16411375  1
  Li  Li278  1  0.92393425  0.07606575  0.92393425  1
  Li  Li279  1  0.91194050  0.75810925  0.41194050  1
  Li  Li280  1  0.08805950  0.24189075  0.41194050  1
  Li  Li281  1  0.00000000  0.17052075  0.00000000  1
  Li  Li282  1  0.75000000  0.92200525  0.25000000  1
  Li  Li283  1  0.34035425  0.84035425  0.00622175  1
  Li  Li284  1  0.08859675  0.75608275  0.08859675  1
  Li  Li285  1  0.24189075  0.91194050  0.58805950  1
  Li  Li286  1  0.91194050  0.91194050  0.25810925  1
  Li  Li287  1  0.92393425  0.92393425  0.07606575  1
  Li  Li288  1  0.57799475  0.75000000  0.25000000  1
  Li  Li289  1  0.75810925  0.08805950  0.58805950  1
  Li  Li290  1  0.91194050  0.08805950  0.74189075  1
  Li  Li291  1  0.15964575  0.84035425  0.49377825  1
  Li  Li292  1  0.49377825  0.84035425  0.15964575  1
  Li  Li293  1  0.00000000  0.00000000  0.82947925  1
  Li  Li294  1  0.50386175  0.83588625  0.33588625  1
  Li  Li295  1  0.91140325  0.24391725  0.08859675  1
  Li  Li296  1  0.84035425  0.15964575  0.49377825  1
  Li  Li297  1  0.82947925  0.00000000  0.00000000  1
  Li  Li298  1  0.82412508  0.82412508  0.32412508  1
  Li  Li299  1  0.33588625  0.00386175  0.33588625  1
  Li  Li300  1  0.17587492  0.82412508  0.67587492  1
  Li  Li301  1  0.82929758  0.17070242  0.32929758  1
  Li  Li302  1  0.08329292  0.91670708  0.58329292  1
  Li  Li303  1  0.15964575  0.99377825  0.34035425  1
  Li  Li304  1  0.00000000  0.00000000  0.50000000  1
  Li  Li305  1  0.75810925  0.91194050  0.41194050  1
  Li  Li306  1  0.41140325  0.91140325  0.25608275  1
  Li  Li307  1  0.92339258  0.07660742  0.42339258  1
  Li  Li308  1  0.58859675  0.08859675  0.25608275  1
  Li  Li309  1  0.99377825  0.15964575  0.34035425  1
  Li  Li310  1  0.32929758  0.82929758  0.17070242  1
  Li  Li311  1  0.24391725  0.91140325  0.08859675  1
  Li  Li312  1  0.75608275  0.08859675  0.08859675  1
  Li  Li313  1  0.07660742  0.07660742  0.57660742  1
  Li  Li314  1  0.00622175  0.84035425  0.34035425  1
  Li  Li315  1  0.07606575  0.07606575  0.07606575  1
  Li  Li316  1  0.17052075  0.00000000  0.00000000  1
  Li  Li317  1  0.91670708  0.08329292  0.58329292  1
  Li  Li318  1  0.91670708  0.91670708  0.41670708  1
  Li  Li319  1  0.34035425  0.99377825  0.15964575  1
  Li  Li320  1  0.25000000  0.07799475  0.25000000  1
  Li  Li321  1  0.91140325  0.08859675  0.24391725  1
  Li  Li322  1  0.00000000  0.00000000  0.17052075  1
  Li  Li323  1  0.07606575  0.92393425  0.92393425  1
  Li  Li324  1  0.92200525  0.75000000  0.25000000  1
  Li  Li325  1  0.65964575  0.15964575  0.00622175  1
  Li  Li326  1  0.17587492  0.17587492  0.32412508  1
  Li  Li327  1  0.33588625  0.83588625  0.50386175  1
  Li  Li328  1  0.25000000  0.75000000  0.25000000  1
  Li  Li329  1  0.75000000  0.75000000  0.25000000  1
  Li  Li330  1  0.00000000  0.82947925  0.00000000  1
  Li  Li331  1  0.17070242  0.82929758  0.32929758  1
  Li  Li332  1  0.66411375  0.16411375  0.50386175  1
  Li  Li333  1  0.58859675  0.24391725  0.41140325  1
  Li  Li334  1  0.08805950  0.91194050  0.74189075  1
  Li  Li335  1  0.07660742  0.92339258  0.42339258  1
  Li  Li336  1  0.08805950  0.08805950  0.25810925  1
  Li  Li337  1  0.16411375  0.83588625  0.99613825  1
  Li  Li338  1  0.25608275  0.91140325  0.41140325  1
  Li  Li339  1  0.83588625  0.16411375  0.99613825  1
  Li  Li340  1  0.08805950  0.75810925  0.58805950  1
  Li  Li341  1  0.74391725  0.08859675  0.41140325  1
  Li  Li342  1  0.50622175  0.15964575  0.15964575  1
  Li  Li343  1  0.08859675  0.91140325  0.24391725  1
  Li  Li344  1  0.65964575  0.00622175  0.15964575  1
  Li  Li345  1  0.99613825  0.83588625  0.16411375  1
  Li  Li346  1  0.00000000  0.00000000  0.00000000  1
  Li  Li347  1  0.66844658  0.16844658  0.33155342  1
  Li  Li348  1  0.24189075  0.08805950  0.41194050  1
  Li  Li349  1  0.41140325  0.75608275  0.41140325  1
  Li  Li350  1  0.33155342  0.83155342  0.33155342  1
  Li  Li351  1  0.82412508  0.17587492  0.67587492  1
  Pb  Pb352  1  0.66185075  0.33814925  0.83814925  1
  Pb  Pb353  1  0.92576425  0.25000000  0.25000000  1
  Pb  Pb354  1  0.41641275  0.58358725  0.08358725  1
  Pb  Pb355  1  0.75000000  0.25000000  0.07423575  1
  Pb  Pb356  1  0.08358725  0.58358725  0.41641275  1
  Pb  Pb357  1  0.50000000  0.32488475  0.50000000  1
  Pb  Pb358  1  0.66185075  0.66185075  0.16185075  1
  Pb  Pb359  1  0.67511525  0.50000000  0.50000000  1
  Pb  Pb360  1  0.75000000  0.25000000  0.42576425  1
  Pb  Pb361  1  0.50000000  0.50000000  0.32488475  1
  Pb  Pb362  1  0.91641275  0.41641275  0.41641275  1
  Pb  Pb363  1  0.25000000  0.57423575  0.25000000  1
  Pb  Pb364  1  0.50000000  0.50000000  0.67511525  1
  Pb  Pb365  1  0.57423575  0.25000000  0.25000000  1
  Pb  Pb366  1  0.32488475  0.50000000  0.50000000  1
  Pb  Pb367  1  0.75000000  0.42576425  0.25000000  1
  Pb  Pb368  1  0.50000000  0.67511525  0.50000000  1
  Pb  Pb369  1  0.33814925  0.33814925  0.16185075  1
  Pb  Pb370  1  0.58358725  0.41641275  0.08358725  1
  Pb  Pb371  1  0.33814925  0.66185075  0.83814925  1
  Pb  Pb372  1  0.66185075  0.83814925  0.33814925  1
  Pb  Pb373  1  0.92576425  0.75000000  0.75000000  1
  Pb  Pb374  1  0.41641275  0.08358725  0.58358725  1
  Pb  Pb375  1  0.75000000  0.75000000  0.57423575  1
  Pb  Pb376  1  0.08358725  0.08358725  0.91641275  1
  Pb  Pb377  1  0.50000000  0.82488475  0.00000000  1
  Pb  Pb378  1  0.66185075  0.16185075  0.66185075  1
  Pb  Pb379  1  0.67511525  0.00000000  0.00000000  1
  Pb  Pb380  1  0.75000000  0.75000000  0.92576425  1
  Pb  Pb381  1  0.50000000  0.00000000  0.82488475  1
  Pb  Pb382  1  0.91641275  0.91641275  0.91641275  1
  Pb  Pb383  1  0.25000000  0.07423575  0.75000000  1
  Pb  Pb384  1  0.50000000  0.00000000  0.17511525  1
  Pb  Pb385  1  0.57423575  0.75000000  0.75000000  1
  Pb  Pb386  1  0.32488475  0.00000000  0.00000000  1
  Pb  Pb387  1  0.75000000  0.92576425  0.75000000  1
  Pb  Pb388  1  0.50000000  0.17511525  0.00000000  1
  Pb  Pb389  1  0.33814925  0.83814925  0.66185075  1
  Pb  Pb390  1  0.58358725  0.91641275  0.58358725  1
  Pb  Pb391  1  0.33814925  0.16185075  0.33814925  1
  Pb  Pb392  1  0.16185075  0.33814925  0.33814925  1
  Pb  Pb393  1  0.42576425  0.25000000  0.75000000  1
  Pb  Pb394  1  0.91641275  0.58358725  0.58358725  1
  Pb  Pb395  1  0.25000000  0.25000000  0.57423575  1
  Pb  Pb396  1  0.58358725  0.58358725  0.91641275  1
  Pb  Pb397  1  0.00000000  0.32488475  0.00000000  1
  Pb  Pb398  1  0.16185075  0.66185075  0.66185075  1
  Pb  Pb399  1  0.17511525  0.50000000  0.00000000  1
  Pb  Pb400  1  0.25000000  0.25000000  0.92576425  1
  Pb  Pb401  1  0.00000000  0.50000000  0.82488475  1
  Pb  Pb402  1  0.41641275  0.41641275  0.91641275  1
  Pb  Pb403  1  0.75000000  0.57423575  0.75000000  1
  Pb  Pb404  1  0.00000000  0.50000000  0.17511525  1
  Pb  Pb405  1  0.07423575  0.25000000  0.75000000  1
  Pb  Pb406  1  0.82488475  0.50000000  0.00000000  1
  Pb  Pb407  1  0.25000000  0.42576425  0.75000000  1
  Pb  Pb408  1  0.00000000  0.67511525  0.00000000  1
  Pb  Pb409  1  0.83814925  0.33814925  0.66185075  1
  Pb  Pb410  1  0.08358725  0.41641275  0.58358725  1
  Pb  Pb411  1  0.83814925  0.66185075  0.33814925  1
  Pb  Pb412  1  0.16185075  0.83814925  0.83814925  1
  Pb  Pb413  1  0.42576425  0.75000000  0.25000000  1
  Pb  Pb414  1  0.91641275  0.08358725  0.08358725  1
  Pb  Pb415  1  0.25000000  0.75000000  0.07423575  1
  Pb  Pb416  1  0.58358725  0.08358725  0.41641275  1
  Pb  Pb417  1  0.00000000  0.82488475  0.50000000  1
  Pb  Pb418  1  0.16185075  0.16185075  0.16185075  1
  Pb  Pb419  1  0.17511525  0.00000000  0.50000000  1
  Pb  Pb420  1  0.25000000  0.75000000  0.42576425  1
  Pb  Pb421  1  0.00000000  0.00000000  0.32488475  1
  Pb  Pb422  1  0.41641275  0.91641275  0.41641275  1
  Pb  Pb423  1  0.75000000  0.07423575  0.25000000  1
  Pb  Pb424  1  0.00000000  0.00000000  0.67511525  1
  Pb  Pb425  1  0.07423575  0.75000000  0.25000000  1
  Pb  Pb426  1  0.82488475  0.00000000  0.50000000  1
  Pb  Pb427  1  0.25000000  0.92576425  0.25000000  1
  Pb  Pb428  1  0.00000000  0.17511525  0.50000000  1
  Pb  Pb429  1  0.83814925  0.83814925  0.16185075  1
  Pb  Pb430  1  0.08358725  0.91641275  0.08358725  1
  Pb  Pb431  1  0.83814925  0.16185075  0.83814925  1
