# generated using pymatgen
data_Ba2CaTl2(CuO4)2
_symmetry_space_group_name_H-M   'P 1'
_cell_length_a   3.95020400
_cell_length_b   3.95020400
_cell_length_c   30.64628200
_cell_angle_alpha   90.00000000
_cell_angle_beta   90.00000000
_cell_angle_gamma   90.00000000
_symmetry_Int_Tables_number   1
_chemical_formula_structural   Ba2CaTl2(CuO4)2
_chemical_formula_sum   'Ba4 Ca2 Tl4 Cu4 O16'
_cell_volume   478.20800573
_cell_formula_units_Z   2
loop_
 _symmetry_equiv_pos_site_id
 _symmetry_equiv_pos_as_xyz
  1  'x, y, z'
loop_
 _atom_site_type_symbol
 _atom_site_label
 _atom_site_symmetry_multiplicity
 _atom_site_fract_x
 _atom_site_fract_y
 _atom_site_fract_z
 _atom_site_occupancy
  Ba  Ba0  1  0.00000000  0.00000000  0.11526400  1
  Ba  Ba1  1  0.50000000  0.50000000  0.38473600  1
  Ba  Ba2  1  0.50000000  0.50000000  0.61526400  1
  Ba  Ba3  1  0.00000000  0.00000000  0.88473600  1
  Ca  Ca4  1  0.00000000  0.00000000  0.00000000  1
  Ca  Ca5  1  0.50000000  0.50000000  0.50000000  1
  Tl  Tl6  1  0.50000000  0.50000000  0.21297400  1
  Tl  Tl7  1  0.00000000  0.00000000  0.28702600  1
  Tl  Tl8  1  0.00000000  0.00000000  0.71297400  1
  Tl  Tl9  1  0.50000000  0.50000000  0.78702600  1
  Cu  Cu10  1  0.50000000  0.50000000  0.05026100  1
  Cu  Cu11  1  0.00000000  0.00000000  0.44973900  1
  Cu  Cu12  1  0.00000000  0.00000000  0.55026100  1
  Cu  Cu13  1  0.50000000  0.50000000  0.94973900  1
  O  O14  1  0.50000000  0.00000000  0.05150200  1
  O  O15  1  0.00000000  0.00000000  0.35592100  1
  O  O16  1  0.00000000  0.50000000  0.05150200  1
  O  O17  1  0.00000000  0.50000000  0.25000000  1
  O  O18  1  0.00000000  0.50000000  0.44849800  1
  O  O19  1  0.50000000  0.00000000  0.25000000  1
  O  O20  1  0.50000000  0.00000000  0.44849800  1
  O  O21  1  0.50000000  0.50000000  0.14407900  1
  O  O22  1  0.00000000  0.50000000  0.55150200  1
  O  O23  1  0.50000000  0.50000000  0.85592100  1
  O  O24  1  0.50000000  0.00000000  0.55150200  1
  O  O25  1  0.50000000  0.00000000  0.75000000  1
  O  O26  1  0.50000000  0.00000000  0.94849800  1
  O  O27  1  0.00000000  0.50000000  0.75000000  1
  O  O28  1  0.00000000  0.50000000  0.94849800  1
  O  O29  1  0.00000000  0.00000000  0.64407900  1
