# generated using pymatgen
data_Hg2MoO4
_symmetry_space_group_name_H-M   'P 1'
_cell_length_a   8.93779600
_cell_length_b   12.04135000
_cell_length_c   5.05743481
_cell_angle_alpha   90.00000000
_cell_angle_beta   115.70601559
_cell_angle_gamma   90.00000000
_symmetry_Int_Tables_number   1
_chemical_formula_structural   Hg2MoO4
_chemical_formula_sum   'Hg8 Mo4 O16'
_cell_volume   490.42870147
_cell_formula_units_Z   4
loop_
 _symmetry_equiv_pos_site_id
 _symmetry_equiv_pos_as_xyz
  1  'x, y, z'
loop_
 _atom_site_type_symbol
 _atom_site_label
 _atom_site_symmetry_multiplicity
 _atom_site_fract_x
 _atom_site_fract_y
 _atom_site_fract_z
 _atom_site_occupancy
  Hg  Hg0  1  0.64363450  0.11009650  0.47910300  1
  Hg  Hg1  1  0.35636550  0.11009650  0.02089700  1
  Hg  Hg2  1  0.35636550  0.88990350  0.52089700  1
  Hg  Hg3  1  0.64363450  0.88990350  0.97910300  1
  Hg  Hg4  1  0.14363450  0.61009650  0.47910300  1
  Hg  Hg5  1  0.85636550  0.61009650  0.02089700  1
  Hg  Hg6  1  0.85636550  0.38990350  0.52089700  1
  Hg  Hg7  1  0.14363450  0.38990350  0.97910300  1
  Mo  Mo8  1  0.50000000  0.40149500  0.75000000  1
  Mo  Mo9  1  0.50000000  0.59850500  0.25000000  1
  Mo  Mo10  1  0.00000000  0.90149500  0.75000000  1
  Mo  Mo11  1  0.00000000  0.09850500  0.25000000  1
  O  O12  1  0.36062150  0.69114950  0.30092900  1
  O  O13  1  0.63937850  0.30885050  0.69907100  1
  O  O14  1  0.13572100  0.95291400  0.14505700  1
  O  O15  1  0.13572100  0.04708600  0.64505700  1
  O  O16  1  0.36062150  0.30885050  0.80092900  1
  O  O17  1  0.86427900  0.95291400  0.35494300  1
  O  O18  1  0.86427900  0.04708600  0.85494300  1
  O  O19  1  0.63937850  0.69114950  0.19907100  1
  O  O20  1  0.86062150  0.19114950  0.30092900  1
  O  O21  1  0.13937850  0.80885050  0.69907100  1
  O  O22  1  0.63572100  0.45291400  0.14505700  1
  O  O23  1  0.63572100  0.54708600  0.64505700  1
  O  O24  1  0.86062150  0.80885050  0.80092900  1
  O  O25  1  0.36427900  0.45291400  0.35494300  1
  O  O26  1  0.36427900  0.54708600  0.85494300  1
  O  O27  1  0.13937850  0.19114950  0.19907100  1
