# generated using pymatgen
data_Ba12Na15Li8N6
_symmetry_space_group_name_H-M   'P 1'
_cell_length_a   12.38351204
_cell_length_b   12.38351204
_cell_length_c   32.97823517
_cell_angle_alpha   90.00000000
_cell_angle_beta   90.00000000
_cell_angle_gamma   120.00000000
_symmetry_Int_Tables_number   1
_chemical_formula_structural   Ba12Na15Li8N6
_chemical_formula_sum   'Ba36 Na45 Li24 N18'
_cell_volume   4379.71351514
_cell_formula_units_Z   3
loop_
 _symmetry_equiv_pos_site_id
 _symmetry_equiv_pos_as_xyz
  1  'x, y, z'
loop_
 _atom_site_type_symbol
 _atom_site_label
 _atom_site_symmetry_multiplicity
 _atom_site_fract_x
 _atom_site_fract_y
 _atom_site_fract_z
 _atom_site_occupancy
  Ba  Ba0  1  0.88599933  0.11400067  0.09417267  1
  Ba  Ba1  1  0.08993933  0.54496967  0.27144967  1
  Ba  Ba2  1  0.45503033  0.54496967  0.27144967  1
  Ba  Ba3  1  0.78066733  0.56133467  0.23916067  1
  Ba  Ba4  1  0.22800133  0.11400067  0.09417267  1
  Ba  Ba5  1  0.45503033  0.91006067  0.27144967  1
  Ba  Ba6  1  0.21163633  0.42327267  0.06188367  1
  Ba  Ba7  1  0.57672733  0.78836367  0.06188367  1
  Ba  Ba8  1  0.43866533  0.21933267  0.23916067  1
  Ba  Ba9  1  0.88599933  0.77199867  0.09417267  1
  Ba  Ba10  1  0.78066733  0.21933267  0.23916067  1
  Ba  Ba11  1  0.21163633  0.78836367  0.06188367  1
  Ba  Ba12  1  0.55266600  0.44733400  0.42750600  1
  Ba  Ba13  1  0.75660600  0.87830300  0.60478300  1
  Ba  Ba14  1  0.12169700  0.87830300  0.60478300  1
  Ba  Ba15  1  0.44733400  0.89466800  0.57249400  1
  Ba  Ba16  1  0.89466800  0.44733400  0.42750600  1
  Ba  Ba17  1  0.12169700  0.24339400  0.60478300  1
  Ba  Ba18  1  0.87830300  0.75660600  0.39521700  1
  Ba  Ba19  1  0.24339400  0.12169700  0.39521700  1
  Ba  Ba20  1  0.10533200  0.55266600  0.57249400  1
  Ba  Ba21  1  0.55266600  0.10533200  0.42750600  1
  Ba  Ba22  1  0.44733400  0.55266600  0.57249400  1
  Ba  Ba23  1  0.87830300  0.12169700  0.39521700  1
  Ba  Ba24  1  0.21933267  0.78066733  0.76083933  1
  Ba  Ba25  1  0.42327267  0.21163633  0.93811633  1
  Ba  Ba26  1  0.78836367  0.21163633  0.93811633  1
  Ba  Ba27  1  0.11400067  0.22800133  0.90582733  1
  Ba  Ba28  1  0.56133467  0.78066733  0.76083933  1
  Ba  Ba29  1  0.78836367  0.57672733  0.93811633  1
  Ba  Ba30  1  0.54496967  0.08993933  0.72855033  1
  Ba  Ba31  1  0.91006067  0.45503033  0.72855033  1
  Ba  Ba32  1  0.77199867  0.88599933  0.90582733  1
  Ba  Ba33  1  0.21933267  0.43866533  0.76083933  1
  Ba  Ba34  1  0.11400067  0.88599933  0.90582733  1
  Ba  Ba35  1  0.54496967  0.45503033  0.72855033  1
  Na  Na36  1  0.66777533  0.83388767  0.18746767  1
  Na  Na37  1  0.10426433  0.89573567  0.29330167  1
  Na  Na38  1  0.87519533  0.43759767  0.04003167  1
  Na  Na39  1  0.16611233  0.83388767  0.18746767  1
  Na  Na40  1  0.56240233  0.12480467  0.04003167  1
  Na  Na41  1  0.00000000  0.00000000  0.20200800  1
  Na  Na42  1  0.16611233  0.33222467  0.18746767  1
  Na  Na43  1  0.33333333  0.66666667  0.16666667  1
  Na  Na44  1  0.10426433  0.20852867  0.29330167  1
  Na  Na45  1  0.50055433  0.00110867  0.14586567  1
  Na  Na46  1  0.79147133  0.89573567  0.29330167  1
  Na  Na47  1  0.56240233  0.43759767  0.04003167  1
  Na  Na48  1  0.99889133  0.49944567  0.14586567  1
  Na  Na49  1  0.50055433  0.49944567  0.14586567  1
  Na  Na50  1  0.66666667  0.33333333  0.13132533  1
  Na  Na51  1  0.33444200  0.16722100  0.52080100  1
  Na  Na52  1  0.77093100  0.22906900  0.62663500  1
  Na  Na53  1  0.54186200  0.77093100  0.37336500  1
  Na  Na54  1  0.83277900  0.16722100  0.52080100  1
  Na  Na55  1  0.22906900  0.45813800  0.37336500  1
  Na  Na56  1  0.66666667  0.33333333  0.53534133  1
  Na  Na57  1  0.83277900  0.66555800  0.52080100  1
  Na  Na58  1  1.00000000  1.00000000  0.50000000  1
  Na  Na59  1  0.77093100  0.54186200  0.62663500  1
  Na  Na60  1  0.16722100  0.33444200  0.47919900  1
  Na  Na61  1  0.45813800  0.22906900  0.62663500  1
  Na  Na62  1  0.22906900  0.77093100  0.37336500  1
  Na  Na63  1  0.66555800  0.83277900  0.47919900  1
  Na  Na64  1  0.16722100  0.83277900  0.47919900  1
  Na  Na65  1  0.33333333  0.66666667  0.46465867  1
  Na  Na66  1  0.00110867  0.50055433  0.85413433  1
  Na  Na67  1  0.43759767  0.56240233  0.95996833  1
  Na  Na68  1  0.20852867  0.10426433  0.70669833  1
  Na  Na69  1  0.49944567  0.50055433  0.85413433  1
  Na  Na70  1  0.89573567  0.79147133  0.70669833  1
  Na  Na71  1  0.33333333  0.66666667  0.86867467  1
  Na  Na72  1  0.49944567  0.99889133  0.85413433  1
  Na  Na73  1  0.66666667  0.33333333  0.83333333  1
  Na  Na74  1  0.43759767  0.87519533  0.95996833  1
  Na  Na75  1  0.83388767  0.66777533  0.81253233  1
  Na  Na76  1  0.12480467  0.56240233  0.95996833  1
  Na  Na77  1  0.89573567  0.10426433  0.70669833  1
  Na  Na78  1  0.33222467  0.16611233  0.81253233  1
  Na  Na79  1  0.83388767  0.16611233  0.81253233  1
  Na  Na80  1  0.00000000  0.00000000  0.79799200  1
  Li  Li81  1  0.00000000  0.00000000  0.03847800  1
  Li  Li82  1  0.66666667  0.33333333  0.29485533  1
  Li  Li83  1  0.79707200  0.79707200  0.00000000  1
  Li  Li84  1  0.00000000  0.20292800  0.00000000  1
  Li  Li85  1  0.00000000  0.79707200  0.00000000  1
  Li  Li86  1  0.20292800  0.00000000  0.00000000  1
  Li  Li87  1  0.79707200  0.00000000  0.00000000  1
  Li  Li88  1  0.20292800  0.20292800  0.00000000  1
  Li  Li89  1  0.66666667  0.33333333  0.37181133  1
  Li  Li90  1  0.33333333  0.66666667  0.62818867  1
  Li  Li91  1  0.46373867  0.13040533  0.33333333  1
  Li  Li92  1  0.66666667  0.53626133  0.33333333  1
  Li  Li93  1  0.66666667  0.13040533  0.33333333  1
  Li  Li94  1  0.86959467  0.33333333  0.33333333  1
  Li  Li95  1  0.46373867  0.33333333  0.33333333  1
  Li  Li96  1  0.86959467  0.53626133  0.33333333  1
  Li  Li97  1  0.33333333  0.66666667  0.70514467  1
  Li  Li98  1  0.00000000  0.00000000  0.96152200  1
  Li  Li99  1  0.13040533  0.46373867  0.66666667  1
  Li  Li100  1  0.33333333  0.86959467  0.66666667  1
  Li  Li101  1  0.33333333  0.46373867  0.66666667  1
  Li  Li102  1  0.53626133  0.66666667  0.66666667  1
  Li  Li103  1  0.13040533  0.66666667  0.66666667  1
  Li  Li104  1  0.53626133  0.86959467  0.66666667  1
  N  N105  1  0.86020000  0.43010000  0.28450600  1
  N  N106  1  0.80646667  0.90323333  0.04882733  1
  N  N107  1  0.56990000  0.13980000  0.28450600  1
  N  N108  1  0.09676667  0.90323333  0.04882733  1
  N  N109  1  0.09676667  0.19353333  0.04882733  1
  N  N110  1  0.56990000  0.43010000  0.28450600  1
  N  N111  1  0.52686667  0.76343333  0.61783933  1
  N  N112  1  0.47313333  0.23656667  0.38216067  1
  N  N113  1  0.23656667  0.47313333  0.61783933  1
  N  N114  1  0.76343333  0.23656667  0.38216067  1
  N  N115  1  0.76343333  0.52686667  0.38216067  1
  N  N116  1  0.23656667  0.76343333  0.61783933  1
  N  N117  1  0.19353333  0.09676667  0.95117267  1
  N  N118  1  0.13980000  0.56990000  0.71549400  1
  N  N119  1  0.90323333  0.80646667  0.95117267  1
  N  N120  1  0.43010000  0.56990000  0.71549400  1
  N  N121  1  0.43010000  0.86020000  0.71549400  1
  N  N122  1  0.90323333  0.09676667  0.95117267  1
