# generated using pymatgen
data_KGd(WO4)2
_symmetry_space_group_name_H-M   'P 1'
_cell_length_a   8.53639800
_cell_length_b   10.30128600
_cell_length_c   7.60030348
_cell_angle_alpha   90.00000000
_cell_angle_beta   90.20038440
_cell_angle_gamma   90.00000000
_symmetry_Int_Tables_number   1
_chemical_formula_structural   KGd(WO4)2
_chemical_formula_sum   'K4 Gd4 W8 O32'
_cell_volume   668.33526630
_cell_formula_units_Z   4
loop_
 _symmetry_equiv_pos_site_id
 _symmetry_equiv_pos_as_xyz
  1  'x, y, z'
loop_
 _atom_site_type_symbol
 _atom_site_label
 _atom_site_symmetry_multiplicity
 _atom_site_fract_x
 _atom_site_fract_y
 _atom_site_fract_z
 _atom_site_occupancy
  K  K0  1  0.50000000  0.81834700  0.75000000  1
  K  K1  1  0.50000000  0.18165300  0.25000000  1
  K  K2  1  0.00000000  0.31834700  0.75000000  1
  K  K3  1  0.00000000  0.68165300  0.25000000  1
  Gd  Gd4  1  0.50000000  0.75413400  0.25000000  1
  Gd  Gd5  1  0.50000000  0.24586600  0.75000000  1
  Gd  Gd6  1  0.00000000  0.25413400  0.25000000  1
  Gd  Gd7  1  0.00000000  0.74586600  0.75000000  1
  W  W8  1  0.19220250  0.00090550  0.99771300  1
  W  W9  1  0.19220250  0.99909450  0.49771300  1
  W  W10  1  0.80779750  0.99909450  0.00228700  1
  W  W11  1  0.80779750  0.00090550  0.50228700  1
  W  W12  1  0.69220250  0.50090550  0.99771300  1
  W  W13  1  0.69220250  0.49909450  0.49771300  1
  W  W14  1  0.30779750  0.49909450  0.00228700  1
  W  W15  1  0.30779750  0.50090550  0.50228700  1
  O  O16  1  0.17997850  0.06451950  0.24872600  1
  O  O17  1  0.66815600  0.87623300  0.43364700  1
  O  O18  1  0.49788850  0.62017250  0.97754900  1
  O  O19  1  0.17997850  0.93548050  0.74872600  1
  O  O20  1  0.33184400  0.12376700  0.56635300  1
  O  O21  1  0.50211150  0.37982750  0.02245100  1
  O  O22  1  0.50211150  0.62017250  0.52245100  1
  O  O23  1  0.82002150  0.06451950  0.25127400  1
  O  O24  1  0.32287950  0.13124650  0.92737700  1
  O  O25  1  0.66815600  0.12376700  0.93364700  1
  O  O26  1  0.67712050  0.13124650  0.57262300  1
  O  O27  1  0.67712050  0.86875350  0.07262300  1
  O  O28  1  0.82002150  0.93548050  0.75127400  1
  O  O29  1  0.33184400  0.87623300  0.06635300  1
  O  O30  1  0.49788850  0.37982750  0.47754900  1
  O  O31  1  0.32287950  0.86875350  0.42737700  1
  O  O32  1  0.67997850  0.56451950  0.24872600  1
  O  O33  1  0.16815600  0.37623300  0.43364700  1
  O  O34  1  0.99788850  0.12017250  0.97754900  1
  O  O35  1  0.67997850  0.43548050  0.74872600  1
  O  O36  1  0.83184400  0.62376700  0.56635300  1
  O  O37  1  0.00211150  0.87982750  0.02245100  1
  O  O38  1  0.00211150  0.12017250  0.52245100  1
  O  O39  1  0.32002150  0.56451950  0.25127400  1
  O  O40  1  0.82287950  0.63124650  0.92737700  1
  O  O41  1  0.16815600  0.62376700  0.93364700  1
  O  O42  1  0.17712050  0.63124650  0.57262300  1
  O  O43  1  0.17712050  0.36875350  0.07262300  1
  O  O44  1  0.32002150  0.43548050  0.75127400  1
  O  O45  1  0.83184400  0.37623300  0.06635300  1
  O  O46  1  0.99788850  0.87982750  0.47754900  1
  O  O47  1  0.82287950  0.36875350  0.42737700  1
