# generated using pymatgen
data_Co(PO3)4
_symmetry_space_group_name_H-M   'P 1'
_cell_length_a   8.19393600
_cell_length_b   11.50754400
_cell_length_c   9.47421914
_cell_angle_alpha   90.00000000
_cell_angle_beta   93.28801691
_cell_angle_gamma   90.00000000
_symmetry_Int_Tables_number   1
_chemical_formula_structural   Co(PO3)4
_chemical_formula_sum   'Co4 P16 O48'
_cell_volume   891.87322765
_cell_formula_units_Z   4
loop_
 _symmetry_equiv_pos_site_id
 _symmetry_equiv_pos_as_xyz
  1  'x, y, z'
loop_
 _atom_site_type_symbol
 _atom_site_label
 _atom_site_symmetry_multiplicity
 _atom_site_fract_x
 _atom_site_fract_y
 _atom_site_fract_z
 _atom_site_occupancy
  Co  Co0  1  0.50000000  0.61217400  0.75000000  1
  Co  Co1  1  0.50000000  0.38782600  0.25000000  1
  Co  Co2  1  0.00000000  0.11217400  0.75000000  1
  Co  Co3  1  0.00000000  0.88782600  0.25000000  1
  P  P4  1  0.23977700  0.96625800  0.52983400  1
  P  P5  1  0.23977700  0.03374200  0.02983400  1
  P  P6  1  0.45573850  0.82601450  0.96433000  1
  P  P7  1  0.54426150  0.82601450  0.53567000  1
  P  P8  1  0.45573850  0.17398550  0.46433000  1
  P  P9  1  0.54426150  0.17398550  0.03567000  1
  P  P10  1  0.76022300  0.96625800  0.97016600  1
  P  P11  1  0.76022300  0.03374200  0.47016600  1
  P  P12  1  0.73977700  0.46625800  0.52983400  1
  P  P13  1  0.73977700  0.53374200  0.02983400  1
  P  P14  1  0.95573850  0.32601450  0.96433000  1
  P  P15  1  0.04426150  0.32601450  0.53567000  1
  P  P16  1  0.95573850  0.67398550  0.46433000  1
  P  P17  1  0.04426150  0.67398550  0.03567000  1
  P  P18  1  0.26022300  0.46625800  0.97016600  1
  P  P19  1  0.26022300  0.53374200  0.47016600  1
  O  O20  1  0.17272600  0.89437700  0.40730700  1
  O  O21  1  0.13214000  0.99433700  0.64750900  1
  O  O22  1  0.30802650  0.91603150  0.96382500  1
  O  O23  1  0.13214000  0.00566300  0.14750900  1
  O  O24  1  0.40143200  0.90436600  0.59994100  1
  O  O25  1  0.39793850  0.73664150  0.85359100  1
  O  O26  1  0.17272600  0.10562300  0.90730700  1
  O  O27  1  0.30802650  0.08396850  0.46382500  1
  O  O28  1  0.49598550  0.77507650  0.39490400  1
  O  O29  1  0.50401450  0.77507650  0.10509600  1
  O  O30  1  0.60206150  0.73664150  0.64640900  1
  O  O31  1  0.40143200  0.09563400  0.09994100  1
  O  O32  1  0.59856800  0.90436600  0.90005900  1
  O  O33  1  0.39793850  0.26335850  0.35359100  1
  O  O34  1  0.49598550  0.22492350  0.89490400  1
  O  O35  1  0.50401450  0.22492350  0.60509600  1
  O  O36  1  0.69197350  0.91603150  0.53617500  1
  O  O37  1  0.82727400  0.89437700  0.09269300  1
  O  O38  1  0.60206150  0.26335850  0.14640900  1
  O  O39  1  0.59856800  0.09563400  0.40005900  1
  O  O40  1  0.86786000  0.99433700  0.85249100  1
  O  O41  1  0.69197350  0.08396850  0.03617500  1
  O  O42  1  0.86786000  0.00566300  0.35249100  1
  O  O43  1  0.82727400  0.10562300  0.59269300  1
  O  O44  1  0.67272600  0.39437700  0.40730700  1
  O  O45  1  0.63214000  0.49433700  0.64750900  1
  O  O46  1  0.80802650  0.41603150  0.96382500  1
  O  O47  1  0.63214000  0.50566300  0.14750900  1
  O  O48  1  0.90143200  0.40436600  0.59994100  1
  O  O49  1  0.89793850  0.23664150  0.85359100  1
  O  O50  1  0.67272600  0.60562300  0.90730700  1
  O  O51  1  0.80802650  0.58396850  0.46382500  1
  O  O52  1  0.99598550  0.27507650  0.39490400  1
  O  O53  1  0.00401450  0.27507650  0.10509600  1
  O  O54  1  0.10206150  0.23664150  0.64640900  1
  O  O55  1  0.90143200  0.59563400  0.09994100  1
  O  O56  1  0.09856800  0.40436600  0.90005900  1
  O  O57  1  0.89793850  0.76335850  0.35359100  1
  O  O58  1  0.99598550  0.72492350  0.89490400  1
  O  O59  1  0.00401450  0.72492350  0.60509600  1
  O  O60  1  0.19197350  0.41603150  0.53617500  1
  O  O61  1  0.32727400  0.39437700  0.09269300  1
  O  O62  1  0.10206150  0.76335850  0.14640900  1
  O  O63  1  0.09856800  0.59563400  0.40005900  1
  O  O64  1  0.36786000  0.49433700  0.85249100  1
  O  O65  1  0.19197350  0.58396850  0.03617500  1
  O  O66  1  0.36786000  0.50566300  0.35249100  1
  O  O67  1  0.32727400  0.60562300  0.59269300  1
