# generated using pymatgen
data_Ce3SiPt5
_symmetry_space_group_name_H-M   'P 1'
_cell_length_a   7.34965600
_cell_length_b   7.49903800
_cell_length_c   12.97506800
_cell_angle_alpha   90.00000000
_cell_angle_beta   90.00000000
_cell_angle_gamma   90.00000000
_symmetry_Int_Tables_number   1
_chemical_formula_structural   Ce3SiPt5
_chemical_formula_sum   'Ce12 Si4 Pt20'
_cell_volume   715.12540931
_cell_formula_units_Z   4
loop_
 _symmetry_equiv_pos_site_id
 _symmetry_equiv_pos_as_xyz
  1  'x, y, z'
loop_
 _atom_site_type_symbol
 _atom_site_label
 _atom_site_symmetry_multiplicity
 _atom_site_fract_x
 _atom_site_fract_y
 _atom_site_fract_z
 _atom_site_occupancy
  Ce  Ce0  1  0.00000000  0.72198700  0.45193400  1
  Ce  Ce1  1  0.50000000  0.13361900  0.25000000  1
  Ce  Ce2  1  0.50000000  0.77801300  0.04806600  1
  Ce  Ce3  1  0.00000000  0.36638100  0.25000000  1
  Ce  Ce4  1  0.00000000  0.72198700  0.04806600  1
  Ce  Ce5  1  0.50000000  0.77801300  0.45193400  1
  Ce  Ce6  1  0.50000000  0.22198700  0.95193400  1
  Ce  Ce7  1  0.00000000  0.63361900  0.75000000  1
  Ce  Ce8  1  0.00000000  0.27801300  0.54806600  1
  Ce  Ce9  1  0.50000000  0.86638100  0.75000000  1
  Ce  Ce10  1  0.50000000  0.22198700  0.54806600  1
  Ce  Ce11  1  0.00000000  0.27801300  0.95193400  1
  Si  Si12  1  0.50000000  0.53391300  0.25000000  1
  Si  Si13  1  0.00000000  0.96608700  0.25000000  1
  Si  Si14  1  0.00000000  0.03391300  0.75000000  1
  Si  Si15  1  0.50000000  0.46608700  0.75000000  1
  Pt  Pt16  1  0.70398350  0.43656850  0.39414050  1
  Pt  Pt17  1  0.79601650  0.06343150  0.10585950  1
  Pt  Pt18  1  0.70398350  0.43656850  0.10585950  1
  Pt  Pt19  1  0.20398350  0.06343150  0.39414050  1
  Pt  Pt20  1  0.20398350  0.06343150  0.10585950  1
  Pt  Pt21  1  0.29601650  0.43656850  0.10585950  1
  Pt  Pt22  1  0.79601650  0.06343150  0.39414050  1
  Pt  Pt23  1  0.29601650  0.43656850  0.39414050  1
  Pt  Pt24  1  0.75000000  0.75000000  0.25000000  1
  Pt  Pt25  1  0.25000000  0.75000000  0.25000000  1
  Pt  Pt26  1  0.20398350  0.93656850  0.89414050  1
  Pt  Pt27  1  0.29601650  0.56343150  0.60585950  1
  Pt  Pt28  1  0.20398350  0.93656850  0.60585950  1
  Pt  Pt29  1  0.70398350  0.56343150  0.89414050  1
  Pt  Pt30  1  0.70398350  0.56343150  0.60585950  1
  Pt  Pt31  1  0.79601650  0.93656850  0.60585950  1
  Pt  Pt32  1  0.29601650  0.56343150  0.89414050  1
  Pt  Pt33  1  0.79601650  0.93656850  0.89414050  1
  Pt  Pt34  1  0.25000000  0.25000000  0.75000000  1
  Pt  Pt35  1  0.75000000  0.25000000  0.75000000  1
