# generated using pymatgen
data_K3Co2F7
_symmetry_space_group_name_H-M   'P 1'
_cell_length_a   4.07342800
_cell_length_b   4.07342800
_cell_length_c   21.97298400
_cell_angle_alpha   90.00000000
_cell_angle_beta   90.00000000
_cell_angle_gamma   90.00000000
_symmetry_Int_Tables_number   1
_chemical_formula_structural   K3Co2F7
_chemical_formula_sum   'K6 Co4 F14'
_cell_volume   364.59367326
_cell_formula_units_Z   2
loop_
 _symmetry_equiv_pos_site_id
 _symmetry_equiv_pos_as_xyz
  1  'x, y, z'
loop_
 _atom_site_type_symbol
 _atom_site_label
 _atom_site_symmetry_multiplicity
 _atom_site_fract_x
 _atom_site_fract_y
 _atom_site_fract_z
 _atom_site_occupancy
  K  K0  1  0.50000000  0.50000000  0.18640500  1
  K  K1  1  0.50000000  0.50000000  0.00000000  1
  K  K2  1  0.00000000  0.00000000  0.31359500  1
  K  K3  1  0.00000000  0.00000000  0.68640500  1
  K  K4  1  0.00000000  0.00000000  0.50000000  1
  K  K5  1  0.50000000  0.50000000  0.81359500  1
  Co  Co6  1  0.00000000  0.00000000  0.09642500  1
  Co  Co7  1  0.50000000  0.50000000  0.40357500  1
  Co  Co8  1  0.50000000  0.50000000  0.59642500  1
  Co  Co9  1  0.00000000  0.00000000  0.90357500  1
  F  F10  1  0.50000000  0.00000000  0.09519300  1
  F  F11  1  0.50000000  0.50000000  0.30790100  1
  F  F12  1  0.50000000  0.00000000  0.40480700  1
  F  F13  1  0.00000000  0.50000000  0.40480700  1
  F  F14  1  0.00000000  0.00000000  0.00000000  1
  F  F15  1  0.00000000  0.00000000  0.19209900  1
  F  F16  1  0.00000000  0.50000000  0.09519300  1
  F  F17  1  0.00000000  0.50000000  0.59519300  1
  F  F18  1  0.00000000  0.00000000  0.80790100  1
  F  F19  1  0.00000000  0.50000000  0.90480700  1
  F  F20  1  0.50000000  0.00000000  0.90480700  1
  F  F21  1  0.50000000  0.50000000  0.50000000  1
  F  F22  1  0.50000000  0.50000000  0.69209900  1
  F  F23  1  0.50000000  0.00000000  0.59519300  1
