# generated using pymatgen
data_Li3Cr(PO3)8
_symmetry_space_group_name_H-M   'P 1'
_cell_length_a   11.92881800
_cell_length_b   8.37178000
_cell_length_c   10.02471852
_cell_angle_alpha   90.00000000
_cell_angle_beta   118.81825086
_cell_angle_gamma   90.00000000
_symmetry_Int_Tables_number   1
_chemical_formula_structural   Li3Cr(PO3)8
_chemical_formula_sum   'Li6 Cr2 P16 O48'
_cell_volume   877.13703370
_cell_formula_units_Z   2
loop_
 _symmetry_equiv_pos_site_id
 _symmetry_equiv_pos_as_xyz
  1  'x, y, z'
loop_
 _atom_site_type_symbol
 _atom_site_label
 _atom_site_symmetry_multiplicity
 _atom_site_fract_x
 _atom_site_fract_y
 _atom_site_fract_z
 _atom_site_occupancy
  Li  Li0  1  0.00000000  0.94781600  0.50000000  1
  Li  Li1  1  0.24108450  0.75474950  0.74283300  1
  Li  Li2  1  0.75891550  0.75474950  0.25716700  1
  Li  Li3  1  0.50000000  0.44781600  0.50000000  1
  Li  Li4  1  0.74108450  0.25474950  0.74283300  1
  Li  Li5  1  0.25891550  0.25474950  0.25716700  1
  Cr  Cr6  1  0.00000000  0.05202000  0.00000000  1
  Cr  Cr7  1  0.50000000  0.55202000  0.00000000  1
  P  P8  1  0.00256250  0.73895850  0.22147700  1
  P  P9  1  0.19300650  0.50654050  0.44042200  1
  P  P10  1  0.49743750  0.23895850  0.77852300  1
  P  P11  1  0.79802050  0.49426150  0.04614000  1
  P  P12  1  0.30699350  0.00654050  0.55957800  1
  P  P13  1  0.51382150  0.76106750  0.73105600  1
  P  P14  1  0.48617850  0.76106750  0.26894400  1
  P  P15  1  0.70197950  0.99426150  0.95386000  1
  P  P16  1  0.50256250  0.23895850  0.22147700  1
  P  P17  1  0.69300650  0.00654050  0.44042200  1
  P  P18  1  0.99743750  0.73895850  0.77852300  1
  P  P19  1  0.29802050  0.99426150  0.04614000  1
  P  P20  1  0.80699350  0.50654050  0.55957800  1
  P  P21  1  0.01382150  0.26106750  0.73105600  1
  P  P22  1  0.98617850  0.26106750  0.26894400  1
  P  P23  1  0.20197950  0.49426150  0.95386000  1
  O  O24  1  0.68992150  0.57335350  0.06207100  1
  O  O25  1  0.54232350  0.62252050  0.65975600  1
  O  O26  1  0.42098500  0.88093200  0.59926400  1
  O  O27  1  0.03564350  0.87900050  0.15281800  1
  O  O28  1  0.46435650  0.37900050  0.84718200  1
  O  O29  1  0.46000900  0.72676800  0.83943000  1
  O  O30  1  0.36746650  0.13439550  0.69652400  1
  O  O31  1  0.59098800  0.12412500  0.91818200  1
  O  O32  1  0.03999100  0.22676800  0.16057000  1
  O  O33  1  0.23059300  0.41605800  0.09909700  1
  O  O34  1  0.86033650  0.37062250  0.18639500  1
  O  O35  1  0.04973950  0.76237650  0.67150600  1
  O  O36  1  0.95026050  0.76237650  0.32849400  1
  O  O37  1  0.26940700  0.91605800  0.90090300  1
  O  O38  1  0.45767650  0.62252050  0.34024400  1
  O  O39  1  0.19962050  0.92354350  0.56930500  1
  O  O40  1  0.30037950  0.42354350  0.43069500  1
  O  O41  1  0.22616050  0.58081050  0.59074500  1
  O  O42  1  0.81007850  0.07335350  0.93792900  1
  O  O43  1  0.27383950  0.08081050  0.40925500  1
  O  O44  1  0.63966350  0.87062250  0.81360500  1
  O  O45  1  0.07901500  0.38093200  0.40073600  1
  O  O46  1  0.13253350  0.63439550  0.30347600  1
  O  O47  1  0.90901200  0.62412500  0.08181800  1
  O  O48  1  0.18992150  0.07335350  0.06207100  1
  O  O49  1  0.04232350  0.12252050  0.65975600  1
  O  O50  1  0.92098500  0.38093200  0.59926400  1
  O  O51  1  0.53564350  0.37900050  0.15281800  1
  O  O52  1  0.96435650  0.87900050  0.84718200  1
  O  O53  1  0.96000900  0.22676800  0.83943000  1
  O  O54  1  0.86746650  0.63439550  0.69652400  1
  O  O55  1  0.09098800  0.62412500  0.91818200  1
  O  O56  1  0.53999100  0.72676800  0.16057000  1
  O  O57  1  0.73059300  0.91605800  0.09909700  1
  O  O58  1  0.36033650  0.87062250  0.18639500  1
  O  O59  1  0.54973950  0.26237650  0.67150600  1
  O  O60  1  0.45026050  0.26237650  0.32849400  1
  O  O61  1  0.76940700  0.41605800  0.90090300  1
  O  O62  1  0.95767650  0.12252050  0.34024400  1
  O  O63  1  0.69962050  0.42354350  0.56930500  1
  O  O64  1  0.80037950  0.92354350  0.43069500  1
  O  O65  1  0.72616050  0.08081050  0.59074500  1
  O  O66  1  0.31007850  0.57335350  0.93792900  1
  O  O67  1  0.77383950  0.58081050  0.40925500  1
  O  O68  1  0.13966350  0.37062250  0.81360500  1
  O  O69  1  0.57901500  0.88093200  0.40073600  1
  O  O70  1  0.63253350  0.13439550  0.30347600  1
  O  O71  1  0.40901200  0.12412500  0.08181800  1
