# generated using pymatgen
data_Hf3(Al2C3)2
_symmetry_space_group_name_H-M   'P 1'
_cell_length_a   3.32871249
_cell_length_b   3.32871249
_cell_length_c   48.90971429
_cell_angle_alpha   90.00000000
_cell_angle_beta   90.00000000
_cell_angle_gamma   120.00000000
_symmetry_Int_Tables_number   1
_chemical_formula_structural   Hf3(Al2C3)2
_chemical_formula_sum   'Hf9 Al12 C18'
_cell_volume   469.33001360
_cell_formula_units_Z   3
loop_
 _symmetry_equiv_pos_site_id
 _symmetry_equiv_pos_as_xyz
  1  'x, y, z'
loop_
 _atom_site_type_symbol
 _atom_site_label
 _atom_site_symmetry_multiplicity
 _atom_site_fract_x
 _atom_site_fract_y
 _atom_site_fract_z
 _atom_site_occupancy
  Hf  Hf0  1  0.33333333  0.66666667  0.27909567  1
  Hf  Hf1  1  0.33333333  0.66666667  0.05423767  1
  Hf  Hf2  1  0.00000000  0.00000000  0.00000000  1
  Hf  Hf3  1  0.00000000  0.00000000  0.61242900  1
  Hf  Hf4  1  0.00000000  0.00000000  0.38757100  1
  Hf  Hf5  1  0.66666667  0.33333333  0.33333333  1
  Hf  Hf6  1  0.66666667  0.33333333  0.94576233  1
  Hf  Hf7  1  0.66666667  0.33333333  0.72090433  1
  Hf  Hf8  1  0.33333333  0.66666667  0.66666667  1
  Al  Al9  1  0.00000000  0.00000000  0.23228900  1
  Al  Al10  1  0.66666667  0.33333333  0.18573833  1
  Al  Al11  1  0.66666667  0.33333333  0.10104433  1
  Al  Al12  1  0.00000000  0.00000000  0.14759500  1
  Al  Al13  1  0.66666667  0.33333333  0.56562233  1
  Al  Al14  1  0.33333333  0.66666667  0.51907167  1
  Al  Al15  1  0.33333333  0.66666667  0.43437767  1
  Al  Al16  1  0.66666667  0.33333333  0.48092833  1
  Al  Al17  1  0.33333333  0.66666667  0.89895567  1
  Al  Al18  1  0.00000000  0.00000000  0.85240500  1
  Al  Al19  1  0.00000000  0.00000000  0.76771100  1
  Al  Al20  1  0.33333333  0.66666667  0.81426167  1
  C  C21  1  0.00000000  0.00000000  0.30592300  1
  C  C22  1  0.00000000  0.00000000  0.19243300  1
  C  C23  1  0.00000000  0.00000000  0.08241900  1
  C  C24  1  0.66666667  0.33333333  0.02741033  1
  C  C25  1  0.66666667  0.33333333  0.25091433  1
  C  C26  1  0.66666667  0.33333333  0.14090033  1
  C  C27  1  0.66666667  0.33333333  0.63925633  1
  C  C28  1  0.66666667  0.33333333  0.52576633  1
  C  C29  1  0.66666667  0.33333333  0.41575233  1
  C  C30  1  0.33333333  0.66666667  0.36074367  1
  C  C31  1  0.33333333  0.66666667  0.58424767  1
  C  C32  1  0.33333333  0.66666667  0.47423367  1
  C  C33  1  0.33333333  0.66666667  0.97258967  1
  C  C34  1  0.33333333  0.66666667  0.85909967  1
  C  C35  1  0.33333333  0.66666667  0.74908567  1
  C  C36  1  0.00000000  0.00000000  0.69407700  1
  C  C37  1  0.00000000  0.00000000  0.91758100  1
  C  C38  1  0.00000000  0.00000000  0.80756700  1
