# generated using pymatgen
data_Li2V(PO4)2
_symmetry_space_group_name_H-M   'P 1'
_cell_length_a   9.04049530
_cell_length_b   4.62398800
_cell_length_c   13.95532515
_cell_angle_alpha   90.00000000
_cell_angle_beta   96.62126781
_cell_angle_gamma   90.00000000
_symmetry_Int_Tables_number   1
_chemical_formula_structural   Li2V(PO4)2
_chemical_formula_sum   'Li8 V4 P8 O32'
_cell_volume   579.48533427
_cell_formula_units_Z   4
loop_
 _symmetry_equiv_pos_site_id
 _symmetry_equiv_pos_as_xyz
  1  'x, y, z'
loop_
 _atom_site_type_symbol
 _atom_site_label
 _atom_site_symmetry_multiplicity
 _atom_site_fract_x
 _atom_site_fract_y
 _atom_site_fract_z
 _atom_site_occupancy
  Li  Li0  1  0.48784200  0.56055400  0.76201700  1
  Li  Li1  1  0.48784200  0.43944600  0.26201700  1
  Li  Li2  1  0.16496800  0.53571100  0.66316500  1
  Li  Li3  1  0.16496800  0.46428900  0.16316500  1
  Li  Li4  1  0.98784200  0.06055400  0.76201700  1
  Li  Li5  1  0.98784200  0.93944600  0.26201700  1
  Li  Li6  1  0.66496800  0.03571100  0.66316500  1
  Li  Li7  1  0.66496800  0.96428900  0.16316500  1
  V  V8  1  0.00337100  0.99647000  0.99482300  1
  V  V9  1  0.00337100  0.00353000  0.49482300  1
  V  V10  1  0.50337100  0.49647000  0.99482300  1
  V  V11  1  0.50337100  0.50353000  0.49482300  1
  P  P12  1  0.34089600  0.01360400  0.61283000  1
  P  P13  1  0.34089600  0.98639600  0.11283000  1
  P  P14  1  0.16282400  0.47798100  0.38272700  1
  P  P15  1  0.16282400  0.52201900  0.88272700  1
  P  P16  1  0.84089600  0.51360400  0.61283000  1
  P  P17  1  0.84089600  0.48639600  0.11283000  1
  P  P18  1  0.66282400  0.97798100  0.38272700  1
  P  P19  1  0.66282400  0.02201900  0.88272700  1
  O  O20  1  0.39555900  0.18741700  0.03251100  1
  O  O21  1  0.05903000  0.79547300  0.87976900  1
  O  O22  1  0.32973400  0.17730600  0.19996000  1
  O  O23  1  0.11123150  0.67937850  0.46409000  1
  O  O24  1  0.18738400  0.15369700  0.57834600  1
  O  O25  1  0.45950000  0.73713700  0.12488500  1
  O  O26  1  0.45950000  0.26286300  0.62488500  1
  O  O27  1  0.32447050  0.62102050  0.91296900  1
  O  O28  1  0.14256650  0.36802550  0.78636100  1
  O  O29  1  0.11123150  0.32062150  0.96409000  1
  O  O30  1  0.14256650  0.63197450  0.28636100  1
  O  O31  1  0.05903000  0.20452700  0.37976900  1
  O  O32  1  0.32447050  0.37897950  0.41296900  1
  O  O33  1  0.32973400  0.82269400  0.69996000  1
  O  O34  1  0.39555900  0.81258300  0.53251100  1
  O  O35  1  0.18738400  0.84630300  0.07834600  1
  O  O36  1  0.89555900  0.68741700  0.03251100  1
  O  O37  1  0.55903000  0.29547300  0.87976900  1
  O  O38  1  0.82973400  0.67730600  0.19996000  1
  O  O39  1  0.61123150  0.17937850  0.46409000  1
  O  O40  1  0.68738400  0.65369700  0.57834600  1
  O  O41  1  0.95950000  0.23713700  0.12488500  1
  O  O42  1  0.95950000  0.76286300  0.62488500  1
  O  O43  1  0.82447050  0.12102050  0.91296900  1
  O  O44  1  0.64256650  0.86802550  0.78636100  1
  O  O45  1  0.61123150  0.82062150  0.96409000  1
  O  O46  1  0.64256650  0.13197450  0.28636100  1
  O  O47  1  0.55903000  0.70452700  0.37976900  1
  O  O48  1  0.82447050  0.87897950  0.41296900  1
  O  O49  1  0.82973400  0.32269400  0.69996000  1
  O  O50  1  0.89555900  0.31258300  0.53251100  1
  O  O51  1  0.68738400  0.34630300  0.07834600  1
