# generated using pymatgen
data_Ga5Fe6
_symmetry_space_group_name_H-M   'P 1'
_cell_length_a   10.03955800
_cell_length_b   7.91779800
_cell_length_c   7.68878477
_cell_angle_alpha   90.00000000
_cell_angle_beta   108.38477687
_cell_angle_gamma   90.00000000
_symmetry_Int_Tables_number   1
_chemical_formula_structural   Ga5Fe6
_chemical_formula_sum   'Ga20 Fe24'
_cell_volume   579.99540161
_cell_formula_units_Z   4
loop_
 _symmetry_equiv_pos_site_id
 _symmetry_equiv_pos_as_xyz
  1  'x, y, z'
loop_
 _atom_site_type_symbol
 _atom_site_label
 _atom_site_symmetry_multiplicity
 _atom_site_fract_x
 _atom_site_fract_y
 _atom_site_fract_z
 _atom_site_occupancy
  Ga  Ga0  1  0.17847800  0.50000000  0.65503000  1
  Ga  Ga1  1  0.96190200  0.19648000  0.79491300  1
  Ga  Ga2  1  0.36887700  0.50000000  0.40140200  1
  Ga  Ga3  1  0.03809800  0.80352000  0.20508700  1
  Ga  Ga4  1  0.96190200  0.80352000  0.79491300  1
  Ga  Ga5  1  0.87728200  0.50000000  0.02012100  1
  Ga  Ga6  1  0.82152200  0.50000000  0.34497000  1
  Ga  Ga7  1  0.03809800  0.19648000  0.20508700  1
  Ga  Ga8  1  0.63112300  0.50000000  0.59859800  1
  Ga  Ga9  1  0.12271800  0.50000000  0.97987900  1
  Ga  Ga10  1  0.67847800  0.00000000  0.65503000  1
  Ga  Ga11  1  0.46190200  0.69648000  0.79491300  1
  Ga  Ga12  1  0.86887700  0.00000000  0.40140200  1
  Ga  Ga13  1  0.53809800  0.30352000  0.20508700  1
  Ga  Ga14  1  0.46190200  0.30352000  0.79491300  1
  Ga  Ga15  1  0.37728200  0.00000000  0.02012100  1
  Ga  Ga16  1  0.32152200  0.00000000  0.34497000  1
  Ga  Ga17  1  0.53809800  0.69648000  0.20508700  1
  Ga  Ga18  1  0.13112300  0.00000000  0.59859800  1
  Ga  Ga19  1  0.62271800  0.00000000  0.97987900  1
  Fe  Fe20  1  0.63094800  0.50000000  0.01319300  1
  Fe  Fe21  1  0.89655200  0.50000000  0.69055500  1
  Fe  Fe22  1  0.75000000  0.75000000  0.50000000  1
  Fe  Fe23  1  0.00000000  0.27967200  0.50000000  1
  Fe  Fe24  1  0.77504450  0.23193050  0.17014200  1
  Fe  Fe25  1  0.22495550  0.76806950  0.82985800  1
  Fe  Fe26  1  0.10344800  0.50000000  0.30944500  1
  Fe  Fe27  1  0.77504450  0.76806950  0.17014200  1
  Fe  Fe28  1  0.36905200  0.50000000  0.98680700  1
  Fe  Fe29  1  0.00000000  0.72032800  0.50000000  1
  Fe  Fe30  1  0.22495550  0.23193050  0.82985800  1
  Fe  Fe31  1  0.25000000  0.75000000  0.50000000  1
  Fe  Fe32  1  0.13094800  0.00000000  0.01319300  1
  Fe  Fe33  1  0.39655200  0.00000000  0.69055500  1
  Fe  Fe34  1  0.25000000  0.25000000  0.50000000  1
  Fe  Fe35  1  0.50000000  0.77967200  0.50000000  1
  Fe  Fe36  1  0.27504450  0.73193050  0.17014200  1
  Fe  Fe37  1  0.72495550  0.26806950  0.82985800  1
  Fe  Fe38  1  0.60344800  0.00000000  0.30944500  1
  Fe  Fe39  1  0.27504450  0.26806950  0.17014200  1
  Fe  Fe40  1  0.86905200  0.00000000  0.98680700  1
  Fe  Fe41  1  0.50000000  0.22032800  0.50000000  1
  Fe  Fe42  1  0.72495550  0.73193050  0.82985800  1
  Fe  Fe43  1  0.75000000  0.25000000  0.50000000  1
