# generated using pymatgen
data_Na2DyMoPO8
_symmetry_space_group_name_H-M   'P 1'
_cell_length_a   6.95783600
_cell_length_b   12.21918000
_cell_length_c   18.20828000
_cell_angle_alpha   90.00000000
_cell_angle_beta   90.00000000
_cell_angle_gamma   90.00000000
_symmetry_Int_Tables_number   1
_chemical_formula_structural   Na2DyMoPO8
_chemical_formula_sum   'Na16 Dy8 Mo8 P8 O64'
_cell_volume   1548.05067674
_cell_formula_units_Z   8
loop_
 _symmetry_equiv_pos_site_id
 _symmetry_equiv_pos_as_xyz
  1  'x, y, z'
loop_
 _atom_site_type_symbol
 _atom_site_label
 _atom_site_symmetry_multiplicity
 _atom_site_fract_x
 _atom_site_fract_y
 _atom_site_fract_z
 _atom_site_occupancy
  Na  Na0  1  0.99010400  0.55608500  0.15325300  1
  Na  Na1  1  0.49010400  0.44391500  0.15325300  1
  Na  Na2  1  0.00989600  0.55608500  0.65325300  1
  Na  Na3  1  0.50989600  0.44391500  0.65325300  1
  Na  Na4  1  0.49010400  0.55608500  0.34674700  1
  Na  Na5  1  0.99010400  0.44391500  0.34674700  1
  Na  Na6  1  0.00989600  0.44391500  0.84674700  1
  Na  Na7  1  0.50989600  0.55608500  0.84674700  1
  Na  Na8  1  0.49010400  0.05608500  0.65325300  1
  Na  Na9  1  0.99010400  0.94391500  0.65325300  1
  Na  Na10  1  0.50989600  0.05608500  0.15325300  1
  Na  Na11  1  0.00989600  0.94391500  0.15325300  1
  Na  Na12  1  0.99010400  0.05608500  0.84674700  1
  Na  Na13  1  0.49010400  0.94391500  0.84674700  1
  Na  Na14  1  0.50989600  0.94391500  0.34674700  1
  Na  Na15  1  0.00989600  0.05608500  0.34674700  1
  Dy  Dy16  1  0.25000000  0.67791700  0.00000000  1
  Dy  Dy17  1  0.75000000  0.32208300  0.00000000  1
  Dy  Dy18  1  0.25000000  0.17791700  0.00000000  1
  Dy  Dy19  1  0.75000000  0.82208300  0.00000000  1
  Dy  Dy20  1  0.75000000  0.17791700  0.50000000  1
  Dy  Dy21  1  0.25000000  0.82208300  0.50000000  1
  Dy  Dy22  1  0.75000000  0.67791700  0.50000000  1
  Dy  Dy23  1  0.25000000  0.32208300  0.50000000  1
  Mo  Mo24  1  0.00000000  0.25000000  0.17799400  1
  Mo  Mo25  1  0.50000000  0.25000000  0.82200600  1
  Mo  Mo26  1  0.00000000  0.75000000  0.82200600  1
  Mo  Mo27  1  0.50000000  0.75000000  0.17799400  1
  Mo  Mo28  1  0.50000000  0.75000000  0.67799400  1
  Mo  Mo29  1  0.00000000  0.75000000  0.32200600  1
  Mo  Mo30  1  0.50000000  0.25000000  0.32200600  1
  Mo  Mo31  1  0.00000000  0.25000000  0.67799400  1
  P  P32  1  0.75000000  0.56916500  0.00000000  1
  P  P33  1  0.25000000  0.43083500  0.00000000  1
  P  P34  1  0.25000000  0.93083500  0.00000000  1
  P  P35  1  0.75000000  0.06916500  0.00000000  1
  P  P36  1  0.25000000  0.06916500  0.50000000  1
  P  P37  1  0.75000000  0.93083500  0.50000000  1
  P  P38  1  0.75000000  0.43083500  0.50000000  1
  P  P39  1  0.25000000  0.56916500  0.50000000  1
  O  O40  1  0.57559000  0.64839000  0.99196500  1
  O  O41  1  0.26275400  0.50657700  0.93196700  1
  O  O42  1  0.73724600  0.49342300  0.06803300  1
  O  O43  1  0.29048150  0.72532950  0.12108650  1
  O  O44  1  0.73724600  0.50657700  0.43196700  1
  O  O45  1  0.92441000  0.64839000  0.00803500  1
  O  O46  1  0.54142000  0.63027100  0.23182700  1
  O  O47  1  0.92441000  0.14839000  0.99196500  1
  O  O48  1  0.26275400  0.49342300  0.56803300  1
  O  O49  1  0.57559000  0.14839000  0.00803500  1
  O  O50  1  0.79048150  0.77467050  0.87891350  1
  O  O51  1  0.70951850  0.77467050  0.12108650  1
  O  O52  1  0.76275400  0.49342300  0.93196700  1
  O  O53  1  0.45858000  0.63027100  0.73182700  1
  O  O54  1  0.42441000  0.85161000  0.99196500  1
  O  O55  1  0.20951850  0.22532950  0.12108650  1
  O  O56  1  0.45858000  0.36972900  0.76817300  1
  O  O57  1  0.23724600  0.50657700  0.06803300  1
  O  O58  1  0.07559000  0.35161000  0.99196500  1
  O  O59  1  0.29048150  0.22532950  0.87891350  1
  O  O60  1  0.07559000  0.85161000  0.00803500  1
  O  O61  1  0.04142000  0.63027100  0.26817300  1
  O  O62  1  0.76275400  0.50657700  0.56803300  1
  O  O63  1  0.95858000  0.63027100  0.76817300  1
  O  O64  1  0.54142000  0.36972900  0.26817300  1
  O  O65  1  0.20951850  0.72532950  0.87891350  1
  O  O66  1  0.95858000  0.36972900  0.73182700  1
  O  O67  1  0.23724600  0.49342300  0.43196700  1
  O  O68  1  0.79048150  0.27467050  0.12108650  1
  O  O69  1  0.42441000  0.35161000  0.00803500  1
  O  O70  1  0.04142000  0.36972900  0.23182700  1
  O  O71  1  0.70951850  0.27467050  0.87891350  1
  O  O72  1  0.07559000  0.14839000  0.49196500  1
  O  O73  1  0.76275400  0.00657700  0.43196700  1
  O  O74  1  0.23724600  0.99342300  0.56803300  1
  O  O75  1  0.79048150  0.22532950  0.62108650  1
  O  O76  1  0.23724600  0.00657700  0.93196700  1
  O  O77  1  0.42441000  0.14839000  0.50803500  1
  O  O78  1  0.04142000  0.13027100  0.73182700  1
  O  O79  1  0.42441000  0.64839000  0.49196500  1
  O  O80  1  0.76275400  0.99342300  0.06803300  1
  O  O81  1  0.07559000  0.64839000  0.50803500  1
  O  O82  1  0.29048150  0.27467050  0.37891350  1
  O  O83  1  0.20951850  0.27467050  0.62108650  1
  O  O84  1  0.26275400  0.99342300  0.43196700  1
  O  O85  1  0.95858000  0.13027100  0.23182700  1
  O  O86  1  0.92441000  0.35161000  0.49196500  1
  O  O87  1  0.70951850  0.72532950  0.62108650  1
  O  O88  1  0.95858000  0.86972900  0.26817300  1
  O  O89  1  0.73724600  0.00657700  0.56803300  1
  O  O90  1  0.57559000  0.85161000  0.49196500  1
  O  O91  1  0.79048150  0.72532950  0.37891350  1
  O  O92  1  0.57559000  0.35161000  0.50803500  1
  O  O93  1  0.54142000  0.13027100  0.76817300  1
  O  O94  1  0.26275400  0.00657700  0.06803300  1
  O  O95  1  0.45858000  0.13027100  0.26817300  1
  O  O96  1  0.04142000  0.86972900  0.76817300  1
  O  O97  1  0.70951850  0.22532950  0.37891350  1
  O  O98  1  0.45858000  0.86972900  0.23182700  1
  O  O99  1  0.73724600  0.99342300  0.93196700  1
  O  O100  1  0.29048150  0.77467050  0.62108650  1
  O  O101  1  0.92441000  0.85161000  0.50803500  1
  O  O102  1  0.54142000  0.86972900  0.73182700  1
  O  O103  1  0.20951850  0.77467050  0.37891350  1
