# generated using pymatgen
data_EuTiClO3
_symmetry_space_group_name_H-M   'P 1'
_cell_length_a   9.86302000
_cell_length_b   3.92857400
_cell_length_c   10.29770784
_cell_angle_alpha   90.00000000
_cell_angle_beta   106.51215141
_cell_angle_gamma   90.00000000
_symmetry_Int_Tables_number   1
_chemical_formula_structural   EuTiClO3
_chemical_formula_sum   'Eu4 Ti4 Cl4 O12'
_cell_volume   382.55606233
_cell_formula_units_Z   4
loop_
 _symmetry_equiv_pos_site_id
 _symmetry_equiv_pos_as_xyz
  1  'x, y, z'
loop_
 _atom_site_type_symbol
 _atom_site_label
 _atom_site_symmetry_multiplicity
 _atom_site_fract_x
 _atom_site_fract_y
 _atom_site_fract_z
 _atom_site_occupancy
  Eu  Eu0  1  0.27935100  0.50000000  0.79811200  1
  Eu  Eu1  1  0.72064900  0.50000000  0.20188800  1
  Eu  Eu2  1  0.77935100  0.00000000  0.79811200  1
  Eu  Eu3  1  0.22064900  0.00000000  0.20188800  1
  Ti  Ti4  1  0.11917500  0.50000000  0.43537300  1
  Ti  Ti5  1  0.88082500  0.50000000  0.56462700  1
  Ti  Ti6  1  0.61917500  0.00000000  0.43537300  1
  Ti  Ti7  1  0.38082500  0.00000000  0.56462700  1
  Cl  Cl8  1  0.11190000  0.00000000  0.90277600  1
  Cl  Cl9  1  0.88810000  0.00000000  0.09722400  1
  Cl  Cl10  1  0.61190000  0.50000000  0.90277600  1
  Cl  Cl11  1  0.38810000  0.50000000  0.09722400  1
  O  O12  1  0.64938400  0.00000000  0.26200300  1
  O  O13  1  0.07640400  0.50000000  0.61931700  1
  O  O14  1  0.35061600  0.00000000  0.73799700  1
  O  O15  1  0.92359600  0.50000000  0.38068300  1
  O  O16  1  0.16688400  0.00000000  0.44035500  1
  O  O17  1  0.83311600  0.00000000  0.55964500  1
  O  O18  1  0.14938400  0.50000000  0.26200300  1
  O  O19  1  0.57640400  0.00000000  0.61931700  1
  O  O20  1  0.85061600  0.50000000  0.73799700  1
  O  O21  1  0.42359600  0.00000000  0.38068300  1
  O  O22  1  0.66688400  0.50000000  0.44035500  1
  O  O23  1  0.33311600  0.50000000  0.55964500  1
