# generated using pymatgen
data_KNd(WO4)2
_symmetry_space_group_name_H-M   'P 1'
_cell_length_a   10.38955800
_cell_length_b   10.90354400
_cell_length_c   7.59894660
_cell_angle_alpha   90.00000000
_cell_angle_beta   125.69337558
_cell_angle_gamma   90.00000000
_symmetry_Int_Tables_number   1
_chemical_formula_structural   KNd(WO4)2
_chemical_formula_sum   'K4 Nd4 W8 O32'
_cell_volume   699.12514548
_cell_formula_units_Z   4
loop_
 _symmetry_equiv_pos_site_id
 _symmetry_equiv_pos_as_xyz
  1  'x, y, z'
loop_
 _atom_site_type_symbol
 _atom_site_label
 _atom_site_symmetry_multiplicity
 _atom_site_fract_x
 _atom_site_fract_y
 _atom_site_fract_z
 _atom_site_occupancy
  K  K0  1  0.31102200  0.00000000  0.47342300  1
  K  K1  1  0.68897800  0.00000000  0.52657700  1
  K  K2  1  0.81102200  0.50000000  0.47342300  1
  K  K3  1  0.18897800  0.50000000  0.52657700  1
  Nd  Nd4  1  0.50000000  0.19891000  0.00000000  1
  Nd  Nd5  1  0.50000000  0.80109000  0.00000000  1
  Nd  Nd6  1  0.00000000  0.69891000  0.00000000  1
  Nd  Nd7  1  0.00000000  0.30109000  0.00000000  1
  W  W8  1  0.50000000  0.66235600  0.50000000  1
  W  W9  1  0.79596100  0.00000000  0.05665100  1
  W  W10  1  0.20403900  0.00000000  0.94334900  1
  W  W11  1  0.50000000  0.33764400  0.50000000  1
  W  W12  1  0.00000000  0.16235600  0.50000000  1
  W  W13  1  0.29596100  0.50000000  0.05665100  1
  W  W14  1  0.70403900  0.50000000  0.94334900  1
  W  W15  1  0.00000000  0.83764400  0.50000000  1
  O  O16  1  0.54586900  0.23628100  0.35395500  1
  O  O17  1  0.57392800  0.00000000  0.89230700  1
  O  O18  1  0.77988700  0.87345100  0.26053200  1
  O  O19  1  0.01634500  0.00000000  0.34420500  1
  O  O20  1  0.45413100  0.23628100  0.64604500  1
  O  O21  1  0.22011300  0.12654900  0.73946800  1
  O  O22  1  0.16787900  0.87247900  0.06468200  1
  O  O23  1  0.98365500  0.00000000  0.65579500  1
  O  O24  1  0.22011300  0.87345100  0.73946800  1
  O  O25  1  0.45413100  0.76371900  0.64604500  1
  O  O26  1  0.77988700  0.12654900  0.26053200  1
  O  O27  1  0.42607200  0.00000000  0.10769300  1
  O  O28  1  0.83212100  0.12752100  0.93531800  1
  O  O29  1  0.16787900  0.12752100  0.06468200  1
  O  O30  1  0.83212100  0.87247900  0.93531800  1
  O  O31  1  0.54586900  0.76371900  0.35395500  1
  O  O32  1  0.04586900  0.73628100  0.35395500  1
  O  O33  1  0.07392800  0.50000000  0.89230700  1
  O  O34  1  0.27988700  0.37345100  0.26053200  1
  O  O35  1  0.51634500  0.50000000  0.34420500  1
  O  O36  1  0.95413100  0.73628100  0.64604500  1
  O  O37  1  0.72011300  0.62654900  0.73946800  1
  O  O38  1  0.66787900  0.37247900  0.06468200  1
  O  O39  1  0.48365500  0.50000000  0.65579500  1
  O  O40  1  0.72011300  0.37345100  0.73946800  1
  O  O41  1  0.95413100  0.26371900  0.64604500  1
  O  O42  1  0.27988700  0.62654900  0.26053200  1
  O  O43  1  0.92607200  0.50000000  0.10769300  1
  O  O44  1  0.33212100  0.62752100  0.93531800  1
  O  O45  1  0.66787900  0.62752100  0.06468200  1
  O  O46  1  0.33212100  0.37247900  0.93531800  1
  O  O47  1  0.04586900  0.26371900  0.35395500  1
