# generated using pymatgen
data_NdMgSi2
_symmetry_space_group_name_H-M   'P 1'
_cell_length_a   4.26068000
_cell_length_b   4.26068000
_cell_length_c   36.82180400
_cell_angle_alpha   90.00000000
_cell_angle_beta   90.00000000
_cell_angle_gamma   90.00000000
_symmetry_Int_Tables_number   1
_chemical_formula_structural   NdMgSi2
_chemical_formula_sum   'Nd8 Mg8 Si16'
_cell_volume   668.44071810
_cell_formula_units_Z   8
loop_
 _symmetry_equiv_pos_site_id
 _symmetry_equiv_pos_as_xyz
  1  'x, y, z'
loop_
 _atom_site_type_symbol
 _atom_site_label
 _atom_site_symmetry_multiplicity
 _atom_site_fract_x
 _atom_site_fract_y
 _atom_site_fract_z
 _atom_site_occupancy
  Nd  Nd0  1  0.00000000  0.50000000  0.32774100  1
  Nd  Nd1  1  0.00000000  0.50000000  0.17225900  1
  Nd  Nd2  1  0.00000000  0.00000000  0.07774100  1
  Nd  Nd3  1  0.50000000  0.50000000  0.42225900  1
  Nd  Nd4  1  0.50000000  0.00000000  0.82774100  1
  Nd  Nd5  1  0.50000000  0.00000000  0.67225900  1
  Nd  Nd6  1  0.50000000  0.50000000  0.57774100  1
  Nd  Nd7  1  0.00000000  0.00000000  0.92225900  1
  Mg  Mg8  1  0.00000000  0.00000000  0.24999700  1
  Mg  Mg9  1  0.00000000  0.50000000  0.49999700  1
  Mg  Mg10  1  0.00000000  0.50000000  0.00000300  1
  Mg  Mg11  1  0.50000000  0.50000000  0.25000300  1
  Mg  Mg12  1  0.50000000  0.50000000  0.74999700  1
  Mg  Mg13  1  0.50000000  0.00000000  0.99999700  1
  Mg  Mg14  1  0.50000000  0.00000000  0.50000300  1
  Mg  Mg15  1  0.00000000  0.00000000  0.75000300  1
  Si  Si16  1  0.50000000  0.00000000  0.20210600  1
  Si  Si17  1  0.00000000  0.00000000  0.38917000  1
  Si  Si18  1  0.50000000  0.00000000  0.29789400  1
  Si  Si19  1  0.50000000  0.50000000  0.04789400  1
  Si  Si20  1  0.50000000  0.50000000  0.11083000  1
  Si  Si21  1  0.00000000  0.00000000  0.45210600  1
  Si  Si22  1  0.50000000  0.00000000  0.13917000  1
  Si  Si23  1  0.50000000  0.00000000  0.36083000  1
  Si  Si24  1  0.00000000  0.50000000  0.70210600  1
  Si  Si25  1  0.50000000  0.50000000  0.88917000  1
  Si  Si26  1  0.00000000  0.50000000  0.79789400  1
  Si  Si27  1  0.00000000  0.00000000  0.54789400  1
  Si  Si28  1  0.00000000  0.00000000  0.61083000  1
  Si  Si29  1  0.50000000  0.50000000  0.95210600  1
  Si  Si30  1  0.00000000  0.50000000  0.63917000  1
  Si  Si31  1  0.00000000  0.50000000  0.86083000  1
