# generated using pymatgen
data_K6Co2O5
_symmetry_space_group_name_H-M   'P 1'
_cell_length_a   6.66022050
_cell_length_b   6.66022050
_cell_length_c   11.95937300
_cell_angle_alpha   90.00000000
_cell_angle_beta   90.00000000
_cell_angle_gamma   90.00000000
_symmetry_Int_Tables_number   1
_chemical_formula_structural   K6Co2O5
_chemical_formula_sum   'K12 Co4 O10'
_cell_volume   530.50029108
_cell_formula_units_Z   2
loop_
 _symmetry_equiv_pos_site_id
 _symmetry_equiv_pos_as_xyz
  1  'x, y, z'
loop_
 _atom_site_type_symbol
 _atom_site_label
 _atom_site_symmetry_multiplicity
 _atom_site_fract_x
 _atom_site_fract_y
 _atom_site_fract_z
 _atom_site_occupancy
  K  K0  1  0.00000000  0.00000000  0.71938400  1
  K  K1  1  0.50000000  0.50000000  0.21938400  1
  K  K2  1  0.50000000  0.50000000  0.78061600  1
  K  K3  1  0.00000000  0.00000000  0.28061600  1
  K  K4  1  0.68001150  0.31998850  0.50000000  1
  K  K5  1  0.31998850  0.68001150  0.50000000  1
  K  K6  1  0.81998850  0.81998850  0.00000000  1
  K  K7  1  0.18001150  0.18001150  0.00000000  1
  K  K8  1  0.50000000  0.00000000  0.75000000  1
  K  K9  1  0.00000000  0.50000000  0.25000000  1
  K  K10  1  0.00000000  0.50000000  0.75000000  1
  K  K11  1  0.50000000  0.00000000  0.25000000  1
  Co  Co12  1  0.29390900  0.70609100  0.00000000  1
  Co  Co13  1  0.20609100  0.20609100  0.50000000  1
  Co  Co14  1  0.70609100  0.29390900  0.00000000  1
  Co  Co15  1  0.79390900  0.79390900  0.50000000  1
  O  O16  1  0.50000000  0.50000000  0.00000000  1
  O  O17  1  0.00000000  0.00000000  0.50000000  1
  O  O18  1  0.28818600  0.28818600  0.36163700  1
  O  O19  1  0.78818600  0.21181400  0.13836300  1
  O  O20  1  0.28818600  0.28818600  0.63836300  1
  O  O21  1  0.78818600  0.21181400  0.86163700  1
  O  O22  1  0.71181400  0.71181400  0.36163700  1
  O  O23  1  0.71181400  0.71181400  0.63836300  1
  O  O24  1  0.21181400  0.78818600  0.86163700  1
  O  O25  1  0.21181400  0.78818600  0.13836300  1
