# generated using pymatgen
data_Nd12Co6Sn
_symmetry_space_group_name_H-M   'P 1'
_cell_length_a   10.02206800
_cell_length_b   10.02206800
_cell_length_c   10.02206800
_cell_angle_alpha   90.00000000
_cell_angle_beta   90.00000000
_cell_angle_gamma   90.00000000
_symmetry_Int_Tables_number   1
_chemical_formula_structural   Nd12Co6Sn
_chemical_formula_sum   'Nd24 Co12 Sn2'
_cell_volume   1006.63502065
_cell_formula_units_Z   2
loop_
 _symmetry_equiv_pos_site_id
 _symmetry_equiv_pos_as_xyz
  1  'x, y, z'
loop_
 _atom_site_type_symbol
 _atom_site_label
 _atom_site_symmetry_multiplicity
 _atom_site_fract_x
 _atom_site_fract_y
 _atom_site_fract_z
 _atom_site_occupancy
  Nd  Nd0  1  0.19283400  0.00000000  0.30568700  1
  Nd  Nd1  1  0.19431300  0.30716600  0.50000000  1
  Nd  Nd2  1  0.50000000  0.80568700  0.30716600  1
  Nd  Nd3  1  0.80568700  0.30716600  0.50000000  1
  Nd  Nd4  1  0.00000000  0.69431300  0.19283400  1
  Nd  Nd5  1  0.30568700  0.19283400  0.00000000  1
  Nd  Nd6  1  0.00000000  0.30568700  0.19283400  1
  Nd  Nd7  1  0.50000000  0.19431300  0.30716600  1
  Nd  Nd8  1  0.69431300  0.19283400  0.00000000  1
  Nd  Nd9  1  0.30716600  0.50000000  0.80568700  1
  Nd  Nd10  1  0.19283400  0.00000000  0.69431300  1
  Nd  Nd11  1  0.30716600  0.50000000  0.19431300  1
  Nd  Nd12  1  0.69283400  0.50000000  0.80568700  1
  Nd  Nd13  1  0.69431300  0.80716600  0.00000000  1
  Nd  Nd14  1  0.00000000  0.30568700  0.80716600  1
  Nd  Nd15  1  0.30568700  0.80716600  0.00000000  1
  Nd  Nd16  1  0.50000000  0.19431300  0.69283400  1
  Nd  Nd17  1  0.80568700  0.69283400  0.50000000  1
  Nd  Nd18  1  0.50000000  0.80568700  0.69283400  1
  Nd  Nd19  1  0.00000000  0.69431300  0.80716600  1
  Nd  Nd20  1  0.19431300  0.69283400  0.50000000  1
  Nd  Nd21  1  0.80716600  0.00000000  0.30568700  1
  Nd  Nd22  1  0.69283400  0.50000000  0.19431300  1
  Nd  Nd23  1  0.80716600  0.00000000  0.69431300  1
  Co  Co24  1  0.00000000  0.11069200  0.50000000  1
  Co  Co25  1  0.50000000  0.00000000  0.11069200  1
  Co  Co26  1  0.38930800  0.00000000  0.50000000  1
  Co  Co27  1  0.00000000  0.50000000  0.38930800  1
  Co  Co28  1  0.11069200  0.50000000  0.00000000  1
  Co  Co29  1  0.50000000  0.38930800  0.00000000  1
  Co  Co30  1  0.50000000  0.61069200  0.00000000  1
  Co  Co31  1  0.00000000  0.50000000  0.61069200  1
  Co  Co32  1  0.88930800  0.50000000  0.00000000  1
  Co  Co33  1  0.50000000  0.00000000  0.88930800  1
  Co  Co34  1  0.61069200  0.00000000  0.50000000  1
  Co  Co35  1  0.00000000  0.88930800  0.50000000  1
  Sn  Sn36  1  0.00000000  0.00000000  0.00000000  1
  Sn  Sn37  1  0.50000000  0.50000000  0.50000000  1
