# generated using pymatgen
data_TiCu2P
_symmetry_space_group_name_H-M   'P 1'
_cell_length_a   3.51682400
_cell_length_b   3.51682400
_cell_length_c   33.49264400
_cell_angle_alpha   90.00000000
_cell_angle_beta   90.00000000
_cell_angle_gamma   90.00000000
_symmetry_Int_Tables_number   1
_chemical_formula_structural   TiCu2P
_chemical_formula_sum   'Ti8 Cu16 P8'
_cell_volume   414.23873069
_cell_formula_units_Z   8
loop_
 _symmetry_equiv_pos_site_id
 _symmetry_equiv_pos_as_xyz
  1  'x, y, z'
loop_
 _atom_site_type_symbol
 _atom_site_label
 _atom_site_symmetry_multiplicity
 _atom_site_fract_x
 _atom_site_fract_y
 _atom_site_fract_z
 _atom_site_occupancy
  Ti  Ti0  1  0.50000000  0.00000000  0.02800200  1
  Ti  Ti1  1  0.50000000  0.00000000  0.47199800  1
  Ti  Ti2  1  0.00000000  0.00000000  0.27800200  1
  Ti  Ti3  1  0.50000000  0.50000000  0.22199800  1
  Ti  Ti4  1  0.00000000  0.50000000  0.52800200  1
  Ti  Ti5  1  0.00000000  0.50000000  0.97199800  1
  Ti  Ti6  1  0.50000000  0.50000000  0.77800200  1
  Ti  Ti7  1  0.00000000  0.00000000  0.72199800  1
  Cu  Cu8  1  0.00000000  0.50000000  0.15495600  1
  Cu  Cu9  1  0.00000000  0.00000000  0.09504400  1
  Cu  Cu10  1  0.50000000  0.50000000  0.40495600  1
  Cu  Cu11  1  0.00000000  0.50000000  0.34504400  1
  Cu  Cu12  1  0.00000000  0.00000000  0.40261300  1
  Cu  Cu13  1  0.50000000  0.00000000  0.34738700  1
  Cu  Cu14  1  0.50000000  0.50000000  0.09738700  1
  Cu  Cu15  1  0.50000000  0.00000000  0.15261300  1
  Cu  Cu16  1  0.50000000  0.00000000  0.65495600  1
  Cu  Cu17  1  0.50000000  0.50000000  0.59504400  1
  Cu  Cu18  1  0.00000000  0.00000000  0.90495600  1
  Cu  Cu19  1  0.50000000  0.00000000  0.84504400  1
  Cu  Cu20  1  0.50000000  0.50000000  0.90261300  1
  Cu  Cu21  1  0.00000000  0.50000000  0.84738700  1
  Cu  Cu22  1  0.00000000  0.00000000  0.59738700  1
  Cu  Cu23  1  0.00000000  0.50000000  0.65261300  1
  P  P24  1  0.00000000  0.50000000  0.04664600  1
  P  P25  1  0.00000000  0.00000000  0.20335400  1
  P  P26  1  0.00000000  0.50000000  0.45335400  1
  P  P27  1  0.50000000  0.50000000  0.29664600  1
  P  P28  1  0.50000000  0.00000000  0.54664600  1
  P  P29  1  0.50000000  0.50000000  0.70335400  1
  P  P30  1  0.50000000  0.00000000  0.95335400  1
  P  P31  1  0.00000000  0.00000000  0.79664600  1
