# generated using pymatgen
data_Hf54Os17
_symmetry_space_group_name_H-M   'P 1'
_cell_length_a   13.87643400
_cell_length_b   14.14460400
_cell_length_c   14.62018200
_cell_angle_alpha   90.00000000
_cell_angle_beta   90.00000000
_cell_angle_gamma   90.00000000
_symmetry_Int_Tables_number   1
_chemical_formula_structural   Hf54Os17
_chemical_formula_sum   'Hf108 Os34'
_cell_volume   2869.60054802
_cell_formula_units_Z   2
loop_
 _symmetry_equiv_pos_site_id
 _symmetry_equiv_pos_as_xyz
  1  'x, y, z'
loop_
 _atom_site_type_symbol
 _atom_site_label
 _atom_site_symmetry_multiplicity
 _atom_site_fract_x
 _atom_site_fract_y
 _atom_site_fract_z
 _atom_site_occupancy
  Hf  Hf0  1  0.19168550  0.68412150  0.10642250  1
  Hf  Hf1  1  0.88358250  0.18231550  0.28523350  1
  Hf  Hf2  1  0.10855500  0.00000000  0.82985800  1
  Hf  Hf3  1  0.30831450  0.18412150  0.60642250  1
  Hf  Hf4  1  0.30665100  0.88692800  0.17831500  1
  Hf  Hf5  1  0.37406350  0.39232650  0.00000000  1
  Hf  Hf6  1  0.80665100  0.61307200  0.32168500  1
  Hf  Hf7  1  0.61641750  0.31768450  0.78523350  1
  Hf  Hf8  1  0.17861250  0.10803650  0.00000000  1
  Hf  Hf9  1  0.50000000  0.68800100  0.39924500  1
  Hf  Hf10  1  0.19168550  0.31587850  0.89357750  1
  Hf  Hf11  1  0.82138750  0.10803650  0.00000000  1
  Hf  Hf12  1  0.39048900  0.00000000  0.00000000  1
  Hf  Hf13  1  0.50000000  0.31199900  0.39924500  1
  Hf  Hf14  1  0.39144500  0.50000000  0.67014200  1
  Hf  Hf15  1  0.30831450  0.81587850  0.39357750  1
  Hf  Hf16  1  0.10113550  0.50000000  0.16571450  1
  Hf  Hf17  1  0.30665100  0.11307200  0.17831500  1
  Hf  Hf18  1  0.19168550  0.31587850  0.10642250  1
  Hf  Hf19  1  0.19334900  0.38692800  0.32168500  1
  Hf  Hf20  1  0.10855500  0.00000000  0.17014200  1
  Hf  Hf21  1  0.00000000  0.32168200  0.59563900  1
  Hf  Hf22  1  0.50000000  0.17831800  0.90436100  1
  Hf  Hf23  1  0.88358250  0.18231550  0.71476650  1
  Hf  Hf24  1  0.00000000  0.32168200  0.40436100  1
  Hf  Hf25  1  0.00000000  0.00000000  0.35491100  1
  Hf  Hf26  1  0.11641750  0.18231550  0.71476650  1
  Hf  Hf27  1  0.00000000  0.81199900  0.10075500  1
  Hf  Hf28  1  0.38358250  0.31768450  0.21476650  1
  Hf  Hf29  1  0.61641750  0.31768450  0.21476650  1
  Hf  Hf30  1  0.19168550  0.68412150  0.89357750  1
  Hf  Hf31  1  0.00000000  0.00000000  0.64508900  1
  Hf  Hf32  1  0.38358250  0.31768450  0.78523350  1
  Hf  Hf33  1  0.00000000  0.60687700  0.00000000  1
  Hf  Hf34  1  0.12593650  0.89232650  0.50000000  1
  Hf  Hf35  1  0.69334900  0.11307200  0.17831500  1
  Hf  Hf36  1  0.32138750  0.39196350  0.50000000  1
  Hf  Hf37  1  0.67861250  0.39196350  0.50000000  1
  Hf  Hf38  1  0.37406350  0.60767350  0.00000000  1
  Hf  Hf39  1  0.12593650  0.10767350  0.50000000  1
  Hf  Hf40  1  0.80665100  0.38692800  0.32168500  1
  Hf  Hf41  1  0.11641750  0.18231550  0.28523350  1
  Hf  Hf42  1  0.50000000  0.17831800  0.09563900  1
  Hf  Hf43  1  0.39886450  0.00000000  0.33428550  1
  Hf  Hf44  1  0.00000000  0.39312300  0.00000000  1
  Hf  Hf45  1  0.89886450  0.50000000  0.16571450  1
  Hf  Hf46  1  0.39144500  0.50000000  0.32985800  1
  Hf  Hf47  1  0.00000000  0.18800100  0.10075500  1
  Hf  Hf48  1  0.60951100  0.00000000  0.00000000  1
  Hf  Hf49  1  0.30831450  0.18412150  0.39357750  1
  Hf  Hf50  1  0.60113550  0.00000000  0.33428550  1
  Hf  Hf51  1  0.30831450  0.81587850  0.60642250  1
  Hf  Hf52  1  0.69334900  0.88692800  0.17831500  1
  Hf  Hf53  1  0.19334900  0.61307200  0.32168500  1
  Hf  Hf54  1  0.69168550  0.18412150  0.60642250  1
  Hf  Hf55  1  0.38358250  0.68231550  0.78523350  1
  Hf  Hf56  1  0.60855500  0.50000000  0.32985800  1
  Hf  Hf57  1  0.80831450  0.68412150  0.10642250  1
  Hf  Hf58  1  0.80665100  0.38692800  0.67831500  1
  Hf  Hf59  1  0.87406350  0.89232650  0.50000000  1
  Hf  Hf60  1  0.30665100  0.11307200  0.82168500  1
  Hf  Hf61  1  0.11641750  0.81768450  0.28523350  1
  Hf  Hf62  1  0.67861250  0.60803650  0.50000000  1
  Hf  Hf63  1  0.00000000  0.18800100  0.89924500  1
  Hf  Hf64  1  0.69168550  0.81587850  0.39357750  1
  Hf  Hf65  1  0.32138750  0.60803650  0.50000000  1
  Hf  Hf66  1  0.89048900  0.50000000  0.50000000  1
  Hf  Hf67  1  0.00000000  0.81199900  0.89924500  1
  Hf  Hf68  1  0.89144500  0.00000000  0.17014200  1
  Hf  Hf69  1  0.80831450  0.31587850  0.89357750  1
  Hf  Hf70  1  0.60113550  0.00000000  0.66571450  1
  Hf  Hf71  1  0.80665100  0.61307200  0.67831500  1
  Hf  Hf72  1  0.69168550  0.81587850  0.60642250  1
  Hf  Hf73  1  0.69334900  0.88692800  0.82168500  1
  Hf  Hf74  1  0.60855500  0.50000000  0.67014200  1
  Hf  Hf75  1  0.50000000  0.82168200  0.09563900  1
  Hf  Hf76  1  0.00000000  0.67831800  0.40436100  1
  Hf  Hf77  1  0.38358250  0.68231550  0.21476650  1
  Hf  Hf78  1  0.50000000  0.82168200  0.90436100  1
  Hf  Hf79  1  0.50000000  0.50000000  0.85491100  1
  Hf  Hf80  1  0.61641750  0.68231550  0.21476650  1
  Hf  Hf81  1  0.50000000  0.31199900  0.60075500  1
  Hf  Hf82  1  0.88358250  0.81768450  0.71476650  1
  Hf  Hf83  1  0.11641750  0.81768450  0.71476650  1
  Hf  Hf84  1  0.69168550  0.18412150  0.39357750  1
  Hf  Hf85  1  0.50000000  0.50000000  0.14508900  1
  Hf  Hf86  1  0.88358250  0.81768450  0.28523350  1
  Hf  Hf87  1  0.50000000  0.10687700  0.50000000  1
  Hf  Hf88  1  0.62593650  0.39232650  0.00000000  1
  Hf  Hf89  1  0.19334900  0.61307200  0.67831500  1
  Hf  Hf90  1  0.82138750  0.89196350  0.00000000  1
  Hf  Hf91  1  0.17861250  0.89196350  0.00000000  1
  Hf  Hf92  1  0.87406350  0.10767350  0.50000000  1
  Hf  Hf93  1  0.62593650  0.60767350  0.00000000  1
  Hf  Hf94  1  0.30665100  0.88692800  0.82168500  1
  Hf  Hf95  1  0.61641750  0.68231550  0.78523350  1
  Hf  Hf96  1  0.00000000  0.67831800  0.59563900  1
  Hf  Hf97  1  0.89886450  0.50000000  0.83428550  1
  Hf  Hf98  1  0.50000000  0.89312300  0.50000000  1
  Hf  Hf99  1  0.39886450  0.00000000  0.66571450  1
  Hf  Hf100  1  0.89144500  0.00000000  0.82985800  1
  Hf  Hf101  1  0.50000000  0.68800100  0.60075500  1
  Hf  Hf102  1  0.10951100  0.50000000  0.50000000  1
  Hf  Hf103  1  0.80831450  0.68412150  0.89357750  1
  Hf  Hf104  1  0.10113550  0.50000000  0.83428550  1
  Hf  Hf105  1  0.80831450  0.31587850  0.10642250  1
  Hf  Hf106  1  0.19334900  0.38692800  0.67831500  1
  Hf  Hf107  1  0.69334900  0.11307200  0.82168500  1
  Os  Os108  1  0.19037900  0.50000000  0.00000000  1
  Os  Os109  1  0.30086600  0.50000000  0.16527500  1
  Os  Os110  1  0.00000000  0.66754700  0.21632500  1
  Os  Os111  1  0.17118500  0.28778900  0.50000000  1
  Os  Os112  1  0.50000000  0.16754700  0.28367500  1
  Os  Os113  1  0.19913400  0.00000000  0.66527500  1
  Os  Os114  1  0.30086600  0.50000000  0.83472500  1
  Os  Os115  1  0.50000000  0.83245300  0.28367500  1
  Os  Os116  1  0.67118500  0.21221100  0.00000000  1
  Os  Os117  1  0.00000000  0.50000000  0.33692300  1
  Os  Os118  1  0.50000000  0.00000000  0.16307700  1
  Os  Os119  1  0.00000000  0.00000000  0.00000000  1
  Os  Os120  1  0.30962100  0.00000000  0.50000000  1
  Os  Os121  1  0.00000000  0.33245300  0.21632500  1
  Os  Os122  1  0.32881500  0.21221100  0.00000000  1
  Os  Os123  1  0.82881500  0.28778900  0.50000000  1
  Os  Os124  1  0.19913400  0.00000000  0.33472500  1
  Os  Os125  1  0.69037900  0.00000000  0.50000000  1
  Os  Os126  1  0.80086600  0.00000000  0.66527500  1
  Os  Os127  1  0.50000000  0.16754700  0.71632500  1
  Os  Os128  1  0.67118500  0.78778900  0.00000000  1
  Os  Os129  1  0.00000000  0.66754700  0.78367500  1
  Os  Os130  1  0.69913400  0.50000000  0.16527500  1
  Os  Os131  1  0.80086600  0.00000000  0.33472500  1
  Os  Os132  1  0.00000000  0.33245300  0.78367500  1
  Os  Os133  1  0.17118500  0.71221100  0.50000000  1
  Os  Os134  1  0.50000000  0.00000000  0.83692300  1
  Os  Os135  1  0.00000000  0.50000000  0.66307700  1
  Os  Os136  1  0.50000000  0.50000000  0.50000000  1
  Os  Os137  1  0.80962100  0.50000000  0.00000000  1
  Os  Os138  1  0.50000000  0.83245300  0.71632500  1
  Os  Os139  1  0.82881500  0.71221100  0.50000000  1
  Os  Os140  1  0.32881500  0.78778900  0.00000000  1
  Os  Os141  1  0.69913400  0.50000000  0.83472500  1
