# generated using pymatgen
data_Eu2B5Os3
_symmetry_space_group_name_H-M   'P 1'
_cell_length_a   10.74387400
_cell_length_b   4.07412000
_cell_length_c   8.07615672
_cell_angle_alpha   90.00000000
_cell_angle_beta   125.00414691
_cell_angle_gamma   90.00000000
_symmetry_Int_Tables_number   1
_chemical_formula_structural   Eu2B5Os3
_chemical_formula_sum   'Eu4 B10 Os6'
_cell_volume   289.56226782
_cell_formula_units_Z   2
loop_
 _symmetry_equiv_pos_site_id
 _symmetry_equiv_pos_as_xyz
  1  'x, y, z'
loop_
 _atom_site_type_symbol
 _atom_site_label
 _atom_site_symmetry_multiplicity
 _atom_site_fract_x
 _atom_site_fract_y
 _atom_site_fract_z
 _atom_site_occupancy
  Eu  Eu0  1  0.33664500  0.28006700  0.23551000  1
  Eu  Eu1  1  0.66335500  0.28006700  0.76449000  1
  Eu  Eu2  1  0.83664500  0.78006700  0.23551000  1
  Eu  Eu3  1  0.16335500  0.78006700  0.76449000  1
  B  B4  1  0.50000000  0.77419500  0.50000000  1
  B  B5  1  0.64562550  0.28200950  0.31243500  1
  B  B6  1  0.47195550  0.00364550  0.87921700  1
  B  B7  1  0.35437450  0.28200950  0.68756500  1
  B  B8  1  0.52804450  0.00364550  0.12078300  1
  B  B9  1  0.00000000  0.27419500  0.50000000  1
  B  B10  1  0.14562550  0.78200950  0.31243500  1
  B  B11  1  0.97195550  0.50364550  0.87921700  1
  B  B12  1  0.85437450  0.78200950  0.68756500  1
  B  B13  1  0.02804450  0.50364550  0.12078300  1
  Os  Os14  1  0.36663050  0.76589450  0.59549900  1
  Os  Os15  1  0.00000000  0.99757300  0.00000000  1
  Os  Os16  1  0.63336950  0.76589450  0.40450100  1
  Os  Os17  1  0.86663050  0.26589450  0.59549900  1
  Os  Os18  1  0.50000000  0.49757300  0.00000000  1
  Os  Os19  1  0.13336950  0.26589450  0.40450100  1
