# generated using pymatgen
data_SrCeI4
_symmetry_space_group_name_H-M   'P 1'
_cell_length_a   10.31038000
_cell_length_b   14.98478800
_cell_length_c   7.49601013
_cell_angle_alpha   90.00000000
_cell_angle_beta   124.49270217
_cell_angle_gamma   90.00000000
_symmetry_Int_Tables_number   1
_chemical_formula_structural   SrCeI4
_chemical_formula_sum   'Sr4 Ce4 I16'
_cell_volume   954.52469308
_cell_formula_units_Z   4
loop_
 _symmetry_equiv_pos_site_id
 _symmetry_equiv_pos_as_xyz
  1  'x, y, z'
loop_
 _atom_site_type_symbol
 _atom_site_label
 _atom_site_symmetry_multiplicity
 _atom_site_fract_x
 _atom_site_fract_y
 _atom_site_fract_z
 _atom_site_occupancy
  Sr  Sr0  1  0.50000000  0.36496000  0.25000000  1
  Sr  Sr1  1  0.00000000  0.13504000  0.75000000  1
  Sr  Sr2  1  0.00000000  0.86496000  0.25000000  1
  Sr  Sr3  1  0.50000000  0.63504000  0.75000000  1
  Ce  Ce4  1  0.00000000  0.49990500  0.25000000  1
  Ce  Ce5  1  0.50000000  0.00009500  0.75000000  1
  Ce  Ce6  1  0.50000000  0.99990500  0.25000000  1
  Ce  Ce7  1  0.00000000  0.50009500  0.75000000  1
  I  I8  1  0.30354950  0.43751550  0.73408900  1
  I  I9  1  0.87799950  0.32361450  0.41054700  1
  I  I10  1  0.12200050  0.32361450  0.08945300  1
  I  I11  1  0.37799950  0.17638550  0.91054700  1
  I  I12  1  0.80354950  0.06248450  0.23408900  1
  I  I13  1  0.62200050  0.17638550  0.58945300  1
  I  I14  1  0.69645050  0.43751550  0.76591100  1
  I  I15  1  0.19645050  0.06248450  0.26591100  1
  I  I16  1  0.80354950  0.93751550  0.73408900  1
  I  I17  1  0.37799950  0.82361450  0.41054700  1
  I  I18  1  0.62200050  0.82361450  0.08945300  1
  I  I19  1  0.87799950  0.67638550  0.91054700  1
  I  I20  1  0.30354950  0.56248450  0.23408900  1
  I  I21  1  0.12200050  0.67638550  0.58945300  1
  I  I22  1  0.19645050  0.93751550  0.76591100  1
  I  I23  1  0.69645050  0.56248450  0.26591100  1
