# generated using pymatgen
data_PrMgSi2
_symmetry_space_group_name_H-M   'P 1'
_cell_length_a   4.28497800
_cell_length_b   4.28497800
_cell_length_c   36.86032400
_cell_angle_alpha   90.00000000
_cell_angle_beta   90.00000000
_cell_angle_gamma   90.00000000
_symmetry_Int_Tables_number   1
_chemical_formula_structural   PrMgSi2
_chemical_formula_sum   'Pr8 Mg8 Si16'
_cell_volume   676.79375291
_cell_formula_units_Z   8
loop_
 _symmetry_equiv_pos_site_id
 _symmetry_equiv_pos_as_xyz
  1  'x, y, z'
loop_
 _atom_site_type_symbol
 _atom_site_label
 _atom_site_symmetry_multiplicity
 _atom_site_fract_x
 _atom_site_fract_y
 _atom_site_fract_z
 _atom_site_occupancy
  Pr  Pr0  1  0.00000000  0.50000000  0.17257400  1
  Pr  Pr1  1  0.00000000  0.50000000  0.32742600  1
  Pr  Pr2  1  0.50000000  0.50000000  0.42257400  1
  Pr  Pr3  1  0.00000000  0.00000000  0.07742600  1
  Pr  Pr4  1  0.50000000  0.00000000  0.67257400  1
  Pr  Pr5  1  0.50000000  0.00000000  0.82742600  1
  Pr  Pr6  1  0.00000000  0.00000000  0.92257400  1
  Pr  Pr7  1  0.50000000  0.50000000  0.57742600  1
  Mg  Mg8  1  0.50000000  0.00000000  0.00013400  1
  Mg  Mg9  1  0.50000000  0.00000000  0.49986600  1
  Mg  Mg10  1  0.00000000  0.00000000  0.25013400  1
  Mg  Mg11  1  0.50000000  0.50000000  0.24986600  1
  Mg  Mg12  1  0.00000000  0.50000000  0.50013400  1
  Mg  Mg13  1  0.00000000  0.50000000  0.99986600  1
  Mg  Mg14  1  0.50000000  0.50000000  0.75013400  1
  Mg  Mg15  1  0.00000000  0.00000000  0.74986600  1
  Si  Si16  1  0.50000000  0.00000000  0.20225700  1
  Si  Si17  1  0.50000000  0.00000000  0.36087100  1
  Si  Si18  1  0.50000000  0.00000000  0.13912900  1
  Si  Si19  1  0.00000000  0.00000000  0.38912900  1
  Si  Si20  1  0.50000000  0.50000000  0.04774300  1
  Si  Si21  1  0.50000000  0.50000000  0.11087100  1
  Si  Si22  1  0.00000000  0.00000000  0.45225700  1
  Si  Si23  1  0.50000000  0.00000000  0.29774300  1
  Si  Si24  1  0.00000000  0.50000000  0.70225700  1
  Si  Si25  1  0.00000000  0.50000000  0.86087100  1
  Si  Si26  1  0.00000000  0.50000000  0.63912900  1
  Si  Si27  1  0.50000000  0.50000000  0.88912900  1
  Si  Si28  1  0.00000000  0.00000000  0.54774300  1
  Si  Si29  1  0.00000000  0.00000000  0.61087100  1
  Si  Si30  1  0.50000000  0.50000000  0.95225700  1
  Si  Si31  1  0.00000000  0.50000000  0.79774300  1
