# generated using pymatgen
data_LiWCl6
_symmetry_space_group_name_H-M   'P 1'
_cell_length_a   12.73442614
_cell_length_b   12.73442614
_cell_length_c   18.46687152
_cell_angle_alpha   90.00000000
_cell_angle_beta   90.00000000
_cell_angle_gamma   120.00000000
_symmetry_Int_Tables_number   1
_chemical_formula_structural   LiWCl6
_chemical_formula_sum   'Li12 W12 Cl72'
_cell_volume   2593.47888639
_cell_formula_units_Z   12
loop_
 _symmetry_equiv_pos_site_id
 _symmetry_equiv_pos_as_xyz
  1  'x, y, z'
loop_
 _atom_site_type_symbol
 _atom_site_label
 _atom_site_symmetry_multiplicity
 _atom_site_fract_x
 _atom_site_fract_y
 _atom_site_fract_z
 _atom_site_occupancy
  Li  Li0  1  0.33333333  0.66666667  0.00669567  1
  Li  Li1  1  0.66720000  0.83376200  0.00190300  1
  Li  Li2  1  0.16623800  0.83343800  0.00190300  1
  Li  Li3  1  0.16656200  0.33280000  0.00190300  1
  Li  Li4  1  0.00000000  0.00000000  0.34002900  1
  Li  Li5  1  0.33386667  0.16709533  0.33523633  1
  Li  Li6  1  0.83290467  0.16677133  0.33523633  1
  Li  Li7  1  0.83322867  0.66613333  0.33523633  1
  Li  Li8  1  0.66666667  0.33333333  0.67336233  1
  Li  Li9  1  0.00053333  0.50042867  0.66856967  1
  Li  Li10  1  0.49957133  0.50010467  0.66856967  1
  Li  Li11  1  0.49989533  0.99946667  0.66856967  1
  W  W12  1  0.65764967  0.82859033  0.33254033  1
  W  W13  1  0.33333333  0.66666667  0.66568267  1
  W  W14  1  0.17140967  0.82905933  0.33254033  1
  W  W15  1  0.17094067  0.34235033  0.33254033  1
  W  W16  1  0.32431633  0.16192367  0.66587367  1
  W  W17  1  0.00000000  0.00000000  0.99901600  1
  W  W18  1  0.83807633  0.16239267  0.66587367  1
  W  W19  1  0.83760733  0.67568367  0.66587367  1
  W  W20  1  0.99098300  0.49525700  0.99920700  1
  W  W21  1  0.66666667  0.33333333  0.33234933  1
  W  W22  1  0.50474300  0.49572600  0.99920700  1
  W  W23  1  0.50427400  0.00901700  0.99920700  1
  Cl  Cl24  1  0.01294700  0.32566700  0.25932600  1
  Cl  Cl25  1  0.52003400  0.83151900  0.25560100  1
  Cl  Cl26  1  0.14813833  0.99517967  0.07278167  1
  Cl  Cl27  1  0.16848100  0.68851500  0.25560100  1
  Cl  Cl28  1  0.00482033  0.15295867  0.07278167  1
  Cl  Cl29  1  0.00032600  0.65060700  0.07232700  1
  Cl  Cl30  1  0.67433300  0.68728000  0.25932600  1
  Cl  Cl31  1  0.49993167  0.84407633  0.93007533  1
  Cl  Cl32  1  0.34633867  0.84760233  0.07331633  1
  Cl  Cl33  1  0.84704133  0.85186167  0.07278167  1
  Cl  Cl34  1  0.15239767  0.49873633  0.07331633  1
  Cl  Cl35  1  0.51150367  0.32396433  0.25885933  1
  Cl  Cl36  1  0.31148500  0.47996600  0.25560100  1
  Cl  Cl37  1  0.51788300  0.68498600  0.40690900  1
  Cl  Cl38  1  0.34414467  0.50006833  0.93007533  1
  Cl  Cl39  1  0.15592367  0.65585533  0.93007533  1
  Cl  Cl40  1  0.50126367  0.65366133  0.07331633  1
  Cl  Cl41  1  0.81246067  0.48849633  0.25885933  1
  Cl  Cl42  1  0.65028100  0.99967400  0.07232700  1
  Cl  Cl43  1  0.31501400  0.83289700  0.40690900  1
  Cl  Cl44  1  0.16710300  0.48211700  0.40690900  1
  Cl  Cl45  1  0.34939300  0.34971900  0.07232700  1
  Cl  Cl46  1  0.31272000  0.98705300  0.25932600  1
  Cl  Cl47  1  0.67603567  0.18753933  0.25885933  1
  Cl  Cl48  1  0.67961367  0.65900033  0.59265933  1
  Cl  Cl49  1  0.18670067  0.16485233  0.58893433  1
  Cl  Cl50  1  0.81480500  0.32851300  0.40611500  1
  Cl  Cl51  1  0.83514767  0.02184833  0.58893433  1
  Cl  Cl52  1  0.67148700  0.48629200  0.40611500  1
  Cl  Cl53  1  0.66699267  0.98394033  0.40566033  1
  Cl  Cl54  1  0.34099967  0.02061333  0.59265933  1
  Cl  Cl55  1  0.16659833  0.17740967  0.26340867  1
  Cl  Cl56  1  0.01300533  0.18093567  0.40664967  1
  Cl  Cl57  1  0.51370800  0.18519500  0.40611500  1
  Cl  Cl58  1  0.81906433  0.83206967  0.40664967  1
  Cl  Cl59  1  0.17817033  0.65729767  0.59219267  1
  Cl  Cl60  1  0.97815167  0.81329933  0.58893433  1
  Cl  Cl61  1  0.18454967  0.01831933  0.74024233  1
  Cl  Cl62  1  0.01081133  0.83340167  0.26340867  1
  Cl  Cl63  1  0.82259033  0.98918867  0.26340867  1
  Cl  Cl64  1  0.16793033  0.98699467  0.40664967  1
  Cl  Cl65  1  0.47912733  0.82182967  0.59219267  1
  Cl  Cl66  1  0.31694767  0.33300733  0.40566033  1
  Cl  Cl67  1  0.98168067  0.16623033  0.74024233  1
  Cl  Cl68  1  0.83376967  0.81545033  0.74024233  1
  Cl  Cl69  1  0.01605967  0.68305233  0.40566033  1
  Cl  Cl70  1  0.97938667  0.32038633  0.59265933  1
  Cl  Cl71  1  0.34270233  0.52087267  0.59219267  1
  Cl  Cl72  1  0.34628033  0.99233367  0.92599267  1
  Cl  Cl73  1  0.85336733  0.49818567  0.92226767  1
  Cl  Cl74  1  0.48147167  0.66184633  0.73944833  1
  Cl  Cl75  1  0.50181433  0.35518167  0.92226767  1
  Cl  Cl76  1  0.33815367  0.81962533  0.73944833  1
  Cl  Cl77  1  0.33365933  0.31727367  0.73899367  1
  Cl  Cl78  1  0.00766633  0.35394667  0.92599267  1
  Cl  Cl79  1  0.83326500  0.51074300  0.59674200  1
  Cl  Cl80  1  0.67967200  0.51426900  0.73998300  1
  Cl  Cl81  1  0.18037467  0.51852833  0.73944833  1
  Cl  Cl82  1  0.48573100  0.16540300  0.73998300  1
  Cl  Cl83  1  0.84483700  0.99063100  0.92552600  1
  Cl  Cl84  1  0.64481833  0.14663267  0.92226767  1
  Cl  Cl85  1  0.85121633  0.35165267  0.07357567  1
  Cl  Cl86  1  0.67747800  0.16673500  0.59674200  1
  Cl  Cl87  1  0.48925700  0.32252200  0.59674200  1
  Cl  Cl88  1  0.83459700  0.32032800  0.73998300  1
  Cl  Cl89  1  0.14579400  0.15516300  0.92552600  1
  Cl  Cl90  1  0.98361433  0.66634067  0.73899367  1
  Cl  Cl91  1  0.64834733  0.49956367  0.07357567  1
  Cl  Cl92  1  0.50043633  0.14878367  0.07357567  1
  Cl  Cl93  1  0.68272633  0.01638567  0.73899367  1
  Cl  Cl94  1  0.64605333  0.65371967  0.92599267  1
  Cl  Cl95  1  0.00936900  0.85420600  0.92552600  1
