# generated using pymatgen
data_V4As3
_symmetry_space_group_name_H-M   'P 1'
_cell_length_a   3.39424600
_cell_length_b   13.69482200
_cell_length_c   18.02025200
_cell_angle_alpha   90.00000000
_cell_angle_beta   90.00000000
_cell_angle_gamma   90.00000000
_symmetry_Int_Tables_number   1
_chemical_formula_structural   V4As3
_chemical_formula_sum   'V32 As24'
_cell_volume   837.64609206
_cell_formula_units_Z   8
loop_
 _symmetry_equiv_pos_site_id
 _symmetry_equiv_pos_as_xyz
  1  'x, y, z'
loop_
 _atom_site_type_symbol
 _atom_site_label
 _atom_site_symmetry_multiplicity
 _atom_site_fract_x
 _atom_site_fract_y
 _atom_site_fract_z
 _atom_site_occupancy
  V  V0  1  0.00000000  0.00000000  0.50000000  1
  V  V1  1  0.00000000  0.00000000  0.00000000  1
  V  V2  1  0.50000000  0.44158700  0.25000000  1
  V  V3  1  0.00000000  0.05841300  0.75000000  1
  V  V4  1  0.00000000  0.26651000  0.66322400  1
  V  V5  1  0.50000000  0.23349000  0.33677600  1
  V  V6  1  0.50000000  0.23349000  0.16322400  1
  V  V7  1  0.00000000  0.26651000  0.83677600  1
  V  V8  1  0.00000000  0.46523100  0.61657200  1
  V  V9  1  0.50000000  0.03476900  0.38342800  1
  V  V10  1  0.50000000  0.03476900  0.11657200  1
  V  V11  1  0.00000000  0.46523100  0.88342800  1
  V  V12  1  0.00000000  0.33647400  0.47204100  1
  V  V13  1  0.50000000  0.16352600  0.52795900  1
  V  V14  1  0.50000000  0.16352600  0.97204100  1
  V  V15  1  0.00000000  0.33647400  0.02795900  1
  V  V16  1  0.50000000  0.50000000  0.50000000  1
  V  V17  1  0.50000000  0.50000000  0.00000000  1
  V  V18  1  0.00000000  0.94158700  0.25000000  1
  V  V19  1  0.50000000  0.55841300  0.75000000  1
  V  V20  1  0.50000000  0.76651000  0.66322400  1
  V  V21  1  0.00000000  0.73349000  0.33677600  1
  V  V22  1  0.00000000  0.73349000  0.16322400  1
  V  V23  1  0.50000000  0.76651000  0.83677600  1
  V  V24  1  0.50000000  0.96523100  0.61657200  1
  V  V25  1  0.00000000  0.53476900  0.38342800  1
  V  V26  1  0.00000000  0.53476900  0.11657200  1
  V  V27  1  0.50000000  0.96523100  0.88342800  1
  V  V28  1  0.50000000  0.83647400  0.47204100  1
  V  V29  1  0.00000000  0.66352600  0.52795900  1
  V  V30  1  0.00000000  0.66352600  0.97204100  1
  V  V31  1  0.50000000  0.83647400  0.02795900  1
  As  As32  1  0.50000000  0.08138100  0.25000000  1
  As  As33  1  0.00000000  0.41861900  0.75000000  1
  As  As34  1  0.00000000  0.30296000  0.25000000  1
  As  As35  1  0.50000000  0.19704000  0.75000000  1
  As  As36  1  0.00000000  0.09806200  0.61763200  1
  As  As37  1  0.50000000  0.40193800  0.38236800  1
  As  As38  1  0.50000000  0.40193800  0.11763200  1
  As  As39  1  0.00000000  0.09806200  0.88236800  1
  As  As40  1  0.00000000  0.16003500  0.42432700  1
  As  As41  1  0.50000000  0.33996500  0.57567300  1
  As  As42  1  0.50000000  0.33996500  0.92432700  1
  As  As43  1  0.00000000  0.16003500  0.07567300  1
  As  As44  1  0.00000000  0.58138100  0.25000000  1
  As  As45  1  0.50000000  0.91861900  0.75000000  1
  As  As46  1  0.50000000  0.80296000  0.25000000  1
  As  As47  1  0.00000000  0.69704000  0.75000000  1
  As  As48  1  0.50000000  0.59806200  0.61763200  1
  As  As49  1  0.00000000  0.90193800  0.38236800  1
  As  As50  1  0.00000000  0.90193800  0.11763200  1
  As  As51  1  0.50000000  0.59806200  0.88236800  1
  As  As52  1  0.50000000  0.66003500  0.42432700  1
  As  As53  1  0.00000000  0.83996500  0.57567300  1
  As  As54  1  0.00000000  0.83996500  0.92432700  1
  As  As55  1  0.50000000  0.66003500  0.07567300  1
