# generated using pymatgen
data_La4MgCo
_symmetry_space_group_name_H-M   'P 1'
_cell_length_a   14.20607400
_cell_length_b   14.20607400
_cell_length_c   14.20607400
_cell_angle_alpha   90.00000000
_cell_angle_beta   90.00000000
_cell_angle_gamma   90.00000000
_symmetry_Int_Tables_number   1
_chemical_formula_structural   La4MgCo
_chemical_formula_sum   'La64 Mg16 Co16'
_cell_volume   2866.96385597
_cell_formula_units_Z   16
loop_
 _symmetry_equiv_pos_site_id
 _symmetry_equiv_pos_as_xyz
  1  'x, y, z'
loop_
 _atom_site_type_symbol
 _atom_site_label
 _atom_site_symmetry_multiplicity
 _atom_site_fract_x
 _atom_site_fract_y
 _atom_site_fract_z
 _atom_site_occupancy
  La  La0  1  0.75000000  0.25000000  0.56023475  1
  La  La1  1  0.00000000  0.31189825  0.50000000  1
  La  La2  1  0.75000000  0.43976525  0.75000000  1
  La  La3  1  0.34388075  0.34388075  0.65611925  1
  La  La4  1  0.00000000  0.00000000  0.81189825  1
  La  La5  1  0.00000000  0.00000000  0.18810175  1
  La  La6  1  0.15611925  0.15611925  0.65611925  1
  La  La7  1  0.65611925  0.34388075  0.34388075  1
  La  La8  1  0.75000000  0.06023475  0.75000000  1
  La  La9  1  0.56023475  0.25000000  0.75000000  1
  La  La10  1  0.84388075  0.15611925  0.34388075  1
  La  La11  1  0.50000000  0.18810175  0.50000000  1
  La  La12  1  0.68810175  0.00000000  0.50000000  1
  La  La13  1  0.93976525  0.25000000  0.75000000  1
  La  La14  1  0.75000000  0.25000000  0.93976525  1
  La  La15  1  0.31189825  0.00000000  0.50000000  1
  La  La16  1  0.75000000  0.75000000  0.06023475  1
  La  La17  1  0.00000000  0.81189825  0.00000000  1
  La  La18  1  0.75000000  0.93976525  0.25000000  1
  La  La19  1  0.34388075  0.84388075  0.15611925  1
  La  La20  1  0.00000000  0.50000000  0.31189825  1
  La  La21  1  0.00000000  0.50000000  0.68810175  1
  La  La22  1  0.15611925  0.65611925  0.15611925  1
  La  La23  1  0.65611925  0.84388075  0.84388075  1
  La  La24  1  0.75000000  0.56023475  0.25000000  1
  La  La25  1  0.56023475  0.75000000  0.25000000  1
  La  La26  1  0.84388075  0.65611925  0.84388075  1
  La  La27  1  0.50000000  0.68810175  0.00000000  1
  La  La28  1  0.68810175  0.50000000  0.00000000  1
  La  La29  1  0.93976525  0.75000000  0.25000000  1
  La  La30  1  0.75000000  0.75000000  0.43976525  1
  La  La31  1  0.31189825  0.50000000  0.00000000  1
  La  La32  1  0.25000000  0.25000000  0.06023475  1
  La  La33  1  0.50000000  0.31189825  0.00000000  1
  La  La34  1  0.25000000  0.43976525  0.25000000  1
  La  La35  1  0.84388075  0.34388075  0.15611925  1
  La  La36  1  0.50000000  0.00000000  0.31189825  1
  La  La37  1  0.50000000  0.00000000  0.68810175  1
  La  La38  1  0.65611925  0.15611925  0.15611925  1
  La  La39  1  0.15611925  0.34388075  0.84388075  1
  La  La40  1  0.25000000  0.06023475  0.25000000  1
  La  La41  1  0.06023475  0.25000000  0.25000000  1
  La  La42  1  0.34388075  0.15611925  0.84388075  1
  La  La43  1  0.00000000  0.18810175  0.00000000  1
  La  La44  1  0.18810175  0.00000000  0.00000000  1
  La  La45  1  0.43976525  0.25000000  0.25000000  1
  La  La46  1  0.25000000  0.25000000  0.43976525  1
  La  La47  1  0.81189825  0.00000000  0.00000000  1
  La  La48  1  0.25000000  0.75000000  0.56023475  1
  La  La49  1  0.50000000  0.81189825  0.50000000  1
  La  La50  1  0.25000000  0.93976525  0.75000000  1
  La  La51  1  0.84388075  0.84388075  0.65611925  1
  La  La52  1  0.50000000  0.50000000  0.81189825  1
  La  La53  1  0.50000000  0.50000000  0.18810175  1
  La  La54  1  0.65611925  0.65611925  0.65611925  1
  La  La55  1  0.15611925  0.84388075  0.34388075  1
  La  La56  1  0.25000000  0.56023475  0.75000000  1
  La  La57  1  0.06023475  0.75000000  0.75000000  1
  La  La58  1  0.34388075  0.65611925  0.34388075  1
  La  La59  1  0.00000000  0.68810175  0.50000000  1
  La  La60  1  0.18810175  0.50000000  0.50000000  1
  La  La61  1  0.43976525  0.75000000  0.75000000  1
  La  La62  1  0.25000000  0.75000000  0.93976525  1
  La  La63  1  0.81189825  0.50000000  0.50000000  1
  Mg  Mg64  1  0.57819275  0.42180725  0.57819275  1
  Mg  Mg65  1  0.92180725  0.07819275  0.57819275  1
  Mg  Mg66  1  0.42180725  0.42180725  0.42180725  1
  Mg  Mg67  1  0.07819275  0.07819275  0.42180725  1
  Mg  Mg68  1  0.57819275  0.92180725  0.07819275  1
  Mg  Mg69  1  0.92180725  0.57819275  0.07819275  1
  Mg  Mg70  1  0.42180725  0.92180725  0.92180725  1
  Mg  Mg71  1  0.07819275  0.57819275  0.92180725  1
  Mg  Mg72  1  0.07819275  0.42180725  0.07819275  1
  Mg  Mg73  1  0.42180725  0.07819275  0.07819275  1
  Mg  Mg74  1  0.92180725  0.42180725  0.92180725  1
  Mg  Mg75  1  0.57819275  0.07819275  0.92180725  1
  Mg  Mg76  1  0.07819275  0.92180725  0.57819275  1
  Mg  Mg77  1  0.42180725  0.57819275  0.57819275  1
  Mg  Mg78  1  0.92180725  0.92180725  0.42180725  1
  Mg  Mg79  1  0.57819275  0.57819275  0.42180725  1
  Co  Co80  1  0.85975125  0.14024875  0.14024875  1
  Co  Co81  1  0.64024875  0.14024875  0.35975125  1
  Co  Co82  1  0.85975125  0.35975125  0.35975125  1
  Co  Co83  1  0.64024875  0.35975125  0.14024875  1
  Co  Co84  1  0.85975125  0.64024875  0.64024875  1
  Co  Co85  1  0.64024875  0.64024875  0.85975125  1
  Co  Co86  1  0.85975125  0.85975125  0.85975125  1
  Co  Co87  1  0.64024875  0.85975125  0.64024875  1
  Co  Co88  1  0.35975125  0.14024875  0.64024875  1
  Co  Co89  1  0.14024875  0.14024875  0.85975125  1
  Co  Co90  1  0.35975125  0.35975125  0.85975125  1
  Co  Co91  1  0.14024875  0.35975125  0.64024875  1
  Co  Co92  1  0.35975125  0.64024875  0.14024875  1
  Co  Co93  1  0.14024875  0.64024875  0.35975125  1
  Co  Co94  1  0.35975125  0.85975125  0.35975125  1
  Co  Co95  1  0.14024875  0.85975125  0.14024875  1
