# generated using pymatgen
data_Cr2B
_symmetry_space_group_name_H-M   'P 1'
_cell_length_a   4.21822600
_cell_length_b   7.34191000
_cell_length_c   14.59973400
_cell_angle_alpha   90.00000000
_cell_angle_beta   90.00000000
_cell_angle_gamma   90.00000000
_symmetry_Int_Tables_number   1
_chemical_formula_structural   Cr2B
_chemical_formula_sum   'Cr32 B16'
_cell_volume   452.15136254
_cell_formula_units_Z   16
loop_
 _symmetry_equiv_pos_site_id
 _symmetry_equiv_pos_as_xyz
  1  'x, y, z'
loop_
 _atom_site_type_symbol
 _atom_site_label
 _atom_site_symmetry_multiplicity
 _atom_site_fract_x
 _atom_site_fract_y
 _atom_site_fract_z
 _atom_site_occupancy
  Cr  Cr0  1  0.25000000  0.75000000  0.83304900  1
  Cr  Cr1  1  0.00000000  0.00000000  0.91695100  1
  Cr  Cr2  1  0.75000000  0.91553800  0.75000000  1
  Cr  Cr3  1  0.50000000  0.00000000  0.58304900  1
  Cr  Cr4  1  0.50000000  0.83446200  0.00000000  1
  Cr  Cr5  1  0.75000000  0.58446200  0.75000000  1
  Cr  Cr6  1  0.25000000  0.75000000  0.66695100  1
  Cr  Cr7  1  0.00000000  0.66553800  0.00000000  1
  Cr  Cr8  1  0.25000000  0.25000000  0.33304900  1
  Cr  Cr9  1  0.00000000  0.50000000  0.41695100  1
  Cr  Cr10  1  0.75000000  0.41553800  0.25000000  1
  Cr  Cr11  1  0.50000000  0.50000000  0.08304900  1
  Cr  Cr12  1  0.50000000  0.33446200  0.50000000  1
  Cr  Cr13  1  0.75000000  0.08446200  0.25000000  1
  Cr  Cr14  1  0.25000000  0.25000000  0.16695100  1
  Cr  Cr15  1  0.00000000  0.16553800  0.50000000  1
  Cr  Cr16  1  0.75000000  0.75000000  0.33304900  1
  Cr  Cr17  1  0.50000000  0.00000000  0.41695100  1
  Cr  Cr18  1  0.25000000  0.91553800  0.25000000  1
  Cr  Cr19  1  0.00000000  0.00000000  0.08304900  1
  Cr  Cr20  1  0.00000000  0.83446200  0.50000000  1
  Cr  Cr21  1  0.25000000  0.58446200  0.25000000  1
  Cr  Cr22  1  0.75000000  0.75000000  0.16695100  1
  Cr  Cr23  1  0.50000000  0.66553800  0.50000000  1
  Cr  Cr24  1  0.75000000  0.25000000  0.83304900  1
  Cr  Cr25  1  0.50000000  0.50000000  0.91695100  1
  Cr  Cr26  1  0.25000000  0.41553800  0.75000000  1
  Cr  Cr27  1  0.00000000  0.50000000  0.58304900  1
  Cr  Cr28  1  0.00000000  0.33446200  0.00000000  1
  Cr  Cr29  1  0.25000000  0.08446200  0.75000000  1
  Cr  Cr30  1  0.75000000  0.25000000  0.66695100  1
  Cr  Cr31  1  0.50000000  0.16553800  0.00000000  1
  B  B32  1  0.50000000  0.00000000  0.87462300  1
  B  B33  1  0.75000000  0.75000000  0.62462300  1
  B  B34  1  0.00000000  0.00000000  0.62537700  1
  B  B35  1  0.75000000  0.75000000  0.87537700  1
  B  B36  1  0.50000000  0.50000000  0.37462300  1
  B  B37  1  0.75000000  0.25000000  0.12462300  1
  B  B38  1  0.00000000  0.50000000  0.12537700  1
  B  B39  1  0.75000000  0.25000000  0.37537700  1
  B  B40  1  0.00000000  0.00000000  0.37462300  1
  B  B41  1  0.25000000  0.75000000  0.12462300  1
  B  B42  1  0.50000000  0.00000000  0.12537700  1
  B  B43  1  0.25000000  0.75000000  0.37537700  1
  B  B44  1  0.00000000  0.50000000  0.87462300  1
  B  B45  1  0.25000000  0.25000000  0.62462300  1
  B  B46  1  0.50000000  0.50000000  0.62537700  1
  B  B47  1  0.25000000  0.25000000  0.87537700  1
