# generated using pymatgen
data_Sm3RuO7
_symmetry_space_group_name_H-M   'P 1'
_cell_length_a   7.42267400
_cell_length_b   10.80010800
_cell_length_c   7.53990300
_cell_angle_alpha   90.00000000
_cell_angle_beta   90.00000000
_cell_angle_gamma   90.00000000
_symmetry_Int_Tables_number   1
_chemical_formula_structural   Sm3RuO7
_chemical_formula_sum   'Sm12 Ru4 O28'
_cell_volume   604.44145753
_cell_formula_units_Z   4
loop_
 _symmetry_equiv_pos_site_id
 _symmetry_equiv_pos_as_xyz
  1  'x, y, z'
loop_
 _atom_site_type_symbol
 _atom_site_label
 _atom_site_symmetry_multiplicity
 _atom_site_fract_x
 _atom_site_fract_y
 _atom_site_fract_z
 _atom_site_occupancy
  Sm  Sm0  1  0.69779350  0.77785550  0.75000000  1
  Sm  Sm1  1  0.30220650  0.22214450  0.25000000  1
  Sm  Sm2  1  0.69779350  0.22214450  0.75000000  1
  Sm  Sm3  1  0.30220650  0.77785550  0.25000000  1
  Sm  Sm4  1  0.00000000  0.00000000  0.50000000  1
  Sm  Sm5  1  0.00000000  0.00000000  0.00000000  1
  Sm  Sm6  1  0.19779350  0.27785550  0.75000000  1
  Sm  Sm7  1  0.80220650  0.72214450  0.25000000  1
  Sm  Sm8  1  0.19779350  0.72214450  0.75000000  1
  Sm  Sm9  1  0.80220650  0.27785550  0.25000000  1
  Sm  Sm10  1  0.50000000  0.50000000  0.50000000  1
  Sm  Sm11  1  0.50000000  0.50000000  0.00000000  1
  Ru  Ru12  1  0.50000000  0.00000000  0.50000000  1
  Ru  Ru13  1  0.50000000  0.00000000  0.00000000  1
  Ru  Ru14  1  0.00000000  0.50000000  0.50000000  1
  Ru  Ru15  1  0.00000000  0.50000000  0.00000000  1
  O  O16  1  0.58520500  0.00000000  0.75000000  1
  O  O17  1  0.41479500  0.00000000  0.25000000  1
  O  O18  1  0.47501050  0.36785550  0.75000000  1
  O  O19  1  0.52498950  0.63214450  0.25000000  1
  O  O20  1  0.47501050  0.63214450  0.75000000  1
  O  O21  1  0.52498950  0.36785550  0.25000000  1
  O  O22  1  0.31208300  0.12678700  0.96113200  1
  O  O23  1  0.68791700  0.87321300  0.46113200  1
  O  O24  1  0.31208300  0.87321300  0.96113200  1
  O  O25  1  0.68791700  0.12678700  0.46113200  1
  O  O26  1  0.31208300  0.12678700  0.53886800  1
  O  O27  1  0.68791700  0.87321300  0.03886800  1
  O  O28  1  0.68791700  0.12678700  0.03886800  1
  O  O29  1  0.31208300  0.87321300  0.53886800  1
  O  O30  1  0.08520500  0.50000000  0.75000000  1
  O  O31  1  0.91479500  0.50000000  0.25000000  1
  O  O32  1  0.97501050  0.86785550  0.75000000  1
  O  O33  1  0.02498950  0.13214450  0.25000000  1
  O  O34  1  0.97501050  0.13214450  0.75000000  1
  O  O35  1  0.02498950  0.86785550  0.25000000  1
  O  O36  1  0.81208300  0.62678700  0.96113200  1
  O  O37  1  0.18791700  0.37321300  0.46113200  1
  O  O38  1  0.81208300  0.37321300  0.96113200  1
  O  O39  1  0.18791700  0.62678700  0.46113200  1
  O  O40  1  0.81208300  0.62678700  0.53886800  1
  O  O41  1  0.18791700  0.37321300  0.03886800  1
  O  O42  1  0.18791700  0.62678700  0.03886800  1
  O  O43  1  0.81208300  0.37321300  0.53886800  1
