# generated using pymatgen
data_BaVS3
_symmetry_space_group_name_H-M   'P 1'
_cell_length_a   6.75109400
_cell_length_b   11.81068000
_cell_length_c   5.63223300
_cell_angle_alpha   90.00000000
_cell_angle_beta   90.00000000
_cell_angle_gamma   90.00000000
_symmetry_Int_Tables_number   1
_chemical_formula_structural   BaVS3
_chemical_formula_sum   'Ba4 V4 S12'
_cell_volume   449.08615956
_cell_formula_units_Z   4
loop_
 _symmetry_equiv_pos_site_id
 _symmetry_equiv_pos_as_xyz
  1  'x, y, z'
loop_
 _atom_site_type_symbol
 _atom_site_label
 _atom_site_symmetry_multiplicity
 _atom_site_fract_x
 _atom_site_fract_y
 _atom_site_fract_z
 _atom_site_occupancy
  Ba  Ba0  1  0.50000000  0.16870900  0.75000000  1
  Ba  Ba1  1  0.00000000  0.33129100  0.25000000  1
  Ba  Ba2  1  0.00000000  0.66870900  0.75000000  1
  Ba  Ba3  1  0.50000000  0.83129100  0.25000000  1
  V  V4  1  0.96110500  0.00000000  0.00000000  1
  V  V5  1  0.03889500  0.00000000  0.50000000  1
  V  V6  1  0.46110500  0.50000000  0.00000000  1
  V  V7  1  0.53889500  0.50000000  0.50000000  1
  S  S8  1  0.00000000  0.16096800  0.75000000  1
  S  S9  1  0.24768550  0.08157950  0.23856700  1
  S  S10  1  0.50000000  0.33903200  0.25000000  1
  S  S11  1  0.75231450  0.08157950  0.26143300  1
  S  S12  1  0.25231450  0.41842050  0.73856700  1
  S  S13  1  0.74768550  0.41842050  0.76143300  1
  S  S14  1  0.50000000  0.66096800  0.75000000  1
  S  S15  1  0.74768550  0.58157950  0.23856700  1
  S  S16  1  0.00000000  0.83903200  0.25000000  1
  S  S17  1  0.25231450  0.58157950  0.26143300  1
  S  S18  1  0.75231450  0.91842050  0.73856700  1
  S  S19  1  0.24768550  0.91842050  0.76143300  1
