# generated using pymatgen
data_Nd6Fe13Sb
_symmetry_space_group_name_H-M   'P 1'
_cell_length_a   8.06761400
_cell_length_b   8.06761400
_cell_length_c   23.44400200
_cell_angle_alpha   90.00000000
_cell_angle_beta   90.00000000
_cell_angle_gamma   90.00000000
_symmetry_Int_Tables_number   1
_chemical_formula_structural   Nd6Fe13Sb
_chemical_formula_sum   'Nd24 Fe52 Sb4'
_cell_volume   1525.88558986
_cell_formula_units_Z   4
loop_
 _symmetry_equiv_pos_site_id
 _symmetry_equiv_pos_as_xyz
  1  'x, y, z'
loop_
 _atom_site_type_symbol
 _atom_site_label
 _atom_site_symmetry_multiplicity
 _atom_site_fract_x
 _atom_site_fract_y
 _atom_site_fract_z
 _atom_site_occupancy
  Nd  Nd0  1  0.50000000  0.50000000  0.39593900  1
  Nd  Nd1  1  0.66254700  0.16254700  0.31489000  1
  Nd  Nd2  1  0.33745300  0.16254700  0.18511000  1
  Nd  Nd3  1  0.16254700  0.66254700  0.18511000  1
  Nd  Nd4  1  0.83745300  0.33745300  0.18511000  1
  Nd  Nd5  1  0.16254700  0.33745300  0.31489000  1
  Nd  Nd6  1  0.00000000  0.00000000  0.10406100  1
  Nd  Nd7  1  0.00000000  0.00000000  0.39593900  1
  Nd  Nd8  1  0.33745300  0.83745300  0.31489000  1
  Nd  Nd9  1  0.50000000  0.50000000  0.10406100  1
  Nd  Nd10  1  0.66254700  0.83745300  0.18511000  1
  Nd  Nd11  1  0.83745300  0.66254700  0.31489000  1
  Nd  Nd12  1  0.00000000  0.00000000  0.89593900  1
  Nd  Nd13  1  0.16254700  0.66254700  0.81489000  1
  Nd  Nd14  1  0.83745300  0.66254700  0.68511000  1
  Nd  Nd15  1  0.66254700  0.16254700  0.68511000  1
  Nd  Nd16  1  0.33745300  0.83745300  0.68511000  1
  Nd  Nd17  1  0.66254700  0.83745300  0.81489000  1
  Nd  Nd18  1  0.50000000  0.50000000  0.60406100  1
  Nd  Nd19  1  0.50000000  0.50000000  0.89593900  1
  Nd  Nd20  1  0.83745300  0.33745300  0.81489000  1
  Nd  Nd21  1  0.00000000  0.00000000  0.60406100  1
  Nd  Nd22  1  0.16254700  0.33745300  0.68511000  1
  Nd  Nd23  1  0.33745300  0.16254700  0.81489000  1
  Fe  Fe24  1  0.43329900  0.70957700  0.00000000  1
  Fe  Fe25  1  0.38625200  0.11374800  0.40652300  1
  Fe  Fe26  1  0.61374800  0.11374800  0.09347700  1
  Fe  Fe27  1  0.70957700  0.56670100  0.00000000  1
  Fe  Fe28  1  0.93329900  0.79042300  0.00000000  1
  Fe  Fe29  1  0.82145250  0.32145250  0.05856850  1
  Fe  Fe30  1  0.32145250  0.82145250  0.44143150  1
  Fe  Fe31  1  0.38625200  0.88625200  0.09347700  1
  Fe  Fe32  1  0.20957700  0.93329900  0.00000000  1
  Fe  Fe33  1  0.32145250  0.17854750  0.05856850  1
  Fe  Fe34  1  0.88625200  0.38625200  0.40652300  1
  Fe  Fe35  1  0.11374800  0.38625200  0.09347700  1
  Fe  Fe36  1  0.17854750  0.67854750  0.05856850  1
  Fe  Fe37  1  0.29042300  0.43329900  0.00000000  1
  Fe  Fe38  1  0.56670100  0.29042300  0.00000000  1
  Fe  Fe39  1  0.50000000  0.00000000  0.00000000  1
  Fe  Fe40  1  0.11374800  0.61374800  0.40652300  1
  Fe  Fe41  1  0.06670100  0.20957700  0.00000000  1
  Fe  Fe42  1  0.82145250  0.67854750  0.44143150  1
  Fe  Fe43  1  0.67854750  0.82145250  0.05856850  1
  Fe  Fe44  1  0.67854750  0.17854750  0.44143150  1
  Fe  Fe45  1  0.79042300  0.06670100  0.00000000  1
  Fe  Fe46  1  0.17854750  0.32145250  0.44143150  1
  Fe  Fe47  1  0.00000000  0.50000000  0.00000000  1
  Fe  Fe48  1  0.61374800  0.88625200  0.40652300  1
  Fe  Fe49  1  0.88625200  0.61374800  0.09347700  1
  Fe  Fe50  1  0.93329900  0.20957700  0.50000000  1
  Fe  Fe51  1  0.88625200  0.61374800  0.90652300  1
  Fe  Fe52  1  0.11374800  0.61374800  0.59347700  1
  Fe  Fe53  1  0.20957700  0.06670100  0.50000000  1
  Fe  Fe54  1  0.43329900  0.29042300  0.50000000  1
  Fe  Fe55  1  0.32145250  0.82145250  0.55856850  1
  Fe  Fe56  1  0.82145250  0.32145250  0.94143150  1
  Fe  Fe57  1  0.88625200  0.38625200  0.59347700  1
  Fe  Fe58  1  0.70957700  0.43329900  0.50000000  1
  Fe  Fe59  1  0.82145250  0.67854750  0.55856850  1
  Fe  Fe60  1  0.38625200  0.88625200  0.90652300  1
  Fe  Fe61  1  0.61374800  0.88625200  0.59347700  1
  Fe  Fe62  1  0.67854750  0.17854750  0.55856850  1
  Fe  Fe63  1  0.79042300  0.93329900  0.50000000  1
  Fe  Fe64  1  0.06670100  0.79042300  0.50000000  1
  Fe  Fe65  1  0.00000000  0.50000000  0.50000000  1
  Fe  Fe66  1  0.61374800  0.11374800  0.90652300  1
  Fe  Fe67  1  0.56670100  0.70957700  0.50000000  1
  Fe  Fe68  1  0.32145250  0.17854750  0.94143150  1
  Fe  Fe69  1  0.17854750  0.32145250  0.55856850  1
  Fe  Fe70  1  0.17854750  0.67854750  0.94143150  1
  Fe  Fe71  1  0.29042300  0.56670100  0.50000000  1
  Fe  Fe72  1  0.67854750  0.82145250  0.94143150  1
  Fe  Fe73  1  0.50000000  0.00000000  0.50000000  1
  Fe  Fe74  1  0.11374800  0.38625200  0.90652300  1
  Fe  Fe75  1  0.38625200  0.11374800  0.59347700  1
  Sb  Sb76  1  0.50000000  0.50000000  0.25000000  1
  Sb  Sb77  1  0.00000000  0.00000000  0.25000000  1
  Sb  Sb78  1  0.00000000  0.00000000  0.75000000  1
  Sb  Sb79  1  0.50000000  0.50000000  0.75000000  1
