# generated using pymatgen
data_Yb2In13Pd6
_symmetry_space_group_name_H-M   'P 1'
_cell_length_a   17.07389400
_cell_length_b   4.43951600
_cell_length_c   13.63060977
_cell_angle_alpha   90.00000000
_cell_angle_beta   118.48693406
_cell_angle_gamma   90.00000000
_symmetry_Int_Tables_number   1
_chemical_formula_structural   Yb2In13Pd6
_chemical_formula_sum   'Yb4 In26 Pd12'
_cell_volume   908.10434738
_cell_formula_units_Z   2
loop_
 _symmetry_equiv_pos_site_id
 _symmetry_equiv_pos_as_xyz
  1  'x, y, z'
loop_
 _atom_site_type_symbol
 _atom_site_label
 _atom_site_symmetry_multiplicity
 _atom_site_fract_x
 _atom_site_fract_y
 _atom_site_fract_z
 _atom_site_occupancy
  Yb  Yb0  1  0.67836600  0.50000000  0.27355900  1
  Yb  Yb1  1  0.32163400  0.50000000  0.72644100  1
  Yb  Yb2  1  0.17836600  0.00000000  0.27355900  1
  Yb  Yb3  1  0.82163400  0.00000000  0.72644100  1
  In  In4  1  0.20230400  0.00000000  0.54009700  1
  In  In5  1  0.99911600  0.00000000  0.32830200  1
  In  In6  1  0.79932800  0.50000000  0.12424600  1
  In  In7  1  0.98882800  0.50000000  0.82756700  1
  In  In8  1  0.65279300  0.00000000  0.07630700  1
  In  In9  1  0.79769600  0.00000000  0.45990300  1
  In  In10  1  0.09312600  0.50000000  0.59880800  1
  In  In11  1  0.00088400  0.00000000  0.67169800  1
  In  In12  1  0.00000000  0.00000000  0.00000000  1
  In  In13  1  0.34720700  0.00000000  0.92369300  1
  In  In14  1  0.20067200  0.50000000  0.87575400  1
  In  In15  1  0.90687400  0.50000000  0.40119200  1
  In  In16  1  0.01117200  0.50000000  0.17243300  1
  In  In17  1  0.70230400  0.50000000  0.54009700  1
  In  In18  1  0.49911600  0.50000000  0.32830200  1
  In  In19  1  0.29932800  0.00000000  0.12424600  1
  In  In20  1  0.48882800  0.00000000  0.82756700  1
  In  In21  1  0.15279300  0.50000000  0.07630700  1
  In  In22  1  0.29769600  0.50000000  0.45990300  1
  In  In23  1  0.59312600  0.00000000  0.59880800  1
  In  In24  1  0.50088400  0.50000000  0.67169800  1
  In  In25  1  0.50000000  0.50000000  0.00000000  1
  In  In26  1  0.84720700  0.50000000  0.92369300  1
  In  In27  1  0.70067200  0.00000000  0.87575400  1
  In  In28  1  0.40687400  0.00000000  0.40119200  1
  In  In29  1  0.51117200  0.00000000  0.17243300  1
  Pd  Pd30  1  0.18184200  0.00000000  0.73577900  1
  Pd  Pd31  1  0.81815800  0.00000000  0.26422100  1
  Pd  Pd32  1  0.88385900  0.00000000  0.08236600  1
  Pd  Pd33  1  0.11293000  0.50000000  0.40408300  1
  Pd  Pd34  1  0.88707000  0.50000000  0.59591700  1
  Pd  Pd35  1  0.11614100  0.00000000  0.91763400  1
  Pd  Pd36  1  0.68184200  0.50000000  0.73577900  1
  Pd  Pd37  1  0.31815800  0.50000000  0.26422100  1
  Pd  Pd38  1  0.38385900  0.50000000  0.08236600  1
  Pd  Pd39  1  0.61293000  0.00000000  0.40408300  1
  Pd  Pd40  1  0.38707000  0.00000000  0.59591700  1
  Pd  Pd41  1  0.61614100  0.50000000  0.91763400  1
