# generated using pymatgen
data_Yb8Ge3Sb5
_symmetry_space_group_name_H-M   'P 1'
_cell_length_a   16.17735400
_cell_length_b   16.17735400
_cell_length_c   6.81773200
_cell_angle_alpha   90.00000000
_cell_angle_beta   90.00000000
_cell_angle_gamma   90.00000000
_symmetry_Int_Tables_number   1
_chemical_formula_structural   Yb8Ge3Sb5
_chemical_formula_sum   'Yb32 Ge12 Sb20'
_cell_volume   1784.24670527
_cell_formula_units_Z   4
loop_
 _symmetry_equiv_pos_site_id
 _symmetry_equiv_pos_as_xyz
  1  'x, y, z'
loop_
 _atom_site_type_symbol
 _atom_site_label
 _atom_site_symmetry_multiplicity
 _atom_site_fract_x
 _atom_site_fract_y
 _atom_site_fract_z
 _atom_site_occupancy
  Yb  Yb0  1  0.35198100  0.14801900  0.25000000  1
  Yb  Yb1  1  0.62862500  0.62862500  0.00000000  1
  Yb  Yb2  1  0.64801900  0.85198100  0.25000000  1
  Yb  Yb3  1  0.62862500  0.37137500  0.00000000  1
  Yb  Yb4  1  0.35198100  0.85198100  0.75000000  1
  Yb  Yb5  1  0.81420100  0.00000000  0.00000000  1
  Yb  Yb6  1  0.64801900  0.14801900  0.75000000  1
  Yb  Yb7  1  0.35198100  0.85198100  0.25000000  1
  Yb  Yb8  1  0.64801900  0.14801900  0.25000000  1
  Yb  Yb9  1  0.50000000  0.31420100  0.50000000  1
  Yb  Yb10  1  0.64801900  0.85198100  0.75000000  1
  Yb  Yb11  1  0.18579900  0.00000000  0.00000000  1
  Yb  Yb12  1  0.50000000  0.68579900  0.50000000  1
  Yb  Yb13  1  0.87137500  0.87137500  0.50000000  1
  Yb  Yb14  1  0.35198100  0.14801900  0.75000000  1
  Yb  Yb15  1  0.87137500  0.12862500  0.50000000  1
  Yb  Yb16  1  0.85198100  0.64801900  0.75000000  1
  Yb  Yb17  1  0.12862500  0.12862500  0.50000000  1
  Yb  Yb18  1  0.14801900  0.35198100  0.75000000  1
  Yb  Yb19  1  0.12862500  0.87137500  0.50000000  1
  Yb  Yb20  1  0.85198100  0.35198100  0.25000000  1
  Yb  Yb21  1  0.31420100  0.50000000  0.50000000  1
  Yb  Yb22  1  0.14801900  0.64801900  0.25000000  1
  Yb  Yb23  1  0.85198100  0.35198100  0.75000000  1
  Yb  Yb24  1  0.14801900  0.64801900  0.75000000  1
  Yb  Yb25  1  0.00000000  0.81420100  0.00000000  1
  Yb  Yb26  1  0.14801900  0.35198100  0.25000000  1
  Yb  Yb27  1  0.68579900  0.50000000  0.50000000  1
  Yb  Yb28  1  0.00000000  0.18579900  0.00000000  1
  Yb  Yb29  1  0.37137500  0.37137500  0.00000000  1
  Yb  Yb30  1  0.85198100  0.64801900  0.25000000  1
  Yb  Yb31  1  0.37137500  0.62862500  0.00000000  1
  Ge  Ge32  1  0.61791200  0.00000000  0.00000000  1
  Ge  Ge33  1  0.50000000  0.88208800  0.50000000  1
  Ge  Ge34  1  0.50000000  0.11791200  0.50000000  1
  Ge  Ge35  1  0.38208800  0.00000000  0.00000000  1
  Ge  Ge36  1  0.50000000  0.00000000  0.75000000  1
  Ge  Ge37  1  0.50000000  0.00000000  0.25000000  1
  Ge  Ge38  1  0.11791200  0.50000000  0.50000000  1
  Ge  Ge39  1  0.00000000  0.38208800  0.00000000  1
  Ge  Ge40  1  0.00000000  0.61791200  0.00000000  1
  Ge  Ge41  1  0.88208800  0.50000000  0.50000000  1
  Ge  Ge42  1  0.00000000  0.50000000  0.25000000  1
  Ge  Ge43  1  0.00000000  0.50000000  0.75000000  1
  Sb  Sb44  1  0.27069700  0.00000000  0.50000000  1
  Sb  Sb45  1  0.69434200  0.30565800  0.50000000  1
  Sb  Sb46  1  0.80565800  0.19434200  0.00000000  1
  Sb  Sb47  1  0.80565800  0.80565800  0.00000000  1
  Sb  Sb48  1  0.50000000  0.22930300  0.00000000  1
  Sb  Sb49  1  0.69434200  0.69434200  0.50000000  1
  Sb  Sb50  1  0.50000000  0.77069700  0.00000000  1
  Sb  Sb51  1  0.00000000  0.00000000  0.23956300  1
  Sb  Sb52  1  0.72930300  0.00000000  0.50000000  1
  Sb  Sb53  1  0.00000000  0.00000000  0.76043700  1
  Sb  Sb54  1  0.77069700  0.50000000  0.00000000  1
  Sb  Sb55  1  0.19434200  0.80565800  0.00000000  1
  Sb  Sb56  1  0.30565800  0.69434200  0.50000000  1
  Sb  Sb57  1  0.30565800  0.30565800  0.50000000  1
  Sb  Sb58  1  0.00000000  0.72930300  0.50000000  1
  Sb  Sb59  1  0.19434200  0.19434200  0.00000000  1
  Sb  Sb60  1  0.00000000  0.27069700  0.50000000  1
  Sb  Sb61  1  0.50000000  0.50000000  0.73956300  1
  Sb  Sb62  1  0.22930300  0.50000000  0.00000000  1
  Sb  Sb63  1  0.50000000  0.50000000  0.26043700  1
