# generated using pymatgen
data_Sc5Cl8
_symmetry_space_group_name_H-M   'P 1'
_cell_length_a   19.09853000
_cell_length_b   3.55967600
_cell_length_c   13.48217842
_cell_angle_alpha   90.00000000
_cell_angle_beta   133.16791994
_cell_angle_gamma   90.00000000
_symmetry_Int_Tables_number   1
_chemical_formula_structural   Sc5Cl8
_chemical_formula_sum   'Sc10 Cl16'
_cell_volume   668.50942822
_cell_formula_units_Z   2
loop_
 _symmetry_equiv_pos_site_id
 _symmetry_equiv_pos_as_xyz
  1  'x, y, z'
loop_
 _atom_site_type_symbol
 _atom_site_label
 _atom_site_symmetry_multiplicity
 _atom_site_fract_x
 _atom_site_fract_y
 _atom_site_fract_z
 _atom_site_occupancy
  Sc  Sc0  1  0.00000000  0.00000000  0.00000000  1
  Sc  Sc1  1  0.98622100  0.50000000  0.65171500  1
  Sc  Sc2  1  0.01377900  0.50000000  0.34828500  1
  Sc  Sc3  1  0.88812500  0.00000000  0.38186600  1
  Sc  Sc4  1  0.11187500  0.00000000  0.61813400  1
  Sc  Sc5  1  0.50000000  0.50000000  0.00000000  1
  Sc  Sc6  1  0.48622100  0.00000000  0.65171500  1
  Sc  Sc7  1  0.51377900  0.00000000  0.34828500  1
  Sc  Sc8  1  0.38812500  0.50000000  0.38186600  1
  Sc  Sc9  1  0.61187500  0.50000000  0.61813400  1
  Cl  Cl10  1  0.81363700  0.50000000  0.43115200  1
  Cl  Cl11  1  0.18636300  0.50000000  0.56884800  1
  Cl  Cl12  1  0.62713000  0.00000000  0.10701800  1
  Cl  Cl13  1  0.37287000  0.00000000  0.89298200  1
  Cl  Cl14  1  0.83519900  0.50000000  0.19797200  1
  Cl  Cl15  1  0.16480100  0.50000000  0.80202800  1
  Cl  Cl16  1  0.02356600  0.00000000  0.21615400  1
  Cl  Cl17  1  0.97643400  0.00000000  0.78384600  1
  Cl  Cl18  1  0.31363700  0.00000000  0.43115200  1
  Cl  Cl19  1  0.68636300  0.00000000  0.56884800  1
  Cl  Cl20  1  0.12713000  0.50000000  0.10701800  1
  Cl  Cl21  1  0.87287000  0.50000000  0.89298200  1
  Cl  Cl22  1  0.33519900  0.00000000  0.19797200  1
  Cl  Cl23  1  0.66480100  0.00000000  0.80202800  1
  Cl  Cl24  1  0.52356600  0.50000000  0.21615400  1
  Cl  Cl25  1  0.47643400  0.50000000  0.78384600  1
