# generated using pymatgen
data_Hf5Re24
_symmetry_space_group_name_H-M   'P 1'
_cell_length_a   9.78470600
_cell_length_b   9.78470600
_cell_length_c   9.78470600
_cell_angle_alpha   90.00000000
_cell_angle_beta   90.00000000
_cell_angle_gamma   90.00000000
_symmetry_Int_Tables_number   1
_chemical_formula_structural   Hf5Re24
_chemical_formula_sum   'Hf10 Re48'
_cell_volume   936.79236599
_cell_formula_units_Z   2
loop_
 _symmetry_equiv_pos_site_id
 _symmetry_equiv_pos_as_xyz
  1  'x, y, z'
loop_
 _atom_site_type_symbol
 _atom_site_label
 _atom_site_symmetry_multiplicity
 _atom_site_fract_x
 _atom_site_fract_y
 _atom_site_fract_z
 _atom_site_occupancy
  Hf  Hf0  1  0.00000000  0.00000000  0.00000000  1
  Hf  Hf1  1  0.68524450  0.31475550  0.31475550  1
  Hf  Hf2  1  0.31475550  0.68524450  0.31475550  1
  Hf  Hf3  1  0.31475550  0.31475550  0.68524450  1
  Hf  Hf4  1  0.18524450  0.18524450  0.18524450  1
  Hf  Hf5  1  0.50000000  0.50000000  0.50000000  1
  Hf  Hf6  1  0.18524450  0.81475550  0.81475550  1
  Hf  Hf7  1  0.81475550  0.18524450  0.81475550  1
  Hf  Hf8  1  0.81475550  0.81475550  0.18524450  1
  Hf  Hf9  1  0.68524450  0.68524450  0.68524450  1
  Re  Re10  1  0.14092500  0.85907500  0.53641200  1
  Re  Re11  1  0.96358800  0.35907500  0.35907500  1
  Re  Re12  1  0.14092500  0.53641200  0.85907500  1
  Re  Re13  1  0.85907500  0.14092500  0.53641200  1
  Re  Re14  1  0.53641200  0.14092500  0.85907500  1
  Re  Re15  1  0.35907500  0.96358800  0.35907500  1
  Re  Re16  1  0.35907500  0.35907500  0.96358800  1
  Re  Re17  1  0.53641200  0.85907500  0.14092500  1
  Re  Re18  1  0.85907500  0.53641200  0.14092500  1
  Re  Re19  1  0.14092500  0.14092500  0.46358800  1
  Re  Re20  1  0.46358800  0.14092500  0.14092500  1
  Re  Re21  1  0.14092500  0.46358800  0.14092500  1
  Re  Re22  1  0.90906650  0.09093350  0.28493650  1
  Re  Re23  1  0.71506350  0.09093350  0.09093350  1
  Re  Re24  1  0.90906650  0.28493650  0.09093350  1
  Re  Re25  1  0.09093350  0.90906650  0.28493650  1
  Re  Re26  1  0.28493650  0.90906650  0.09093350  1
  Re  Re27  1  0.09093350  0.71506350  0.09093350  1
  Re  Re28  1  0.09093350  0.09093350  0.71506350  1
  Re  Re29  1  0.28493650  0.09093350  0.90906650  1
  Re  Re30  1  0.09093350  0.28493650  0.90906650  1
  Re  Re31  1  0.40906650  0.40906650  0.21506350  1
  Re  Re32  1  0.21506350  0.40906650  0.40906650  1
  Re  Re33  1  0.40906650  0.21506350  0.40906650  1
  Re  Re34  1  0.64092500  0.35907500  0.03641200  1
  Re  Re35  1  0.46358800  0.85907500  0.85907500  1
  Re  Re36  1  0.64092500  0.03641200  0.35907500  1
  Re  Re37  1  0.35907500  0.64092500  0.03641200  1
  Re  Re38  1  0.03641200  0.64092500  0.35907500  1
  Re  Re39  1  0.85907500  0.46358800  0.85907500  1
  Re  Re40  1  0.85907500  0.85907500  0.46358800  1
  Re  Re41  1  0.03641200  0.35907500  0.64092500  1
  Re  Re42  1  0.35907500  0.03641200  0.64092500  1
  Re  Re43  1  0.64092500  0.64092500  0.96358800  1
  Re  Re44  1  0.96358800  0.64092500  0.64092500  1
  Re  Re45  1  0.64092500  0.96358800  0.64092500  1
  Re  Re46  1  0.40906650  0.59093350  0.78493650  1
  Re  Re47  1  0.21506350  0.59093350  0.59093350  1
  Re  Re48  1  0.40906650  0.78493650  0.59093350  1
  Re  Re49  1  0.59093350  0.40906650  0.78493650  1
  Re  Re50  1  0.78493650  0.40906650  0.59093350  1
  Re  Re51  1  0.59093350  0.21506350  0.59093350  1
  Re  Re52  1  0.59093350  0.59093350  0.21506350  1
  Re  Re53  1  0.78493650  0.59093350  0.40906650  1
  Re  Re54  1  0.59093350  0.78493650  0.40906650  1
  Re  Re55  1  0.90906650  0.90906650  0.71506350  1
  Re  Re56  1  0.71506350  0.90906650  0.90906650  1
  Re  Re57  1  0.90906650  0.71506350  0.90906650  1
