# generated using pymatgen
data_Ta2NiSe7
_symmetry_space_group_name_H-M   'P 1'
_cell_length_a   14.68334800
_cell_length_b   3.51497200
_cell_length_c   18.64952338
_cell_angle_alpha   90.00000000
_cell_angle_beta   107.77812192
_cell_angle_gamma   90.00000000
_symmetry_Int_Tables_number   1
_chemical_formula_structural   Ta2NiSe7
_chemical_formula_sum   'Ta8 Ni4 Se28'
_cell_volume   916.56628754
_cell_formula_units_Z   4
loop_
 _symmetry_equiv_pos_site_id
 _symmetry_equiv_pos_as_xyz
  1  'x, y, z'
loop_
 _atom_site_type_symbol
 _atom_site_label
 _atom_site_symmetry_multiplicity
 _atom_site_fract_x
 _atom_site_fract_y
 _atom_site_fract_z
 _atom_site_occupancy
  Ta  Ta0  1  0.84728500  0.00000000  0.59997800  1
  Ta  Ta1  1  0.15271500  0.00000000  0.40002200  1
  Ta  Ta2  1  0.27204000  0.50000000  0.90948100  1
  Ta  Ta3  1  0.72796000  0.50000000  0.09051900  1
  Ta  Ta4  1  0.34728500  0.50000000  0.59997800  1
  Ta  Ta5  1  0.65271500  0.50000000  0.40002200  1
  Ta  Ta6  1  0.77204000  0.00000000  0.90948100  1
  Ta  Ta7  1  0.22796000  0.00000000  0.09051900  1
  Ni  Ni8  1  0.31021200  0.00000000  0.79089500  1
  Ni  Ni9  1  0.68978800  0.00000000  0.20910500  1
  Ni  Ni10  1  0.81021200  0.50000000  0.79089500  1
  Ni  Ni11  1  0.18978800  0.50000000  0.20910500  1
  Se  Se12  1  0.14079900  0.50000000  0.98814700  1
  Se  Se13  1  0.85920100  0.50000000  0.01185300  1
  Se  Se14  1  0.92912900  0.50000000  0.70427300  1
  Se  Se15  1  0.07087100  0.50000000  0.29572700  1
  Se  Se16  1  0.41247500  0.50000000  0.86048900  1
  Se  Se17  1  0.58752500  0.50000000  0.13951100  1
  Se  Se18  1  0.16101300  0.00000000  0.82715300  1
  Se  Se19  1  0.83898700  0.00000000  0.17284700  1
  Se  Se20  1  0.97236900  0.50000000  0.57989700  1
  Se  Se21  1  0.02763100  0.50000000  0.42010300  1
  Se  Se22  1  0.20502100  0.00000000  0.55576800  1
  Se  Se23  1  0.79497900  0.00000000  0.44423200  1
  Se  Se24  1  0.24451700  0.50000000  0.70092700  1
  Se  Se25  1  0.75548300  0.50000000  0.29907300  1
  Se  Se26  1  0.64079900  0.00000000  0.98814700  1
  Se  Se27  1  0.35920100  0.00000000  0.01185300  1
  Se  Se28  1  0.42912900  0.00000000  0.70427300  1
  Se  Se29  1  0.57087100  0.00000000  0.29572700  1
  Se  Se30  1  0.91247500  0.00000000  0.86048900  1
  Se  Se31  1  0.08752500  0.00000000  0.13951100  1
  Se  Se32  1  0.66101300  0.50000000  0.82715300  1
  Se  Se33  1  0.33898700  0.50000000  0.17284700  1
  Se  Se34  1  0.47236900  0.00000000  0.57989700  1
  Se  Se35  1  0.52763100  0.00000000  0.42010300  1
  Se  Se36  1  0.70502100  0.50000000  0.55576800  1
  Se  Se37  1  0.29497900  0.50000000  0.44423200  1
  Se  Se38  1  0.74451700  0.00000000  0.70092700  1
  Se  Se39  1  0.25548300  0.00000000  0.29907300  1
