# generated using pymatgen
data_YGe2Ir
_symmetry_space_group_name_H-M   'P 1'
_cell_length_a   4.29488600
_cell_length_b   8.91490000
_cell_length_c   16.15392400
_cell_angle_alpha   90.00000000
_cell_angle_beta   90.00000000
_cell_angle_gamma   90.00000000
_symmetry_Int_Tables_number   1
_chemical_formula_structural   YGe2Ir
_chemical_formula_sum   'Y8 Ge16 Ir8'
_cell_volume   618.50918309
_cell_formula_units_Z   8
loop_
 _symmetry_equiv_pos_site_id
 _symmetry_equiv_pos_as_xyz
  1  'x, y, z'
loop_
 _atom_site_type_symbol
 _atom_site_label
 _atom_site_symmetry_multiplicity
 _atom_site_fract_x
 _atom_site_fract_y
 _atom_site_fract_z
 _atom_site_occupancy
  Y  Y0  1  0.00000000  0.50000000  0.79455800  1
  Y  Y1  1  0.00000000  0.26126200  0.00000000  1
  Y  Y2  1  0.00000000  0.73873800  0.00000000  1
  Y  Y3  1  0.50000000  0.00000000  0.70544200  1
  Y  Y4  1  0.50000000  0.00000000  0.29455800  1
  Y  Y5  1  0.50000000  0.76126200  0.50000000  1
  Y  Y6  1  0.50000000  0.23873800  0.50000000  1
  Y  Y7  1  0.00000000  0.50000000  0.20544200  1
  Ge  Ge8  1  0.00000000  0.00000000  0.57702300  1
  Ge  Ge9  1  0.00000000  0.15289100  0.79956000  1
  Ge  Ge10  1  0.00000000  0.84710900  0.79956000  1
  Ge  Ge11  1  0.50000000  0.34710900  0.70044000  1
  Ge  Ge12  1  0.50000000  0.00000000  0.92180500  1
  Ge  Ge13  1  0.50000000  0.50000000  0.92297700  1
  Ge  Ge14  1  0.00000000  0.50000000  0.57819500  1
  Ge  Ge15  1  0.50000000  0.65289100  0.70044000  1
  Ge  Ge16  1  0.50000000  0.50000000  0.07702300  1
  Ge  Ge17  1  0.50000000  0.65289100  0.29956000  1
  Ge  Ge18  1  0.50000000  0.34710900  0.29956000  1
  Ge  Ge19  1  0.00000000  0.84710900  0.20044000  1
  Ge  Ge20  1  0.00000000  0.50000000  0.42180500  1
  Ge  Ge21  1  0.00000000  0.00000000  0.42297700  1
  Ge  Ge22  1  0.50000000  0.00000000  0.07819500  1
  Ge  Ge23  1  0.00000000  0.15289100  0.20044000  1
  Ir  Ir24  1  0.00000000  0.25055400  0.64561600  1
  Ir  Ir25  1  0.50000000  0.24944600  0.85438400  1
  Ir  Ir26  1  0.50000000  0.75055400  0.85438400  1
  Ir  Ir27  1  0.00000000  0.74944600  0.64561600  1
  Ir  Ir28  1  0.50000000  0.75055400  0.14561600  1
  Ir  Ir29  1  0.00000000  0.74944600  0.35438400  1
  Ir  Ir30  1  0.00000000  0.25055400  0.35438400  1
  Ir  Ir31  1  0.50000000  0.24944600  0.14561600  1
