# generated using pymatgen
data_CsAgF3
_symmetry_space_group_name_H-M   'P 1'
_cell_length_a   6.53601400
_cell_length_b   6.53601400
_cell_length_c   8.80995200
_cell_angle_alpha   90.00000000
_cell_angle_beta   90.00000000
_cell_angle_gamma   90.00000000
_symmetry_Int_Tables_number   1
_chemical_formula_structural   CsAgF3
_chemical_formula_sum   'Cs4 Ag4 F12'
_cell_volume   376.35655953
_cell_formula_units_Z   4
loop_
 _symmetry_equiv_pos_site_id
 _symmetry_equiv_pos_as_xyz
  1  'x, y, z'
loop_
 _atom_site_type_symbol
 _atom_site_label
 _atom_site_symmetry_multiplicity
 _atom_site_fract_x
 _atom_site_fract_y
 _atom_site_fract_z
 _atom_site_occupancy
  Cs  Cs0  1  0.00000000  0.00000000  0.25000000  1
  Cs  Cs1  1  0.00000000  0.00000000  0.75000000  1
  Cs  Cs2  1  0.50000000  0.50000000  0.75000000  1
  Cs  Cs3  1  0.50000000  0.50000000  0.25000000  1
  Ag  Ag4  1  0.50000000  0.00000000  0.00000000  1
  Ag  Ag5  1  0.00000000  0.50000000  0.00000000  1
  Ag  Ag6  1  0.00000000  0.50000000  0.50000000  1
  Ag  Ag7  1  0.50000000  0.00000000  0.50000000  1
  F  F8  1  0.77035250  0.27035250  0.50000000  1
  F  F9  1  0.27035250  0.22964750  0.50000000  1
  F  F10  1  0.00000000  0.50000000  0.25000000  1
  F  F11  1  0.72964750  0.22964750  0.00000000  1
  F  F12  1  0.22964750  0.27035250  0.00000000  1
  F  F13  1  0.50000000  0.00000000  0.25000000  1
  F  F14  1  0.27035250  0.77035250  0.00000000  1
  F  F15  1  0.77035250  0.72964750  0.00000000  1
  F  F16  1  0.50000000  0.00000000  0.75000000  1
  F  F17  1  0.22964750  0.72964750  0.50000000  1
  F  F18  1  0.72964750  0.77035250  0.50000000  1
  F  F19  1  0.00000000  0.50000000  0.75000000  1
