# generated using pymatgen
data_DyFe2SiC
_symmetry_space_group_name_H-M   'P 1'
_cell_length_a   3.74976400
_cell_length_b   10.40717200
_cell_length_c   6.74100800
_cell_angle_alpha   90.00000000
_cell_angle_beta   90.00000000
_cell_angle_gamma   90.00000000
_symmetry_Int_Tables_number   1
_chemical_formula_structural   DyFe2SiC
_chemical_formula_sum   'Dy4 Fe8 Si4 C4'
_cell_volume   263.06405487
_cell_formula_units_Z   4
loop_
 _symmetry_equiv_pos_site_id
 _symmetry_equiv_pos_as_xyz
  1  'x, y, z'
loop_
 _atom_site_type_symbol
 _atom_site_label
 _atom_site_symmetry_multiplicity
 _atom_site_fract_x
 _atom_site_fract_y
 _atom_site_fract_z
 _atom_site_occupancy
  Dy  Dy0  1  0.50000000  0.44997200  0.75000000  1
  Dy  Dy1  1  0.00000000  0.05002800  0.25000000  1
  Dy  Dy2  1  0.00000000  0.94997200  0.75000000  1
  Dy  Dy3  1  0.50000000  0.55002800  0.25000000  1
  Fe  Fe4  1  0.50000000  0.16593100  0.56240500  1
  Fe  Fe5  1  0.00000000  0.33406900  0.06240500  1
  Fe  Fe6  1  0.50000000  0.16593100  0.93759500  1
  Fe  Fe7  1  0.00000000  0.33406900  0.43759500  1
  Fe  Fe8  1  0.00000000  0.66593100  0.56240500  1
  Fe  Fe9  1  0.50000000  0.83406900  0.06240500  1
  Fe  Fe10  1  0.00000000  0.66593100  0.93759500  1
  Fe  Fe11  1  0.50000000  0.83406900  0.43759500  1
  Si  Si12  1  0.00000000  0.23013400  0.75000000  1
  Si  Si13  1  0.50000000  0.26986600  0.25000000  1
  Si  Si14  1  0.50000000  0.73013400  0.75000000  1
  Si  Si15  1  0.00000000  0.76986600  0.25000000  1
  C  C16  1  0.50000000  0.00000000  0.50000000  1
  C  C17  1  0.50000000  0.00000000  0.00000000  1
  C  C18  1  0.00000000  0.50000000  0.50000000  1
  C  C19  1  0.00000000  0.50000000  0.00000000  1
