# generated using pymatgen
data_Ti5Re24
_symmetry_space_group_name_H-M   'P 1'
_cell_length_a   9.65273800
_cell_length_b   9.65273800
_cell_length_c   9.65273800
_cell_angle_alpha   90.00000000
_cell_angle_beta   90.00000000
_cell_angle_gamma   90.00000000
_symmetry_Int_Tables_number   1
_chemical_formula_structural   Ti5Re24
_chemical_formula_sum   'Ti10 Re48'
_cell_volume   899.39725026
_cell_formula_units_Z   2
loop_
 _symmetry_equiv_pos_site_id
 _symmetry_equiv_pos_as_xyz
  1  'x, y, z'
loop_
 _atom_site_type_symbol
 _atom_site_label
 _atom_site_symmetry_multiplicity
 _atom_site_fract_x
 _atom_site_fract_y
 _atom_site_fract_z
 _atom_site_occupancy
  Ti  Ti0  1  0.00000000  0.00000000  0.00000000  1
  Ti  Ti1  1  0.68384850  0.31615150  0.31615150  1
  Ti  Ti2  1  0.31615150  0.68384850  0.31615150  1
  Ti  Ti3  1  0.31615150  0.31615150  0.68384850  1
  Ti  Ti4  1  0.18384850  0.18384850  0.18384850  1
  Ti  Ti5  1  0.50000000  0.50000000  0.50000000  1
  Ti  Ti6  1  0.18384850  0.81615150  0.81615150  1
  Ti  Ti7  1  0.81615150  0.18384850  0.81615150  1
  Ti  Ti8  1  0.81615150  0.81615150  0.18384850  1
  Ti  Ti9  1  0.68384850  0.68384850  0.68384850  1
  Re  Re10  1  0.14134600  0.85865400  0.54015700  1
  Re  Re11  1  0.95984300  0.35865400  0.35865400  1
  Re  Re12  1  0.14134600  0.54015700  0.85865400  1
  Re  Re13  1  0.85865400  0.14134600  0.54015700  1
  Re  Re14  1  0.54015700  0.14134600  0.85865400  1
  Re  Re15  1  0.35865400  0.95984300  0.35865400  1
  Re  Re16  1  0.35865400  0.35865400  0.95984300  1
  Re  Re17  1  0.54015700  0.85865400  0.14134600  1
  Re  Re18  1  0.85865400  0.54015700  0.14134600  1
  Re  Re19  1  0.14134600  0.14134600  0.45984300  1
  Re  Re20  1  0.45984300  0.14134600  0.14134600  1
  Re  Re21  1  0.14134600  0.45984300  0.14134600  1
  Re  Re22  1  0.90915250  0.09084750  0.28403650  1
  Re  Re23  1  0.71596350  0.09084750  0.09084750  1
  Re  Re24  1  0.90915250  0.28403650  0.09084750  1
  Re  Re25  1  0.09084750  0.90915250  0.28403650  1
  Re  Re26  1  0.28403650  0.90915250  0.09084750  1
  Re  Re27  1  0.09084750  0.71596350  0.09084750  1
  Re  Re28  1  0.09084750  0.09084750  0.71596350  1
  Re  Re29  1  0.28403650  0.09084750  0.90915250  1
  Re  Re30  1  0.09084750  0.28403650  0.90915250  1
  Re  Re31  1  0.40915250  0.40915250  0.21596350  1
  Re  Re32  1  0.21596350  0.40915250  0.40915250  1
  Re  Re33  1  0.40915250  0.21596350  0.40915250  1
  Re  Re34  1  0.64134600  0.35865400  0.04015700  1
  Re  Re35  1  0.45984300  0.85865400  0.85865400  1
  Re  Re36  1  0.64134600  0.04015700  0.35865400  1
  Re  Re37  1  0.35865400  0.64134600  0.04015700  1
  Re  Re38  1  0.04015700  0.64134600  0.35865400  1
  Re  Re39  1  0.85865400  0.45984300  0.85865400  1
  Re  Re40  1  0.85865400  0.85865400  0.45984300  1
  Re  Re41  1  0.04015700  0.35865400  0.64134600  1
  Re  Re42  1  0.35865400  0.04015700  0.64134600  1
  Re  Re43  1  0.64134600  0.64134600  0.95984300  1
  Re  Re44  1  0.95984300  0.64134600  0.64134600  1
  Re  Re45  1  0.64134600  0.95984300  0.64134600  1
  Re  Re46  1  0.40915250  0.59084750  0.78403650  1
  Re  Re47  1  0.21596350  0.59084750  0.59084750  1
  Re  Re48  1  0.40915250  0.78403650  0.59084750  1
  Re  Re49  1  0.59084750  0.40915250  0.78403650  1
  Re  Re50  1  0.78403650  0.40915250  0.59084750  1
  Re  Re51  1  0.59084750  0.21596350  0.59084750  1
  Re  Re52  1  0.59084750  0.59084750  0.21596350  1
  Re  Re53  1  0.78403650  0.59084750  0.40915250  1
  Re  Re54  1  0.59084750  0.78403650  0.40915250  1
  Re  Re55  1  0.90915250  0.90915250  0.71596350  1
  Re  Re56  1  0.71596350  0.90915250  0.90915250  1
  Re  Re57  1  0.90915250  0.71596350  0.90915250  1
