# generated using pymatgen
data_NbCoTe2
_symmetry_space_group_name_H-M   'P 1'
_cell_length_a   7.79508800
_cell_length_b   15.34741000
_cell_length_c   6.37525600
_cell_angle_alpha   90.00000000
_cell_angle_beta   90.00000000
_cell_angle_gamma   90.00000000
_symmetry_Int_Tables_number   1
_chemical_formula_structural   NbCoTe2
_chemical_formula_sum   'Nb8 Co8 Te16'
_cell_volume   762.69999986
_cell_formula_units_Z   8
loop_
 _symmetry_equiv_pos_site_id
 _symmetry_equiv_pos_as_xyz
  1  'x, y, z'
loop_
 _atom_site_type_symbol
 _atom_site_label
 _atom_site_symmetry_multiplicity
 _atom_site_fract_x
 _atom_site_fract_y
 _atom_site_fract_z
 _atom_site_occupancy
  Nb  Nb0  1  0.70649600  0.50000000  0.00000000  1
  Nb  Nb1  1  0.79350400  0.50000000  0.50000000  1
  Nb  Nb2  1  0.29350400  0.50000000  0.00000000  1
  Nb  Nb3  1  0.20649600  0.50000000  0.50000000  1
  Nb  Nb4  1  0.20649600  0.00000000  0.00000000  1
  Nb  Nb5  1  0.29350400  0.00000000  0.50000000  1
  Nb  Nb6  1  0.79350400  0.00000000  0.00000000  1
  Nb  Nb7  1  0.70649600  0.00000000  0.50000000  1
  Co  Co8  1  0.50000000  0.94445600  0.14411000  1
  Co  Co9  1  0.50000000  0.55554400  0.64411000  1
  Co  Co10  1  0.00000000  0.55554400  0.85589000  1
  Co  Co11  1  0.00000000  0.94445600  0.35589000  1
  Co  Co12  1  0.00000000  0.44445600  0.14411000  1
  Co  Co13  1  0.00000000  0.05554400  0.64411000  1
  Co  Co14  1  0.50000000  0.05554400  0.85589000  1
  Co  Co15  1  0.50000000  0.44445600  0.35589000  1
  Te  Te16  1  0.75000000  0.84667700  0.25000000  1
  Te  Te17  1  0.25000000  0.65332300  0.75000000  1
  Te  Te18  1  0.75000000  0.65332300  0.75000000  1
  Te  Te19  1  0.25000000  0.84667700  0.25000000  1
  Te  Te20  1  0.00000000  0.60811700  0.24399500  1
  Te  Te21  1  0.00000000  0.89188300  0.74399500  1
  Te  Te22  1  0.50000000  0.89188300  0.75600500  1
  Te  Te23  1  0.50000000  0.60811700  0.25600500  1
  Te  Te24  1  0.25000000  0.34667700  0.25000000  1
  Te  Te25  1  0.75000000  0.15332300  0.75000000  1
  Te  Te26  1  0.25000000  0.15332300  0.75000000  1
  Te  Te27  1  0.75000000  0.34667700  0.25000000  1
  Te  Te28  1  0.50000000  0.10811700  0.24399500  1
  Te  Te29  1  0.50000000  0.39188300  0.74399500  1
  Te  Te30  1  0.00000000  0.39188300  0.75600500  1
  Te  Te31  1  0.00000000  0.10811700  0.25600500  1
