# generated using pymatgen
data_Ga2Pt
_symmetry_space_group_name_H-M   'P 1'
_cell_length_a   8.64187400
_cell_length_b   8.64187400
_cell_length_c   22.28007600
_cell_angle_alpha   90.00000000
_cell_angle_beta   90.00000000
_cell_angle_gamma   90.00000000
_symmetry_Int_Tables_number   1
_chemical_formula_structural   Ga2Pt
_chemical_formula_sum   'Ga64 Pt32'
_cell_volume   1663.92032908
_cell_formula_units_Z   32
loop_
 _symmetry_equiv_pos_site_id
 _symmetry_equiv_pos_as_xyz
  1  'x, y, z'
loop_
 _atom_site_type_symbol
 _atom_site_label
 _atom_site_symmetry_multiplicity
 _atom_site_fract_x
 _atom_site_fract_y
 _atom_site_fract_z
 _atom_site_occupancy
  Ga  Ga0  1  0.54156700  0.72829600  0.43719800  1
  Ga  Ga1  1  0.45843300  0.22829600  0.31280200  1
  Ga  Ga2  1  0.77160100  0.95781800  0.43708900  1
  Ga  Ga3  1  0.22829600  0.45843300  0.18719800  1
  Ga  Ga4  1  0.72839900  0.04218200  0.31291100  1
  Ga  Ga5  1  0.04156700  0.77170400  0.43719800  1
  Ga  Ga6  1  0.45781800  0.72839900  0.06291100  1
  Ga  Ga7  1  0.27160100  0.54218200  0.43708900  1
  Ga  Ga8  1  0.22839900  0.04218200  0.43708900  1
  Ga  Ga9  1  0.27170400  0.95843300  0.18719800  1
  Ga  Ga10  1  0.77170400  0.54156700  0.18719800  1
  Ga  Ga11  1  0.77160100  0.54218200  0.31291100  1
  Ga  Ga12  1  0.22839900  0.45781800  0.31291100  1
  Ga  Ga13  1  0.54218200  0.77160100  0.18708900  1
  Ga  Ga14  1  0.45843300  0.27170400  0.43719800  1
  Ga  Ga15  1  0.27160100  0.95781800  0.31291100  1
  Ga  Ga16  1  0.45781800  0.22839900  0.18708900  1
  Ga  Ga17  1  0.22829600  0.95843300  0.06280200  1
  Ga  Ga18  1  0.04218200  0.22839900  0.06291100  1
  Ga  Ga19  1  0.27170400  0.45843300  0.06280200  1
  Ga  Ga20  1  0.72839900  0.45781800  0.43708900  1
  Ga  Ga21  1  0.54156700  0.77170400  0.31280200  1
  Ga  Ga22  1  0.77170400  0.04156700  0.06280200  1
  Ga  Ga23  1  0.72829600  0.54156700  0.06280200  1
  Ga  Ga24  1  0.04156700  0.72829600  0.31280200  1
  Ga  Ga25  1  0.95781800  0.77160100  0.06291100  1
  Ga  Ga26  1  0.95781800  0.27160100  0.18708900  1
  Ga  Ga27  1  0.95843300  0.22829600  0.43719800  1
  Ga  Ga28  1  0.72829600  0.04156700  0.18719800  1
  Ga  Ga29  1  0.95843300  0.27170400  0.31280200  1
  Ga  Ga30  1  0.54218200  0.27160100  0.06291100  1
  Ga  Ga31  1  0.04218200  0.72839900  0.18708900  1
  Ga  Ga32  1  0.04156700  0.22829600  0.93719800  1
  Ga  Ga33  1  0.95843300  0.72829600  0.81280200  1
  Ga  Ga34  1  0.27160100  0.45781800  0.93708900  1
  Ga  Ga35  1  0.72829600  0.95843300  0.68719800  1
  Ga  Ga36  1  0.22839900  0.54218200  0.81291100  1
  Ga  Ga37  1  0.54156700  0.27170400  0.93719800  1
  Ga  Ga38  1  0.95781800  0.22839900  0.56291100  1
  Ga  Ga39  1  0.77160100  0.04218200  0.93708900  1
  Ga  Ga40  1  0.72839900  0.54218200  0.93708900  1
  Ga  Ga41  1  0.77170400  0.45843300  0.68719800  1
  Ga  Ga42  1  0.27170400  0.04156700  0.68719800  1
  Ga  Ga43  1  0.27160100  0.04218200  0.81291100  1
  Ga  Ga44  1  0.72839900  0.95781800  0.81291100  1
  Ga  Ga45  1  0.04218200  0.27160100  0.68708900  1
  Ga  Ga46  1  0.95843300  0.77170400  0.93719800  1
  Ga  Ga47  1  0.77160100  0.45781800  0.81291100  1
  Ga  Ga48  1  0.95781800  0.72839900  0.68708900  1
  Ga  Ga49  1  0.72829600  0.45843300  0.56280200  1
  Ga  Ga50  1  0.54218200  0.72839900  0.56291100  1
  Ga  Ga51  1  0.77170400  0.95843300  0.56280200  1
  Ga  Ga52  1  0.22839900  0.95781800  0.93708900  1
  Ga  Ga53  1  0.04156700  0.27170400  0.81280200  1
  Ga  Ga54  1  0.27170400  0.54156700  0.56280200  1
  Ga  Ga55  1  0.22829600  0.04156700  0.56280200  1
  Ga  Ga56  1  0.54156700  0.22829600  0.81280200  1
  Ga  Ga57  1  0.45781800  0.27160100  0.56291100  1
  Ga  Ga58  1  0.45781800  0.77160100  0.68708900  1
  Ga  Ga59  1  0.45843300  0.72829600  0.93719800  1
  Ga  Ga60  1  0.22829600  0.54156700  0.68719800  1
  Ga  Ga61  1  0.45843300  0.77170400  0.81280200  1
  Ga  Ga62  1  0.04218200  0.77160100  0.56291100  1
  Ga  Ga63  1  0.54218200  0.22839900  0.68708900  1
  Pt  Pt64  1  0.00000000  0.00000000  0.14006000  1
  Pt  Pt65  1  0.00000000  0.00000000  0.35994000  1
  Pt  Pt66  1  0.69837900  0.80162100  0.00000000  1
  Pt  Pt67  1  0.30162100  0.19837900  0.00000000  1
  Pt  Pt68  1  0.80162100  0.80162100  0.25000000  1
  Pt  Pt69  1  0.00000000  0.50000000  0.39006000  1
  Pt  Pt70  1  0.50000000  0.00000000  0.39006000  1
  Pt  Pt71  1  0.00000000  0.50000000  0.10994000  1
  Pt  Pt72  1  0.50000000  0.50000000  0.14006000  1
  Pt  Pt73  1  0.30162100  0.69837900  0.25000000  1
  Pt  Pt74  1  0.19837900  0.69837900  0.00000000  1
  Pt  Pt75  1  0.50000000  0.50000000  0.35994000  1
  Pt  Pt76  1  0.19837900  0.19837900  0.25000000  1
  Pt  Pt77  1  0.69837900  0.30162100  0.25000000  1
  Pt  Pt78  1  0.50000000  0.00000000  0.10994000  1
  Pt  Pt79  1  0.80162100  0.30162100  0.00000000  1
  Pt  Pt80  1  0.50000000  0.50000000  0.64006000  1
  Pt  Pt81  1  0.50000000  0.50000000  0.85994000  1
  Pt  Pt82  1  0.19837900  0.30162100  0.50000000  1
  Pt  Pt83  1  0.80162100  0.69837900  0.50000000  1
  Pt  Pt84  1  0.30162100  0.30162100  0.75000000  1
  Pt  Pt85  1  0.50000000  0.00000000  0.89006000  1
  Pt  Pt86  1  0.00000000  0.50000000  0.89006000  1
  Pt  Pt87  1  0.50000000  0.00000000  0.60994000  1
  Pt  Pt88  1  0.00000000  0.00000000  0.64006000  1
  Pt  Pt89  1  0.80162100  0.19837900  0.75000000  1
  Pt  Pt90  1  0.69837900  0.19837900  0.50000000  1
  Pt  Pt91  1  0.00000000  0.00000000  0.85994000  1
  Pt  Pt92  1  0.69837900  0.69837900  0.75000000  1
  Pt  Pt93  1  0.19837900  0.80162100  0.75000000  1
  Pt  Pt94  1  0.00000000  0.50000000  0.60994000  1
  Pt  Pt95  1  0.30162100  0.80162100  0.50000000  1
