# generated using pymatgen
data_Fe3B7ClO13
_symmetry_space_group_name_H-M   'P 1'
_cell_length_a   8.72017031
_cell_length_b   8.72017031
_cell_length_c   21.31214555
_cell_angle_alpha   90.00000000
_cell_angle_beta   90.00000000
_cell_angle_gamma   120.00000000
_symmetry_Int_Tables_number   1
_chemical_formula_structural   Fe3B7ClO13
_chemical_formula_sum   'Fe18 B42 Cl6 O78'
_cell_volume   1403.48488209
_cell_formula_units_Z   6
loop_
 _symmetry_equiv_pos_site_id
 _symmetry_equiv_pos_as_xyz
  1  'x, y, z'
loop_
 _atom_site_type_symbol
 _atom_site_label
 _atom_site_symmetry_multiplicity
 _atom_site_fract_x
 _atom_site_fract_y
 _atom_site_fract_z
 _atom_site_occupancy
  Fe  Fe0  1  0.03943867  0.51914133  0.49336033  1
  Fe  Fe1  1  0.47970267  0.51914133  0.99336033  1
  Fe  Fe2  1  0.48085867  0.96056133  0.99336033  1
  Fe  Fe3  1  0.47970267  0.96056133  0.49336033  1
  Fe  Fe4  1  0.48085867  0.52029733  0.49336033  1
  Fe  Fe5  1  0.03943867  0.52029733  0.99336033  1
  Fe  Fe6  1  0.70610533  0.85247467  0.82669367  1
  Fe  Fe7  1  0.14636933  0.85247467  0.32669367  1
  Fe  Fe8  1  0.14752533  0.29389467  0.32669367  1
  Fe  Fe9  1  0.14636933  0.29389467  0.82669367  1
  Fe  Fe10  1  0.14752533  0.85363067  0.82669367  1
  Fe  Fe11  1  0.70610533  0.85363067  0.32669367  1
  Fe  Fe12  1  0.37277200  0.18580800  0.16002700  1
  Fe  Fe13  1  0.81303600  0.18580800  0.66002700  1
  Fe  Fe14  1  0.81419200  0.62722800  0.66002700  1
  Fe  Fe15  1  0.81303600  0.62722800  0.16002700  1
  Fe  Fe16  1  0.81419200  0.18696400  0.16002700  1
  Fe  Fe17  1  0.37277200  0.18696400  0.66002700  1
  B  B18  1  0.43602200  0.86932900  0.13744800  1
  B  B19  1  0.16557567  0.83740433  0.08271933  1
  B  B20  1  0.33333333  0.66666667  0.76966767  1
  B  B21  1  0.16259567  0.32817133  0.08271933  1
  B  B22  1  0.33333333  0.66666667  0.26966767  1
  B  B23  1  0.09997367  0.20266233  0.97078133  1
  B  B24  1  0.79733767  0.89731133  0.97078133  1
  B  B25  1  0.49592900  0.50109100  0.24938600  1
  B  B26  1  0.49890900  0.99483800  0.24938600  1
  B  B27  1  0.43330700  0.56397800  0.13744800  1
  B  B28  1  0.13067100  0.56669300  0.13744800  1
  B  B29  1  0.10268867  0.90002633  0.97078133  1
  B  B30  1  0.67182867  0.83442433  0.08271933  1
  B  B31  1  0.00516200  0.50407100  0.24938600  1
  B  B32  1  0.10268867  0.20266233  0.47078133  1
  B  B33  1  0.83224233  0.17073767  0.41605267  1
  B  B34  1  0.00000000  0.00000000  0.10300100  1
  B  B35  1  0.82926233  0.66150467  0.41605267  1
  B  B36  1  0.00000000  0.00000000  0.60300100  1
  B  B37  1  0.76664033  0.53599567  0.30411467  1
  B  B38  1  0.46400433  0.23064467  0.30411467  1
  B  B39  1  0.16259567  0.83442433  0.58271933  1
  B  B40  1  0.16557567  0.32817133  0.58271933  1
  B  B41  1  0.09997367  0.89731133  0.47078133  1
  B  B42  1  0.79733767  0.90002633  0.47078133  1
  B  B43  1  0.76935533  0.23335967  0.30411467  1
  B  B44  1  0.33849533  0.16775767  0.41605267  1
  B  B45  1  0.67182867  0.83740433  0.58271933  1
  B  B46  1  0.76935533  0.53599567  0.80411467  1
  B  B47  1  0.49890900  0.50407100  0.74938600  1
  B  B48  1  0.66666667  0.33333333  0.43633433  1
  B  B49  1  0.49592900  0.99483800  0.74938600  1
  B  B50  1  0.66666667  0.33333333  0.93633433  1
  B  B51  1  0.43330700  0.86932900  0.63744800  1
  B  B52  1  0.13067100  0.56397800  0.63744800  1
  B  B53  1  0.82926233  0.16775767  0.91605267  1
  B  B54  1  0.83224233  0.66150467  0.91605267  1
  B  B55  1  0.76664033  0.23064467  0.80411467  1
  B  B56  1  0.46400433  0.23335967  0.80411467  1
  B  B57  1  0.43602200  0.56669300  0.63744800  1
  B  B58  1  0.00516200  0.50109100  0.74938600  1
  B  B59  1  0.33849533  0.17073767  0.91605267  1
  Cl  Cl60  1  0.33333333  0.66666667  0.43417367  1
  Cl  Cl61  1  0.33333333  0.66666667  0.93417367  1
  Cl  Cl62  1  0.00000000  0.00000000  0.76750700  1
  Cl  Cl63  1  0.00000000  0.00000000  0.26750700  1
  Cl  Cl64  1  0.66666667  0.33333333  0.10084033  1
  Cl  Cl65  1  0.66666667  0.33333333  0.60084033  1
  O  O66  1  0.41545933  0.97036667  0.18785067  1
  O  O67  1  0.68941533  0.13062667  0.24591067  1
  O  O68  1  0.33333333  0.66666667  0.15306467  1
  O  O69  1  0.62125633  0.92579567  0.12836067  1
  O  O70  1  0.22157400  0.30370000  0.02118400  1
  O  O71  1  0.55490733  0.58454067  0.18785067  1
  O  O72  1  0.17399067  0.66454933  0.27253933  1
  O  O73  1  0.33545067  0.50944133  0.27253933  1
  O  O74  1  0.00211733  0.15934267  0.10587267  1
  O  O75  1  0.10787800  0.46396000  0.07924400  1
  O  O76  1  0.35608200  0.89212200  0.07924400  1
  O  O77  1  0.08212600  0.77842600  0.02118400  1
  O  O78  1  0.30453933  0.37874367  0.12836067  1
  O  O79  1  0.69630000  0.91787400  0.02118400  1
  O  O80  1  0.07420433  0.69546067  0.12836067  1
  O  O81  1  0.86937333  0.55878867  0.24591067  1
  O  O82  1  0.53604000  0.64391800  0.07924400  1
  O  O83  1  0.84065733  0.84277467  0.10587267  1
  O  O84  1  0.33333333  0.66666667  0.65306467  1
  O  O85  1  0.40753767  0.04541033  0.29502733  1
  O  O86  1  0.02963333  0.44509267  0.18785067  1
  O  O87  1  0.95458967  0.36212733  0.29502733  1
  O  O88  1  0.49055867  0.82600933  0.27253933  1
  O  O89  1  0.15722533  0.99788267  0.10587267  1
  O  O90  1  0.44121133  0.31058467  0.24591067  1
  O  O91  1  0.63787267  0.59246233  0.29502733  1
  O  O92  1  0.08212600  0.30370000  0.52118400  1
  O  O93  1  0.35608200  0.46396000  0.57924400  1
  O  O94  1  0.00000000  0.00000000  0.48639800  1
  O  O95  1  0.28792300  0.25912900  0.46169400  1
  O  O96  1  0.88824067  0.63703333  0.35451733  1
  O  O97  1  0.22157400  0.91787400  0.52118400  1
  O  O98  1  0.84065733  0.99788267  0.60587267  1
  O  O99  1  0.00211733  0.84277467  0.60587267  1
  O  O100  1  0.66878400  0.49267600  0.43920600  1
  O  O101  1  0.77454467  0.79729333  0.41257733  1
  O  O102  1  0.02274867  0.22545533  0.41257733  1
  O  O103  1  0.74879267  0.11175933  0.35451733  1
  O  O104  1  0.97120600  0.71207700  0.46169400  1
  O  O105  1  0.36296667  0.25120733  0.35451733  1
  O  O106  1  0.74087100  0.02879400  0.46169400  1
  O  O107  1  0.53604000  0.89212200  0.57924400  1
  O  O108  1  0.20270667  0.97725133  0.41257733  1
  O  O109  1  0.50732400  0.17610800  0.43920600  1
  O  O110  1  0.00000000  0.00000000  0.98639800  1
  O  O111  1  0.07420433  0.37874367  0.62836067  1
  O  O112  1  0.69630000  0.77842600  0.52118400  1
  O  O113  1  0.62125633  0.69546067  0.62836067  1
  O  O114  1  0.15722533  0.15934267  0.60587267  1
  O  O115  1  0.82389200  0.33121600  0.43920600  1
  O  O116  1  0.10787800  0.64391800  0.57924400  1
  O  O117  1  0.30453933  0.92579567  0.62836067  1
  O  O118  1  0.74879267  0.63703333  0.85451733  1
  O  O119  1  0.02274867  0.79729333  0.91257733  1
  O  O120  1  0.66666667  0.33333333  0.81973133  1
  O  O121  1  0.95458967  0.59246233  0.79502733  1
  O  O122  1  0.55490733  0.97036667  0.68785067  1
  O  O123  1  0.88824067  0.25120733  0.85451733  1
  O  O124  1  0.50732400  0.33121600  0.93920600  1
  O  O125  1  0.66878400  0.17610800  0.93920600  1
  O  O126  1  0.33545067  0.82600933  0.77253933  1
  O  O127  1  0.44121133  0.13062667  0.74591067  1
  O  O128  1  0.68941533  0.55878867  0.74591067  1
  O  O129  1  0.41545933  0.44509267  0.68785067  1
  O  O130  1  0.63787267  0.04541033  0.79502733  1
  O  O131  1  0.02963333  0.58454067  0.68785067  1
  O  O132  1  0.40753767  0.36212733  0.79502733  1
  O  O133  1  0.20270667  0.22545533  0.91257733  1
  O  O134  1  0.86937333  0.31058467  0.74591067  1
  O  O135  1  0.17399067  0.50944133  0.77253933  1
  O  O136  1  0.66666667  0.33333333  0.31973133  1
  O  O137  1  0.74087100  0.71207700  0.96169400  1
  O  O138  1  0.36296667  0.11175933  0.85451733  1
  O  O139  1  0.28792300  0.02879400  0.96169400  1
  O  O140  1  0.82389200  0.49267600  0.93920600  1
  O  O141  1  0.49055867  0.66454933  0.77253933  1
  O  O142  1  0.77454467  0.97725133  0.91257733  1
  O  O143  1  0.97120600  0.25912900  0.96169400  1
