# generated using pymatgen
data_Dy2In16Pt7
_symmetry_space_group_name_H-M   'P 1'
_cell_length_a   12.37273200
_cell_length_b   20.43939400
_cell_length_c   4.43649400
_cell_angle_alpha   90.00000000
_cell_angle_beta   90.00000000
_cell_angle_gamma   90.00000000
_symmetry_Int_Tables_number   1
_chemical_formula_structural   Dy2In16Pt7
_chemical_formula_sum   'Dy4 In32 Pt14'
_cell_volume   1121.95004392
_cell_formula_units_Z   2
loop_
 _symmetry_equiv_pos_site_id
 _symmetry_equiv_pos_as_xyz
  1  'x, y, z'
loop_
 _atom_site_type_symbol
 _atom_site_label
 _atom_site_symmetry_multiplicity
 _atom_site_fract_x
 _atom_site_fract_y
 _atom_site_fract_z
 _atom_site_occupancy
  Dy  Dy0  1  0.17133500  0.00000000  0.50000000  1
  Dy  Dy1  1  0.82866500  0.00000000  0.50000000  1
  Dy  Dy2  1  0.67133500  0.50000000  0.50000000  1
  Dy  Dy3  1  0.32866500  0.50000000  0.50000000  1
  In  In4  1  0.36793600  0.00000000  0.00000000  1
  In  In5  1  0.63206400  0.00000000  0.00000000  1
  In  In6  1  0.37007350  0.88716550  0.50000000  1
  In  In7  1  0.62992650  0.11283450  0.50000000  1
  In  In8  1  0.37007350  0.11283450  0.50000000  1
  In  In9  1  0.62992650  0.88716550  0.50000000  1
  In  In10  1  0.36381800  0.77725100  0.00000000  1
  In  In11  1  0.63618200  0.22274900  0.00000000  1
  In  In12  1  0.36381800  0.22274900  0.00000000  1
  In  In13  1  0.63618200  0.77725100  0.00000000  1
  In  In14  1  0.37573350  0.66300350  0.50000000  1
  In  In15  1  0.62426650  0.33699650  0.50000000  1
  In  In16  1  0.37573350  0.33699650  0.50000000  1
  In  In17  1  0.62426650  0.66300350  0.50000000  1
  In  In18  1  0.50000000  0.42697500  0.00000000  1
  In  In19  1  0.50000000  0.57302500  0.00000000  1
  In  In20  1  0.86793600  0.50000000  0.00000000  1
  In  In21  1  0.13206400  0.50000000  0.00000000  1
  In  In22  1  0.87007350  0.38716550  0.50000000  1
  In  In23  1  0.12992650  0.61283450  0.50000000  1
  In  In24  1  0.87007350  0.61283450  0.50000000  1
  In  In25  1  0.12992650  0.38716550  0.50000000  1
  In  In26  1  0.86381800  0.27725100  0.00000000  1
  In  In27  1  0.13618200  0.72274900  0.00000000  1
  In  In28  1  0.86381800  0.72274900  0.00000000  1
  In  In29  1  0.13618200  0.27725100  0.00000000  1
  In  In30  1  0.87573350  0.16300350  0.50000000  1
  In  In31  1  0.12426650  0.83699650  0.50000000  1
  In  In32  1  0.87573350  0.83699650  0.50000000  1
  In  In33  1  0.12426650  0.16300350  0.50000000  1
  In  In34  1  0.00000000  0.92697500  0.00000000  1
  In  In35  1  0.00000000  0.07302500  0.00000000  1
  Pt  Pt36  1  0.50000000  0.00000000  0.50000000  1
  Pt  Pt37  1  0.50000000  0.77597200  0.50000000  1
  Pt  Pt38  1  0.50000000  0.22402800  0.50000000  1
  Pt  Pt39  1  0.22347850  0.89282050  0.00000000  1
  Pt  Pt40  1  0.77652150  0.10717950  0.00000000  1
  Pt  Pt41  1  0.22347850  0.10717950  0.00000000  1
  Pt  Pt42  1  0.77652150  0.89282050  0.00000000  1
  Pt  Pt43  1  0.00000000  0.50000000  0.50000000  1
  Pt  Pt44  1  0.00000000  0.27597200  0.50000000  1
  Pt  Pt45  1  0.00000000  0.72402800  0.50000000  1
  Pt  Pt46  1  0.72347850  0.39282050  0.00000000  1
  Pt  Pt47  1  0.27652150  0.60717950  0.00000000  1
  Pt  Pt48  1  0.72347850  0.60717950  0.00000000  1
  Pt  Pt49  1  0.27652150  0.39282050  0.00000000  1
