# generated using pymatgen
data_LaMgSi2
_symmetry_space_group_name_H-M   'P 1'
_cell_length_a   4.32113800
_cell_length_b   4.32113800
_cell_length_c   37.03526200
_cell_angle_alpha   90.00000000
_cell_angle_beta   90.00000000
_cell_angle_gamma   90.00000000
_symmetry_Int_Tables_number   1
_chemical_formula_structural   LaMgSi2
_chemical_formula_sum   'La8 Mg8 Si16'
_cell_volume   691.53106406
_cell_formula_units_Z   8
loop_
 _symmetry_equiv_pos_site_id
 _symmetry_equiv_pos_as_xyz
  1  'x, y, z'
loop_
 _atom_site_type_symbol
 _atom_site_label
 _atom_site_symmetry_multiplicity
 _atom_site_fract_x
 _atom_site_fract_y
 _atom_site_fract_z
 _atom_site_occupancy
  La  La0  1  0.50000000  0.00000000  0.17303400  1
  La  La1  1  0.00000000  0.00000000  0.42303400  1
  La  La2  1  0.50000000  0.00000000  0.32696600  1
  La  La3  1  0.50000000  0.50000000  0.07696600  1
  La  La4  1  0.00000000  0.50000000  0.67303400  1
  La  La5  1  0.50000000  0.50000000  0.92303400  1
  La  La6  1  0.00000000  0.50000000  0.82696600  1
  La  La7  1  0.00000000  0.00000000  0.57696600  1
  Mg  Mg8  1  0.00000000  0.50000000  0.49992700  1
  Mg  Mg9  1  0.00000000  0.50000000  0.00007300  1
  Mg  Mg10  1  0.00000000  0.00000000  0.24992700  1
  Mg  Mg11  1  0.50000000  0.50000000  0.25007300  1
  Mg  Mg12  1  0.50000000  0.00000000  0.99992700  1
  Mg  Mg13  1  0.50000000  0.00000000  0.50007300  1
  Mg  Mg14  1  0.50000000  0.50000000  0.74992700  1
  Mg  Mg15  1  0.00000000  0.00000000  0.75007300  1
  Si  Si16  1  0.00000000  0.50000000  0.13919800  1
  Si  Si17  1  0.00000000  0.50000000  0.36080200  1
  Si  Si18  1  0.00000000  0.50000000  0.29773800  1
  Si  Si19  1  0.00000000  0.50000000  0.20226200  1
  Si  Si20  1  0.00000000  0.00000000  0.11080200  1
  Si  Si21  1  0.50000000  0.50000000  0.38919800  1
  Si  Si22  1  0.50000000  0.50000000  0.45226200  1
  Si  Si23  1  0.00000000  0.00000000  0.04773800  1
  Si  Si24  1  0.50000000  0.00000000  0.63919800  1
  Si  Si25  1  0.50000000  0.00000000  0.86080200  1
  Si  Si26  1  0.50000000  0.00000000  0.79773800  1
  Si  Si27  1  0.50000000  0.00000000  0.70226200  1
  Si  Si28  1  0.50000000  0.50000000  0.61080200  1
  Si  Si29  1  0.00000000  0.00000000  0.88919800  1
  Si  Si30  1  0.00000000  0.00000000  0.95226200  1
  Si  Si31  1  0.50000000  0.50000000  0.54773800  1
