# generated using pymatgen
data_Na2Fe3(PO4)3
_symmetry_space_group_name_H-M   'P 1'
_cell_length_a   11.92086400
_cell_length_b   12.65615200
_cell_length_c   6.61310802
_cell_angle_alpha   90.00000000
_cell_angle_beta   114.23404507
_cell_angle_gamma   90.00000000
_symmetry_Int_Tables_number   1
_chemical_formula_structural   Na2Fe3(PO4)3
_chemical_formula_sum   'Na8 Fe12 P12 O48'
_cell_volume   909.81061249
_cell_formula_units_Z   4
loop_
 _symmetry_equiv_pos_site_id
 _symmetry_equiv_pos_as_xyz
  1  'x, y, z'
loop_
 _atom_site_type_symbol
 _atom_site_label
 _atom_site_symmetry_multiplicity
 _atom_site_fract_x
 _atom_site_fract_y
 _atom_site_fract_z
 _atom_site_occupancy
  Na  Na0  1  0.50000000  0.51575700  0.75000000  1
  Na  Na1  1  0.50000000  0.48424300  0.25000000  1
  Na  Na2  1  0.50000000  0.00000000  0.50000000  1
  Na  Na3  1  0.50000000  0.00000000  0.00000000  1
  Na  Na4  1  0.00000000  0.01575700  0.75000000  1
  Na  Na5  1  0.00000000  0.98424300  0.25000000  1
  Na  Na6  1  0.00000000  0.50000000  0.50000000  1
  Na  Na7  1  0.00000000  0.50000000  0.00000000  1
  Fe  Fe8  1  0.21846250  0.83783450  0.62477500  1
  Fe  Fe9  1  0.21846250  0.16216550  0.12477500  1
  Fe  Fe10  1  0.78153750  0.16216550  0.37522500  1
  Fe  Fe11  1  0.50000000  0.76968900  0.25000000  1
  Fe  Fe12  1  0.50000000  0.23031100  0.75000000  1
  Fe  Fe13  1  0.78153750  0.83783450  0.87522500  1
  Fe  Fe14  1  0.71846250  0.33783450  0.62477500  1
  Fe  Fe15  1  0.71846250  0.66216550  0.12477500  1
  Fe  Fe16  1  0.28153750  0.66216550  0.37522500  1
  Fe  Fe17  1  0.00000000  0.26968900  0.25000000  1
  Fe  Fe18  1  0.00000000  0.73031100  0.75000000  1
  Fe  Fe19  1  0.28153750  0.33783450  0.87522500  1
  P  P20  1  0.76654950  0.10839850  0.88262600  1
  P  P21  1  0.23345050  0.10839850  0.61737400  1
  P  P22  1  0.50000000  0.20882300  0.25000000  1
  P  P23  1  0.76654950  0.89160150  0.38262600  1
  P  P24  1  0.50000000  0.79117700  0.75000000  1
  P  P25  1  0.23345050  0.89160150  0.11737400  1
  P  P26  1  0.26654950  0.60839850  0.88262600  1
  P  P27  1  0.73345050  0.60839850  0.61737400  1
  P  P28  1  0.00000000  0.70882300  0.25000000  1
  P  P29  1  0.26654950  0.39160150  0.38262600  1
  P  P30  1  0.00000000  0.29117700  0.75000000  1
  P  P31  1  0.73345050  0.39160150  0.11737400  1
  O  O32  1  0.21962750  0.17547050  0.80493300  1
  O  O33  1  0.60286400  0.13363600  0.25479800  1
  O  O34  1  0.37141900  0.10040400  0.66730200  1
  O  O35  1  0.21962750  0.82452950  0.30493300  1
  O  O36  1  0.62858100  0.10040400  0.83269800  1
  O  O37  1  0.34058550  0.33662050  0.61242300  1
  O  O38  1  0.60286400  0.86636400  0.75479800  1
  O  O39  1  0.17131200  0.99903800  0.60594600  1
  O  O40  1  0.65941450  0.66337950  0.38757700  1
  O  O41  1  0.45818900  0.28000600  0.03818700  1
  O  O42  1  0.34058550  0.66337950  0.11242300  1
  O  O43  1  0.17131200  0.00096200  0.10594600  1
  O  O44  1  0.62858100  0.89959600  0.33269800  1
  O  O45  1  0.78037250  0.17547050  0.69506700  1
  O  O46  1  0.39713600  0.86636400  0.74520200  1
  O  O47  1  0.65941450  0.33662050  0.88757700  1
  O  O48  1  0.39713600  0.13363600  0.24520200  1
  O  O49  1  0.78037250  0.82452950  0.19506700  1
  O  O50  1  0.82868800  0.99903800  0.89405400  1
  O  O51  1  0.54181100  0.71999400  0.96181300  1
  O  O52  1  0.82868800  0.00096200  0.39405400  1
  O  O53  1  0.54181100  0.28000600  0.46181300  1
  O  O54  1  0.45818900  0.71999400  0.53818700  1
  O  O55  1  0.37141900  0.89959600  0.16730200  1
  O  O56  1  0.71962750  0.67547050  0.80493300  1
  O  O57  1  0.10286400  0.63363600  0.25479800  1
  O  O58  1  0.87141900  0.60040400  0.66730200  1
  O  O59  1  0.71962750  0.32452950  0.30493300  1
  O  O60  1  0.12858100  0.60040400  0.83269800  1
  O  O61  1  0.84058550  0.83662050  0.61242300  1
  O  O62  1  0.10286400  0.36636400  0.75479800  1
  O  O63  1  0.67131200  0.49903800  0.60594600  1
  O  O64  1  0.15941450  0.16337950  0.38757700  1
  O  O65  1  0.95818900  0.78000600  0.03818700  1
  O  O66  1  0.84058550  0.16337950  0.11242300  1
  O  O67  1  0.67131200  0.50096200  0.10594600  1
  O  O68  1  0.12858100  0.39959600  0.33269800  1
  O  O69  1  0.28037250  0.67547050  0.69506700  1
  O  O70  1  0.89713600  0.36636400  0.74520200  1
  O  O71  1  0.15941450  0.83662050  0.88757700  1
  O  O72  1  0.89713600  0.63363600  0.24520200  1
  O  O73  1  0.28037250  0.32452950  0.19506700  1
  O  O74  1  0.32868800  0.49903800  0.89405400  1
  O  O75  1  0.04181100  0.21999400  0.96181300  1
  O  O76  1  0.32868800  0.50096200  0.39405400  1
  O  O77  1  0.04181100  0.78000600  0.46181300  1
  O  O78  1  0.95818900  0.21999400  0.53818700  1
  O  O79  1  0.87141900  0.39959600  0.16730200  1
