# generated using pymatgen
data_Ba4Ti4O9
_symmetry_space_group_name_H-M   'P 1'
_cell_length_a   11.51518800
_cell_length_b   8.01917600
_cell_length_c   17.30264185
_cell_angle_alpha   90.00000000
_cell_angle_beta   91.61661278
_cell_angle_gamma   90.00000000
_symmetry_Int_Tables_number   1
_chemical_formula_structural   Ba4Ti4O9
_chemical_formula_sum   'Ba24 Ti24 O54'
_cell_volume   1597.13012979
_cell_formula_units_Z   6
loop_
 _symmetry_equiv_pos_site_id
 _symmetry_equiv_pos_as_xyz
  1  'x, y, z'
loop_
 _atom_site_type_symbol
 _atom_site_label
 _atom_site_symmetry_multiplicity
 _atom_site_fract_x
 _atom_site_fract_y
 _atom_site_fract_z
 _atom_site_occupancy
  Ba  Ba0  1  0.62600700  0.74841200  0.41762000  1
  Ba  Ba1  1  0.62600700  0.25158800  0.41762000  1
  Ba  Ba2  1  0.37354850  0.25309850  0.24909900  1
  Ba  Ba3  1  0.62639150  0.75249350  0.08415000  1
  Ba  Ba4  1  0.37360850  0.75249350  0.91585000  1
  Ba  Ba5  1  0.62645150  0.25309850  0.75090100  1
  Ba  Ba6  1  0.37399300  0.25158800  0.58238000  1
  Ba  Ba7  1  0.37354850  0.74690150  0.24909900  1
  Ba  Ba8  1  0.62639150  0.24750650  0.08415000  1
  Ba  Ba9  1  0.37360850  0.24750650  0.91585000  1
  Ba  Ba10  1  0.62645150  0.74690150  0.75090100  1
  Ba  Ba11  1  0.37399300  0.74841200  0.58238000  1
  Ba  Ba12  1  0.12600700  0.24841200  0.41762000  1
  Ba  Ba13  1  0.12600700  0.75158800  0.41762000  1
  Ba  Ba14  1  0.87354850  0.75309850  0.24909900  1
  Ba  Ba15  1  0.12639150  0.25249350  0.08415000  1
  Ba  Ba16  1  0.87360850  0.25249350  0.91585000  1
  Ba  Ba17  1  0.12645150  0.75309850  0.75090100  1
  Ba  Ba18  1  0.87399300  0.75158800  0.58238000  1
  Ba  Ba19  1  0.87354850  0.24690150  0.24909900  1
  Ba  Ba20  1  0.12639150  0.74750650  0.08415000  1
  Ba  Ba21  1  0.87360850  0.74750650  0.91585000  1
  Ba  Ba22  1  0.12645150  0.24690150  0.75090100  1
  Ba  Ba23  1  0.87399300  0.24841200  0.58238000  1
  Ti  Ti24  1  0.61554400  0.00000000  0.25472200  1
  Ti  Ti25  1  0.37530100  0.00000000  0.08246500  1
  Ti  Ti26  1  0.11627100  0.00000000  0.92187400  1
  Ti  Ti27  1  0.87377300  0.00000000  0.74993200  1
  Ti  Ti28  1  0.61602900  0.00000000  0.58796400  1
  Ti  Ti29  1  0.12622700  0.00000000  0.25006800  1
  Ti  Ti30  1  0.38445600  0.00000000  0.74527800  1
  Ti  Ti31  1  0.88372900  0.00000000  0.07812600  1
  Ti  Ti32  1  0.62469900  0.00000000  0.91753500  1
  Ti  Ti33  1  0.12648900  0.00000000  0.58311400  1
  Ti  Ti34  1  0.87351100  0.00000000  0.41688600  1
  Ti  Ti35  1  0.38397100  0.00000000  0.41203600  1
  Ti  Ti36  1  0.11554400  0.50000000  0.25472200  1
  Ti  Ti37  1  0.87530100  0.50000000  0.08246500  1
  Ti  Ti38  1  0.61627100  0.50000000  0.92187400  1
  Ti  Ti39  1  0.37377300  0.50000000  0.74993200  1
  Ti  Ti40  1  0.11602900  0.50000000  0.58796400  1
  Ti  Ti41  1  0.62622700  0.50000000  0.25006800  1
  Ti  Ti42  1  0.88445600  0.50000000  0.74527800  1
  Ti  Ti43  1  0.38372900  0.50000000  0.07812600  1
  Ti  Ti44  1  0.12469900  0.50000000  0.91753500  1
  Ti  Ti45  1  0.62648900  0.50000000  0.58311400  1
  Ti  Ti46  1  0.37351100  0.50000000  0.41688600  1
  Ti  Ti47  1  0.88397100  0.50000000  0.41203600  1
  O  O48  1  0.37237300  0.25195900  0.41827700  1
  O  O49  1  0.62771650  0.74955850  0.24770100  1
  O  O50  1  0.37230550  0.75170750  0.08512400  1
  O  O51  1  0.62769450  0.24829250  0.91487600  1
  O  O52  1  0.75336400  0.00000000  0.33203200  1
  O  O53  1  0.50241400  0.00000000  0.16423000  1
  O  O54  1  0.00211400  0.00000000  0.83107500  1
  O  O55  1  0.75377100  0.00000000  0.66588700  1
  O  O56  1  0.25319900  0.00000000  0.99857600  1
  O  O57  1  0.50000000  0.00000000  0.50000000  1
  O  O58  1  0.49894600  0.00000000  0.33252200  1
  O  O59  1  0.00000000  0.00000000  0.00000000  1
  O  O60  1  0.37237300  0.74804100  0.41827700  1
  O  O61  1  0.62762700  0.25195900  0.58172300  1
  O  O62  1  0.62771650  0.25044150  0.24770100  1
  O  O63  1  0.37230550  0.24829250  0.08512400  1
  O  O64  1  0.62769450  0.75170750  0.91487600  1
  O  O65  1  0.37228350  0.74955850  0.75229900  1
  O  O66  1  0.24622900  0.00000000  0.33411300  1
  O  O67  1  0.99788600  0.00000000  0.16892500  1
  O  O68  1  0.49758600  0.00000000  0.83577000  1
  O  O69  1  0.24663600  0.00000000  0.66796800  1
  O  O70  1  0.74680100  0.00000000  0.00142400  1
  O  O71  1  0.00000000  0.00000000  0.50000000  1
  O  O72  1  0.37228350  0.25044150  0.75229900  1
  O  O73  1  0.62762700  0.74804100  0.58172300  1
  O  O74  1  0.50105400  0.00000000  0.66747800  1
  O  O75  1  0.87237300  0.75195900  0.41827700  1
  O  O76  1  0.12771650  0.24955850  0.24770100  1
  O  O77  1  0.87230550  0.25170750  0.08512400  1
  O  O78  1  0.12769450  0.74829250  0.91487600  1
  O  O79  1  0.25336400  0.50000000  0.33203200  1
  O  O80  1  0.00241400  0.50000000  0.16423000  1
  O  O81  1  0.50211400  0.50000000  0.83107500  1
  O  O82  1  0.25377100  0.50000000  0.66588700  1
  O  O83  1  0.75319900  0.50000000  0.99857600  1
  O  O84  1  0.00000000  0.50000000  0.50000000  1
  O  O85  1  0.99894600  0.50000000  0.33252200  1
  O  O86  1  0.50000000  0.50000000  0.00000000  1
  O  O87  1  0.87237300  0.24804100  0.41827700  1
  O  O88  1  0.12762700  0.75195900  0.58172300  1
  O  O89  1  0.12771650  0.75044150  0.24770100  1
  O  O90  1  0.87230550  0.74829250  0.08512400  1
  O  O91  1  0.12769450  0.25170750  0.91487600  1
  O  O92  1  0.87228350  0.24955850  0.75229900  1
  O  O93  1  0.74622900  0.50000000  0.33411300  1
  O  O94  1  0.49788600  0.50000000  0.16892500  1
  O  O95  1  0.99758600  0.50000000  0.83577000  1
  O  O96  1  0.74663600  0.50000000  0.66796800  1
  O  O97  1  0.24680100  0.50000000  0.00142400  1
  O  O98  1  0.50000000  0.50000000  0.50000000  1
  O  O99  1  0.87228350  0.75044150  0.75229900  1
  O  O100  1  0.12762700  0.24804100  0.58172300  1
  O  O101  1  0.00105400  0.50000000  0.66747800  1
