# generated using pymatgen
data_K2BiMoPO8
_symmetry_space_group_name_H-M   'P 1'
_cell_length_a   7.14914600
_cell_length_b   12.58619000
_cell_length_c   20.02531000
_cell_angle_alpha   90.00000000
_cell_angle_beta   90.00000000
_cell_angle_gamma   90.00000000
_symmetry_Int_Tables_number   1
_chemical_formula_structural   K2BiMoPO8
_chemical_formula_sum   'K16 Bi8 Mo8 P8 O64'
_cell_volume   1801.88760458
_cell_formula_units_Z   8
loop_
 _symmetry_equiv_pos_site_id
 _symmetry_equiv_pos_as_xyz
  1  'x, y, z'
loop_
 _atom_site_type_symbol
 _atom_site_label
 _atom_site_symmetry_multiplicity
 _atom_site_fract_x
 _atom_site_fract_y
 _atom_site_fract_z
 _atom_site_occupancy
  K  K0  1  0.46724500  0.42081500  0.84443300  1
  K  K1  1  0.96724500  0.57918500  0.84443300  1
  K  K2  1  0.96724500  0.42081500  0.65556700  1
  K  K3  1  0.53275500  0.57918500  0.15556700  1
  K  K4  1  0.03275500  0.57918500  0.34443300  1
  K  K5  1  0.46724500  0.57918500  0.65556700  1
  K  K6  1  0.03275500  0.42081500  0.15556700  1
  K  K7  1  0.53275500  0.42081500  0.34443300  1
  K  K8  1  0.96724500  0.92081500  0.34443300  1
  K  K9  1  0.46724500  0.07918500  0.34443300  1
  K  K10  1  0.46724500  0.92081500  0.15556700  1
  K  K11  1  0.03275500  0.07918500  0.65556700  1
  K  K12  1  0.53275500  0.07918500  0.84443300  1
  K  K13  1  0.96724500  0.07918500  0.15556700  1
  K  K14  1  0.53275500  0.92081500  0.65556700  1
  K  K15  1  0.03275500  0.92081500  0.84443300  1
  Bi  Bi16  1  0.75000000  0.82966300  0.00000000  1
  Bi  Bi17  1  0.25000000  0.67033700  0.00000000  1
  Bi  Bi18  1  0.25000000  0.17033700  0.00000000  1
  Bi  Bi19  1  0.75000000  0.32966300  0.00000000  1
  Bi  Bi20  1  0.25000000  0.32966300  0.50000000  1
  Bi  Bi21  1  0.75000000  0.17033700  0.50000000  1
  Bi  Bi22  1  0.75000000  0.67033700  0.50000000  1
  Bi  Bi23  1  0.25000000  0.82966300  0.50000000  1
  Mo  Mo24  1  0.50000000  0.75000000  0.83207800  1
  Mo  Mo25  1  0.00000000  0.75000000  0.16792200  1
  Mo  Mo26  1  0.50000000  0.25000000  0.16792200  1
  Mo  Mo27  1  0.00000000  0.25000000  0.83207800  1
  Mo  Mo28  1  0.00000000  0.25000000  0.33207800  1
  Mo  Mo29  1  0.50000000  0.25000000  0.66792200  1
  Mo  Mo30  1  0.00000000  0.75000000  0.66792200  1
  Mo  Mo31  1  0.50000000  0.75000000  0.33207800  1
  P  P32  1  0.25000000  0.92705100  0.00000000  1
  P  P33  1  0.75000000  0.07294900  0.00000000  1
  P  P34  1  0.25000000  0.42705100  0.00000000  1
  P  P35  1  0.75000000  0.57294900  0.00000000  1
  P  P36  1  0.75000000  0.42705100  0.50000000  1
  P  P37  1  0.25000000  0.57294900  0.50000000  1
  P  P38  1  0.75000000  0.92705100  0.50000000  1
  P  P39  1  0.25000000  0.07294900  0.50000000  1
  O  O40  1  0.08195700  0.84915000  0.98876700  1
  O  O41  1  0.20315550  0.71713250  0.11708450  1
  O  O42  1  0.58195700  0.15085000  0.98876700  1
  O  O43  1  0.91804300  0.15085000  0.01123300  1
  O  O44  1  0.72342050  0.49980050  0.93841950  1
  O  O45  1  0.41804300  0.84915000  0.01123300  1
  O  O46  1  0.08195700  0.34915000  0.01123300  1
  O  O47  1  0.22342050  0.50019950  0.93841950  1
  O  O48  1  0.79684450  0.78286750  0.11708450  1
  O  O49  1  0.55978350  0.63799050  0.78177850  1
  O  O50  1  0.94021650  0.63799050  0.21822150  1
  O  O51  1  0.05978350  0.36200950  0.78177850  1
  O  O52  1  0.70315550  0.78286750  0.88291550  1
  O  O53  1  0.58195700  0.65085000  0.01123300  1
  O  O54  1  0.05978350  0.63799050  0.71822150  1
  O  O55  1  0.27657950  0.49980050  0.43841950  1
  O  O56  1  0.72342050  0.50019950  0.56158050  1
  O  O57  1  0.55978350  0.36200950  0.71822150  1
  O  O58  1  0.20315550  0.21713250  0.88291550  1
  O  O59  1  0.70315550  0.28286750  0.11708450  1
  O  O60  1  0.77657950  0.49980050  0.06158050  1
  O  O61  1  0.44021650  0.36200950  0.21822150  1
  O  O62  1  0.29684450  0.71713250  0.88291550  1
  O  O63  1  0.27657950  0.50019950  0.06158050  1
  O  O64  1  0.29684450  0.21713250  0.11708450  1
  O  O65  1  0.94021650  0.36200950  0.28177850  1
  O  O66  1  0.22342050  0.49980050  0.56158050  1
  O  O67  1  0.44021650  0.63799050  0.28177850  1
  O  O68  1  0.79684450  0.28286750  0.88291550  1
  O  O69  1  0.91804300  0.65085000  0.98876700  1
  O  O70  1  0.77657950  0.50019950  0.43841950  1
  O  O71  1  0.41804300  0.34915000  0.98876700  1
  O  O72  1  0.58195700  0.34915000  0.48876700  1
  O  O73  1  0.70315550  0.21713250  0.61708450  1
  O  O74  1  0.08195700  0.65085000  0.48876700  1
  O  O75  1  0.41804300  0.65085000  0.51123300  1
  O  O76  1  0.22342050  0.99980050  0.43841950  1
  O  O77  1  0.91804300  0.34915000  0.51123300  1
  O  O78  1  0.58195700  0.84915000  0.51123300  1
  O  O79  1  0.72342050  0.00019950  0.43841950  1
  O  O80  1  0.29684450  0.28286750  0.61708450  1
  O  O81  1  0.05978350  0.13799050  0.28177850  1
  O  O82  1  0.44021650  0.13799050  0.71822150  1
  O  O83  1  0.55978350  0.86200950  0.28177850  1
  O  O84  1  0.20315550  0.28286750  0.38291550  1
  O  O85  1  0.08195700  0.15085000  0.51123300  1
  O  O86  1  0.55978350  0.13799050  0.21822150  1
  O  O87  1  0.77657950  0.99980050  0.93841950  1
  O  O88  1  0.22342050  0.00019950  0.06158050  1
  O  O89  1  0.05978350  0.86200950  0.21822150  1
  O  O90  1  0.70315550  0.71713250  0.38291550  1
  O  O91  1  0.20315550  0.78286750  0.61708450  1
  O  O92  1  0.27657950  0.99980050  0.56158050  1
  O  O93  1  0.94021650  0.86200950  0.71822150  1
  O  O94  1  0.79684450  0.21713250  0.38291550  1
  O  O95  1  0.77657950  0.00019950  0.56158050  1
  O  O96  1  0.79684450  0.71713250  0.61708450  1
  O  O97  1  0.44021650  0.86200950  0.78177850  1
  O  O98  1  0.72342050  0.99980050  0.06158050  1
  O  O99  1  0.94021650  0.13799050  0.78177850  1
  O  O100  1  0.29684450  0.78286750  0.38291550  1
  O  O101  1  0.41804300  0.15085000  0.48876700  1
  O  O102  1  0.27657950  0.00019950  0.93841950  1
  O  O103  1  0.91804300  0.84915000  0.48876700  1
