# generated using pymatgen
data_Er3(Si3Ru)4
_symmetry_space_group_name_H-M   'P 1'
_cell_length_a   8.11644400
_cell_length_b   18.50542400
_cell_length_c   8.11964900
_cell_angle_alpha   90.00000000
_cell_angle_beta   90.00000000
_cell_angle_gamma   90.00000000
_symmetry_Int_Tables_number   1
_chemical_formula_structural   Er3(Si3Ru)4
_chemical_formula_sum   'Er12 Si48 Ru16'
_cell_volume   1219.55696967
_cell_formula_units_Z   4
loop_
 _symmetry_equiv_pos_site_id
 _symmetry_equiv_pos_as_xyz
  1  'x, y, z'
loop_
 _atom_site_type_symbol
 _atom_site_label
 _atom_site_symmetry_multiplicity
 _atom_site_fract_x
 _atom_site_fract_y
 _atom_site_fract_z
 _atom_site_occupancy
  Er  Er0  1  0.24726700  0.75000000  0.75000000  1
  Er  Er1  1  0.75273300  0.75000000  0.25000000  1
  Er  Er2  1  0.25273300  0.75000000  0.25000000  1
  Er  Er3  1  0.74726700  0.75000000  0.75000000  1
  Er  Er4  1  0.50000000  0.00000000  0.50000000  1
  Er  Er5  1  0.00000000  0.00000000  0.00000000  1
  Er  Er6  1  0.74726700  0.25000000  0.75000000  1
  Er  Er7  1  0.25273300  0.25000000  0.25000000  1
  Er  Er8  1  0.75273300  0.25000000  0.25000000  1
  Er  Er9  1  0.24726700  0.25000000  0.75000000  1
  Er  Er10  1  0.00000000  0.50000000  0.50000000  1
  Er  Er11  1  0.50000000  0.50000000  0.00000000  1
  Si  Si12  1  0.27134400  0.88284600  0.99425500  1
  Si  Si13  1  0.27134400  0.61715400  0.50574500  1
  Si  Si14  1  0.72865600  0.61715400  0.49425500  1
  Si  Si15  1  0.72865600  0.88284600  0.00574500  1
  Si  Si16  1  0.22865600  0.61715400  0.00574500  1
  Si  Si17  1  0.22865600  0.88284600  0.49425500  1
  Si  Si18  1  0.77134400  0.88284600  0.50574500  1
  Si  Si19  1  0.77134400  0.61715400  0.99425500  1
  Si  Si20  1  0.49548150  0.88279850  0.77141500  1
  Si  Si21  1  0.49548150  0.61720150  0.72858500  1
  Si  Si22  1  0.50451850  0.61720150  0.27141500  1
  Si  Si23  1  0.50451850  0.88279850  0.22858500  1
  Si  Si24  1  0.00451850  0.61720150  0.22858500  1
  Si  Si25  1  0.00451850  0.88279850  0.27141500  1
  Si  Si26  1  0.50000000  0.79503400  0.00000000  1
  Si  Si27  1  0.50000000  0.70496600  0.50000000  1
  Si  Si28  1  0.00000000  0.70496600  0.00000000  1
  Si  Si29  1  0.00000000  0.79503400  0.50000000  1
  Si  Si30  1  0.16736000  0.00000000  0.66682400  1
  Si  Si31  1  0.66736000  0.00000000  0.83317600  1
  Si  Si32  1  0.33264000  0.00000000  0.16682400  1
  Si  Si33  1  0.83264000  0.00000000  0.33317600  1
  Si  Si34  1  0.99548150  0.61720150  0.77141500  1
  Si  Si35  1  0.99548150  0.88279850  0.72858500  1
  Si  Si36  1  0.77134400  0.38284600  0.99425500  1
  Si  Si37  1  0.77134400  0.11715400  0.50574500  1
  Si  Si38  1  0.22865600  0.11715400  0.49425500  1
  Si  Si39  1  0.22865600  0.38284600  0.00574500  1
  Si  Si40  1  0.72865600  0.11715400  0.00574500  1
  Si  Si41  1  0.72865600  0.38284600  0.49425500  1
  Si  Si42  1  0.27134400  0.38284600  0.50574500  1
  Si  Si43  1  0.27134400  0.11715400  0.99425500  1
  Si  Si44  1  0.99548150  0.38279850  0.77141500  1
  Si  Si45  1  0.99548150  0.11720150  0.72858500  1
  Si  Si46  1  0.00451850  0.11720150  0.27141500  1
  Si  Si47  1  0.00451850  0.38279850  0.22858500  1
  Si  Si48  1  0.50451850  0.11720150  0.22858500  1
  Si  Si49  1  0.50451850  0.38279850  0.27141500  1
  Si  Si50  1  0.00000000  0.29503400  0.00000000  1
  Si  Si51  1  0.00000000  0.20496600  0.50000000  1
  Si  Si52  1  0.50000000  0.20496600  0.00000000  1
  Si  Si53  1  0.50000000  0.29503400  0.50000000  1
  Si  Si54  1  0.66736000  0.50000000  0.66682400  1
  Si  Si55  1  0.16736000  0.50000000  0.83317600  1
  Si  Si56  1  0.83264000  0.50000000  0.16682400  1
  Si  Si57  1  0.33264000  0.50000000  0.33317600  1
  Si  Si58  1  0.49548150  0.11720150  0.77141500  1
  Si  Si59  1  0.49548150  0.38279850  0.72858500  1
  Ru  Ru60  1  0.62701200  0.00000000  0.12745900  1
  Ru  Ru61  1  0.12701200  0.00000000  0.37254100  1
  Ru  Ru62  1  0.87298800  0.00000000  0.62745900  1
  Ru  Ru63  1  0.37298800  0.00000000  0.87254100  1
  Ru  Ru64  1  0.00000000  0.66959800  0.50000000  1
  Ru  Ru65  1  0.00000000  0.83040200  0.00000000  1
  Ru  Ru66  1  0.50000000  0.83040200  0.50000000  1
  Ru  Ru67  1  0.50000000  0.66959800  0.00000000  1
  Ru  Ru68  1  0.12701200  0.50000000  0.12745900  1
  Ru  Ru69  1  0.62701200  0.50000000  0.37254100  1
  Ru  Ru70  1  0.37298800  0.50000000  0.62745900  1
  Ru  Ru71  1  0.87298800  0.50000000  0.87254100  1
  Ru  Ru72  1  0.50000000  0.16959800  0.50000000  1
  Ru  Ru73  1  0.50000000  0.33040200  0.00000000  1
  Ru  Ru74  1  0.00000000  0.33040200  0.50000000  1
  Ru  Ru75  1  0.00000000  0.16959800  0.00000000  1
