# generated using pymatgen
data_Ca3V2O8
_symmetry_space_group_name_H-M   'P 1'
_cell_length_a   5.63759234
_cell_length_b   5.63759234
_cell_length_c   18.93057721
_cell_angle_alpha   90.00000000
_cell_angle_beta   90.00000000
_cell_angle_gamma   120.00000000
_symmetry_Int_Tables_number   1
_chemical_formula_structural   Ca3V2O8
_chemical_formula_sum   'Ca9 V6 O24'
_cell_volume   521.05290843
_cell_formula_units_Z   3
loop_
 _symmetry_equiv_pos_site_id
 _symmetry_equiv_pos_as_xyz
  1  'x, y, z'
loop_
 _atom_site_type_symbol
 _atom_site_label
 _atom_site_symmetry_multiplicity
 _atom_site_fract_x
 _atom_site_fract_y
 _atom_site_fract_z
 _atom_site_occupancy
  Ca  Ca0  1  0.00000000  0.00000000  0.00000000  1
  Ca  Ca1  1  0.00000000  0.00000000  0.19521200  1
  Ca  Ca2  1  0.66666667  0.33333333  0.13812133  1
  Ca  Ca3  1  0.66666667  0.33333333  0.33333333  1
  Ca  Ca4  1  0.66666667  0.33333333  0.52854533  1
  Ca  Ca5  1  0.33333333  0.66666667  0.47145467  1
  Ca  Ca6  1  0.33333333  0.66666667  0.66666667  1
  Ca  Ca7  1  0.33333333  0.66666667  0.86187867  1
  Ca  Ca8  1  0.00000000  0.00000000  0.80478800  1
  V  V9  1  0.33333333  0.66666667  0.07043167  1
  V  V10  1  0.33333333  0.66666667  0.26290167  1
  V  V11  1  0.00000000  0.00000000  0.40376500  1
  V  V12  1  0.00000000  0.00000000  0.59623500  1
  V  V13  1  0.66666667  0.33333333  0.73709833  1
  V  V14  1  0.66666667  0.33333333  0.92956833  1
  O  O15  1  0.67376067  0.83688033  0.09982433  1
  O  O16  1  0.99290600  0.49645300  0.23350900  1
  O  O17  1  0.00000000  0.00000000  0.31343400  1
  O  O18  1  0.66666667  0.33333333  0.01989933  1
  O  O19  1  0.50354700  0.00709400  0.23350900  1
  O  O20  1  0.16311967  0.83688033  0.09982433  1
  O  O21  1  0.16311967  0.32623933  0.09982433  1
  O  O22  1  0.50354700  0.49645300  0.23350900  1
  O  O23  1  0.34042733  0.17021367  0.43315767  1
  O  O24  1  0.65957267  0.82978633  0.56684233  1
  O  O25  1  0.66666667  0.33333333  0.64676733  1
  O  O26  1  0.33333333  0.66666667  0.35323267  1
  O  O27  1  0.17021367  0.34042733  0.56684233  1
  O  O28  1  0.82978633  0.17021367  0.43315767  1
  O  O29  1  0.82978633  0.65957267  0.43315767  1
  O  O30  1  0.17021367  0.82978633  0.56684233  1
  O  O31  1  0.00709400  0.50354700  0.76649100  1
  O  O32  1  0.32623933  0.16311967  0.90017567  1
  O  O33  1  0.33333333  0.66666667  0.98010067  1
  O  O34  1  0.00000000  0.00000000  0.68656600  1
  O  O35  1  0.83688033  0.67376067  0.90017567  1
  O  O36  1  0.49645300  0.50354700  0.76649100  1
  O  O37  1  0.49645300  0.99290600  0.76649100  1
  O  O38  1  0.83688033  0.16311967  0.90017567  1
