# generated using pymatgen
data_K2MoP2O9
_symmetry_space_group_name_H-M   'P 1'
_cell_length_a   14.05098000
_cell_length_b   8.19835800
_cell_length_c   15.75430912
_cell_angle_alpha   90.00000000
_cell_angle_beta   98.82313360
_cell_angle_gamma   90.00000000
_symmetry_Int_Tables_number   1
_chemical_formula_structural   K2MoP2O9
_chemical_formula_sum   'K16 Mo8 P16 O72'
_cell_volume   1793.34149588
_cell_formula_units_Z   8
loop_
 _symmetry_equiv_pos_site_id
 _symmetry_equiv_pos_as_xyz
  1  'x, y, z'
loop_
 _atom_site_type_symbol
 _atom_site_label
 _atom_site_symmetry_multiplicity
 _atom_site_fract_x
 _atom_site_fract_y
 _atom_site_fract_z
 _atom_site_occupancy
  K  K0  1  0.35553500  0.65788900  0.76270200  1
  K  K1  1  0.64446500  0.65788900  0.73729800  1
  K  K2  1  0.64446500  0.34211100  0.23729800  1
  K  K3  1  0.35553500  0.34211100  0.26270200  1
  K  K4  1  0.85493600  0.91829200  0.52577300  1
  K  K5  1  0.14506400  0.91829200  0.97422700  1
  K  K6  1  0.14506400  0.08170800  0.47422700  1
  K  K7  1  0.85493600  0.08170800  0.02577300  1
  K  K8  1  0.85553500  0.15788900  0.76270200  1
  K  K9  1  0.14446500  0.15788900  0.73729800  1
  K  K10  1  0.14446500  0.84211100  0.23729800  1
  K  K11  1  0.85553500  0.84211100  0.26270200  1
  K  K12  1  0.35493600  0.41829200  0.52577300  1
  K  K13  1  0.64506400  0.41829200  0.97422700  1
  K  K14  1  0.64506400  0.58170800  0.47422700  1
  K  K15  1  0.35493600  0.58170800  0.02577300  1
  Mo  Mo16  1  0.61334250  0.14201250  0.63586200  1
  Mo  Mo17  1  0.38665750  0.14201250  0.86413800  1
  Mo  Mo18  1  0.38665750  0.85798750  0.36413800  1
  Mo  Mo19  1  0.61334250  0.85798750  0.13586200  1
  Mo  Mo20  1  0.11334250  0.64201250  0.63586200  1
  Mo  Mo21  1  0.88665750  0.64201250  0.86413800  1
  Mo  Mo22  1  0.88665750  0.35798750  0.36413800  1
  Mo  Mo23  1  0.11334250  0.35798750  0.13586200  1
  P  P24  1  0.37173700  0.08054300  0.65515800  1
  P  P25  1  0.62826300  0.08054300  0.84484200  1
  P  P26  1  0.62826300  0.91945700  0.34484200  1
  P  P27  1  0.37173700  0.91945700  0.15515800  1
  P  P28  1  0.46216650  0.80355850  0.57673600  1
  P  P29  1  0.53783350  0.80355850  0.92326400  1
  P  P30  1  0.53783350  0.19644150  0.42326400  1
  P  P31  1  0.46216650  0.19644150  0.07673600  1
  P  P32  1  0.87173700  0.58054300  0.65515800  1
  P  P33  1  0.12826300  0.58054300  0.84484200  1
  P  P34  1  0.12826300  0.41945700  0.34484200  1
  P  P35  1  0.87173700  0.41945700  0.15515800  1
  P  P36  1  0.96216650  0.30355850  0.57673600  1
  P  P37  1  0.03783350  0.30355850  0.92326400  1
  P  P38  1  0.03783350  0.69644150  0.42326400  1
  P  P39  1  0.96216650  0.69644150  0.07673600  1
  O  O40  1  0.27858950  0.16364150  0.62084100  1
  O  O41  1  0.72141050  0.16364150  0.87915900  1
  O  O42  1  0.72141050  0.83635850  0.37915900  1
  O  O43  1  0.27858950  0.83635850  0.12084100  1
  O  O44  1  0.46214800  0.17802600  0.64433500  1
  O  O45  1  0.53785200  0.17802600  0.85566500  1
  O  O46  1  0.53785200  0.82197400  0.35566500  1
  O  O47  1  0.46214800  0.82197400  0.14433500  1
  O  O48  1  0.47249300  0.65173500  0.63096700  1
  O  O49  1  0.52750700  0.65173500  0.86903300  1
  O  O50  1  0.52750700  0.34826500  0.36903300  1
  O  O51  1  0.47249300  0.34826500  0.13096700  1
  O  O52  1  0.55224950  0.91075550  0.58388700  1
  O  O53  1  0.44775050  0.91075550  0.91611300  1
  O  O54  1  0.44775050  0.08924450  0.41611300  1
  O  O55  1  0.55224950  0.08924450  0.08388700  1
  O  O56  1  0.42791000  0.75428600  0.48110100  1
  O  O57  1  0.57209000  0.75428600  0.01889900  1
  O  O58  1  0.57209000  0.24571400  0.51889900  1
  O  O59  1  0.42791000  0.24571400  0.98110100  1
  O  O60  1  0.37344100  0.91082200  0.60181400  1
  O  O61  1  0.62655900  0.91082200  0.89818600  1
  O  O62  1  0.62655900  0.08917800  0.39818600  1
  O  O63  1  0.37344100  0.08917800  0.10181400  1
  O  O64  1  0.37770000  0.01802400  0.75018300  1
  O  O65  1  0.62230000  0.01802400  0.74981700  1
  O  O66  1  0.62230000  0.98197600  0.24981700  1
  O  O67  1  0.37770000  0.98197600  0.25018300  1
  O  O68  1  0.72370400  0.07139600  0.61310200  1
  O  O69  1  0.27629600  0.07139600  0.88689800  1
  O  O70  1  0.27629600  0.92860400  0.38689800  1
  O  O71  1  0.72370400  0.92860400  0.11310200  1
  O  O72  1  0.64435050  0.32707550  0.68618800  1
  O  O73  1  0.35564950  0.32707550  0.81381200  1
  O  O74  1  0.35564950  0.67292450  0.31381200  1
  O  O75  1  0.64435050  0.67292450  0.18618800  1
  O  O76  1  0.77858950  0.66364150  0.62084100  1
  O  O77  1  0.22141050  0.66364150  0.87915900  1
  O  O78  1  0.22141050  0.33635850  0.37915900  1
  O  O79  1  0.77858950  0.33635850  0.12084100  1
  O  O80  1  0.96214800  0.67802600  0.64433500  1
  O  O81  1  0.03785200  0.67802600  0.85566500  1
  O  O82  1  0.03785200  0.32197400  0.35566500  1
  O  O83  1  0.96214800  0.32197400  0.14433500  1
  O  O84  1  0.97249300  0.15173500  0.63096700  1
  O  O85  1  0.02750700  0.15173500  0.86903300  1
  O  O86  1  0.02750700  0.84826500  0.36903300  1
  O  O87  1  0.97249300  0.84826500  0.13096700  1
  O  O88  1  0.05224950  0.41075550  0.58388700  1
  O  O89  1  0.94775050  0.41075550  0.91611300  1
  O  O90  1  0.94775050  0.58924450  0.41611300  1
  O  O91  1  0.05224950  0.58924450  0.08388700  1
  O  O92  1  0.92791000  0.25428600  0.48110100  1
  O  O93  1  0.07209000  0.25428600  0.01889900  1
  O  O94  1  0.07209000  0.74571400  0.51889900  1
  O  O95  1  0.92791000  0.74571400  0.98110100  1
  O  O96  1  0.87344100  0.41082200  0.60181400  1
  O  O97  1  0.12655900  0.41082200  0.89818600  1
  O  O98  1  0.12655900  0.58917800  0.39818600  1
  O  O99  1  0.87344100  0.58917800  0.10181400  1
  O  O100  1  0.87770000  0.51802400  0.75018300  1
  O  O101  1  0.12230000  0.51802400  0.74981700  1
  O  O102  1  0.12230000  0.48197600  0.24981700  1
  O  O103  1  0.87770000  0.48197600  0.25018300  1
  O  O104  1  0.22370400  0.57139600  0.61310200  1
  O  O105  1  0.77629600  0.57139600  0.88689800  1
  O  O106  1  0.77629600  0.42860400  0.38689800  1
  O  O107  1  0.22370400  0.42860400  0.11310200  1
  O  O108  1  0.14435050  0.82707550  0.68618800  1
  O  O109  1  0.85564950  0.82707550  0.81381200  1
  O  O110  1  0.85564950  0.17292450  0.31381200  1
  O  O111  1  0.14435050  0.17292450  0.18618800  1
