# generated using pymatgen
data_K3(MoO3)10
_symmetry_space_group_name_H-M   'P 1'
_cell_length_a   18.94985516
_cell_length_b   7.67522900
_cell_length_c   10.25021909
_cell_angle_alpha   90.00000000
_cell_angle_beta   118.93335839
_cell_angle_gamma   90.00000000
_symmetry_Int_Tables_number   1
_chemical_formula_structural   K3(MoO3)10
_chemical_formula_sum   'K6 Mo20 O60'
_cell_volume   1304.75587421
_cell_formula_units_Z   2
loop_
 _symmetry_equiv_pos_site_id
 _symmetry_equiv_pos_as_xyz
  1  'x, y, z'
loop_
 _atom_site_type_symbol
 _atom_site_label
 _atom_site_symmetry_multiplicity
 _atom_site_fract_x
 _atom_site_fract_y
 _atom_site_fract_z
 _atom_site_occupancy
  K  K0  1  0.00000000  0.50000000  0.50000000  1
  K  K1  1  0.31537950  0.50000000  0.27338800  1
  K  K2  1  0.18462050  0.00000000  0.72661200  1
  K  K3  1  0.50000000  0.00000000  0.50000000  1
  K  K4  1  0.81537950  0.00000000  0.27338800  1
  K  K5  1  0.68462050  0.50000000  0.72661200  1
  Mo  Mo6  1  0.22362850  0.00000000  0.17333700  1
  Mo  Mo7  1  0.27637150  0.50000000  0.82666300  1
  Mo  Mo8  1  0.42223200  0.75454600  0.04260100  1
  Mo  Mo9  1  0.07776800  0.25454600  0.95739900  1
  Mo  Mo10  1  0.07776800  0.74545400  0.95739900  1
  Mo  Mo11  1  0.42223200  0.24545400  0.04260100  1
  Mo  Mo12  1  0.13941700  0.75007900  0.34562000  1
  Mo  Mo13  1  0.36058300  0.25007900  0.65438000  1
  Mo  Mo14  1  0.36058300  0.74992100  0.65438000  1
  Mo  Mo15  1  0.13941700  0.24992100  0.34562000  1
  Mo  Mo16  1  0.72362850  0.50000000  0.17333700  1
  Mo  Mo17  1  0.77637150  0.00000000  0.82666300  1
  Mo  Mo18  1  0.92223200  0.25454600  0.04260100  1
  Mo  Mo19  1  0.57776800  0.75454600  0.95739900  1
  Mo  Mo20  1  0.57776800  0.24545400  0.95739900  1
  Mo  Mo21  1  0.92223200  0.74545400  0.04260100  1
  Mo  Mo22  1  0.63941700  0.25007900  0.34562000  1
  Mo  Mo23  1  0.86058300  0.75007900  0.65438000  1
  Mo  Mo24  1  0.86058300  0.24992100  0.65438000  1
  Mo  Mo25  1  0.63941700  0.74992100  0.34562000  1
  O  O26  1  0.25000000  0.75000000  0.50000000  1
  O  O27  1  0.25000000  0.25000000  0.50000000  1
  O  O28  1  0.24555900  0.00000000  0.02695700  1
  O  O29  1  0.25444100  0.50000000  0.97304300  1
  O  O30  1  0.31702750  0.00000000  0.33224000  1
  O  O31  1  0.18297250  0.50000000  0.66776000  1
  O  O32  1  0.42005600  0.00000000  0.01327300  1
  O  O33  1  0.07994400  0.50000000  0.98672700  1
  O  O34  1  0.41438850  0.50000000  0.00881800  1
  O  O35  1  0.08561150  0.00000000  0.99118200  1
  O  O36  1  0.15548150  0.00000000  0.30943800  1
  O  O37  1  0.34451850  0.50000000  0.69056200  1
  O  O38  1  0.14227800  0.50000000  0.33012800  1
  O  O39  1  0.35772200  0.00000000  0.66987200  1
  O  O40  1  0.40161900  0.75200400  0.18892000  1
  O  O41  1  0.09838100  0.25200400  0.81108000  1
  O  O42  1  0.09838100  0.74799600  0.81108000  1
  O  O43  1  0.40161900  0.24799600  0.18892000  1
  O  O44  1  0.18370100  0.75755200  0.15919300  1
  O  O45  1  0.31629900  0.25755200  0.84080700  1
  O  O46  1  0.31629900  0.74244800  0.84080700  1
  O  O47  1  0.18370100  0.24244800  0.15919300  1
  O  O48  1  0.09093950  0.77933150  0.44929400  1
  O  O49  1  0.40906050  0.27933150  0.55070600  1
  O  O50  1  0.40906050  0.72066850  0.55070600  1
  O  O51  1  0.09093950  0.22066850  0.44929400  1
  O  O52  1  0.03809150  0.75190450  0.14605400  1
  O  O53  1  0.46190850  0.25190450  0.85394600  1
  O  O54  1  0.46190850  0.74809550  0.85394600  1
  O  O55  1  0.03809150  0.24809550  0.14605400  1
  O  O56  1  0.75000000  0.25000000  0.50000000  1
  O  O57  1  0.75000000  0.75000000  0.50000000  1
  O  O58  1  0.74555900  0.50000000  0.02695700  1
  O  O59  1  0.75444100  0.00000000  0.97304300  1
  O  O60  1  0.81702750  0.50000000  0.33224000  1
  O  O61  1  0.68297250  0.00000000  0.66776000  1
  O  O62  1  0.92005600  0.50000000  0.01327300  1
  O  O63  1  0.57994400  0.00000000  0.98672700  1
  O  O64  1  0.91438850  0.00000000  0.00881800  1
  O  O65  1  0.58561150  0.50000000  0.99118200  1
  O  O66  1  0.65548150  0.50000000  0.30943800  1
  O  O67  1  0.84451850  0.00000000  0.69056200  1
  O  O68  1  0.64227800  0.00000000  0.33012800  1
  O  O69  1  0.85772200  0.50000000  0.66987200  1
  O  O70  1  0.90161900  0.25200400  0.18892000  1
  O  O71  1  0.59838100  0.75200400  0.81108000  1
  O  O72  1  0.59838100  0.24799600  0.81108000  1
  O  O73  1  0.90161900  0.74799600  0.18892000  1
  O  O74  1  0.68370100  0.25755200  0.15919300  1
  O  O75  1  0.81629900  0.75755200  0.84080700  1
  O  O76  1  0.81629900  0.24244800  0.84080700  1
  O  O77  1  0.68370100  0.74244800  0.15919300  1
  O  O78  1  0.59093950  0.27933150  0.44929400  1
  O  O79  1  0.90906050  0.77933150  0.55070600  1
  O  O80  1  0.90906050  0.22066850  0.55070600  1
  O  O81  1  0.59093950  0.72066850  0.44929400  1
  O  O82  1  0.53809150  0.25190450  0.14605400  1
  O  O83  1  0.96190850  0.75190450  0.85394600  1
  O  O84  1  0.96190850  0.24809550  0.85394600  1
  O  O85  1  0.53809150  0.74809550  0.14605400  1
