# generated using pymatgen
data_DySiRu2C
_symmetry_space_group_name_H-M   'P 1'
_cell_length_a   3.81044800
_cell_length_b   11.13587400
_cell_length_c   7.16159800
_cell_angle_alpha   90.00000000
_cell_angle_beta   90.00000000
_cell_angle_gamma   90.00000000
_symmetry_Int_Tables_number   1
_chemical_formula_structural   DySiRu2C
_chemical_formula_sum   'Dy4 Si4 Ru8 C4'
_cell_volume   303.88571610
_cell_formula_units_Z   4
loop_
 _symmetry_equiv_pos_site_id
 _symmetry_equiv_pos_as_xyz
  1  'x, y, z'
loop_
 _atom_site_type_symbol
 _atom_site_label
 _atom_site_symmetry_multiplicity
 _atom_site_fract_x
 _atom_site_fract_y
 _atom_site_fract_z
 _atom_site_occupancy
  Dy  Dy0  1  0.00000000  0.04750400  0.25000000  1
  Dy  Dy1  1  0.50000000  0.45249600  0.75000000  1
  Dy  Dy2  1  0.50000000  0.54750400  0.25000000  1
  Dy  Dy3  1  0.00000000  0.95249600  0.75000000  1
  Si  Si4  1  0.00000000  0.23103100  0.75000000  1
  Si  Si5  1  0.50000000  0.26896900  0.25000000  1
  Si  Si6  1  0.50000000  0.73103100  0.75000000  1
  Si  Si7  1  0.00000000  0.76896900  0.25000000  1
  Ru  Ru8  1  0.00000000  0.33609500  0.44305000  1
  Ru  Ru9  1  0.00000000  0.33609500  0.05695000  1
  Ru  Ru10  1  0.50000000  0.16390500  0.55695000  1
  Ru  Ru11  1  0.50000000  0.16390500  0.94305000  1
  Ru  Ru12  1  0.50000000  0.83609500  0.44305000  1
  Ru  Ru13  1  0.50000000  0.83609500  0.05695000  1
  Ru  Ru14  1  0.00000000  0.66390500  0.55695000  1
  Ru  Ru15  1  0.00000000  0.66390500  0.94305000  1
  C  C16  1  0.50000000  0.00000000  0.50000000  1
  C  C17  1  0.50000000  0.00000000  0.00000000  1
  C  C18  1  0.00000000  0.50000000  0.50000000  1
  C  C19  1  0.00000000  0.50000000  0.00000000  1
