# generated using pymatgen
data_RbLa9(IrO6)4
_symmetry_space_group_name_H-M   'P 1'
_cell_length_a   7.82414000
_cell_length_b   7.82414000
_cell_length_c   17.87593800
_cell_angle_alpha   90.00000000
_cell_angle_beta   90.00000000
_cell_angle_gamma   90.00000000
_symmetry_Int_Tables_number   1
_chemical_formula_structural   RbLa9(IrO6)4
_chemical_formula_sum   'Rb2 La18 Ir8 O48'
_cell_volume   1094.31427717
_cell_formula_units_Z   2
loop_
 _symmetry_equiv_pos_site_id
 _symmetry_equiv_pos_as_xyz
  1  'x, y, z'
loop_
 _atom_site_type_symbol
 _atom_site_label
 _atom_site_symmetry_multiplicity
 _atom_site_fract_x
 _atom_site_fract_y
 _atom_site_fract_z
 _atom_site_occupancy
  Rb  Rb0  1  0.50000000  0.50000000  0.00000000  1
  Rb  Rb1  1  0.00000000  0.00000000  0.50000000  1
  La  La2  1  0.81954600  0.68548300  0.14462300  1
  La  La3  1  0.68548300  0.18045400  0.14462300  1
  La  La4  1  0.31451700  0.81954600  0.14462300  1
  La  La5  1  0.81451700  0.31954600  0.35537700  1
  La  La6  1  0.68045400  0.81451700  0.35537700  1
  La  La7  1  0.18548300  0.68045400  0.35537700  1
  La  La8  1  0.18045400  0.31451700  0.14462300  1
  La  La9  1  0.00000000  0.00000000  0.00000000  1
  La  La10  1  0.31954600  0.18548300  0.35537700  1
  La  La11  1  0.31954600  0.18548300  0.64462300  1
  La  La12  1  0.18548300  0.68045400  0.64462300  1
  La  La13  1  0.81451700  0.31954600  0.64462300  1
  La  La14  1  0.31451700  0.81954600  0.85537700  1
  La  La15  1  0.18045400  0.31451700  0.85537700  1
  La  La16  1  0.68548300  0.18045400  0.85537700  1
  La  La17  1  0.68045400  0.81451700  0.64462300  1
  La  La18  1  0.50000000  0.50000000  0.50000000  1
  La  La19  1  0.81954600  0.68548300  0.85537700  1
  Ir  Ir20  1  0.00000000  0.50000000  0.00000000  1
  Ir  Ir21  1  0.50000000  0.50000000  0.25949000  1
  Ir  Ir22  1  0.00000000  0.00000000  0.24051000  1
  Ir  Ir23  1  0.50000000  0.00000000  0.00000000  1
  Ir  Ir24  1  0.50000000  0.00000000  0.50000000  1
  Ir  Ir25  1  0.00000000  0.00000000  0.75949000  1
  Ir  Ir26  1  0.50000000  0.50000000  0.74051000  1
  Ir  Ir27  1  0.00000000  0.50000000  0.50000000  1
  O  O28  1  0.13482650  0.59667450  0.08826950  1
  O  O29  1  0.40332550  0.13482650  0.08826950  1
  O  O30  1  0.56143450  0.25466650  0.26547850  1
  O  O31  1  0.24533350  0.06143450  0.23452150  1
  O  O32  1  0.71271200  0.13094700  0.00000000  1
  O  O33  1  0.74533350  0.56143450  0.26547850  1
  O  O34  1  0.59667450  0.86517350  0.08826950  1
  O  O35  1  0.13094700  0.28728800  0.00000000  1
  O  O36  1  0.06143450  0.75466650  0.23452150  1
  O  O37  1  0.63482650  0.09667450  0.41173050  1
  O  O38  1  0.86517350  0.40332550  0.08826950  1
  O  O39  1  0.50000000  0.50000000  0.37239500  1
  O  O40  1  0.09667450  0.36517350  0.41173050  1
  O  O41  1  0.93856550  0.24533350  0.23452150  1
  O  O42  1  0.36517350  0.90332550  0.41173050  1
  O  O43  1  0.00000000  0.00000000  0.12760500  1
  O  O44  1  0.86905300  0.71271200  0.00000000  1
  O  O45  1  0.28728800  0.86905300  0.00000000  1
  O  O46  1  0.25466650  0.43856550  0.26547850  1
  O  O47  1  0.75466650  0.93856550  0.23452150  1
  O  O48  1  0.00000000  0.00000000  0.34969400  1
  O  O49  1  0.50000000  0.50000000  0.15030600  1
  O  O50  1  0.90332550  0.63482650  0.41173050  1
  O  O51  1  0.43856550  0.74533350  0.26547850  1
  O  O52  1  0.63482650  0.09667450  0.58826950  1
  O  O53  1  0.90332550  0.63482650  0.58826950  1
  O  O54  1  0.06143450  0.75466650  0.76547850  1
  O  O55  1  0.74533350  0.56143450  0.73452150  1
  O  O56  1  0.21271200  0.63094700  0.50000000  1
  O  O57  1  0.24533350  0.06143450  0.76547850  1
  O  O58  1  0.09667450  0.36517350  0.58826950  1
  O  O59  1  0.63094700  0.78728800  0.50000000  1
  O  O60  1  0.56143450  0.25466650  0.73452150  1
  O  O61  1  0.13482650  0.59667450  0.91173050  1
  O  O62  1  0.36517350  0.90332550  0.58826950  1
  O  O63  1  0.00000000  0.00000000  0.87239500  1
  O  O64  1  0.59667450  0.86517350  0.91173050  1
  O  O65  1  0.43856550  0.74533350  0.73452150  1
  O  O66  1  0.86517350  0.40332550  0.91173050  1
  O  O67  1  0.50000000  0.50000000  0.62760500  1
  O  O68  1  0.36905300  0.21271200  0.50000000  1
  O  O69  1  0.78728800  0.36905300  0.50000000  1
  O  O70  1  0.75466650  0.93856550  0.76547850  1
  O  O71  1  0.25466650  0.43856550  0.73452150  1
  O  O72  1  0.50000000  0.50000000  0.84969400  1
  O  O73  1  0.00000000  0.00000000  0.65030600  1
  O  O74  1  0.40332550  0.13482650  0.91173050  1
  O  O75  1  0.93856550  0.24533350  0.76547850  1
