# generated using pymatgen
data_Ni(ClO4)2
_symmetry_space_group_name_H-M   'P 1'
_cell_length_a   4.85995177
_cell_length_b   4.85995177
_cell_length_c   22.49244387
_cell_angle_alpha   90.00000000
_cell_angle_beta   90.00000000
_cell_angle_gamma   120.00000000
_symmetry_Int_Tables_number   1
_chemical_formula_structural   Ni(ClO4)2
_chemical_formula_sum   'Ni3 Cl6 O24'
_cell_volume   460.07771375
_cell_formula_units_Z   3
loop_
 _symmetry_equiv_pos_site_id
 _symmetry_equiv_pos_as_xyz
  1  'x, y, z'
loop_
 _atom_site_type_symbol
 _atom_site_label
 _atom_site_symmetry_multiplicity
 _atom_site_fract_x
 _atom_site_fract_y
 _atom_site_fract_z
 _atom_site_occupancy
  Ni  Ni0  1  0.66666667  0.33333333  0.33333333  1
  Ni  Ni1  1  0.33333333  0.66666667  0.66666667  1
  Ni  Ni2  1  0.00000000  1.00000000  0.00000000  1
  Cl  Cl3  1  0.00000000  0.00000000  0.25544025  1
  Cl  Cl4  1  0.66666667  0.33333333  0.07789308  1
  Cl  Cl5  1  0.66666667  0.33333333  0.58877358  1
  Cl  Cl6  1  0.33333333  0.66666667  0.41122642  1
  Cl  Cl7  1  0.33333333  0.66666667  0.92210692  1
  Cl  Cl8  1  0.00000000  1.00000000  0.74455975  1
  O  O9  1  0.00000000  0.00000000  0.19247092  1
  O  O10  1  0.66666667  0.33333333  0.14086242  1
  O  O11  1  0.97720808  0.70445392  0.27847117  1
  O  O12  1  0.29554608  0.27275417  0.27847117  1
  O  O13  1  0.72724583  0.02279192  0.27847117  1
  O  O14  1  0.68945858  0.62887942  0.05486217  1
  O  O15  1  0.37112058  0.06057917  0.05486217  1
  O  O16  1  0.93942083  0.31054142  0.05486217  1
  O  O17  1  0.66666667  0.33333333  0.52580425  1
  O  O18  1  0.33333333  0.66666667  0.47419575  1
  O  O19  1  0.64387475  0.03778725  0.61180450  1
  O  O20  1  0.96221275  0.60608750  0.61180450  1
  O  O21  1  0.39391250  0.35612525  0.61180450  1
  O  O22  1  0.35612525  0.96221275  0.38819550  1
  O  O23  1  0.03778725  0.39391250  0.38819550  1
  O  O24  1  0.60608750  0.64387475  0.38819550  1
  O  O25  1  0.33333333  0.66666667  0.85913758  1
  O  O26  1  0.00000000  1.00000000  0.80752908  1
  O  O27  1  0.31054142  0.37112058  0.94513783  1
  O  O28  1  0.62887942  0.93942083  0.94513783  1
  O  O29  1  0.06057917  0.68945858  0.94513783  1
  O  O30  1  0.02279192  0.29554608  0.72152883  1
  O  O31  1  0.70445392  0.72724583  0.72152883  1
  O  O32  1  0.27275417  0.97720808  0.72152883  1
