# generated using pymatgen
data_Li2Ni(PO4)2
_symmetry_space_group_name_H-M   'P 1'
_cell_length_a   8.21512600
_cell_length_b   5.34770200
_cell_length_c   6.34882308
_cell_angle_alpha   90.00000000
_cell_angle_beta   90.28957454
_cell_angle_gamma   90.00000000
_symmetry_Int_Tables_number   1
_chemical_formula_structural   Li2Ni(PO4)2
_chemical_formula_sum   'Li4 Ni2 P4 O16'
_cell_volume   278.91322394
_cell_formula_units_Z   2
loop_
 _symmetry_equiv_pos_site_id
 _symmetry_equiv_pos_as_xyz
  1  'x, y, z'
loop_
 _atom_site_type_symbol
 _atom_site_label
 _atom_site_symmetry_multiplicity
 _atom_site_fract_x
 _atom_site_fract_y
 _atom_site_fract_z
 _atom_site_occupancy
  Li  Li0  1  0.50159600  0.00000000  0.49325500  1
  Li  Li1  1  0.17432500  0.00000000  0.73652200  1
  Li  Li2  1  0.00159600  0.50000000  0.49325500  1
  Li  Li3  1  0.67432500  0.50000000  0.73652200  1
  Ni  Ni4  1  0.50168100  0.00000000  0.00363800  1
  Ni  Ni5  1  0.00168100  0.50000000  0.00363800  1
  P  P6  1  0.85681600  0.00000000  0.76187300  1
  P  P7  1  0.14323400  0.00000000  0.23578900  1
  P  P8  1  0.35681600  0.50000000  0.76187300  1
  P  P9  1  0.64323400  0.50000000  0.23578900  1
  O  O10  1  0.46932000  0.73325200  0.76320800  1
  O  O11  1  0.24577000  0.00000000  0.44111900  1
  O  O12  1  0.25309100  0.00000000  0.03574600  1
  O  O13  1  0.53346150  0.26538050  0.23710100  1
  O  O14  1  0.74546600  0.00000000  0.95882700  1
  O  O15  1  0.53346150  0.73461950  0.23710100  1
  O  O16  1  0.74586700  0.00000000  0.56484000  1
  O  O17  1  0.46932000  0.26674800  0.76320800  1
  O  O18  1  0.96932000  0.23325200  0.76320800  1
  O  O19  1  0.74577000  0.50000000  0.44111900  1
  O  O20  1  0.75309100  0.50000000  0.03574600  1
  O  O21  1  0.03346150  0.76538050  0.23710100  1
  O  O22  1  0.24546600  0.50000000  0.95882700  1
  O  O23  1  0.03346150  0.23461950  0.23710100  1
  O  O24  1  0.24586700  0.50000000  0.56484000  1
  O  O25  1  0.96932000  0.76674800  0.76320800  1
