# generated using pymatgen
data_Cr2(PO4)3
_symmetry_space_group_name_H-M   'P 1'
_cell_length_a   8.40953966
_cell_length_b   8.40953966
_cell_length_c   21.99714047
_cell_angle_alpha   90.00000000
_cell_angle_beta   90.00000000
_cell_angle_gamma   120.00000000
_symmetry_Int_Tables_number   1
_chemical_formula_structural   Cr2(PO4)3
_chemical_formula_sum   'Cr12 P18 O72'
_cell_volume   1347.22863789
_cell_formula_units_Z   6
loop_
 _symmetry_equiv_pos_site_id
 _symmetry_equiv_pos_as_xyz
  1  'x, y, z'
loop_
 _atom_site_type_symbol
 _atom_site_label
 _atom_site_symmetry_multiplicity
 _atom_site_fract_x
 _atom_site_fract_y
 _atom_site_fract_z
 _atom_site_occupancy
  Cr  Cr0  1  0.66666667  0.33333333  0.19196233  1
  Cr  Cr1  1  0.33333333  0.66666667  0.31096967  1
  Cr  Cr2  1  0.33333333  0.66666667  0.02236367  1
  Cr  Cr3  1  0.00000000  0.00000000  0.14137100  1
  Cr  Cr4  1  0.33333333  0.66666667  0.52529567  1
  Cr  Cr5  1  0.00000000  0.00000000  0.64430300  1
  Cr  Cr6  1  0.00000000  0.00000000  0.35569700  1
  Cr  Cr7  1  0.66666667  0.33333333  0.47470433  1
  Cr  Cr8  1  0.00000000  0.00000000  0.85862900  1
  Cr  Cr9  1  0.66666667  0.33333333  0.97763633  1
  Cr  Cr10  1  0.66666667  0.33333333  0.68903033  1
  Cr  Cr11  1  0.33333333  0.66666667  0.80803767  1
  P  P12  1  0.94782167  0.33086733  0.08278533  1
  P  P13  1  0.38304567  0.05217833  0.08278533  1
  P  P14  1  0.28362100  0.28115500  0.25054800  1
  P  P15  1  0.71884500  0.00246600  0.25054800  1
  P  P16  1  0.66913267  0.61695433  0.08278533  1
  P  P17  1  0.99753400  0.71637900  0.25054800  1
  P  P18  1  0.61448833  0.66420067  0.41611867  1
  P  P19  1  0.04971233  0.38551167  0.41611867  1
  P  P20  1  0.95028767  0.61448833  0.58388133  1
  P  P21  1  0.38551167  0.33579933  0.58388133  1
  P  P22  1  0.33579933  0.95028767  0.41611867  1
  P  P23  1  0.66420067  0.04971233  0.58388133  1
  P  P24  1  0.28115500  0.99753400  0.74945200  1
  P  P25  1  0.71637900  0.71884500  0.74945200  1
  P  P26  1  0.61695433  0.94782167  0.91721467  1
  P  P27  1  0.05217833  0.66913267  0.91721467  1
  P  P28  1  0.00246600  0.28362100  0.74945200  1
  P  P29  1  0.33086733  0.38304567  0.91721467  1
  O  O30  1  0.17887067  0.99310433  0.08940833  1
  O  O31  1  0.73532633  0.54351567  0.03022367  1
  O  O32  1  0.45648433  0.19181067  0.03022367  1
  O  O33  1  0.80818933  0.26467367  0.03022367  1
  O  O34  1  0.93134033  0.78981767  0.30310967  1
  O  O35  1  0.21018233  0.14152267  0.30310967  1
  O  O36  1  0.85847733  0.06865967  0.30310967  1
  O  O37  1  0.47926600  0.59629600  0.07060500  1
  O  O38  1  0.81423367  0.82112933  0.08940833  1
  O  O39  1  0.65457833  0.51604567  0.14263367  1
  O  O40  1  0.00689567  0.18576633  0.08940833  1
  O  O41  1  0.11703000  0.52073400  0.07060500  1
  O  O42  1  0.40370400  0.88297000  0.07060500  1
  O  O43  1  0.18271233  0.19480067  0.19069967  1
  O  O44  1  0.85243300  0.51220400  0.24392500  1
  O  O45  1  0.80519933  0.98791167  0.19069967  1
  O  O46  1  0.86146733  0.34542167  0.14263367  1
  O  O47  1  0.18740067  0.73703733  0.26272833  1
  O  O48  1  0.48395433  0.13853267  0.14263367  1
  O  O49  1  0.26296267  0.45036333  0.26272833  1
  O  O50  1  0.54963667  0.81259933  0.26272833  1
  O  O51  1  0.65977100  0.14756700  0.24392500  1
  O  O52  1  0.01208833  0.81728767  0.19069967  1
  O  O53  1  0.48779600  0.34022900  0.24392500  1
  O  O54  1  0.84553733  0.32643767  0.42274167  1
  O  O55  1  0.40199300  0.87684900  0.36355700  1
  O  O56  1  0.12315100  0.52514400  0.36355700  1
  O  O57  1  0.47485600  0.59800700  0.36355700  1
  O  O58  1  0.59800700  0.12315100  0.63644300  1
  O  O59  1  0.87684900  0.47485600  0.63644300  1
  O  O60  1  0.52514400  0.40199300  0.63644300  1
  O  O61  1  0.14593267  0.92962933  0.40393833  1
  O  O62  1  0.48090033  0.15446267  0.42274167  1
  O  O63  1  0.32124500  0.84937900  0.47596700  1
  O  O64  1  0.67356233  0.51909967  0.42274167  1
  O  O65  1  0.78369667  0.85406733  0.40393833  1
  O  O66  1  0.07037067  0.21630333  0.40393833  1
  O  O67  1  0.84937900  0.52813400  0.52403300  1
  O  O68  1  0.51909967  0.84553733  0.57725833  1
  O  O69  1  0.47186600  0.32124500  0.52403300  1
  O  O70  1  0.52813400  0.67875500  0.47596700  1
  O  O71  1  0.85406733  0.07037067  0.59606167  1
  O  O72  1  0.15062100  0.47186600  0.47596700  1
  O  O73  1  0.92962933  0.78369667  0.59606167  1
  O  O74  1  0.21630333  0.14593267  0.59606167  1
  O  O75  1  0.32643767  0.48090033  0.57725833  1
  O  O76  1  0.67875500  0.15062100  0.52403300  1
  O  O77  1  0.15446267  0.67356233  0.57725833  1
  O  O78  1  0.51220400  0.65977100  0.75607500  1
  O  O79  1  0.06865967  0.21018233  0.69689033  1
  O  O80  1  0.78981767  0.85847733  0.69689033  1
  O  O81  1  0.14152267  0.93134033  0.69689033  1
  O  O82  1  0.26467367  0.45648433  0.96977633  1
  O  O83  1  0.54351567  0.80818933  0.96977633  1
  O  O84  1  0.19181067  0.73532633  0.96977633  1
  O  O85  1  0.81259933  0.26296267  0.73727167  1
  O  O86  1  0.14756700  0.48779600  0.75607500  1
  O  O87  1  0.98791167  0.18271233  0.80930033  1
  O  O88  1  0.34022900  0.85243300  0.75607500  1
  O  O89  1  0.45036333  0.18740067  0.73727167  1
  O  O90  1  0.73703733  0.54963667  0.73727167  1
  O  O91  1  0.51604567  0.86146733  0.85736633  1
  O  O92  1  0.18576633  0.17887067  0.91059167  1
  O  O93  1  0.13853267  0.65457833  0.85736633  1
  O  O94  1  0.19480067  0.01208833  0.80930033  1
  O  O95  1  0.52073400  0.40370400  0.92939500  1
  O  O96  1  0.81728767  0.80519933  0.80930033  1
  O  O97  1  0.59629600  0.11703000  0.92939500  1
  O  O98  1  0.88297000  0.47926600  0.92939500  1
  O  O99  1  0.99310433  0.81423367  0.91059167  1
  O  O100  1  0.34542167  0.48395433  0.85736633  1
  O  O101  1  0.82112933  0.00689567  0.91059167  1
