# generated using pymatgen
data_V2O5
_symmetry_space_group_name_H-M   'P 1'
_cell_length_a   3.60911600
_cell_length_b   10.83391400
_cell_length_c   11.53549500
_cell_angle_alpha   90.00000000
_cell_angle_beta   90.00000000
_cell_angle_gamma   90.00000000
_symmetry_Int_Tables_number   1
_chemical_formula_structural   V2O5
_chemical_formula_sum   'V8 O20'
_cell_volume   451.04768689
_cell_formula_units_Z   4
loop_
 _symmetry_equiv_pos_site_id
 _symmetry_equiv_pos_as_xyz
  1  'x, y, z'
loop_
 _atom_site_type_symbol
 _atom_site_label
 _atom_site_symmetry_multiplicity
 _atom_site_fract_x
 _atom_site_fract_y
 _atom_site_fract_z
 _atom_site_occupancy
  V  V0  1  0.00000000  0.29503200  0.10281400  1
  V  V1  1  0.50000000  0.20496800  0.89718600  1
  V  V2  1  0.50000000  0.20496800  0.60281400  1
  V  V3  1  0.00000000  0.29503200  0.39718600  1
  V  V4  1  0.50000000  0.79503200  0.10281400  1
  V  V5  1  0.00000000  0.70496800  0.89718600  1
  V  V6  1  0.00000000  0.70496800  0.60281400  1
  V  V7  1  0.50000000  0.79503200  0.39718600  1
  O  O8  1  0.00000000  0.23662900  0.25000000  1
  O  O9  1  0.00000000  0.44253000  0.11485100  1
  O  O10  1  0.50000000  0.25062000  0.06846500  1
  O  O11  1  0.00000000  0.24938000  0.93153500  1
  O  O12  1  0.50000000  0.05747000  0.88514900  1
  O  O13  1  0.50000000  0.26337100  0.75000000  1
  O  O14  1  0.50000000  0.05747000  0.61485100  1
  O  O15  1  0.00000000  0.44253000  0.38514900  1
  O  O16  1  0.00000000  0.24938000  0.56846500  1
  O  O17  1  0.50000000  0.25062000  0.43153500  1
  O  O18  1  0.50000000  0.73662900  0.25000000  1
  O  O19  1  0.50000000  0.94253000  0.11485100  1
  O  O20  1  0.00000000  0.75062000  0.06846500  1
  O  O21  1  0.50000000  0.74938000  0.93153500  1
  O  O22  1  0.00000000  0.55747000  0.88514900  1
  O  O23  1  0.00000000  0.76337100  0.75000000  1
  O  O24  1  0.00000000  0.55747000  0.61485100  1
  O  O25  1  0.50000000  0.94253000  0.38514900  1
  O  O26  1  0.50000000  0.74938000  0.56846500  1
  O  O27  1  0.00000000  0.75062000  0.43153500  1
