# generated using pymatgen
data_Fe2PClO4
_symmetry_space_group_name_H-M   'P 1'
_cell_length_a   13.79244315
_cell_length_b   9.40533901
_cell_length_c   9.46285724
_cell_angle_alpha   90.00000000
_cell_angle_beta   132.32204905
_cell_angle_gamma   90.00000000
_symmetry_Int_Tables_number   1
_chemical_formula_structural   Fe2PClO4
_chemical_formula_sum   'Fe16 P8 Cl8 O32'
_cell_volume   907.61355118
_cell_formula_units_Z   8
loop_
 _symmetry_equiv_pos_site_id
 _symmetry_equiv_pos_as_xyz
  1  'x, y, z'
loop_
 _atom_site_type_symbol
 _atom_site_label
 _atom_site_symmetry_multiplicity
 _atom_site_fract_x
 _atom_site_fract_y
 _atom_site_fract_z
 _atom_site_occupancy
  Fe  Fe0  1  0.00000000  0.00000000  0.00000000  1
  Fe  Fe1  1  0.50000000  0.50000000  0.50000000  1
  Fe  Fe2  1  0.31286550  0.23926950  0.82067200  1
  Fe  Fe3  1  0.68713450  0.23926950  0.67932800  1
  Fe  Fe4  1  0.00000000  0.27329800  0.25000000  1
  Fe  Fe5  1  0.50000000  0.22670200  0.75000000  1
  Fe  Fe6  1  0.81286550  0.26073050  0.32067200  1
  Fe  Fe7  1  0.18713450  0.26073050  0.17932800  1
  Fe  Fe8  1  0.50000000  0.50000000  0.00000000  1
  Fe  Fe9  1  0.00000000  0.00000000  0.50000000  1
  Fe  Fe10  1  0.81286550  0.73926950  0.82067200  1
  Fe  Fe11  1  0.18713450  0.73926950  0.67932800  1
  Fe  Fe12  1  0.50000000  0.77329800  0.25000000  1
  Fe  Fe13  1  0.00000000  0.72670200  0.75000000  1
  Fe  Fe14  1  0.31286550  0.76073050  0.32067200  1
  Fe  Fe15  1  0.68713450  0.76073050  0.17932800  1
  P  P16  1  0.76763750  0.00987250  0.01598200  1
  P  P17  1  0.76763750  0.99012750  0.51598200  1
  P  P18  1  0.73236250  0.49012750  0.98401800  1
  P  P19  1  0.73236250  0.50987250  0.48401800  1
  P  P20  1  0.26763750  0.50987250  0.01598200  1
  P  P21  1  0.26763750  0.49012750  0.51598200  1
  P  P22  1  0.23236250  0.99012750  0.98401800  1
  P  P23  1  0.23236250  0.00987250  0.48401800  1
  Cl  Cl24  1  0.57044150  0.76484150  0.57256500  1
  Cl  Cl25  1  0.57044150  0.23515850  0.07256500  1
  Cl  Cl26  1  0.92955850  0.26484150  0.92743500  1
  Cl  Cl27  1  0.92955850  0.73515850  0.42743500  1
  Cl  Cl28  1  0.07044150  0.26484150  0.57256500  1
  Cl  Cl29  1  0.07044150  0.73515850  0.07256500  1
  Cl  Cl30  1  0.42955850  0.76484150  0.92743500  1
  Cl  Cl31  1  0.42955850  0.23515850  0.42743500  1
  O  O32  1  0.80494500  0.40629800  0.46084200  1
  O  O33  1  0.69505500  0.90629800  0.03915800  1
  O  O34  1  0.80494500  0.59370200  0.96084200  1
  O  O35  1  0.69505500  0.09370200  0.53915800  1
  O  O36  1  0.65069700  0.56536300  0.02403700  1
  O  O37  1  0.15069700  0.93463700  0.52403700  1
  O  O38  1  0.84930300  0.93463700  0.97596300  1
  O  O39  1  0.34930300  0.56536300  0.47596300  1
  O  O40  1  0.86974750  0.90102550  0.70502200  1
  O  O41  1  0.63025250  0.40102550  0.79497800  1
  O  O42  1  0.63025250  0.59897450  0.29497800  1
  O  O43  1  0.86974750  0.09897450  0.20502200  1
  O  O44  1  0.16711800  0.38823000  0.34480700  1
  O  O45  1  0.66711800  0.11177000  0.84480700  1
  O  O46  1  0.83288200  0.38823000  0.15519300  1
  O  O47  1  0.33288200  0.11177000  0.65519300  1
  O  O48  1  0.30494500  0.90629800  0.46084200  1
  O  O49  1  0.19505500  0.40629800  0.03915800  1
  O  O50  1  0.30494500  0.09370200  0.96084200  1
  O  O51  1  0.19505500  0.59370200  0.53915800  1
  O  O52  1  0.15069700  0.06536300  0.02403700  1
  O  O53  1  0.65069700  0.43463700  0.52403700  1
  O  O54  1  0.34930300  0.43463700  0.97596300  1
  O  O55  1  0.84930300  0.06536300  0.47596300  1
  O  O56  1  0.36974750  0.40102550  0.70502200  1
  O  O57  1  0.13025250  0.90102550  0.79497800  1
  O  O58  1  0.13025250  0.09897450  0.29497800  1
  O  O59  1  0.36974750  0.59897450  0.20502200  1
  O  O60  1  0.66711800  0.88823000  0.34480700  1
  O  O61  1  0.16711800  0.61177000  0.84480700  1
  O  O62  1  0.33288200  0.88823000  0.15519300  1
  O  O63  1  0.83288200  0.61177000  0.65519300  1
