# generated using pymatgen
data_Nd6Mo10O39
_symmetry_space_group_name_H-M   'P 1'
_cell_length_a   12.64998600
_cell_length_b   20.19923200
_cell_length_c   14.16416714
_cell_angle_alpha   90.00000000
_cell_angle_beta   101.05522639
_cell_angle_gamma   90.00000000
_symmetry_Int_Tables_number   1
_chemical_formula_structural   Nd6Mo10O39
_chemical_formula_sum   'Nd24 Mo40 O156'
_cell_volume   3552.06531435
_cell_formula_units_Z   4
loop_
 _symmetry_equiv_pos_site_id
 _symmetry_equiv_pos_as_xyz
  1  'x, y, z'
loop_
 _atom_site_type_symbol
 _atom_site_label
 _atom_site_symmetry_multiplicity
 _atom_site_fract_x
 _atom_site_fract_y
 _atom_site_fract_z
 _atom_site_occupancy
  Nd  Nd0  1  0.62711050  0.84463850  0.64714200  1
  Nd  Nd1  1  0.91162550  0.94184250  0.41577700  1
  Nd  Nd2  1  0.08837450  0.05815750  0.58422300  1
  Nd  Nd3  1  0.62711050  0.15536150  0.14714200  1
  Nd  Nd4  1  0.58735650  0.85161250  0.08545900  1
  Nd  Nd5  1  0.08837450  0.94184250  0.08422300  1
  Nd  Nd6  1  0.37288950  0.15536150  0.35285800  1
  Nd  Nd7  1  0.41264350  0.85161250  0.41454100  1
  Nd  Nd8  1  0.91162550  0.05815750  0.91577700  1
  Nd  Nd9  1  0.41264350  0.14838750  0.91454100  1
  Nd  Nd10  1  0.58735650  0.14838750  0.58545900  1
  Nd  Nd11  1  0.37288950  0.84463850  0.85285800  1
  Nd  Nd12  1  0.12711050  0.34463850  0.64714200  1
  Nd  Nd13  1  0.41162550  0.44184250  0.41577700  1
  Nd  Nd14  1  0.58837450  0.55815750  0.58422300  1
  Nd  Nd15  1  0.12711050  0.65536150  0.14714200  1
  Nd  Nd16  1  0.08735650  0.35161250  0.08545900  1
  Nd  Nd17  1  0.58837450  0.44184250  0.08422300  1
  Nd  Nd18  1  0.87288950  0.65536150  0.35285800  1
  Nd  Nd19  1  0.91264350  0.35161250  0.41454100  1
  Nd  Nd20  1  0.41162550  0.55815750  0.91577700  1
  Nd  Nd21  1  0.91264350  0.64838750  0.91454100  1
  Nd  Nd22  1  0.08735650  0.64838750  0.58545900  1
  Nd  Nd23  1  0.87288950  0.34463850  0.85285800  1
  Mo  Mo24  1  0.69278800  0.19167500  0.88161800  1
  Mo  Mo25  1  0.18435550  0.99962950  0.36107000  1
  Mo  Mo26  1  0.40499200  0.02086700  0.13837700  1
  Mo  Mo27  1  0.39664500  0.71720500  0.63758600  1
  Mo  Mo28  1  0.39664500  0.28279500  0.13758600  1
  Mo  Mo29  1  0.60335500  0.28279500  0.36241400  1
  Mo  Mo30  1  0.81564450  0.00037050  0.63893000  1
  Mo  Mo31  1  0.58527350  0.65470650  0.16039200  1
  Mo  Mo32  1  0.41472650  0.65470650  0.33960800  1
  Mo  Mo33  1  0.60335500  0.71720500  0.86241400  1
  Mo  Mo34  1  0.40499200  0.97913300  0.63837700  1
  Mo  Mo35  1  0.69278800  0.80832500  0.38161800  1
  Mo  Mo36  1  0.59500800  0.02086700  0.36162300  1
  Mo  Mo37  1  0.41472650  0.34529350  0.83960800  1
  Mo  Mo38  1  0.59500800  0.97913300  0.86162300  1
  Mo  Mo39  1  0.58527350  0.34529350  0.66039200  1
  Mo  Mo40  1  0.30721200  0.19167500  0.61838200  1
  Mo  Mo41  1  0.18435550  0.00037050  0.86107000  1
  Mo  Mo42  1  0.30721200  0.80832500  0.11838200  1
  Mo  Mo43  1  0.81564450  0.99962950  0.13893000  1
  Mo  Mo44  1  0.19278800  0.69167500  0.88161800  1
  Mo  Mo45  1  0.68435550  0.49962950  0.36107000  1
  Mo  Mo46  1  0.90499200  0.52086700  0.13837700  1
  Mo  Mo47  1  0.89664500  0.21720500  0.63758600  1
  Mo  Mo48  1  0.89664500  0.78279500  0.13758600  1
  Mo  Mo49  1  0.10335500  0.78279500  0.36241400  1
  Mo  Mo50  1  0.31564450  0.50037050  0.63893000  1
  Mo  Mo51  1  0.08527350  0.15470650  0.16039200  1
  Mo  Mo52  1  0.91472650  0.15470650  0.33960800  1
  Mo  Mo53  1  0.10335500  0.21720500  0.86241400  1
  Mo  Mo54  1  0.90499200  0.47913300  0.63837700  1
  Mo  Mo55  1  0.19278800  0.30832500  0.38161800  1
  Mo  Mo56  1  0.09500800  0.52086700  0.36162300  1
  Mo  Mo57  1  0.91472650  0.84529350  0.83960800  1
  Mo  Mo58  1  0.09500800  0.47913300  0.86162300  1
  Mo  Mo59  1  0.08527350  0.84529350  0.66039200  1
  Mo  Mo60  1  0.80721200  0.69167500  0.61838200  1
  Mo  Mo61  1  0.68435550  0.50037050  0.86107000  1
  Mo  Mo62  1  0.80721200  0.30832500  0.11838200  1
  Mo  Mo63  1  0.31564450  0.49962950  0.13893000  1
  O  O64  1  0.36174650  0.16032050  0.73485200  1
  O  O65  1  0.27924000  0.06502500  0.88779500  1
  O  O66  1  0.28484350  0.72116950  0.12418300  1
  O  O67  1  0.07967650  0.99791250  0.43490700  1
  O  O68  1  0.87552750  0.99441650  0.26425500  1
  O  O69  1  0.77504100  0.85412300  0.79834900  1
  O  O70  1  0.55517500  0.73874000  0.13378700  1
  O  O71  1  0.39352500  0.82970600  0.03217600  1
  O  O72  1  0.72947800  0.00489200  0.91328500  1
  O  O73  1  0.50000000  0.62583600  0.25000000  1
  O  O74  1  0.45559500  0.91535600  0.56516300  1
  O  O75  1  0.72076000  0.93497500  0.11220500  1
  O  O76  1  0.46689900  0.36026000  0.14458800  1
  O  O77  1  0.45489200  0.39222100  0.94548400  1
  O  O78  1  0.44482500  0.26126000  0.86621300  1
  O  O79  1  0.75096050  0.92312050  0.61129400  1
  O  O80  1  0.23922400  0.20098500  0.91836000  1
  O  O81  1  0.36174650  0.83967950  0.23485200  1
  O  O82  1  0.24903950  0.92312050  0.88870600  1
  O  O83  1  0.72947800  0.99510800  0.41328500  1
  O  O84  1  0.60329600  0.05659000  0.24512000  1
  O  O85  1  0.17784550  0.84441450  0.07771300  1
  O  O86  1  0.92032350  0.00208750  0.56509300  1
  O  O87  1  0.27924000  0.93497500  0.38779500  1
  O  O88  1  0.92032350  0.99791250  0.06509300  1
  O  O89  1  0.12447250  0.00558350  0.73574500  1
  O  O90  1  0.07967650  0.00208750  0.93490700  1
  O  O91  1  0.71515650  0.72116950  0.37581700  1
  O  O92  1  0.72076000  0.06502500  0.61220500  1
  O  O93  1  0.45447150  0.78004350  0.56984300  1
  O  O94  1  0.39147850  0.24956450  0.25591500  1
  O  O95  1  0.71515650  0.27883050  0.87581700  1
  O  O96  1  0.82215450  0.15558550  0.92228700  1
  O  O97  1  0.82215450  0.84441450  0.42228700  1
  O  O98  1  0.28484350  0.27883050  0.62418300  1
  O  O99  1  0.27052200  0.00489200  0.58671500  1
  O  O100  1  0.27052200  0.99510800  0.08671500  1
  O  O101  1  0.39670400  0.94341000  0.75488000  1
  O  O102  1  0.60852150  0.75043550  0.74408500  1
  O  O103  1  0.22495900  0.85412300  0.70165100  1
  O  O104  1  0.48442550  0.05203950  0.64003400  1
  O  O105  1  0.63825350  0.83967950  0.26514800  1
  O  O106  1  0.87552750  0.00558350  0.76425500  1
  O  O107  1  0.39352500  0.17029400  0.53217600  1
  O  O108  1  0.48442550  0.94796050  0.14003400  1
  O  O109  1  0.53310100  0.36026000  0.35541200  1
  O  O110  1  0.77504100  0.14587700  0.29834900  1
  O  O111  1  0.54510800  0.39222100  0.55451600  1
  O  O112  1  0.60852150  0.24956450  0.24408500  1
  O  O113  1  0.54552850  0.21995650  0.43015700  1
  O  O114  1  0.54552850  0.78004350  0.93015700  1
  O  O115  1  0.45447150  0.21995650  0.06984300  1
  O  O116  1  0.51557450  0.05203950  0.85996600  1
  O  O117  1  0.75096050  0.07687950  0.11129400  1
  O  O118  1  0.23922400  0.79901500  0.41836000  1
  O  O119  1  0.45489200  0.60777900  0.44548400  1
  O  O120  1  0.54510800  0.60777900  0.05451600  1
  O  O121  1  0.46689900  0.63974000  0.64458800  1
  O  O122  1  0.51557450  0.94796050  0.35996600  1
  O  O123  1  0.12447250  0.99441650  0.23574500  1
  O  O124  1  0.76077600  0.79901500  0.08164000  1
  O  O125  1  0.39670400  0.05659000  0.25488000  1
  O  O126  1  0.17784550  0.15558550  0.57771300  1
  O  O127  1  0.60647500  0.82970600  0.46782400  1
  O  O128  1  0.60647500  0.17029400  0.96782400  1
  O  O129  1  0.44482500  0.73874000  0.36621300  1
  O  O130  1  0.63825350  0.16032050  0.76514800  1
  O  O131  1  0.24903950  0.07687950  0.38870600  1
  O  O132  1  0.54440500  0.91535600  0.93483700  1
  O  O133  1  0.39147850  0.75043550  0.75591500  1
  O  O134  1  0.22495900  0.14587700  0.20165100  1
  O  O135  1  0.60329600  0.94341000  0.74512000  1
  O  O136  1  0.53310100  0.63974000  0.85541200  1
  O  O137  1  0.76077600  0.20098500  0.58164000  1
  O  O138  1  0.50000000  0.37416400  0.75000000  1
  O  O139  1  0.45559500  0.08464400  0.06516300  1
  O  O140  1  0.55517500  0.26126000  0.63378700  1
  O  O141  1  0.54440500  0.08464400  0.43483700  1
  O  O142  1  0.86174650  0.66032050  0.73485200  1
  O  O143  1  0.77924000  0.56502500  0.88779500  1
  O  O144  1  0.78484350  0.22116950  0.12418300  1
  O  O145  1  0.57967650  0.49791250  0.43490700  1
  O  O146  1  0.37552750  0.49441650  0.26425500  1
  O  O147  1  0.27504100  0.35412300  0.79834900  1
  O  O148  1  0.05517500  0.23874000  0.13378700  1
  O  O149  1  0.89352500  0.32970600  0.03217600  1
  O  O150  1  0.22947800  0.50489200  0.91328500  1
  O  O151  1  0.00000000  0.12583600  0.25000000  1
  O  O152  1  0.95559500  0.41535600  0.56516300  1
  O  O153  1  0.22076000  0.43497500  0.11220500  1
  O  O154  1  0.96689900  0.86026000  0.14458800  1
  O  O155  1  0.95489200  0.89222100  0.94548400  1
  O  O156  1  0.94482500  0.76126000  0.86621300  1
  O  O157  1  0.25096050  0.42312050  0.61129400  1
  O  O158  1  0.73922400  0.70098500  0.91836000  1
  O  O159  1  0.86174650  0.33967950  0.23485200  1
  O  O160  1  0.74903950  0.42312050  0.88870600  1
  O  O161  1  0.22947800  0.49510800  0.41328500  1
  O  O162  1  0.10329600  0.55659000  0.24512000  1
  O  O163  1  0.67784550  0.34441450  0.07771300  1
  O  O164  1  0.42032350  0.50208750  0.56509300  1
  O  O165  1  0.77924000  0.43497500  0.38779500  1
  O  O166  1  0.42032350  0.49791250  0.06509300  1
  O  O167  1  0.62447250  0.50558350  0.73574500  1
  O  O168  1  0.57967650  0.50208750  0.93490700  1
  O  O169  1  0.21515650  0.22116950  0.37581700  1
  O  O170  1  0.22076000  0.56502500  0.61220500  1
  O  O171  1  0.95447150  0.28004350  0.56984300  1
  O  O172  1  0.89147850  0.74956450  0.25591500  1
  O  O173  1  0.21515650  0.77883050  0.87581700  1
  O  O174  1  0.32215450  0.65558550  0.92228700  1
  O  O175  1  0.32215450  0.34441450  0.42228700  1
  O  O176  1  0.78484350  0.77883050  0.62418300  1
  O  O177  1  0.77052200  0.50489200  0.58671500  1
  O  O178  1  0.77052200  0.49510800  0.08671500  1
  O  O179  1  0.89670400  0.44341000  0.75488000  1
  O  O180  1  0.10852150  0.25043550  0.74408500  1
  O  O181  1  0.72495900  0.35412300  0.70165100  1
  O  O182  1  0.98442550  0.55203950  0.64003400  1
  O  O183  1  0.13825350  0.33967950  0.26514800  1
  O  O184  1  0.37552750  0.50558350  0.76425500  1
  O  O185  1  0.89352500  0.67029400  0.53217600  1
  O  O186  1  0.98442550  0.44796050  0.14003400  1
  O  O187  1  0.03310100  0.86026000  0.35541200  1
  O  O188  1  0.27504100  0.64587700  0.29834900  1
  O  O189  1  0.04510800  0.89222100  0.55451600  1
  O  O190  1  0.10852150  0.74956450  0.24408500  1
  O  O191  1  0.04552850  0.71995650  0.43015700  1
  O  O192  1  0.04552850  0.28004350  0.93015700  1
  O  O193  1  0.95447150  0.71995650  0.06984300  1
  O  O194  1  0.01557450  0.55203950  0.85996600  1
  O  O195  1  0.25096050  0.57687950  0.11129400  1
  O  O196  1  0.73922400  0.29901500  0.41836000  1
  O  O197  1  0.95489200  0.10777900  0.44548400  1
  O  O198  1  0.04510800  0.10777900  0.05451600  1
  O  O199  1  0.96689900  0.13974000  0.64458800  1
  O  O200  1  0.01557450  0.44796050  0.35996600  1
  O  O201  1  0.62447250  0.49441650  0.23574500  1
  O  O202  1  0.26077600  0.29901500  0.08164000  1
  O  O203  1  0.89670400  0.55659000  0.25488000  1
  O  O204  1  0.67784550  0.65558550  0.57771300  1
  O  O205  1  0.10647500  0.32970600  0.46782400  1
  O  O206  1  0.10647500  0.67029400  0.96782400  1
  O  O207  1  0.94482500  0.23874000  0.36621300  1
  O  O208  1  0.13825350  0.66032050  0.76514800  1
  O  O209  1  0.74903950  0.57687950  0.38870600  1
  O  O210  1  0.04440500  0.41535600  0.93483700  1
  O  O211  1  0.89147850  0.25043550  0.75591500  1
  O  O212  1  0.72495900  0.64587700  0.20165100  1
  O  O213  1  0.10329600  0.44341000  0.74512000  1
  O  O214  1  0.03310100  0.13974000  0.85541200  1
  O  O215  1  0.26077600  0.70098500  0.58164000  1
  O  O216  1  0.00000000  0.87416400  0.75000000  1
  O  O217  1  0.95559500  0.58464400  0.06516300  1
  O  O218  1  0.05517500  0.76126000  0.63378700  1
  O  O219  1  0.04440500  0.58464400  0.43483700  1
