# generated using pymatgen
data_MoCl5
_symmetry_space_group_name_H-M   'P 1'
_cell_length_a   18.17071000
_cell_length_b   18.20152200
_cell_length_c   6.34028017
_cell_angle_alpha   90.00000000
_cell_angle_beta   95.77072316
_cell_angle_gamma   90.00000000
_symmetry_Int_Tables_number   1
_chemical_formula_structural   MoCl5
_chemical_formula_sum   'Mo12 Cl60'
_cell_volume   2086.32299634
_cell_formula_units_Z   12
loop_
 _symmetry_equiv_pos_site_id
 _symmetry_equiv_pos_as_xyz
  1  'x, y, z'
loop_
 _atom_site_type_symbol
 _atom_site_label
 _atom_site_symmetry_multiplicity
 _atom_site_fract_x
 _atom_site_fract_y
 _atom_site_fract_z
 _atom_site_occupancy
  Mo  Mo0  1  0.50000000  0.60724100  0.00000000  1
  Mo  Mo1  1  0.50000000  0.39275900  0.00000000  1
  Mo  Mo2  1  0.66655900  0.89299300  0.56630200  1
  Mo  Mo3  1  0.33344100  0.10700700  0.43369800  1
  Mo  Mo4  1  0.33344100  0.89299300  0.43369800  1
  Mo  Mo5  1  0.66655900  0.10700700  0.56630200  1
  Mo  Mo6  1  0.00000000  0.10724100  0.00000000  1
  Mo  Mo7  1  0.00000000  0.89275900  0.00000000  1
  Mo  Mo8  1  0.16655900  0.39299300  0.56630200  1
  Mo  Mo9  1  0.83344100  0.60700700  0.43369800  1
  Mo  Mo10  1  0.83344100  0.39299300  0.43369800  1
  Mo  Mo11  1  0.16655900  0.60700700  0.56630200  1
  Cl  Cl12  1  0.41218900  0.90525100  0.17612000  1
  Cl  Cl13  1  0.26292500  0.00000000  0.25057900  1
  Cl  Cl14  1  0.57350950  0.40548550  0.31303700  1
  Cl  Cl15  1  0.59574900  0.00000000  0.38359800  1
  Cl  Cl16  1  0.40618700  0.19007500  0.62422600  1
  Cl  Cl17  1  0.73707500  0.00000000  0.74942100  1
  Cl  Cl18  1  0.25459600  0.09410900  0.69096700  1
  Cl  Cl19  1  0.07311900  0.00000000  0.87168800  1
  Cl  Cl20  1  0.74540400  0.09410900  0.30903300  1
  Cl  Cl21  1  0.40618700  0.80992500  0.62422600  1
  Cl  Cl22  1  0.42341000  0.31043000  0.13723700  1
  Cl  Cl23  1  0.42649050  0.40548550  0.68696300  1
  Cl  Cl24  1  0.74036800  0.81041700  0.75592300  1
  Cl  Cl25  1  0.42649050  0.59451450  0.68696300  1
  Cl  Cl26  1  0.59381300  0.19007500  0.37577400  1
  Cl  Cl27  1  0.59381300  0.80992500  0.37577400  1
  Cl  Cl28  1  0.74036800  0.18958300  0.75592300  1
  Cl  Cl29  1  0.57350950  0.59451450  0.31303700  1
  Cl  Cl30  1  0.74540400  0.90589100  0.30903300  1
  Cl  Cl31  1  0.57659000  0.68957000  0.86276300  1
  Cl  Cl32  1  0.58781100  0.09474900  0.82388000  1
  Cl  Cl33  1  0.25459600  0.90589100  0.69096700  1
  Cl  Cl34  1  0.25963200  0.18958300  0.24407700  1
  Cl  Cl35  1  0.42341000  0.68957000  0.13723700  1
  Cl  Cl36  1  0.25963200  0.81041700  0.24407700  1
  Cl  Cl37  1  0.40425100  0.00000000  0.61640200  1
  Cl  Cl38  1  0.41218900  0.09474900  0.17612000  1
  Cl  Cl39  1  0.57659000  0.31043000  0.86276300  1
  Cl  Cl40  1  0.92688100  0.00000000  0.12831200  1
  Cl  Cl41  1  0.58781100  0.90525100  0.82388000  1
  Cl  Cl42  1  0.91218900  0.40525100  0.17612000  1
  Cl  Cl43  1  0.76292500  0.50000000  0.25057900  1
  Cl  Cl44  1  0.07350950  0.90548550  0.31303700  1
  Cl  Cl45  1  0.09574900  0.50000000  0.38359800  1
  Cl  Cl46  1  0.90618700  0.69007500  0.62422600  1
  Cl  Cl47  1  0.23707500  0.50000000  0.74942100  1
  Cl  Cl48  1  0.75459600  0.59410900  0.69096700  1
  Cl  Cl49  1  0.57311900  0.50000000  0.87168800  1
  Cl  Cl50  1  0.24540400  0.59410900  0.30903300  1
  Cl  Cl51  1  0.90618700  0.30992500  0.62422600  1
  Cl  Cl52  1  0.92341000  0.81043000  0.13723700  1
  Cl  Cl53  1  0.92649050  0.90548550  0.68696300  1
  Cl  Cl54  1  0.24036800  0.31041700  0.75592300  1
  Cl  Cl55  1  0.92649050  0.09451450  0.68696300  1
  Cl  Cl56  1  0.09381300  0.69007500  0.37577400  1
  Cl  Cl57  1  0.09381300  0.30992500  0.37577400  1
  Cl  Cl58  1  0.24036800  0.68958300  0.75592300  1
  Cl  Cl59  1  0.07350950  0.09451450  0.31303700  1
  Cl  Cl60  1  0.24540400  0.40589100  0.30903300  1
  Cl  Cl61  1  0.07659000  0.18957000  0.86276300  1
  Cl  Cl62  1  0.08781100  0.59474900  0.82388000  1
  Cl  Cl63  1  0.75459600  0.40589100  0.69096700  1
  Cl  Cl64  1  0.75963200  0.68958300  0.24407700  1
  Cl  Cl65  1  0.92341000  0.18957000  0.13723700  1
  Cl  Cl66  1  0.75963200  0.31041700  0.24407700  1
  Cl  Cl67  1  0.90425100  0.50000000  0.61640200  1
  Cl  Cl68  1  0.91218900  0.59474900  0.17612000  1
  Cl  Cl69  1  0.07659000  0.81043000  0.86276300  1
  Cl  Cl70  1  0.42688100  0.50000000  0.12831200  1
  Cl  Cl71  1  0.08781100  0.40525100  0.82388000  1
