# generated using pymatgen
data_BaFeCuF7
_symmetry_space_group_name_H-M   'P 1'
_cell_length_a   10.85638200
_cell_length_b   10.19391800
_cell_length_c   5.73360059
_cell_angle_alpha   90.00000000
_cell_angle_beta   118.81110589
_cell_angle_gamma   90.00000000
_symmetry_Int_Tables_number   1
_chemical_formula_structural   BaFeCuF7
_chemical_formula_sum   'Ba4 Fe4 Cu4 F28'
_cell_volume   555.98557138
_cell_formula_units_Z   4
loop_
 _symmetry_equiv_pos_site_id
 _symmetry_equiv_pos_as_xyz
  1  'x, y, z'
loop_
 _atom_site_type_symbol
 _atom_site_label
 _atom_site_symmetry_multiplicity
 _atom_site_fract_x
 _atom_site_fract_y
 _atom_site_fract_z
 _atom_site_occupancy
  Ba  Ba0  1  0.00660200  0.31861300  0.74129800  1
  Ba  Ba1  1  0.00660200  0.68138700  0.24129800  1
  Ba  Ba2  1  0.50660200  0.81861300  0.74129800  1
  Ba  Ba3  1  0.50660200  0.18138700  0.24129800  1
  Fe  Fe4  1  0.69077550  0.39005350  0.88055100  1
  Fe  Fe5  1  0.69077550  0.60994650  0.38055100  1
  Fe  Fe6  1  0.19077550  0.89005350  0.88055100  1
  Fe  Fe7  1  0.19077550  0.10994650  0.38055100  1
  Cu  Cu8  1  0.31545250  0.59809750  0.11365400  1
  Cu  Cu9  1  0.31545250  0.40190250  0.61365400  1
  Cu  Cu10  1  0.81545250  0.09809750  0.11365400  1
  Cu  Cu11  1  0.81545250  0.90190250  0.61365400  1
  F  F12  1  0.24280800  0.27343600  0.26192300  1
  F  F13  1  0.99760300  0.81631800  0.72232500  1
  F  F14  1  0.87232400  0.54276700  0.47860000  1
  F  F15  1  0.37200900  0.42949700  0.98926800  1
  F  F16  1  0.12952950  0.54424350  0.00810700  1
  F  F17  1  0.24280800  0.72656400  0.76192300  1
  F  F18  1  0.87232400  0.45723300  0.97860000  1
  F  F19  1  0.63066500  0.54644800  0.00543000  1
  F  F20  1  0.12952950  0.45575650  0.50810700  1
  F  F21  1  0.73943100  0.69723000  0.71224500  1
  F  F22  1  0.37200900  0.57050300  0.48926800  1
  F  F23  1  0.73943100  0.30277000  0.21224500  1
  F  F24  1  0.63066500  0.45355200  0.50543000  1
  F  F25  1  0.99760300  0.18368200  0.22232500  1
  F  F26  1  0.74280800  0.77343600  0.26192300  1
  F  F27  1  0.49760300  0.31631800  0.72232500  1
  F  F28  1  0.37232400  0.04276700  0.47860000  1
  F  F29  1  0.87200900  0.92949700  0.98926800  1
  F  F30  1  0.62952950  0.04424350  0.00810700  1
  F  F31  1  0.74280800  0.22656400  0.76192300  1
  F  F32  1  0.37232400  0.95723300  0.97860000  1
  F  F33  1  0.13066500  0.04644800  0.00543000  1
  F  F34  1  0.62952950  0.95575650  0.50810700  1
  F  F35  1  0.23943100  0.19723000  0.71224500  1
  F  F36  1  0.87200900  0.07050300  0.48926800  1
  F  F37  1  0.23943100  0.80277000  0.21224500  1
  F  F38  1  0.13066500  0.95355200  0.50543000  1
  F  F39  1  0.49760300  0.68368200  0.22232500  1
