# generated using pymatgen
data_Na3VSO3
_symmetry_space_group_name_H-M   'P 1'
_cell_length_a   8.66479869
_cell_length_b   8.66479869
_cell_length_c   12.37648308
_cell_angle_alpha   90.00000000
_cell_angle_beta   90.00000000
_cell_angle_gamma   120.00000000
_symmetry_Int_Tables_number   1
_chemical_formula_structural   Na3VSO3
_chemical_formula_sum   'Na18 V6 S6 O18'
_cell_volume   804.72008009
_cell_formula_units_Z   6
loop_
 _symmetry_equiv_pos_site_id
 _symmetry_equiv_pos_as_xyz
  1  'x, y, z'
loop_
 _atom_site_type_symbol
 _atom_site_label
 _atom_site_symmetry_multiplicity
 _atom_site_fract_x
 _atom_site_fract_y
 _atom_site_fract_z
 _atom_site_occupancy
  Na  Na0  1  0.64063533  0.97210567  0.06588967  1
  Na  Na1  1  0.36122767  0.02603133  0.23255633  1
  Na  Na2  1  0.97396867  0.33519633  0.23255633  1
  Na  Na3  1  0.33147033  0.35936467  0.06588967  1
  Na  Na4  1  0.02789433  0.66852967  0.06588967  1
  Na  Na5  1  0.66480367  0.63877233  0.23255633  1
  Na  Na6  1  0.30730200  0.30543900  0.39922300  1
  Na  Na7  1  0.02789433  0.35936467  0.56588967  1
  Na  Na8  1  0.64063533  0.66852967  0.56588967  1
  Na  Na9  1  0.99813700  0.69269800  0.39922300  1
  Na  Na10  1  0.69456100  0.00186300  0.39922300  1
  Na  Na11  1  0.33147033  0.97210567  0.56588967  1
  Na  Na12  1  0.97396867  0.63877233  0.73255633  1
  Na  Na13  1  0.69456100  0.69269800  0.89922300  1
  Na  Na14  1  0.30730200  0.00186300  0.89922300  1
  Na  Na15  1  0.66480367  0.02603133  0.73255633  1
  Na  Na16  1  0.36122767  0.33519633  0.73255633  1
  Na  Na17  1  0.99813700  0.30543900  0.89922300  1
  V  V18  1  0.33333333  0.66666667  0.34829567  1
  V  V19  1  0.33333333  0.66666667  0.84829567  1
  V  V20  1  0.00000000  0.00000000  0.68162900  1
  V  V21  1  0.00000000  0.00000000  0.18162900  1
  V  V22  1  0.66666667  0.33333333  0.01496233  1
  V  V23  1  0.66666667  0.33333333  0.51496233  1
  S  S24  1  0.33333333  0.66666667  0.16652567  1
  S  S25  1  0.33333333  0.66666667  0.66652567  1
  S  S26  1  0.00000000  0.00000000  0.49985900  1
  S  S27  1  0.00000000  0.00000000  0.99985900  1
  S  S28  1  0.66666667  0.33333333  0.83319233  1
  S  S29  1  0.66666667  0.33333333  0.33319233  1
  O  O30  1  0.14562633  0.47552267  0.39167767  1
  O  O31  1  0.32989633  0.85437367  0.39167767  1
  O  O32  1  0.52447733  0.67010367  0.39167767  1
  O  O33  1  0.32989633  0.47552267  0.89167767  1
  O  O34  1  0.52447733  0.85437367  0.89167767  1
  O  O35  1  0.14562633  0.67010367  0.89167767  1
  O  O36  1  0.81229300  0.80885600  0.72501100  1
  O  O37  1  0.99656300  0.18770700  0.72501100  1
  O  O38  1  0.19114400  0.00343700  0.72501100  1
  O  O39  1  0.99656300  0.80885600  0.22501100  1
  O  O40  1  0.19114400  0.18770700  0.22501100  1
  O  O41  1  0.81229300  0.00343700  0.22501100  1
  O  O42  1  0.47895967  0.14218933  0.05834433  1
  O  O43  1  0.66322967  0.52104033  0.05834433  1
  O  O44  1  0.85781067  0.33677033  0.05834433  1
  O  O45  1  0.66322967  0.14218933  0.55834433  1
  O  O46  1  0.85781067  0.52104033  0.55834433  1
  O  O47  1  0.47895967  0.33677033  0.55834433  1
