# generated using pymatgen
data_NaFe3(PO4)3
_symmetry_space_group_name_H-M   'P 1'
_cell_length_a   11.73955600
_cell_length_b   12.45754400
_cell_length_c   6.55128317
_cell_angle_alpha   90.00000000
_cell_angle_beta   114.00911492
_cell_angle_gamma   90.00000000
_symmetry_Int_Tables_number   1
_chemical_formula_structural   NaFe3(PO4)3
_chemical_formula_sum   'Na4 Fe12 P12 O48'
_cell_volume   875.20515778
_cell_formula_units_Z   4
loop_
 _symmetry_equiv_pos_site_id
 _symmetry_equiv_pos_as_xyz
  1  'x, y, z'
loop_
 _atom_site_type_symbol
 _atom_site_label
 _atom_site_symmetry_multiplicity
 _atom_site_fract_x
 _atom_site_fract_y
 _atom_site_fract_z
 _atom_site_occupancy
  Na  Na0  1  0.50000000  0.48059800  0.25000000  1
  Na  Na1  1  0.50000000  0.51940200  0.75000000  1
  Na  Na2  1  0.00000000  0.98059800  0.25000000  1
  Na  Na3  1  0.00000000  0.01940200  0.75000000  1
  Fe  Fe4  1  0.21669150  0.16249350  0.12184200  1
  Fe  Fe5  1  0.78330850  0.83750650  0.87815800  1
  Fe  Fe6  1  0.50000000  0.21731500  0.75000000  1
  Fe  Fe7  1  0.78330850  0.16249350  0.37815800  1
  Fe  Fe8  1  0.50000000  0.78268500  0.25000000  1
  Fe  Fe9  1  0.21669150  0.83750650  0.62184200  1
  Fe  Fe10  1  0.71669150  0.66249350  0.12184200  1
  Fe  Fe11  1  0.28330850  0.33750650  0.87815800  1
  Fe  Fe12  1  0.00000000  0.71731500  0.75000000  1
  Fe  Fe13  1  0.28330850  0.66249350  0.37815800  1
  Fe  Fe14  1  0.00000000  0.28268500  0.25000000  1
  Fe  Fe15  1  0.71669150  0.33750650  0.62184200  1
  P  P16  1  0.22719400  0.88875100  0.11202400  1
  P  P17  1  0.22719400  0.11124900  0.61202400  1
  P  P18  1  0.77280600  0.11124900  0.88797600  1
  P  P19  1  0.77280600  0.88875100  0.38797600  1
  P  P20  1  0.50000000  0.81048200  0.75000000  1
  P  P21  1  0.50000000  0.18951800  0.25000000  1
  P  P22  1  0.72719400  0.38875100  0.11202400  1
  P  P23  1  0.72719400  0.61124900  0.61202400  1
  P  P24  1  0.27280600  0.61124900  0.88797600  1
  P  P25  1  0.27280600  0.38875100  0.38797600  1
  P  P26  1  0.00000000  0.31048200  0.75000000  1
  P  P27  1  0.00000000  0.68951800  0.25000000  1
  O  O28  1  0.60929400  0.87919300  0.76240900  1
  O  O29  1  0.63441400  0.89033500  0.34705000  1
  O  O30  1  0.36558600  0.10966500  0.65295000  1
  O  O31  1  0.35171550  0.66693450  0.12042300  1
  O  O32  1  0.64828450  0.66693450  0.37957700  1
  O  O33  1  0.63441400  0.10966500  0.84705000  1
  O  O34  1  0.39070600  0.12080700  0.23759100  1
  O  O35  1  0.64828450  0.33306550  0.87957700  1
  O  O36  1  0.83389850  0.99987950  0.90017000  1
  O  O37  1  0.53848300  0.26434100  0.46676200  1
  O  O38  1  0.46151700  0.26434100  0.03323800  1
  O  O39  1  0.46151700  0.73565900  0.53323800  1
  O  O40  1  0.36558600  0.89033500  0.15295000  1
  O  O41  1  0.83389850  0.00012050  0.40017000  1
  O  O42  1  0.16610150  0.99987950  0.59983000  1
  O  O43  1  0.39070600  0.87919300  0.73759100  1
  O  O44  1  0.78810550  0.17729250  0.69885900  1
  O  O45  1  0.60929400  0.12080700  0.26240900  1
  O  O46  1  0.53848300  0.73565900  0.96676200  1
  O  O47  1  0.78810550  0.82270750  0.19885900  1
  O  O48  1  0.16610150  0.00012050  0.09983000  1
  O  O49  1  0.35171550  0.33306550  0.62042300  1
  O  O50  1  0.21189450  0.82270750  0.30114100  1
  O  O51  1  0.21189450  0.17729250  0.80114100  1
  O  O52  1  0.10929400  0.37919300  0.76240900  1
  O  O53  1  0.13441400  0.39033500  0.34705000  1
  O  O54  1  0.86558600  0.60966500  0.65295000  1
  O  O55  1  0.85171550  0.16693450  0.12042300  1
  O  O56  1  0.14828450  0.16693450  0.37957700  1
  O  O57  1  0.13441400  0.60966500  0.84705000  1
  O  O58  1  0.89070600  0.62080700  0.23759100  1
  O  O59  1  0.14828450  0.83306550  0.87957700  1
  O  O60  1  0.33389850  0.49987950  0.90017000  1
  O  O61  1  0.03848300  0.76434100  0.46676200  1
  O  O62  1  0.96151700  0.76434100  0.03323800  1
  O  O63  1  0.96151700  0.23565900  0.53323800  1
  O  O64  1  0.86558600  0.39033500  0.15295000  1
  O  O65  1  0.33389850  0.50012050  0.40017000  1
  O  O66  1  0.66610150  0.49987950  0.59983000  1
  O  O67  1  0.89070600  0.37919300  0.73759100  1
  O  O68  1  0.28810550  0.67729250  0.69885900  1
  O  O69  1  0.10929400  0.62080700  0.26240900  1
  O  O70  1  0.03848300  0.23565900  0.96676200  1
  O  O71  1  0.28810550  0.32270750  0.19885900  1
  O  O72  1  0.66610150  0.50012050  0.09983000  1
  O  O73  1  0.85171550  0.83306550  0.62042300  1
  O  O74  1  0.71189450  0.32270750  0.30114100  1
  O  O75  1  0.71189450  0.67729250  0.80114100  1
