# generated using pymatgen
data_LiNiP2O7
_symmetry_space_group_name_H-M   'P 1'
_cell_length_a   15.22803000
_cell_length_b   5.04720800
_cell_length_c   8.60428443
_cell_angle_alpha   90.00000000
_cell_angle_beta   111.07961711
_cell_angle_gamma   90.00000000
_symmetry_Int_Tables_number   1
_chemical_formula_structural   LiNiP2O7
_chemical_formula_sum   'Li4 Ni4 P8 O28'
_cell_volume   617.06268436
_cell_formula_units_Z   4
loop_
 _symmetry_equiv_pos_site_id
 _symmetry_equiv_pos_as_xyz
  1  'x, y, z'
loop_
 _atom_site_type_symbol
 _atom_site_label
 _atom_site_symmetry_multiplicity
 _atom_site_fract_x
 _atom_site_fract_y
 _atom_site_fract_z
 _atom_site_occupancy
  Li  Li0  1  0.30150650  0.82780250  0.45942800  1
  Li  Li1  1  0.30150650  0.17219750  0.95942800  1
  Li  Li2  1  0.80150650  0.32780250  0.45942800  1
  Li  Li3  1  0.80150650  0.67219750  0.95942800  1
  Ni  Ni4  1  0.00105950  0.48289250  0.50436600  1
  Ni  Ni5  1  0.00105950  0.51710750  0.00436600  1
  Ni  Ni6  1  0.50105950  0.98289250  0.50436600  1
  Ni  Ni7  1  0.50105950  0.01710750  0.00436600  1
  P  P8  1  0.09940550  0.84502850  0.80507400  1
  P  P9  1  0.40284900  0.35259600  0.68933200  1
  P  P10  1  0.40284900  0.64740400  0.18933200  1
  P  P11  1  0.09940550  0.15497150  0.30507400  1
  P  P12  1  0.59940550  0.34502850  0.80507400  1
  P  P13  1  0.90284900  0.85259600  0.68933200  1
  P  P14  1  0.90284900  0.14740400  0.18933200  1
  P  P15  1  0.59940550  0.65497150  0.30507400  1
  O  O16  1  0.18041650  0.02866350  0.86008300  1
  O  O17  1  0.09349600  0.66288900  0.94710500  1
  O  O18  1  0.32373600  0.45997200  0.11744000  1
  O  O19  1  0.40719050  0.87094250  0.06488300  1
  O  O20  1  0.00151700  0.98439300  0.24046000  1
  O  O21  1  0.40336700  0.78453400  0.35256700  1
  O  O22  1  0.40719050  0.12905750  0.56488300  1
  O  O23  1  0.09682950  0.32944850  0.15515300  1
  O  O24  1  0.32373600  0.54002800  0.61744000  1
  O  O25  1  0.18041650  0.97133650  0.36008300  1
  O  O26  1  0.40336700  0.21546600  0.85256700  1
  O  O27  1  0.09349600  0.33711100  0.44710500  1
  O  O28  1  0.09682950  0.67055150  0.65515300  1
  O  O29  1  0.00151700  0.01560700  0.74046000  1
  O  O30  1  0.68041650  0.52866350  0.86008300  1
  O  O31  1  0.59349600  0.16288900  0.94710500  1
  O  O32  1  0.82373600  0.95997200  0.11744000  1
  O  O33  1  0.90719050  0.37094250  0.06488300  1
  O  O34  1  0.50151700  0.48439300  0.24046000  1
  O  O35  1  0.90336700  0.28453400  0.35256700  1
  O  O36  1  0.90719050  0.62905750  0.56488300  1
  O  O37  1  0.59682950  0.82944850  0.15515300  1
  O  O38  1  0.82373600  0.04002800  0.61744000  1
  O  O39  1  0.68041650  0.47133650  0.36008300  1
  O  O40  1  0.90336700  0.71546600  0.85256700  1
  O  O41  1  0.59349600  0.83711100  0.44710500  1
  O  O42  1  0.59682950  0.17055150  0.65515300  1
  O  O43  1  0.50151700  0.51560700  0.74046000  1
