# generated using pymatgen
data_Np2O5
_symmetry_space_group_name_H-M   'P 1'
_cell_length_a   9.27103800
_cell_length_b   6.67411600
_cell_length_c   8.03440539
_cell_angle_alpha   90.00000000
_cell_angle_beta   115.57729897
_cell_angle_gamma   90.00000000
_symmetry_Int_Tables_number   1
_chemical_formula_structural   Np2O5
_chemical_formula_sum   'Np8 O20'
_cell_volume   448.41914737
_cell_formula_units_Z   4
loop_
 _symmetry_equiv_pos_site_id
 _symmetry_equiv_pos_as_xyz
  1  'x, y, z'
loop_
 _atom_site_type_symbol
 _atom_site_label
 _atom_site_symmetry_multiplicity
 _atom_site_fract_x
 _atom_site_fract_y
 _atom_site_fract_z
 _atom_site_occupancy
  Np  Np0  1  0.00000000  0.03671600  0.25000000  1
  Np  Np1  1  0.00000000  0.50000000  0.00000000  1
  Np  Np2  1  0.00000000  0.50000000  0.50000000  1
  Np  Np3  1  0.00000000  0.96328400  0.75000000  1
  Np  Np4  1  0.50000000  0.53671600  0.25000000  1
  Np  Np5  1  0.50000000  0.00000000  0.00000000  1
  Np  Np6  1  0.50000000  0.00000000  0.50000000  1
  Np  Np7  1  0.50000000  0.46328400  0.75000000  1
  O  O8  1  0.00000000  0.60437100  0.75000000  1
  O  O9  1  0.27052300  0.46899300  0.63795200  1
  O  O10  1  0.72947700  0.53100700  0.36204800  1
  O  O11  1  0.27052300  0.53100700  0.13795200  1
  O  O12  1  0.00000000  0.39562900  0.25000000  1
  O  O13  1  0.72947700  0.46899300  0.86204800  1
  O  O14  1  0.99101650  0.79881550  0.03753700  1
  O  O15  1  0.99101650  0.20118450  0.53753700  1
  O  O16  1  0.00898350  0.20118450  0.96246300  1
  O  O17  1  0.00898350  0.79881550  0.46246300  1
  O  O18  1  0.50000000  0.10437100  0.75000000  1
  O  O19  1  0.77052300  0.96899300  0.63795200  1
  O  O20  1  0.22947700  0.03100700  0.36204800  1
  O  O21  1  0.77052300  0.03100700  0.13795200  1
  O  O22  1  0.50000000  0.89562900  0.25000000  1
  O  O23  1  0.22947700  0.96899300  0.86204800  1
  O  O24  1  0.49101650  0.29881550  0.03753700  1
  O  O25  1  0.49101650  0.70118450  0.53753700  1
  O  O26  1  0.50898350  0.70118450  0.96246300  1
  O  O27  1  0.50898350  0.29881550  0.46246300  1
