# generated using pymatgen
data_Ba5Al2Ge7
_symmetry_space_group_name_H-M   'P 1'
_cell_length_a   8.74240600
_cell_length_b   10.43779800
_cell_length_c   18.68978762
_cell_angle_alpha   90.00000000
_cell_angle_beta   103.49121580
_cell_angle_gamma   90.00000000
_symmetry_Int_Tables_number   1
_chemical_formula_structural   Ba5Al2Ge7
_chemical_formula_sum   'Ba20 Al8 Ge28'
_cell_volume   1658.40928701
_cell_formula_units_Z   4
loop_
 _symmetry_equiv_pos_site_id
 _symmetry_equiv_pos_as_xyz
  1  'x, y, z'
loop_
 _atom_site_type_symbol
 _atom_site_label
 _atom_site_symmetry_multiplicity
 _atom_site_fract_x
 _atom_site_fract_y
 _atom_site_fract_z
 _atom_site_occupancy
  Ba  Ba0  1  0.50000000  0.74910600  0.00000000  1
  Ba  Ba1  1  0.34645100  0.22383500  0.21036000  1
  Ba  Ba2  1  0.50000000  0.20932900  0.50000000  1
  Ba  Ba3  1  0.76118800  0.00000000  0.35538000  1
  Ba  Ba4  1  0.23881200  0.00000000  0.64462000  1
  Ba  Ba5  1  0.34645100  0.77616500  0.21036000  1
  Ba  Ba6  1  0.50000000  0.25089400  0.00000000  1
  Ba  Ba7  1  0.50000000  0.79067100  0.50000000  1
  Ba  Ba8  1  0.65354900  0.22383500  0.78964000  1
  Ba  Ba9  1  0.65354900  0.77616500  0.78964000  1
  Ba  Ba10  1  0.00000000  0.24910600  0.00000000  1
  Ba  Ba11  1  0.84645100  0.72383500  0.21036000  1
  Ba  Ba12  1  0.00000000  0.70932900  0.50000000  1
  Ba  Ba13  1  0.26118800  0.50000000  0.35538000  1
  Ba  Ba14  1  0.73881200  0.50000000  0.64462000  1
  Ba  Ba15  1  0.84645100  0.27616500  0.21036000  1
  Ba  Ba16  1  0.00000000  0.75089400  0.00000000  1
  Ba  Ba17  1  0.00000000  0.29067100  0.50000000  1
  Ba  Ba18  1  0.15354900  0.72383500  0.78964000  1
  Ba  Ba19  1  0.15354900  0.27616500  0.78964000  1
  Al  Al20  1  0.22494400  0.00000000  0.92858200  1
  Al  Al21  1  0.92456900  0.00000000  0.73327400  1
  Al  Al22  1  0.07543100  0.00000000  0.26672600  1
  Al  Al23  1  0.77505600  0.00000000  0.07141800  1
  Al  Al24  1  0.72494400  0.50000000  0.92858200  1
  Al  Al25  1  0.42456900  0.50000000  0.73327400  1
  Al  Al26  1  0.57543100  0.50000000  0.26672600  1
  Al  Al27  1  0.27505600  0.50000000  0.07141800  1
  Ge  Ge28  1  0.36191800  0.00000000  0.35597500  1
  Ge  Ge29  1  0.29715700  0.00000000  0.06701400  1
  Ge  Ge30  1  0.93908500  0.00000000  0.86820300  1
  Ge  Ge31  1  0.63808200  0.00000000  0.64402500  1
  Ge  Ge32  1  0.41328900  0.00000000  0.84593800  1
  Ge  Ge33  1  0.06091500  0.00000000  0.13179700  1
  Ge  Ge34  1  0.81965800  0.00000000  0.54666800  1
  Ge  Ge35  1  0.64769650  0.31275750  0.35762800  1
  Ge  Ge36  1  0.35230350  0.68724250  0.64237200  1
  Ge  Ge37  1  0.18034200  0.00000000  0.45333200  1
  Ge  Ge38  1  0.64769650  0.68724250  0.35762800  1
  Ge  Ge39  1  0.35230350  0.31275750  0.64237200  1
  Ge  Ge40  1  0.70284300  0.00000000  0.93298600  1
  Ge  Ge41  1  0.58671100  0.00000000  0.15406200  1
  Ge  Ge42  1  0.86191800  0.50000000  0.35597500  1
  Ge  Ge43  1  0.79715700  0.50000000  0.06701400  1
  Ge  Ge44  1  0.43908500  0.50000000  0.86820300  1
  Ge  Ge45  1  0.13808200  0.50000000  0.64402500  1
  Ge  Ge46  1  0.91328900  0.50000000  0.84593800  1
  Ge  Ge47  1  0.56091500  0.50000000  0.13179700  1
  Ge  Ge48  1  0.31965800  0.50000000  0.54666800  1
  Ge  Ge49  1  0.14769650  0.81275750  0.35762800  1
  Ge  Ge50  1  0.85230350  0.18724250  0.64237200  1
  Ge  Ge51  1  0.68034200  0.50000000  0.45333200  1
  Ge  Ge52  1  0.14769650  0.18724250  0.35762800  1
  Ge  Ge53  1  0.85230350  0.81275750  0.64237200  1
  Ge  Ge54  1  0.20284300  0.50000000  0.93298600  1
  Ge  Ge55  1  0.08671100  0.50000000  0.15406200  1
