# generated using pymatgen
data_Yb11Ge10
_symmetry_space_group_name_H-M   'P 1'
_cell_length_a   10.91950000
_cell_length_b   10.91950000
_cell_length_c   17.22614800
_cell_angle_alpha   90.00000000
_cell_angle_beta   90.00000000
_cell_angle_gamma   90.00000000
_symmetry_Int_Tables_number   1
_chemical_formula_structural   Yb11Ge10
_chemical_formula_sum   'Yb44 Ge40'
_cell_volume   2053.96802964
_cell_formula_units_Z   4
loop_
 _symmetry_equiv_pos_site_id
 _symmetry_equiv_pos_as_xyz
  1  'x, y, z'
loop_
 _atom_site_type_symbol
 _atom_site_label
 _atom_site_symmetry_multiplicity
 _atom_site_fract_x
 _atom_site_fract_y
 _atom_site_fract_z
 _atom_site_occupancy
  Yb  Yb0  1  0.32018100  0.67981900  0.00000000  1
  Yb  Yb1  1  0.31776050  0.00000000  0.10482950  1
  Yb  Yb2  1  0.81776050  0.50000000  0.39517050  1
  Yb  Yb3  1  0.00000000  0.75092200  0.32173100  1
  Yb  Yb4  1  0.67981900  0.32018100  0.00000000  1
  Yb  Yb5  1  0.00000000  0.00000000  0.15732900  1
  Yb  Yb6  1  0.25092200  0.50000000  0.17826900  1
  Yb  Yb7  1  0.32018100  0.32018100  0.00000000  1
  Yb  Yb8  1  0.18223950  0.50000000  0.39517050  1
  Yb  Yb9  1  0.50000000  0.50000000  0.34267100  1
  Yb  Yb10  1  0.50000000  0.74907800  0.17826900  1
  Yb  Yb11  1  0.68223950  0.00000000  0.10482950  1
  Yb  Yb12  1  0.50000000  0.25092200  0.17826900  1
  Yb  Yb13  1  0.50000000  0.81776050  0.39517050  1
  Yb  Yb14  1  0.24907800  0.00000000  0.32173100  1
  Yb  Yb15  1  0.50000000  0.18223950  0.39517050  1
  Yb  Yb16  1  0.67981900  0.67981900  0.00000000  1
  Yb  Yb17  1  0.00000000  0.24907800  0.32173100  1
  Yb  Yb18  1  0.74907800  0.50000000  0.17826900  1
  Yb  Yb19  1  0.00000000  0.31776050  0.10482950  1
  Yb  Yb20  1  0.00000000  0.68223950  0.10482950  1
  Yb  Yb21  1  0.75092200  0.00000000  0.32173100  1
  Yb  Yb22  1  0.82018100  0.17981900  0.50000000  1
  Yb  Yb23  1  0.81776050  0.50000000  0.60482950  1
  Yb  Yb24  1  0.31776050  0.00000000  0.89517050  1
  Yb  Yb25  1  0.50000000  0.25092200  0.82173100  1
  Yb  Yb26  1  0.17981900  0.82018100  0.50000000  1
  Yb  Yb27  1  0.50000000  0.50000000  0.65732900  1
  Yb  Yb28  1  0.75092200  0.00000000  0.67826900  1
  Yb  Yb29  1  0.82018100  0.82018100  0.50000000  1
  Yb  Yb30  1  0.68223950  0.00000000  0.89517050  1
  Yb  Yb31  1  0.00000000  0.00000000  0.84267100  1
  Yb  Yb32  1  0.00000000  0.24907800  0.67826900  1
  Yb  Yb33  1  0.18223950  0.50000000  0.60482950  1
  Yb  Yb34  1  0.00000000  0.75092200  0.67826900  1
  Yb  Yb35  1  0.00000000  0.31776050  0.89517050  1
  Yb  Yb36  1  0.74907800  0.50000000  0.82173100  1
  Yb  Yb37  1  0.00000000  0.68223950  0.89517050  1
  Yb  Yb38  1  0.17981900  0.17981900  0.50000000  1
  Yb  Yb39  1  0.50000000  0.74907800  0.82173100  1
  Yb  Yb40  1  0.24907800  0.00000000  0.67826900  1
  Yb  Yb41  1  0.50000000  0.81776050  0.60482950  1
  Yb  Yb42  1  0.50000000  0.18223950  0.60482950  1
  Yb  Yb43  1  0.25092200  0.50000000  0.82173100  1
  Ge  Ge44  1  0.50000000  0.11937400  0.00000000  1
  Ge  Ge45  1  0.88243700  0.11756300  0.00000000  1
  Ge  Ge46  1  0.11756300  0.88243700  0.00000000  1
  Ge  Ge47  1  0.29359400  0.70640600  0.31024600  1
  Ge  Ge48  1  0.79359400  0.79359400  0.18975400  1
  Ge  Ge49  1  0.70640600  0.29359400  0.31024600  1
  Ge  Ge50  1  0.11756300  0.11756300  0.00000000  1
  Ge  Ge51  1  0.00000000  0.00000000  0.41460300  1
  Ge  Ge52  1  0.79359400  0.20640600  0.18975400  1
  Ge  Ge53  1  0.88243700  0.88243700  0.00000000  1
  Ge  Ge54  1  0.50000000  0.88062600  0.00000000  1
  Ge  Ge55  1  0.20640600  0.20640600  0.18975400  1
  Ge  Ge56  1  0.20640600  0.79359400  0.18975400  1
  Ge  Ge57  1  0.70640600  0.70640600  0.31024600  1
  Ge  Ge58  1  0.11937400  0.50000000  0.00000000  1
  Ge  Ge59  1  0.50000000  0.50000000  0.08539700  1
  Ge  Ge60  1  0.50000000  0.00000000  0.25000000  1
  Ge  Ge61  1  0.29359400  0.29359400  0.31024600  1
  Ge  Ge62  1  0.00000000  0.50000000  0.25000000  1
  Ge  Ge63  1  0.88062600  0.50000000  0.00000000  1
  Ge  Ge64  1  0.00000000  0.61937400  0.50000000  1
  Ge  Ge65  1  0.38243700  0.61756300  0.50000000  1
  Ge  Ge66  1  0.61756300  0.38243700  0.50000000  1
  Ge  Ge67  1  0.79359400  0.20640600  0.81024600  1
  Ge  Ge68  1  0.29359400  0.29359400  0.68975400  1
  Ge  Ge69  1  0.20640600  0.79359400  0.81024600  1
  Ge  Ge70  1  0.61756300  0.61756300  0.50000000  1
  Ge  Ge71  1  0.50000000  0.50000000  0.91460300  1
  Ge  Ge72  1  0.29359400  0.70640600  0.68975400  1
  Ge  Ge73  1  0.38243700  0.38243700  0.50000000  1
  Ge  Ge74  1  0.00000000  0.38062600  0.50000000  1
  Ge  Ge75  1  0.70640600  0.70640600  0.68975400  1
  Ge  Ge76  1  0.70640600  0.29359400  0.68975400  1
  Ge  Ge77  1  0.20640600  0.20640600  0.81024600  1
  Ge  Ge78  1  0.61937400  0.00000000  0.50000000  1
  Ge  Ge79  1  0.00000000  0.00000000  0.58539700  1
  Ge  Ge80  1  0.00000000  0.50000000  0.75000000  1
  Ge  Ge81  1  0.79359400  0.79359400  0.81024600  1
  Ge  Ge82  1  0.50000000  0.00000000  0.75000000  1
  Ge  Ge83  1  0.38062600  0.00000000  0.50000000  1
