# generated using pymatgen
data_Co3C2(SeO5)2
_symmetry_space_group_name_H-M   'P 1'
_cell_length_a   9.30128831
_cell_length_b   6.63048769
_cell_length_c   7.93463205
_cell_angle_alpha   90.00000000
_cell_angle_beta   117.60622410
_cell_angle_gamma   90.00000000
_symmetry_Int_Tables_number   1
_chemical_formula_structural   Co3C2(SeO5)2
_chemical_formula_sum   'Co6 C4 Se4 O20'
_cell_volume   433.63487596
_cell_formula_units_Z   2
loop_
 _symmetry_equiv_pos_site_id
 _symmetry_equiv_pos_as_xyz
  1  'x, y, z'
loop_
 _atom_site_type_symbol
 _atom_site_label
 _atom_site_symmetry_multiplicity
 _atom_site_fract_x
 _atom_site_fract_y
 _atom_site_fract_z
 _atom_site_occupancy
  Co  Co0  1  0.50000000  0.00000000  0.50000000  1
  Co  Co1  1  0.69180275  0.50000000  0.68051975  1
  Co  Co2  1  0.80819725  0.00000000  0.31948025  1
  Co  Co3  1  0.00000000  0.50000000  0.50000000  1
  Co  Co4  1  0.19180275  0.00000000  0.68051975  1
  Co  Co5  1  0.30819725  0.50000000  0.31948025  1
  C  C6  1  0.45697950  0.00000000  0.06405725  1
  C  C7  1  0.04302050  0.50000000  0.93594275  1
  C  C8  1  0.95697950  0.50000000  0.06405725  1
  C  C9  1  0.54302050  0.00000000  0.93594275  1
  Se  Se10  1  0.15916100  0.00000000  0.24233825  1
  Se  Se11  1  0.34083900  0.50000000  0.75766175  1
  Se  Se12  1  0.65916100  0.50000000  0.24233825  1
  Se  Se13  1  0.84083900  0.00000000  0.75766175  1
  O  O14  1  0.19611050  0.50000000  0.01862525  1
  O  O15  1  0.30388950  0.00000000  0.98137475  1
  O  O16  1  0.44119475  0.50000000  0.62147075  1
  O  O17  1  0.05880525  0.00000000  0.37852925  1
  O  O18  1  0.94916325  0.50000000  0.75690675  1
  O  O19  1  0.55083675  0.00000000  0.24309325  1
  O  O20  1  0.30550275  0.81163375  0.34755275  1
  O  O21  1  0.19449725  0.31163375  0.65244725  1
  O  O22  1  0.30550275  0.18836625  0.34755275  1
  O  O23  1  0.19449725  0.68836625  0.65244725  1
  O  O24  1  0.69611050  0.00000000  0.01862525  1
  O  O25  1  0.80388950  0.50000000  0.98137475  1
  O  O26  1  0.94119475  0.00000000  0.62147075  1
  O  O27  1  0.55880525  0.50000000  0.37852925  1
  O  O28  1  0.44916325  0.00000000  0.75690675  1
  O  O29  1  0.05083675  0.50000000  0.24309325  1
  O  O30  1  0.80550275  0.31163375  0.34755275  1
  O  O31  1  0.69449725  0.81163375  0.65244725  1
  O  O32  1  0.80550275  0.68836625  0.34755275  1
  O  O33  1  0.69449725  0.18836625  0.65244725  1
