# generated using pymatgen
data_NaV(GeO3)2
_symmetry_space_group_name_H-M   'P 1'
_cell_length_a   10.17493960
_cell_length_b   8.98091217
_cell_length_c   5.58821713
_cell_angle_alpha   90.00000000
_cell_angle_beta   106.73578041
_cell_angle_gamma   90.00000000
_symmetry_Int_Tables_number   1
_chemical_formula_structural   NaV(GeO3)2
_chemical_formula_sum   'Na4 V4 Ge8 O24'
_cell_volume   489.02282948
_cell_formula_units_Z   4
loop_
 _symmetry_equiv_pos_site_id
 _symmetry_equiv_pos_as_xyz
  1  'x, y, z'
loop_
 _atom_site_type_symbol
 _atom_site_label
 _atom_site_symmetry_multiplicity
 _atom_site_fract_x
 _atom_site_fract_y
 _atom_site_fract_z
 _atom_site_occupancy
  Na  Na0  1  0.50000000  0.69430000  0.25000000  1
  Na  Na1  1  0.50000000  0.30570000  0.75000000  1
  Na  Na2  1  0.00000000  0.19430000  0.25000000  1
  Na  Na3  1  0.00000000  0.80570000  0.75000000  1
  V  V4  1  0.50000000  0.90553475  0.75000000  1
  V  V5  1  0.50000000  0.09446525  0.25000000  1
  V  V6  1  0.00000000  0.40553475  0.75000000  1
  V  V7  1  0.00000000  0.59446525  0.25000000  1
  Ge  Ge8  1  0.21235475  0.90516325  0.27144950  1
  Ge  Ge9  1  0.21235475  0.09483675  0.77144950  1
  Ge  Ge10  1  0.78764525  0.09483675  0.72855050  1
  Ge  Ge11  1  0.78764525  0.90516325  0.22855050  1
  Ge  Ge12  1  0.71235475  0.40516325  0.27144950  1
  Ge  Ge13  1  0.71235475  0.59483675  0.77144950  1
  Ge  Ge14  1  0.28764525  0.59483675  0.72855050  1
  Ge  Ge15  1  0.28764525  0.40516325  0.22855050  1
  O  O16  1  0.60645625  0.91576575  0.13556000  1
  O  O17  1  0.60645625  0.08423425  0.63556000  1
  O  O18  1  0.39354375  0.08423425  0.86444000  1
  O  O19  1  0.39354375  0.91576575  0.36444000  1
  O  O20  1  0.86093100  0.01414200  0.50696650  1
  O  O21  1  0.13906900  0.98585800  0.49303350  1
  O  O22  1  0.86093100  0.98585800  0.00696650  1
  O  O23  1  0.13906900  0.01414200  0.99303350  1
  O  O24  1  0.63868325  0.23087975  0.18821100  1
  O  O25  1  0.63868325  0.76912025  0.68821100  1
  O  O26  1  0.36131675  0.23087975  0.31178900  1
  O  O27  1  0.36131675  0.76912025  0.81178900  1
  O  O28  1  0.10645625  0.41576575  0.13556000  1
  O  O29  1  0.10645625  0.58423425  0.63556000  1
  O  O30  1  0.89354375  0.58423425  0.86444000  1
  O  O31  1  0.89354375  0.41576575  0.36444000  1
  O  O32  1  0.36093100  0.51414200  0.50696650  1
  O  O33  1  0.63906900  0.48585800  0.49303350  1
  O  O34  1  0.36093100  0.48585800  0.00696650  1
  O  O35  1  0.63906900  0.51414200  0.99303350  1
  O  O36  1  0.13868325  0.73087975  0.18821100  1
  O  O37  1  0.13868325  0.26912025  0.68821100  1
  O  O38  1  0.86131675  0.73087975  0.31178900  1
  O  O39  1  0.86131675  0.26912025  0.81178900  1
