# generated using pymatgen
data_Dy4CdCo
_symmetry_space_group_name_H-M   'P 1'
_cell_length_a   13.42320400
_cell_length_b   13.42320400
_cell_length_c   13.42320400
_cell_angle_alpha   90.00000000
_cell_angle_beta   90.00000000
_cell_angle_gamma   90.00000000
_symmetry_Int_Tables_number   1
_chemical_formula_structural   Dy4CdCo
_chemical_formula_sum   'Dy64 Cd16 Co16'
_cell_volume   2418.62518792
_cell_formula_units_Z   16
loop_
 _symmetry_equiv_pos_site_id
 _symmetry_equiv_pos_as_xyz
  1  'x, y, z'
loop_
 _atom_site_type_symbol
 _atom_site_label
 _atom_site_symmetry_multiplicity
 _atom_site_fract_x
 _atom_site_fract_y
 _atom_site_fract_z
 _atom_site_occupancy
  Dy  Dy0  1  0.34635167  0.15364833  0.65364833  1
  Dy  Dy1  1  0.50000000  0.00000000  0.18836200  1
  Dy  Dy2  1  0.31163800  0.00000000  0.00000000  1
  Dy  Dy3  1  0.06183500  0.25000000  0.25000000  1
  Dy  Dy4  1  0.15364833  0.15364833  0.84635167  1
  Dy  Dy5  1  0.34635167  0.34635167  0.84635167  1
  Dy  Dy6  1  0.25000000  0.06183500  0.25000000  1
  Dy  Dy7  1  0.50000000  0.00000000  0.81163800  1
  Dy  Dy8  1  0.43816500  0.25000000  0.25000000  1
  Dy  Dy9  1  0.25000000  0.25000000  0.06183500  1
  Dy  Dy10  1  0.00000000  0.31163800  0.00000000  1
  Dy  Dy11  1  0.25000000  0.43816500  0.25000000  1
  Dy  Dy12  1  0.25000000  0.25000000  0.43816500  1
  Dy  Dy13  1  0.68836200  0.00000000  0.00000000  1
  Dy  Dy14  1  0.15364833  0.34635167  0.65364833  1
  Dy  Dy15  1  0.50000000  0.18836200  0.00000000  1
  Dy  Dy16  1  0.34635167  0.65364833  0.15364833  1
  Dy  Dy17  1  0.50000000  0.50000000  0.68836200  1
  Dy  Dy18  1  0.31163800  0.50000000  0.50000000  1
  Dy  Dy19  1  0.06183500  0.75000000  0.75000000  1
  Dy  Dy20  1  0.15364833  0.65364833  0.34635167  1
  Dy  Dy21  1  0.34635167  0.84635167  0.34635167  1
  Dy  Dy22  1  0.25000000  0.56183500  0.75000000  1
  Dy  Dy23  1  0.50000000  0.50000000  0.31163800  1
  Dy  Dy24  1  0.43816500  0.75000000  0.75000000  1
  Dy  Dy25  1  0.25000000  0.75000000  0.56183500  1
  Dy  Dy26  1  0.00000000  0.81163800  0.50000000  1
  Dy  Dy27  1  0.25000000  0.93816500  0.75000000  1
  Dy  Dy28  1  0.25000000  0.75000000  0.93816500  1
  Dy  Dy29  1  0.68836200  0.50000000  0.50000000  1
  Dy  Dy30  1  0.15364833  0.84635167  0.15364833  1
  Dy  Dy31  1  0.50000000  0.68836200  0.50000000  1
  Dy  Dy32  1  0.84635167  0.15364833  0.15364833  1
  Dy  Dy33  1  0.00000000  0.00000000  0.68836200  1
  Dy  Dy34  1  0.81163800  0.00000000  0.50000000  1
  Dy  Dy35  1  0.56183500  0.25000000  0.75000000  1
  Dy  Dy36  1  0.65364833  0.15364833  0.34635167  1
  Dy  Dy37  1  0.84635167  0.34635167  0.34635167  1
  Dy  Dy38  1  0.75000000  0.06183500  0.75000000  1
  Dy  Dy39  1  0.00000000  0.00000000  0.31163800  1
  Dy  Dy40  1  0.93816500  0.25000000  0.75000000  1
  Dy  Dy41  1  0.75000000  0.25000000  0.56183500  1
  Dy  Dy42  1  0.50000000  0.31163800  0.50000000  1
  Dy  Dy43  1  0.75000000  0.43816500  0.75000000  1
  Dy  Dy44  1  0.75000000  0.25000000  0.93816500  1
  Dy  Dy45  1  0.18836200  0.00000000  0.50000000  1
  Dy  Dy46  1  0.65364833  0.34635167  0.15364833  1
  Dy  Dy47  1  0.00000000  0.18836200  0.50000000  1
  Dy  Dy48  1  0.84635167  0.65364833  0.65364833  1
  Dy  Dy49  1  0.00000000  0.50000000  0.18836200  1
  Dy  Dy50  1  0.81163800  0.50000000  0.00000000  1
  Dy  Dy51  1  0.56183500  0.75000000  0.25000000  1
  Dy  Dy52  1  0.65364833  0.65364833  0.84635167  1
  Dy  Dy53  1  0.84635167  0.84635167  0.84635167  1
  Dy  Dy54  1  0.75000000  0.56183500  0.25000000  1
  Dy  Dy55  1  0.00000000  0.50000000  0.81163800  1
  Dy  Dy56  1  0.93816500  0.75000000  0.25000000  1
  Dy  Dy57  1  0.75000000  0.75000000  0.06183500  1
  Dy  Dy58  1  0.50000000  0.81163800  0.00000000  1
  Dy  Dy59  1  0.75000000  0.93816500  0.25000000  1
  Dy  Dy60  1  0.75000000  0.75000000  0.43816500  1
  Dy  Dy61  1  0.18836200  0.50000000  0.00000000  1
  Dy  Dy62  1  0.65364833  0.84635167  0.65364833  1
  Dy  Dy63  1  0.00000000  0.68836200  0.00000000  1
  Cd  Cd64  1  0.08052200  0.41947800  0.41947800  1
  Cd  Cd65  1  0.41947800  0.08052200  0.41947800  1
  Cd  Cd66  1  0.08052200  0.08052200  0.08052200  1
  Cd  Cd67  1  0.41947800  0.41947800  0.08052200  1
  Cd  Cd68  1  0.08052200  0.91947800  0.91947800  1
  Cd  Cd69  1  0.41947800  0.58052200  0.91947800  1
  Cd  Cd70  1  0.08052200  0.58052200  0.58052200  1
  Cd  Cd71  1  0.41947800  0.91947800  0.58052200  1
  Cd  Cd72  1  0.58052200  0.41947800  0.91947800  1
  Cd  Cd73  1  0.91947800  0.08052200  0.91947800  1
  Cd  Cd74  1  0.58052200  0.08052200  0.58052200  1
  Cd  Cd75  1  0.91947800  0.41947800  0.58052200  1
  Cd  Cd76  1  0.58052200  0.91947800  0.41947800  1
  Cd  Cd77  1  0.91947800  0.58052200  0.41947800  1
  Cd  Cd78  1  0.58052200  0.58052200  0.08052200  1
  Cd  Cd79  1  0.91947800  0.91947800  0.08052200  1
  Co  Co80  1  0.64101733  0.14101733  0.14101733  1
  Co  Co81  1  0.14101733  0.35898267  0.85898267  1
  Co  Co82  1  0.85898267  0.35898267  0.14101733  1
  Co  Co83  1  0.35898267  0.14101733  0.85898267  1
  Co  Co84  1  0.64101733  0.64101733  0.64101733  1
  Co  Co85  1  0.14101733  0.85898267  0.35898267  1
  Co  Co86  1  0.85898267  0.85898267  0.64101733  1
  Co  Co87  1  0.35898267  0.64101733  0.35898267  1
  Co  Co88  1  0.14101733  0.14101733  0.64101733  1
  Co  Co89  1  0.64101733  0.35898267  0.35898267  1
  Co  Co90  1  0.35898267  0.35898267  0.64101733  1
  Co  Co91  1  0.85898267  0.14101733  0.35898267  1
  Co  Co92  1  0.14101733  0.64101733  0.14101733  1
  Co  Co93  1  0.64101733  0.85898267  0.85898267  1
  Co  Co94  1  0.35898267  0.85898267  0.14101733  1
  Co  Co95  1  0.85898267  0.64101733  0.85898267  1
