# generated using pymatgen
data_K2Mo3(AsO5)4
_symmetry_space_group_name_H-M   'P 1'
_cell_length_a   17.89465600
_cell_length_b   9.11875600
_cell_length_c   12.33041660
_cell_angle_alpha   90.00000000
_cell_angle_beta   113.06739951
_cell_angle_gamma   90.00000000
_symmetry_Int_Tables_number   1
_chemical_formula_structural   K2Mo3(AsO5)4
_chemical_formula_sum   'K8 Mo12 As16 O80'
_cell_volume   1851.16688140
_cell_formula_units_Z   4
loop_
 _symmetry_equiv_pos_site_id
 _symmetry_equiv_pos_as_xyz
  1  'x, y, z'
loop_
 _atom_site_type_symbol
 _atom_site_label
 _atom_site_symmetry_multiplicity
 _atom_site_fract_x
 _atom_site_fract_y
 _atom_site_fract_z
 _atom_site_occupancy
  K  K0  1  0.40405100  0.24752300  0.89940300  1
  K  K1  1  0.09594900  0.74752300  0.60059700  1
  K  K2  1  0.40405100  0.75247700  0.39940300  1
  K  K3  1  0.09594900  0.25247700  0.10059700  1
  K  K4  1  0.90405100  0.74752300  0.89940300  1
  K  K5  1  0.59594900  0.24752300  0.60059700  1
  K  K6  1  0.90405100  0.25247700  0.39940300  1
  K  K7  1  0.59594900  0.75247700  0.10059700  1
  Mo  Mo8  1  0.33141550  0.99937350  0.13945900  1
  Mo  Mo9  1  0.16858450  0.49937350  0.36054100  1
  Mo  Mo10  1  0.00000000  0.92575300  0.25000000  1
  Mo  Mo11  1  0.16858450  0.50062650  0.86054100  1
  Mo  Mo12  1  0.33141550  0.00062650  0.63945900  1
  Mo  Mo13  1  0.00000000  0.07424700  0.75000000  1
  Mo  Mo14  1  0.83141550  0.49937350  0.13945900  1
  Mo  Mo15  1  0.66858450  0.99937350  0.36054100  1
  Mo  Mo16  1  0.50000000  0.42575300  0.25000000  1
  Mo  Mo17  1  0.66858450  0.00062650  0.86054100  1
  Mo  Mo18  1  0.83141550  0.50062650  0.63945900  1
  Mo  Mo19  1  0.50000000  0.57424700  0.75000000  1
  As  As20  1  0.14020850  0.15286050  0.46147300  1
  As  As21  1  0.18040650  0.84075350  0.23060500  1
  As  As22  1  0.18040650  0.15924650  0.73060500  1
  As  As23  1  0.14020850  0.84713950  0.96147300  1
  As  As24  1  0.35979150  0.34713950  0.53852700  1
  As  As25  1  0.35979150  0.65286050  0.03852700  1
  As  As26  1  0.31959350  0.34075350  0.26939500  1
  As  As27  1  0.31959350  0.65924650  0.76939500  1
  As  As28  1  0.64020850  0.65286050  0.46147300  1
  As  As29  1  0.68040650  0.34075350  0.23060500  1
  As  As30  1  0.68040650  0.65924650  0.73060500  1
  As  As31  1  0.64020850  0.34713950  0.96147300  1
  As  As32  1  0.85979150  0.84713950  0.53852700  1
  As  As33  1  0.85979150  0.15286050  0.03852700  1
  As  As34  1  0.81959350  0.84075350  0.26939500  1
  As  As35  1  0.81959350  0.15924650  0.76939500  1
  O  O36  1  0.39059150  0.46599450  0.26289900  1
  O  O37  1  0.46658050  0.30644750  0.13191000  1
  O  O38  1  0.29954750  0.49576450  0.48685400  1
  O  O39  1  0.08083050  0.51255950  0.73458600  1
  O  O40  1  0.20070100  0.29445200  0.83442700  1
  O  O41  1  0.08083050  0.48744050  0.23458600  1
  O  O42  1  0.23173400  0.42756000  0.24475800  1
  O  O43  1  0.29954750  0.50423550  0.98685400  1
  O  O44  1  0.13577500  0.75459800  0.08934600  1
  O  O45  1  0.10940850  0.96599450  0.23710100  1
  O  O46  1  0.46658050  0.69355250  0.63191000  1
  O  O47  1  0.20045250  0.00423550  0.51314600  1
  O  O48  1  0.20045250  0.99576450  0.01314600  1
  O  O49  1  0.39059150  0.53400550  0.76289900  1
  O  O50  1  0.03341950  0.80644750  0.36809000  1
  O  O51  1  0.04180150  0.11515350  0.37437700  1
  O  O52  1  0.29929900  0.20554800  0.16557300  1
  O  O53  1  0.20070100  0.70554800  0.33442700  1
  O  O54  1  0.32149750  0.22316750  0.60877600  1
  O  O55  1  0.17850250  0.72316750  0.89122400  1
  O  O56  1  0.36422500  0.74540200  0.91065400  1
  O  O57  1  0.03341950  0.19355250  0.86809000  1
  O  O58  1  0.45819850  0.38484650  0.62562300  1
  O  O59  1  0.26826600  0.07244000  0.75524200  1
  O  O60  1  0.32149750  0.77683250  0.10877600  1
  O  O61  1  0.10940850  0.03400550  0.73710100  1
  O  O62  1  0.36564900  0.96011200  0.53040100  1
  O  O63  1  0.45819850  0.61515350  0.12562300  1
  O  O64  1  0.13577500  0.24540200  0.58934600  1
  O  O65  1  0.41916950  0.01255950  0.76541400  1
  O  O66  1  0.41916950  0.98744050  0.26541400  1
  O  O67  1  0.26826600  0.92756000  0.25524200  1
  O  O68  1  0.04180150  0.88484650  0.87437700  1
  O  O69  1  0.36422500  0.25459800  0.41065400  1
  O  O70  1  0.13435100  0.53988800  0.46959900  1
  O  O71  1  0.17850250  0.27683250  0.39122400  1
  O  O72  1  0.36564900  0.03988800  0.03040100  1
  O  O73  1  0.23173400  0.57244000  0.74475800  1
  O  O74  1  0.13435100  0.46011200  0.96959900  1
  O  O75  1  0.29929900  0.79445200  0.66557300  1
  O  O76  1  0.89059150  0.96599450  0.26289900  1
  O  O77  1  0.96658050  0.80644750  0.13191000  1
  O  O78  1  0.79954750  0.99576450  0.48685400  1
  O  O79  1  0.58083050  0.01255950  0.73458600  1
  O  O80  1  0.70070100  0.79445200  0.83442700  1
  O  O81  1  0.58083050  0.98744050  0.23458600  1
  O  O82  1  0.73173400  0.92756000  0.24475800  1
  O  O83  1  0.79954750  0.00423550  0.98685400  1
  O  O84  1  0.63577500  0.25459800  0.08934600  1
  O  O85  1  0.60940850  0.46599450  0.23710100  1
  O  O86  1  0.96658050  0.19355250  0.63191000  1
  O  O87  1  0.70045250  0.50423550  0.51314600  1
  O  O88  1  0.70045250  0.49576450  0.01314600  1
  O  O89  1  0.89059150  0.03400550  0.76289900  1
  O  O90  1  0.53341950  0.30644750  0.36809000  1
  O  O91  1  0.54180150  0.61515350  0.37437700  1
  O  O92  1  0.79929900  0.70554800  0.16557300  1
  O  O93  1  0.70070100  0.20554800  0.33442700  1
  O  O94  1  0.82149750  0.72316750  0.60877600  1
  O  O95  1  0.67850250  0.22316750  0.89122400  1
  O  O96  1  0.86422500  0.24540200  0.91065400  1
  O  O97  1  0.53341950  0.69355250  0.86809000  1
  O  O98  1  0.95819850  0.88484650  0.62562300  1
  O  O99  1  0.76826600  0.57244000  0.75524200  1
  O  O100  1  0.82149750  0.27683250  0.10877600  1
  O  O101  1  0.60940850  0.53400550  0.73710100  1
  O  O102  1  0.86564900  0.46011200  0.53040100  1
  O  O103  1  0.95819850  0.11515350  0.12562300  1
  O  O104  1  0.63577500  0.74540200  0.58934600  1
  O  O105  1  0.91916950  0.51255950  0.76541400  1
  O  O106  1  0.91916950  0.48744050  0.26541400  1
  O  O107  1  0.76826600  0.42756000  0.25524200  1
  O  O108  1  0.54180150  0.38484650  0.87437700  1
  O  O109  1  0.86422500  0.75459800  0.41065400  1
  O  O110  1  0.63435100  0.03988800  0.46959900  1
  O  O111  1  0.67850250  0.77683250  0.39122400  1
  O  O112  1  0.86564900  0.53988800  0.03040100  1
  O  O113  1  0.73173400  0.07244000  0.74475800  1
  O  O114  1  0.63435100  0.96011200  0.96959900  1
  O  O115  1  0.79929900  0.29445200  0.66557300  1
