# generated using pymatgen
data_NaV3(PO4)3
_symmetry_space_group_name_H-M   'P 1'
_cell_length_a   6.56838400
_cell_length_b   10.67887400
_cell_length_c   13.36031400
_cell_angle_alpha   90.00000000
_cell_angle_beta   90.00000000
_cell_angle_gamma   90.00000000
_symmetry_Int_Tables_number   1
_chemical_formula_structural   NaV3(PO4)3
_chemical_formula_sum   'Na4 V12 P12 O48'
_cell_volume   937.13177168
_cell_formula_units_Z   4
loop_
 _symmetry_equiv_pos_site_id
 _symmetry_equiv_pos_as_xyz
  1  'x, y, z'
loop_
 _atom_site_type_symbol
 _atom_site_label
 _atom_site_symmetry_multiplicity
 _atom_site_fract_x
 _atom_site_fract_y
 _atom_site_fract_z
 _atom_site_occupancy
  Na  Na0  1  0.89938400  0.50000000  0.25000000  1
  Na  Na1  1  0.10061600  0.50000000  0.75000000  1
  Na  Na2  1  0.39938400  0.00000000  0.75000000  1
  Na  Na3  1  0.60061600  0.00000000  0.25000000  1
  V  V4  1  0.75000000  0.75000000  0.86395900  1
  V  V5  1  0.00000000  0.00000000  0.00000000  1
  V  V6  1  0.25000000  0.75000000  0.13604100  1
  V  V7  1  0.25000000  0.25000000  0.13604100  1
  V  V8  1  0.75000000  0.25000000  0.86395900  1
  V  V9  1  0.50000000  0.50000000  0.00000000  1
  V  V10  1  0.25000000  0.25000000  0.36395900  1
  V  V11  1  0.50000000  0.50000000  0.50000000  1
  V  V12  1  0.75000000  0.25000000  0.63604100  1
  V  V13  1  0.75000000  0.75000000  0.63604100  1
  V  V14  1  0.25000000  0.75000000  0.36395900  1
  V  V15  1  0.00000000  0.00000000  0.50000000  1
  P  P16  1  0.75000000  0.25000000  0.07347800  1
  P  P17  1  0.75000000  0.75000000  0.07347800  1
  P  P18  1  0.58343200  0.50000000  0.75000000  1
  P  P19  1  0.41656800  0.50000000  0.25000000  1
  P  P20  1  0.25000000  0.25000000  0.92652200  1
  P  P21  1  0.25000000  0.75000000  0.92652200  1
  P  P22  1  0.25000000  0.75000000  0.57347800  1
  P  P23  1  0.25000000  0.25000000  0.57347800  1
  P  P24  1  0.08343200  0.00000000  0.25000000  1
  P  P25  1  0.91656800  0.00000000  0.75000000  1
  P  P26  1  0.75000000  0.75000000  0.42652200  1
  P  P27  1  0.75000000  0.25000000  0.42652200  1
  O  O28  1  0.70625100  0.64058700  0.99399500  1
  O  O29  1  0.56462700  0.21481500  0.13547800  1
  O  O30  1  0.43537300  0.21481500  0.86452200  1
  O  O31  1  0.54704550  0.50000000  0.15546450  1
  O  O32  1  0.20625100  0.85941300  0.00600500  1
  O  O33  1  0.45295450  0.50000000  0.84453550  1
  O  O34  1  0.20625100  0.14058700  0.00600500  1
  O  O35  1  0.56462700  0.78518500  0.13547800  1
  O  O36  1  0.06462700  0.71481500  0.86452200  1
  O  O37  1  0.73390300  0.38477400  0.75000000  1
  O  O38  1  0.79374900  0.85941300  0.99399500  1
  O  O39  1  0.70625100  0.35941300  0.99399500  1
  O  O40  1  0.29374900  0.64058700  0.00600500  1
  O  O41  1  0.73390300  0.61522600  0.75000000  1
  O  O42  1  0.26609700  0.38477400  0.25000000  1
  O  O43  1  0.54704550  0.50000000  0.34453550  1
  O  O44  1  0.29374900  0.35941300  0.00600500  1
  O  O45  1  0.45295450  0.50000000  0.65546450  1
  O  O46  1  0.79374900  0.14058700  0.99399500  1
  O  O47  1  0.93537300  0.71481500  0.13547800  1
  O  O48  1  0.06462700  0.28518500  0.86452200  1
  O  O49  1  0.43537300  0.78518500  0.86452200  1
  O  O50  1  0.26609700  0.61522600  0.25000000  1
  O  O51  1  0.93537300  0.28518500  0.13547800  1
  O  O52  1  0.20625100  0.14058700  0.49399500  1
  O  O53  1  0.06462700  0.71481500  0.63547800  1
  O  O54  1  0.93537300  0.71481500  0.36452200  1
  O  O55  1  0.04704550  0.00000000  0.65546450  1
  O  O56  1  0.70625100  0.35941300  0.50600500  1
  O  O57  1  0.95295450  0.00000000  0.34453550  1
  O  O58  1  0.70625100  0.64058700  0.50600500  1
  O  O59  1  0.06462700  0.28518500  0.63547800  1
  O  O60  1  0.56462700  0.21481500  0.36452200  1
  O  O61  1  0.23390300  0.88477400  0.25000000  1
  O  O62  1  0.29374900  0.35941300  0.49399500  1
  O  O63  1  0.20625100  0.85941300  0.49399500  1
  O  O64  1  0.79374900  0.14058700  0.50600500  1
  O  O65  1  0.23390300  0.11522600  0.25000000  1
  O  O66  1  0.76609700  0.88477400  0.75000000  1
  O  O67  1  0.04704550  0.00000000  0.84453550  1
  O  O68  1  0.79374900  0.85941300  0.50600500  1
  O  O69  1  0.95295450  0.00000000  0.15546450  1
  O  O70  1  0.29374900  0.64058700  0.49399500  1
  O  O71  1  0.43537300  0.21481500  0.63547800  1
  O  O72  1  0.56462700  0.78518500  0.36452200  1
  O  O73  1  0.93537300  0.28518500  0.36452200  1
  O  O74  1  0.76609700  0.11522600  0.75000000  1
  O  O75  1  0.43537300  0.78518500  0.63547800  1
