# generated using pymatgen
data_NaSn2
_symmetry_space_group_name_H-M   'P 1'
_cell_length_a   13.62219400
_cell_length_b   6.94098400
_cell_length_c   15.80982926
_cell_angle_alpha   90.00000000
_cell_angle_beta   102.66696527
_cell_angle_gamma   90.00000000
_symmetry_Int_Tables_number   1
_chemical_formula_structural   NaSn2
_chemical_formula_sum   'Na16 Sn32'
_cell_volume   1458.45922084
_cell_formula_units_Z   16
loop_
 _symmetry_equiv_pos_site_id
 _symmetry_equiv_pos_as_xyz
  1  'x, y, z'
loop_
 _atom_site_type_symbol
 _atom_site_label
 _atom_site_symmetry_multiplicity
 _atom_site_fract_x
 _atom_site_fract_y
 _atom_site_fract_z
 _atom_site_occupancy
  Na  Na0  1  0.61497000  0.00000000  0.43606600  1
  Na  Na1  1  0.90497300  0.00000000  0.58105100  1
  Na  Na2  1  0.00000000  0.74938400  0.00000000  1
  Na  Na3  1  0.77184900  0.50000000  0.08694600  1
  Na  Na4  1  0.88503000  0.50000000  0.56393400  1
  Na  Na5  1  0.59502700  0.50000000  0.41894900  1
  Na  Na6  1  0.00000000  0.25061600  0.00000000  1
  Na  Na7  1  0.72815100  0.00000000  0.91305400  1
  Na  Na8  1  0.11497000  0.50000000  0.43606600  1
  Na  Na9  1  0.40497300  0.50000000  0.58105100  1
  Na  Na10  1  0.50000000  0.24938400  0.00000000  1
  Na  Na11  1  0.27184900  0.00000000  0.08694600  1
  Na  Na12  1  0.38503000  0.00000000  0.56393400  1
  Na  Na13  1  0.09502700  0.00000000  0.41894900  1
  Na  Na14  1  0.50000000  0.75061600  0.00000000  1
  Na  Na15  1  0.22815100  0.50000000  0.91305400  1
  Sn  Sn16  1  0.67145350  0.71646150  0.25213500  1
  Sn  Sn17  1  0.95514400  0.71445200  0.25301500  1
  Sn  Sn18  1  0.67145350  0.28353850  0.25213500  1
  Sn  Sn19  1  0.67349700  0.00000000  0.11526400  1
  Sn  Sn20  1  0.54485600  0.78554800  0.74698500  1
  Sn  Sn21  1  0.88530700  0.00000000  0.11626000  1
  Sn  Sn22  1  0.65211500  0.71734700  0.60613700  1
  Sn  Sn23  1  0.82854650  0.21646150  0.74786500  1
  Sn  Sn24  1  0.95514400  0.28554800  0.25301500  1
  Sn  Sn25  1  0.82854650  0.78353850  0.74786500  1
  Sn  Sn26  1  0.82650300  0.50000000  0.88473600  1
  Sn  Sn27  1  0.84788500  0.21734700  0.39386300  1
  Sn  Sn28  1  0.65211500  0.28265300  0.60613700  1
  Sn  Sn29  1  0.61469300  0.50000000  0.88374000  1
  Sn  Sn30  1  0.84788500  0.78265300  0.39386300  1
  Sn  Sn31  1  0.54485600  0.21445200  0.74698500  1
  Sn  Sn32  1  0.17145350  0.21646150  0.25213500  1
  Sn  Sn33  1  0.45514400  0.21445200  0.25301500  1
  Sn  Sn34  1  0.17145350  0.78353850  0.25213500  1
  Sn  Sn35  1  0.17349700  0.50000000  0.11526400  1
  Sn  Sn36  1  0.04485600  0.28554800  0.74698500  1
  Sn  Sn37  1  0.38530700  0.50000000  0.11626000  1
  Sn  Sn38  1  0.15211500  0.21734700  0.60613700  1
  Sn  Sn39  1  0.32854650  0.71646150  0.74786500  1
  Sn  Sn40  1  0.45514400  0.78554800  0.25301500  1
  Sn  Sn41  1  0.32854650  0.28353850  0.74786500  1
  Sn  Sn42  1  0.32650300  0.00000000  0.88473600  1
  Sn  Sn43  1  0.34788500  0.71734700  0.39386300  1
  Sn  Sn44  1  0.15211500  0.78265300  0.60613700  1
  Sn  Sn45  1  0.11469300  0.00000000  0.88374000  1
  Sn  Sn46  1  0.34788500  0.28265300  0.39386300  1
  Sn  Sn47  1  0.04485600  0.71445200  0.74698500  1
