# generated using pymatgen
data_LiCo2P3O10
_symmetry_space_group_name_H-M   'P 1'
_cell_length_a   13.79444600
_cell_length_b   8.53515600
_cell_length_c   9.16763142
_cell_angle_alpha   90.00000000
_cell_angle_beta   123.44306703
_cell_angle_gamma   90.00000000
_symmetry_Int_Tables_number   1
_chemical_formula_structural   LiCo2P3O10
_chemical_formula_sum   'Li4 Co8 P12 O40'
_cell_volume   900.66810953
_cell_formula_units_Z   4
loop_
 _symmetry_equiv_pos_site_id
 _symmetry_equiv_pos_as_xyz
  1  'x, y, z'
loop_
 _atom_site_type_symbol
 _atom_site_label
 _atom_site_symmetry_multiplicity
 _atom_site_fract_x
 _atom_site_fract_y
 _atom_site_fract_z
 _atom_site_occupancy
  Li  Li0  1  0.50000000  0.09674000  0.75000000  1
  Li  Li1  1  0.00000000  0.40326000  0.25000000  1
  Li  Li2  1  0.00000000  0.59674000  0.75000000  1
  Li  Li3  1  0.50000000  0.90326000  0.25000000  1
  Co  Co4  1  0.22942600  0.52710300  0.54350700  1
  Co  Co5  1  0.27057400  0.97289700  0.45649300  1
  Co  Co6  1  0.22942600  0.47289700  0.04350700  1
  Co  Co7  1  0.27057400  0.02710300  0.95649300  1
  Co  Co8  1  0.72942600  0.02710300  0.54350700  1
  Co  Co9  1  0.77057400  0.47289700  0.45649300  1
  Co  Co10  1  0.72942600  0.97289700  0.04350700  1
  Co  Co11  1  0.77057400  0.52710300  0.95649300  1
  P  P12  1  0.13416150  0.69484850  0.19137800  1
  P  P13  1  0.63416150  0.80515150  0.69137800  1
  P  P14  1  0.00000000  0.92161200  0.25000000  1
  P  P15  1  0.86583850  0.69484850  0.30862200  1
  P  P16  1  0.36583850  0.80515150  0.80862200  1
  P  P17  1  0.50000000  0.57838800  0.75000000  1
  P  P18  1  0.63416150  0.19484850  0.19137800  1
  P  P19  1  0.13416150  0.30515150  0.69137800  1
  P  P20  1  0.50000000  0.42161200  0.25000000  1
  P  P21  1  0.36583850  0.19484850  0.30862200  1
  P  P22  1  0.86583850  0.30515150  0.80862200  1
  P  P23  1  0.00000000  0.07838800  0.75000000  1
  O  O24  1  0.52121050  0.69330750  0.63011800  1
  O  O25  1  0.10771450  0.01543450  0.37169100  1
  O  O26  1  0.24413050  0.79029750  0.30767800  1
  O  O27  1  0.25586950  0.29029750  0.19232200  1
  O  O28  1  0.88140550  0.63948950  0.47942000  1
  O  O29  1  0.39228550  0.48456550  0.62830900  1
  O  O30  1  0.47878950  0.69330750  0.86988200  1
  O  O31  1  0.62394100  0.94452900  0.78888000  1
  O  O32  1  0.87605900  0.55547100  0.21112000  1
  O  O33  1  0.97878950  0.80669250  0.36988200  1
  O  O34  1  0.02121050  0.80669250  0.13011800  1
  O  O35  1  0.24413050  0.20970250  0.80767800  1
  O  O36  1  0.25586950  0.70970250  0.69232200  1
  O  O37  1  0.39228550  0.51543450  0.12830900  1
  O  O38  1  0.10771450  0.98456550  0.87169100  1
  O  O39  1  0.38140550  0.86051050  0.97942000  1
  O  O40  1  0.11859450  0.63948950  0.02058000  1
  O  O41  1  0.12394100  0.55547100  0.28888000  1
  O  O42  1  0.37605900  0.94452900  0.71112000  1
  O  O43  1  0.61859450  0.86051050  0.52058000  1
  O  O44  1  0.02121050  0.19330750  0.63011800  1
  O  O45  1  0.60771450  0.51543450  0.37169100  1
  O  O46  1  0.74413050  0.29029750  0.30767800  1
  O  O47  1  0.75586950  0.79029750  0.19232200  1
  O  O48  1  0.38140550  0.13948950  0.47942000  1
  O  O49  1  0.89228550  0.98456550  0.62830900  1
  O  O50  1  0.97878950  0.19330750  0.86988200  1
  O  O51  1  0.12394100  0.44452900  0.78888000  1
  O  O52  1  0.37605900  0.05547100  0.21112000  1
  O  O53  1  0.47878950  0.30669250  0.36988200  1
  O  O54  1  0.52121050  0.30669250  0.13011800  1
  O  O55  1  0.74413050  0.70970250  0.80767800  1
  O  O56  1  0.75586950  0.20970250  0.69232200  1
  O  O57  1  0.89228550  0.01543450  0.12830900  1
  O  O58  1  0.60771450  0.48456550  0.87169100  1
  O  O59  1  0.88140550  0.36051050  0.97942000  1
  O  O60  1  0.61859450  0.13948950  0.02058000  1
  O  O61  1  0.62394100  0.05547100  0.28888000  1
  O  O62  1  0.87605900  0.44452900  0.71112000  1
  O  O63  1  0.11859450  0.36051050  0.52058000  1
