# generated using pymatgen
data_NaZr2CoF11
_symmetry_space_group_name_H-M   'P 1'
_cell_length_a   9.26663000
_cell_length_b   6.81713200
_cell_length_c   7.90405849
_cell_angle_alpha   90.00000000
_cell_angle_beta   116.16394854
_cell_angle_gamma   90.00000000
_symmetry_Int_Tables_number   1
_chemical_formula_structural   NaZr2CoF11
_chemical_formula_sum   'Na2 Zr4 Co2 F22'
_cell_volume   448.15221370
_cell_formula_units_Z   2
loop_
 _symmetry_equiv_pos_site_id
 _symmetry_equiv_pos_as_xyz
  1  'x, y, z'
loop_
 _atom_site_type_symbol
 _atom_site_label
 _atom_site_symmetry_multiplicity
 _atom_site_fract_x
 _atom_site_fract_y
 _atom_site_fract_z
 _atom_site_occupancy
  Na  Na0  1  0.00000000  0.00000000  0.00000000  1
  Na  Na1  1  0.50000000  0.50000000  0.00000000  1
  Zr  Zr2  1  0.99404400  0.50000000  0.76366800  1
  Zr  Zr3  1  0.00595600  0.50000000  0.23633200  1
  Zr  Zr4  1  0.49404400  0.00000000  0.76366800  1
  Zr  Zr5  1  0.50595600  0.00000000  0.23633200  1
  Co  Co6  1  0.00000000  0.00000000  0.50000000  1
  Co  Co7  1  0.50000000  0.50000000  0.50000000  1
  F  F8  1  0.01500150  0.20476050  0.31185200  1
  F  F9  1  0.98499850  0.79523950  0.68814800  1
  F  F10  1  0.23239700  0.50000000  0.88998000  1
  F  F11  1  0.00000000  0.32864200  0.00000000  1
  F  F12  1  0.74686900  0.50000000  0.64837700  1
  F  F13  1  0.00000000  0.67135800  0.00000000  1
  F  F14  1  0.98499850  0.20476050  0.68814800  1
  F  F15  1  0.01500150  0.79523950  0.31185200  1
  F  F16  1  0.76760300  0.50000000  0.11002000  1
  F  F17  1  0.25313100  0.50000000  0.35162300  1
  F  F18  1  0.00000000  0.50000000  0.50000000  1
  F  F19  1  0.51500150  0.70476050  0.31185200  1
  F  F20  1  0.48499850  0.29523950  0.68814800  1
  F  F21  1  0.73239700  0.00000000  0.88998000  1
  F  F22  1  0.50000000  0.82864200  0.00000000  1
  F  F23  1  0.24686900  0.00000000  0.64837700  1
  F  F24  1  0.50000000  0.17135800  0.00000000  1
  F  F25  1  0.48499850  0.70476050  0.68814800  1
  F  F26  1  0.51500150  0.29523950  0.31185200  1
  F  F27  1  0.26760300  0.00000000  0.11002000  1
  F  F28  1  0.75313100  0.00000000  0.35162300  1
  F  F29  1  0.50000000  0.00000000  0.50000000  1
