# generated using pymatgen
data_MnB4O7
_symmetry_space_group_name_H-M   'P 1'
_cell_length_a   6.71643400
_cell_length_b   10.97948853
_cell_length_c   5.24531000
_cell_angle_alpha   90.00000000
_cell_angle_beta   90.00000000
_cell_angle_gamma   90.00000000
_symmetry_Int_Tables_number   1
_chemical_formula_structural   MnB4O7
_chemical_formula_sum   'Mn4 B16 O28'
_cell_volume   386.80494846
_cell_formula_units_Z   4
loop_
 _symmetry_equiv_pos_site_id
 _symmetry_equiv_pos_as_xyz
  1  'x, y, z'
loop_
 _atom_site_type_symbol
 _atom_site_label
 _atom_site_symmetry_multiplicity
 _atom_site_fract_x
 _atom_site_fract_y
 _atom_site_fract_z
 _atom_site_occupancy
  Mn  Mn0  1  0.22239050  0.00000000  0.25000000  1
  Mn  Mn1  1  0.77760950  0.00000000  0.75000000  1
  Mn  Mn2  1  0.72239050  0.50000000  0.25000000  1
  Mn  Mn3  1  0.27760950  0.50000000  0.75000000  1
  B  B4  1  0.79576625  0.88062925  0.25000000  1
  B  B5  1  0.20423375  0.88062925  0.75000000  1
  B  B6  1  0.79576625  0.11937075  0.25000000  1
  B  B7  1  0.20423375  0.11937075  0.75000000  1
  B  B8  1  0.50000000  0.79320425  0.50000000  1
  B  B9  1  0.50000000  0.20679575  0.50000000  1
  B  B10  1  0.50000000  0.20679575  0.00000000  1
  B  B11  1  0.50000000  0.79320425  0.00000000  1
  B  B12  1  0.29576625  0.38062925  0.25000000  1
  B  B13  1  0.70423375  0.38062925  0.75000000  1
  B  B14  1  0.29576625  0.61937075  0.25000000  1
  B  B15  1  0.70423375  0.61937075  0.75000000  1
  B  B16  1  0.00000000  0.29320425  0.50000000  1
  B  B17  1  0.00000000  0.70679575  0.50000000  1
  B  B18  1  0.00000000  0.70679575  0.00000000  1
  B  B19  1  0.00000000  0.29320425  0.00000000  1
  O  O20  1  0.09927700  0.00000000  0.75000000  1
  O  O21  1  0.90072300  0.00000000  0.25000000  1
  O  O22  1  0.47294050  0.28425200  0.25000000  1
  O  O23  1  0.52705950  0.28425200  0.75000000  1
  O  O24  1  0.47294050  0.71574800  0.25000000  1
  O  O25  1  0.52705950  0.71574800  0.75000000  1
  O  O26  1  0.67723125  0.13303575  0.02430450  1
  O  O27  1  0.32276875  0.13303575  0.97569550  1
  O  O28  1  0.67723125  0.13303575  0.47569550  1
  O  O29  1  0.67723125  0.86696425  0.02430450  1
  O  O30  1  0.32276875  0.86696425  0.97569550  1
  O  O31  1  0.67723125  0.86696425  0.47569550  1
  O  O32  1  0.32276875  0.13303575  0.52430450  1
  O  O33  1  0.32276875  0.86696425  0.52430450  1
  O  O34  1  0.59927700  0.50000000  0.75000000  1
  O  O35  1  0.40072300  0.50000000  0.25000000  1
  O  O36  1  0.97294050  0.78425200  0.25000000  1
  O  O37  1  0.02705950  0.78425200  0.75000000  1
  O  O38  1  0.97294050  0.21574800  0.25000000  1
  O  O39  1  0.02705950  0.21574800  0.75000000  1
  O  O40  1  0.17723125  0.63303575  0.02430450  1
  O  O41  1  0.82276875  0.63303575  0.97569550  1
  O  O42  1  0.17723125  0.63303575  0.47569550  1
  O  O43  1  0.17723125  0.36696425  0.02430450  1
  O  O44  1  0.82276875  0.36696425  0.97569550  1
  O  O45  1  0.17723125  0.36696425  0.47569550  1
  O  O46  1  0.82276875  0.63303575  0.52430450  1
  O  O47  1  0.82276875  0.36696425  0.52430450  1
