# generated using pymatgen
data_Ba3Fe2Cl2O5
_symmetry_space_group_name_H-M   'P 1'
_cell_length_a   10.13636592
_cell_length_b   10.13636592
_cell_length_c   10.13636592
_cell_angle_alpha   90.00000000
_cell_angle_beta   90.00000000
_cell_angle_gamma   90.00000000
_symmetry_Int_Tables_number   1
_chemical_formula_structural   Ba3Fe2Cl2O5
_chemical_formula_sum   'Ba12 Fe8 Cl8 O20'
_cell_volume   1041.47018316
_cell_formula_units_Z   4
loop_
 _symmetry_equiv_pos_site_id
 _symmetry_equiv_pos_as_xyz
  1  'x, y, z'
loop_
 _atom_site_type_symbol
 _atom_site_label
 _atom_site_symmetry_multiplicity
 _atom_site_fract_x
 _atom_site_fract_y
 _atom_site_fract_z
 _atom_site_occupancy
  Ba  Ba0  1  0.50000000  0.75000000  0.90683000  1
  Ba  Ba1  1  0.40683000  0.00000000  0.25000000  1
  Ba  Ba2  1  0.25000000  0.59317000  0.50000000  1
  Ba  Ba3  1  0.00000000  0.75000000  0.09317000  1
  Ba  Ba4  1  0.75000000  0.90683000  0.50000000  1
  Ba  Ba5  1  0.59317000  0.50000000  0.25000000  1
  Ba  Ba6  1  0.00000000  0.25000000  0.40683000  1
  Ba  Ba7  1  0.90683000  0.50000000  0.75000000  1
  Ba  Ba8  1  0.75000000  0.09317000  0.00000000  1
  Ba  Ba9  1  0.50000000  0.25000000  0.59317000  1
  Ba  Ba10  1  0.25000000  0.40683000  0.00000000  1
  Ba  Ba11  1  0.09317000  0.00000000  0.75000000  1
  Fe  Fe12  1  0.90610200  0.59389800  0.40610200  1
  Fe  Fe13  1  0.59389800  0.40610200  0.90610200  1
  Fe  Fe14  1  0.09389800  0.09389800  0.09389800  1
  Fe  Fe15  1  0.90610200  0.40610200  0.09389800  1
  Fe  Fe16  1  0.40610200  0.09389800  0.90610200  1
  Fe  Fe17  1  0.09389800  0.90610200  0.40610200  1
  Fe  Fe18  1  0.59389800  0.59389800  0.59389800  1
  Fe  Fe19  1  0.40610200  0.90610200  0.59389800  1
  Cl  Cl20  1  0.30656050  0.30656050  0.30656050  1
  Cl  Cl21  1  0.30656050  0.69343950  0.19343950  1
  Cl  Cl22  1  0.69343950  0.80656050  0.19343950  1
  Cl  Cl23  1  0.69343950  0.19343950  0.30656050  1
  Cl  Cl24  1  0.80656050  0.80656050  0.80656050  1
  Cl  Cl25  1  0.80656050  0.19343950  0.69343950  1
  Cl  Cl26  1  0.19343950  0.30656050  0.69343950  1
  Cl  Cl27  1  0.19343950  0.69343950  0.80656050  1
  O  O28  1  0.51191667  0.98808333  0.01191667  1
  O  O29  1  0.48808333  0.51191667  0.01191667  1
  O  O30  1  0.51191667  0.01191667  0.48808333  1
  O  O31  1  0.48808333  0.48808333  0.48808333  1
  O  O32  1  0.00000000  0.25000000  0.14316750  1
  O  O33  1  0.75000000  0.64316750  0.50000000  1
  O  O34  1  0.00000000  0.75000000  0.35683250  1
  O  O35  1  0.64316750  0.50000000  0.75000000  1
  O  O36  1  0.75000000  0.35683250  0.00000000  1
  O  O37  1  0.85683250  0.50000000  0.25000000  1
  O  O38  1  0.01191667  0.48808333  0.51191667  1
  O  O39  1  0.98808333  0.01191667  0.51191667  1
  O  O40  1  0.01191667  0.51191667  0.98808333  1
  O  O41  1  0.98808333  0.98808333  0.98808333  1
  O  O42  1  0.50000000  0.75000000  0.64316750  1
  O  O43  1  0.25000000  0.14316750  0.00000000  1
  O  O44  1  0.50000000  0.25000000  0.85683250  1
  O  O45  1  0.14316750  0.00000000  0.25000000  1
  O  O46  1  0.25000000  0.85683250  0.50000000  1
  O  O47  1  0.35683250  0.00000000  0.75000000  1
