# generated using pymatgen
data_CrHgF6
_symmetry_space_group_name_H-M   'P 1'
_cell_length_a   5.28622778
_cell_length_b   5.28622778
_cell_length_c   14.55689386
_cell_angle_alpha   90.00000000
_cell_angle_beta   90.00000000
_cell_angle_gamma   120.00000000
_symmetry_Int_Tables_number   1
_chemical_formula_structural   CrHgF6
_chemical_formula_sum   'Cr3 Hg3 F18'
_cell_volume   352.28251794
_cell_formula_units_Z   3
loop_
 _symmetry_equiv_pos_site_id
 _symmetry_equiv_pos_as_xyz
  1  'x, y, z'
loop_
 _atom_site_type_symbol
 _atom_site_label
 _atom_site_symmetry_multiplicity
 _atom_site_fract_x
 _atom_site_fract_y
 _atom_site_fract_z
 _atom_site_occupancy
  Cr  Cr0  1  0.00000000  0.00000000  0.00000000  1
  Cr  Cr1  1  0.66666667  0.33333333  0.33333333  1
  Cr  Cr2  1  0.33333333  0.66666667  0.66666667  1
  Hg  Hg3  1  0.33333333  0.66666667  0.16666667  1
  Hg  Hg4  1  1.00000000  0.00000000  0.50000000  1
  Hg  Hg5  1  0.66666667  0.33333333  0.83333333  1
  F  F6  1  0.67199367  0.62306233  0.25909833  1
  F  F7  1  0.95106867  0.32800633  0.25909833  1
  F  F8  1  0.28972900  0.28440200  0.07423500  1
  F  F9  1  0.71559800  0.00532700  0.07423500  1
  F  F10  1  0.99467300  0.71027100  0.07423500  1
  F  F11  1  0.37693767  0.04893133  0.25909833  1
  F  F12  1  0.33866033  0.95639567  0.59243167  1
  F  F13  1  0.61773533  0.66133967  0.59243167  1
  F  F14  1  0.95639567  0.61773533  0.40756833  1
  F  F15  1  0.38226467  0.33866033  0.40756833  1
  F  F16  1  0.66133967  0.04360433  0.40756833  1
  F  F17  1  0.04360433  0.38226467  0.59243167  1
  F  F18  1  0.00532700  0.28972900  0.92576500  1
  F  F19  1  0.28440200  0.99467300  0.92576500  1
  F  F20  1  0.62306233  0.95106867  0.74090167  1
  F  F21  1  0.04893133  0.67199367  0.74090167  1
  F  F22  1  0.32800633  0.37693767  0.74090167  1
  F  F23  1  0.71027100  0.71559800  0.92576500  1
