# generated using pymatgen
data_SbAsPd5
_symmetry_space_group_name_H-M   'P 1'
_cell_length_a   12.41926600
_cell_length_b   12.41926600
_cell_length_c   12.41926600
_cell_angle_alpha   90.00000000
_cell_angle_beta   90.00000000
_cell_angle_gamma   90.00000000
_symmetry_Int_Tables_number   1
_chemical_formula_structural   SbAsPd5
_chemical_formula_sum   'Sb16 As16 Pd80'
_cell_volume   1915.52483548
_cell_formula_units_Z   16
loop_
 _symmetry_equiv_pos_site_id
 _symmetry_equiv_pos_as_xyz
  1  'x, y, z'
loop_
 _atom_site_type_symbol
 _atom_site_label
 _atom_site_symmetry_multiplicity
 _atom_site_fract_x
 _atom_site_fract_y
 _atom_site_fract_z
 _atom_site_occupancy
  Sb  Sb0  1  0.12500000  0.12500000  0.12500000  1
  Sb  Sb1  1  0.62500000  0.87500000  0.37500000  1
  Sb  Sb2  1  0.37500000  0.12500000  0.37500000  1
  Sb  Sb3  1  0.87500000  0.87500000  0.12500000  1
  Sb  Sb4  1  0.12500000  0.62500000  0.62500000  1
  Sb  Sb5  1  0.62500000  0.37500000  0.87500000  1
  Sb  Sb6  1  0.37500000  0.62500000  0.87500000  1
  Sb  Sb7  1  0.87500000  0.37500000  0.62500000  1
  Sb  Sb8  1  0.62500000  0.12500000  0.62500000  1
  Sb  Sb9  1  0.12500000  0.87500000  0.87500000  1
  Sb  Sb10  1  0.87500000  0.12500000  0.87500000  1
  Sb  Sb11  1  0.37500000  0.87500000  0.62500000  1
  Sb  Sb12  1  0.62500000  0.62500000  0.12500000  1
  Sb  Sb13  1  0.12500000  0.37500000  0.37500000  1
  Sb  Sb14  1  0.87500000  0.62500000  0.37500000  1
  Sb  Sb15  1  0.37500000  0.37500000  0.12500000  1
  As  As16  1  0.12500000  0.62500000  0.12500000  1
  As  As17  1  0.12500000  0.87500000  0.37500000  1
  As  As18  1  0.37500000  0.62500000  0.37500000  1
  As  As19  1  0.37500000  0.87500000  0.12500000  1
  As  As20  1  0.12500000  0.12500000  0.62500000  1
  As  As21  1  0.12500000  0.37500000  0.87500000  1
  As  As22  1  0.37500000  0.12500000  0.87500000  1
  As  As23  1  0.37500000  0.37500000  0.62500000  1
  As  As24  1  0.62500000  0.62500000  0.62500000  1
  As  As25  1  0.62500000  0.87500000  0.87500000  1
  As  As26  1  0.87500000  0.62500000  0.87500000  1
  As  As27  1  0.87500000  0.87500000  0.62500000  1
  As  As28  1  0.62500000  0.12500000  0.12500000  1
  As  As29  1  0.62500000  0.37500000  0.37500000  1
  As  As30  1  0.87500000  0.12500000  0.37500000  1
  As  As31  1  0.87500000  0.37500000  0.12500000  1
  Pd  Pd32  1  0.50000000  0.28580000  0.50000000  1
  Pd  Pd33  1  0.46420000  0.75000000  0.25000000  1
  Pd  Pd34  1  0.03580000  0.75000000  0.25000000  1
  Pd  Pd35  1  0.25000000  0.53580000  0.25000000  1
  Pd  Pd36  1  0.25000000  0.75000000  0.46420000  1
  Pd  Pd37  1  0.25000000  0.75000000  0.03580000  1
  Pd  Pd38  1  0.00000000  0.00000000  0.28580000  1
  Pd  Pd39  1  0.78580000  0.00000000  0.50000000  1
  Pd  Pd40  1  0.21420000  0.00000000  0.50000000  1
  Pd  Pd41  1  0.50000000  0.00000000  0.21420000  1
  Pd  Pd42  1  0.25000000  0.96420000  0.25000000  1
  Pd  Pd43  1  0.50000000  0.71420000  0.50000000  1
  Pd  Pd44  1  0.33935600  0.33935600  0.33935600  1
  Pd  Pd45  1  0.91064400  0.08935600  0.08935600  1
  Pd  Pd46  1  0.08935600  0.91064400  0.08935600  1
  Pd  Pd47  1  0.58935600  0.08935600  0.41064400  1
  Pd  Pd48  1  0.16064400  0.33935600  0.16064400  1
  Pd  Pd49  1  0.16064400  0.16064400  0.33935600  1
  Pd  Pd50  1  0.33935600  0.16064400  0.16064400  1
  Pd  Pd51  1  0.41064400  0.91064400  0.41064400  1
  Pd  Pd52  1  0.50000000  0.78580000  0.00000000  1
  Pd  Pd53  1  0.46420000  0.25000000  0.75000000  1
  Pd  Pd54  1  0.03580000  0.25000000  0.75000000  1
  Pd  Pd55  1  0.25000000  0.03580000  0.75000000  1
  Pd  Pd56  1  0.25000000  0.25000000  0.96420000  1
  Pd  Pd57  1  0.25000000  0.25000000  0.53580000  1
  Pd  Pd58  1  0.00000000  0.50000000  0.78580000  1
  Pd  Pd59  1  0.78580000  0.50000000  0.00000000  1
  Pd  Pd60  1  0.21420000  0.50000000  0.00000000  1
  Pd  Pd61  1  0.50000000  0.50000000  0.71420000  1
  Pd  Pd62  1  0.25000000  0.46420000  0.75000000  1
  Pd  Pd63  1  0.50000000  0.21420000  0.00000000  1
  Pd  Pd64  1  0.33935600  0.83935600  0.83935600  1
  Pd  Pd65  1  0.91064400  0.58935600  0.58935600  1
  Pd  Pd66  1  0.08935600  0.41064400  0.58935600  1
  Pd  Pd67  1  0.58935600  0.58935600  0.91064400  1
  Pd  Pd68  1  0.16064400  0.83935600  0.66064400  1
  Pd  Pd69  1  0.16064400  0.66064400  0.83935600  1
  Pd  Pd70  1  0.33935600  0.66064400  0.66064400  1
  Pd  Pd71  1  0.41064400  0.41064400  0.91064400  1
  Pd  Pd72  1  0.00000000  0.28580000  0.00000000  1
  Pd  Pd73  1  0.96420000  0.75000000  0.75000000  1
  Pd  Pd74  1  0.53580000  0.75000000  0.75000000  1
  Pd  Pd75  1  0.75000000  0.53580000  0.75000000  1
  Pd  Pd76  1  0.75000000  0.75000000  0.96420000  1
  Pd  Pd77  1  0.75000000  0.75000000  0.53580000  1
  Pd  Pd78  1  0.50000000  0.00000000  0.78580000  1
  Pd  Pd79  1  0.28580000  0.00000000  0.00000000  1
  Pd  Pd80  1  0.71420000  0.00000000  0.00000000  1
  Pd  Pd81  1  0.00000000  0.00000000  0.71420000  1
  Pd  Pd82  1  0.75000000  0.96420000  0.75000000  1
  Pd  Pd83  1  0.00000000  0.71420000  0.00000000  1
  Pd  Pd84  1  0.83935600  0.33935600  0.83935600  1
  Pd  Pd85  1  0.41064400  0.08935600  0.58935600  1
  Pd  Pd86  1  0.58935600  0.91064400  0.58935600  1
  Pd  Pd87  1  0.08935600  0.08935600  0.91064400  1
  Pd  Pd88  1  0.66064400  0.33935600  0.66064400  1
  Pd  Pd89  1  0.66064400  0.16064400  0.83935600  1
  Pd  Pd90  1  0.83935600  0.16064400  0.66064400  1
  Pd  Pd91  1  0.91064400  0.91064400  0.91064400  1
  Pd  Pd92  1  0.00000000  0.78580000  0.50000000  1
  Pd  Pd93  1  0.96420000  0.25000000  0.25000000  1
  Pd  Pd94  1  0.53580000  0.25000000  0.25000000  1
  Pd  Pd95  1  0.75000000  0.03580000  0.25000000  1
  Pd  Pd96  1  0.75000000  0.25000000  0.46420000  1
  Pd  Pd97  1  0.75000000  0.25000000  0.03580000  1
  Pd  Pd98  1  0.50000000  0.50000000  0.28580000  1
  Pd  Pd99  1  0.28580000  0.50000000  0.50000000  1
  Pd  Pd100  1  0.71420000  0.50000000  0.50000000  1
  Pd  Pd101  1  0.00000000  0.50000000  0.21420000  1
  Pd  Pd102  1  0.75000000  0.46420000  0.25000000  1
  Pd  Pd103  1  0.00000000  0.21420000  0.50000000  1
  Pd  Pd104  1  0.83935600  0.83935600  0.33935600  1
  Pd  Pd105  1  0.41064400  0.58935600  0.08935600  1
  Pd  Pd106  1  0.58935600  0.41064400  0.08935600  1
  Pd  Pd107  1  0.08935600  0.58935600  0.41064400  1
  Pd  Pd108  1  0.66064400  0.83935600  0.16064400  1
  Pd  Pd109  1  0.66064400  0.66064400  0.33935600  1
  Pd  Pd110  1  0.83935600  0.66064400  0.16064400  1
  Pd  Pd111  1  0.91064400  0.41064400  0.41064400  1
