# generated using pymatgen
data_Na24In5O15
_symmetry_space_group_name_H-M   'P 1'
_cell_length_a   11.27198400
_cell_length_b   11.27198400
_cell_length_c   11.27198400
_cell_angle_alpha   90.00000000
_cell_angle_beta   90.00000000
_cell_angle_gamma   90.00000000
_symmetry_Int_Tables_number   1
_chemical_formula_structural   Na24In5O15
_chemical_formula_sum   'Na48 In10 O30'
_cell_volume   1432.19149687
_cell_formula_units_Z   2
loop_
 _symmetry_equiv_pos_site_id
 _symmetry_equiv_pos_as_xyz
  1  'x, y, z'
loop_
 _atom_site_type_symbol
 _atom_site_label
 _atom_site_symmetry_multiplicity
 _atom_site_fract_x
 _atom_site_fract_y
 _atom_site_fract_z
 _atom_site_occupancy
  Na  Na0  1  0.41479250  0.13266150  0.86733850  1
  Na  Na1  1  0.89129200  0.10870800  0.67549000  1
  Na  Na2  1  0.32451000  0.10870800  0.10870800  1
  Na  Na3  1  0.89129200  0.67549000  0.10870800  1
  Na  Na4  1  0.82451000  0.39129200  0.39129200  1
  Na  Na5  1  0.39129200  0.39129200  0.82451000  1
  Na  Na6  1  0.10870800  0.32451000  0.10870800  1
  Na  Na7  1  0.10870800  0.67549000  0.89129200  1
  Na  Na8  1  0.67549000  0.89129200  0.10870800  1
  Na  Na9  1  0.67549000  0.10870800  0.89129200  1
  Na  Na10  1  0.13266150  0.86733850  0.41479250  1
  Na  Na11  1  0.58520750  0.13266150  0.13266150  1
  Na  Na12  1  0.36733850  0.08520750  0.36733850  1
  Na  Na13  1  0.41479250  0.86733850  0.13266150  1
  Na  Na14  1  0.13266150  0.13266150  0.58520750  1
  Na  Na15  1  0.39129200  0.82451000  0.39129200  1
  Na  Na16  1  0.86733850  0.41479250  0.13266150  1
  Na  Na17  1  0.13266150  0.58520750  0.13266150  1
  Na  Na18  1  0.10870800  0.89129200  0.67549000  1
  Na  Na19  1  0.10870800  0.10870800  0.32451000  1
  Na  Na20  1  0.86733850  0.13266150  0.41479250  1
  Na  Na21  1  0.36733850  0.36733850  0.08520750  1
  Na  Na22  1  0.13266150  0.41479250  0.86733850  1
  Na  Na23  1  0.08520750  0.36733850  0.36733850  1
  Na  Na24  1  0.91479250  0.63266150  0.36733850  1
  Na  Na25  1  0.39129200  0.60870800  0.17549000  1
  Na  Na26  1  0.82451000  0.60870800  0.60870800  1
  Na  Na27  1  0.39129200  0.17549000  0.60870800  1
  Na  Na28  1  0.32451000  0.89129200  0.89129200  1
  Na  Na29  1  0.89129200  0.89129200  0.32451000  1
  Na  Na30  1  0.60870800  0.82451000  0.60870800  1
  Na  Na31  1  0.60870800  0.17549000  0.39129200  1
  Na  Na32  1  0.17549000  0.39129200  0.60870800  1
  Na  Na33  1  0.17549000  0.60870800  0.39129200  1
  Na  Na34  1  0.63266150  0.36733850  0.91479250  1
  Na  Na35  1  0.08520750  0.63266150  0.63266150  1
  Na  Na36  1  0.86733850  0.58520750  0.86733850  1
  Na  Na37  1  0.91479250  0.36733850  0.63266150  1
  Na  Na38  1  0.63266150  0.63266150  0.08520750  1
  Na  Na39  1  0.89129200  0.32451000  0.89129200  1
  Na  Na40  1  0.36733850  0.91479250  0.63266150  1
  Na  Na41  1  0.63266150  0.08520750  0.63266150  1
  Na  Na42  1  0.60870800  0.39129200  0.17549000  1
  Na  Na43  1  0.60870800  0.60870800  0.82451000  1
  Na  Na44  1  0.36733850  0.63266150  0.91479250  1
  Na  Na45  1  0.86733850  0.86733850  0.58520750  1
  Na  Na46  1  0.63266150  0.91479250  0.36733850  1
  Na  Na47  1  0.58520750  0.86733850  0.86733850  1
  In  In48  1  0.35630350  0.35630350  0.35630350  1
  In  In49  1  0.14369650  0.85630350  0.14369650  1
  In  In50  1  0.14369650  0.14369650  0.85630350  1
  In  In51  1  0.00000000  0.00000000  0.00000000  1
  In  In52  1  0.85630350  0.14369650  0.14369650  1
  In  In53  1  0.85630350  0.85630350  0.85630350  1
  In  In54  1  0.64369650  0.35630350  0.64369650  1
  In  In55  1  0.64369650  0.64369650  0.35630350  1
  In  In56  1  0.50000000  0.50000000  0.50000000  1
  In  In57  1  0.35630350  0.64369650  0.64369650  1
  O  O58  1  0.26078500  0.26078500  0.95289500  1
  O  O59  1  0.76078500  0.23921500  0.54710500  1
  O  O60  1  0.50000000  0.00000000  0.00000000  1
  O  O61  1  0.45289500  0.23921500  0.23921500  1
  O  O62  1  0.23921500  0.45289500  0.23921500  1
  O  O63  1  0.95289500  0.26078500  0.26078500  1
  O  O64  1  0.23921500  0.54710500  0.76078500  1
  O  O65  1  0.54710500  0.76078500  0.23921500  1
  O  O66  1  0.23921500  0.76078500  0.54710500  1
  O  O67  1  0.54710500  0.23921500  0.76078500  1
  O  O68  1  0.76078500  0.54710500  0.23921500  1
  O  O69  1  0.23921500  0.23921500  0.45289500  1
  O  O70  1  0.26078500  0.95289500  0.26078500  1
  O  O71  1  0.00000000  0.00000000  0.50000000  1
  O  O72  1  0.00000000  0.50000000  0.00000000  1
  O  O73  1  0.76078500  0.76078500  0.45289500  1
  O  O74  1  0.26078500  0.73921500  0.04710500  1
  O  O75  1  0.00000000  0.50000000  0.50000000  1
  O  O76  1  0.95289500  0.73921500  0.73921500  1
  O  O77  1  0.73921500  0.95289500  0.73921500  1
  O  O78  1  0.45289500  0.76078500  0.76078500  1
  O  O79  1  0.73921500  0.04710500  0.26078500  1
  O  O80  1  0.04710500  0.26078500  0.73921500  1
  O  O81  1  0.73921500  0.26078500  0.04710500  1
  O  O82  1  0.04710500  0.73921500  0.26078500  1
  O  O83  1  0.26078500  0.04710500  0.73921500  1
  O  O84  1  0.73921500  0.73921500  0.95289500  1
  O  O85  1  0.76078500  0.45289500  0.76078500  1
  O  O86  1  0.50000000  0.50000000  0.00000000  1
  O  O87  1  0.50000000  0.00000000  0.50000000  1
