# generated using pymatgen
data_MnBiAsO5
_symmetry_space_group_name_H-M   'P 1'
_cell_length_a   5.47439635
_cell_length_b   7.01100726
_cell_length_c   7.03509559
_cell_angle_alpha   109.33801897
_cell_angle_beta   96.67614284
_cell_angle_gamma   108.99217616
_symmetry_Int_Tables_number   1
_chemical_formula_structural   MnBiAsO5
_chemical_formula_sum   'Mn2 Bi2 As2 O10'
_cell_volume   233.19327898
_cell_formula_units_Z   2
loop_
 _symmetry_equiv_pos_site_id
 _symmetry_equiv_pos_as_xyz
  1  'x, y, z'
loop_
 _atom_site_type_symbol
 _atom_site_label
 _atom_site_symmetry_multiplicity
 _atom_site_fract_x
 _atom_site_fract_y
 _atom_site_fract_z
 _atom_site_occupancy
  Mn  Mn0  1  0.67296900  0.78318000  0.63279100  1
  Mn  Mn1  1  0.32703100  0.21682000  0.36720900  1
  Bi  Bi2  1  0.90819000  0.47188800  0.24476400  1
  Bi  Bi3  1  0.09181000  0.52811200  0.75523600  1
  As  As4  1  0.34960000  0.11883000  0.82240800  1
  As  As5  1  0.65040000  0.88117000  0.17759200  1
  O  O6  1  0.73529600  0.45329400  0.49887000  1
  O  O7  1  0.26470400  0.54670600  0.50113000  1
  O  O8  1  0.56851400  0.70809900  0.91688400  1
  O  O9  1  0.43148600  0.29190100  0.08311600  1
  O  O10  1  0.22277600  0.22579400  0.66348200  1
  O  O11  1  0.77722400  0.77420600  0.33651800  1
  O  O12  1  0.36704800  0.90766900  0.23965400  1
  O  O13  1  0.63295200  0.09233100  0.76034600  1
  O  O14  1  0.09358300  0.87425000  0.78206100  1
  O  O15  1  0.90641700  0.12575000  0.21793900  1
