# generated using pymatgen
data_LiCrPO4
_symmetry_space_group_name_H-M   'P 1'
_cell_length_a   5.20418581
_cell_length_b   9.71061000
_cell_length_c   8.64262131
_cell_angle_alpha   90.00000000
_cell_angle_beta   125.19771493
_cell_angle_gamma   90.00000000
_symmetry_Int_Tables_number   1
_chemical_formula_structural   LiCrPO4
_chemical_formula_sum   'Li4 Cr4 P4 O16'
_cell_volume   356.90783484
_cell_formula_units_Z   4
loop_
 _symmetry_equiv_pos_site_id
 _symmetry_equiv_pos_as_xyz
  1  'x, y, z'
loop_
 _atom_site_type_symbol
 _atom_site_label
 _atom_site_symmetry_multiplicity
 _atom_site_fract_x
 _atom_site_fract_y
 _atom_site_fract_z
 _atom_site_occupancy
  Li  Li0  1  0.77153100  0.32036000  0.97431250  1
  Li  Li1  1  0.22846900  0.67964000  0.02568750  1
  Li  Li2  1  0.77153100  0.17964000  0.47431250  1
  Li  Li3  1  0.22846900  0.82036000  0.52568750  1
  Cr  Cr4  1  0.76394400  0.88698600  0.02228750  1
  Cr  Cr5  1  0.23605600  0.38698600  0.47771250  1
  Cr  Cr6  1  0.76394400  0.61301400  0.52228750  1
  Cr  Cr7  1  0.23605600  0.11301400  0.97771250  1
  P  P8  1  0.07720400  0.09439900  0.26720350  1
  P  P9  1  0.92279600  0.59439900  0.23279650  1
  P  P10  1  0.07720400  0.40560100  0.76720350  1
  P  P11  1  0.92279600  0.90560100  0.73279650  1
  O  O12  1  0.08400500  0.18683000  0.41435450  1
  O  O13  1  0.08400500  0.31317000  0.91435450  1
  O  O14  1  0.91599500  0.68683000  0.08564550  1
  O  O15  1  0.91599500  0.81317000  0.58564550  1
  O  O16  1  0.06646700  0.56018700  0.80845550  1
  O  O17  1  0.93353300  0.06018700  0.69154450  1
  O  O18  1  0.06646700  0.93981300  0.30845550  1
  O  O19  1  0.93353300  0.43981300  0.19154450  1
  O  O20  1  0.76509900  0.38740300  0.55886850  1
  O  O21  1  0.23490100  0.61259700  0.44113150  1
  O  O22  1  0.76509900  0.11259700  0.05886850  1
  O  O23  1  0.23490100  0.88740300  0.94113150  1
  O  O24  1  0.64299100  0.86991500  0.74439450  1
  O  O25  1  0.35700900  0.36991500  0.75560550  1
  O  O26  1  0.64299100  0.63008500  0.24439450  1
  O  O27  1  0.35700900  0.13008500  0.25560550  1
