# generated using pymatgen
data_ZrCl2
_symmetry_space_group_name_H-M   'P 1'
_cell_length_a   13.21389040
_cell_length_b   13.21389040
_cell_length_c   9.00179753
_cell_angle_alpha   90.00000000
_cell_angle_beta   90.00000000
_cell_angle_gamma   120.00000000
_symmetry_Int_Tables_number   1
_chemical_formula_structural   ZrCl2
_chemical_formula_sum   'Zr18 Cl36'
_cell_volume   1361.19790802
_cell_formula_units_Z   18
loop_
 _symmetry_equiv_pos_site_id
 _symmetry_equiv_pos_as_xyz
  1  'x, y, z'
loop_
 _atom_site_type_symbol
 _atom_site_label
 _atom_site_symmetry_multiplicity
 _atom_site_fract_x
 _atom_site_fract_y
 _atom_site_fract_z
 _atom_site_occupancy
  Zr  Zr0  1  0.11252800  0.15462200  0.85552600  1
  Zr  Zr1  1  0.15462200  0.04209400  0.14447400  1
  Zr  Zr2  1  0.84537800  0.95790600  0.85552600  1
  Zr  Zr3  1  0.04209400  0.88747200  0.85552600  1
  Zr  Zr4  1  0.95790600  0.11252800  0.14447400  1
  Zr  Zr5  1  0.88747200  0.84537800  0.14447400  1
  Zr  Zr6  1  0.77919467  0.48795533  0.18885933  1
  Zr  Zr7  1  0.82128867  0.37542733  0.47780733  1
  Zr  Zr8  1  0.51204467  0.29123933  0.18885933  1
  Zr  Zr9  1  0.70876067  0.22080533  0.18885933  1
  Zr  Zr10  1  0.62457267  0.44586133  0.47780733  1
  Zr  Zr11  1  0.55413867  0.17871133  0.47780733  1
  Zr  Zr12  1  0.44586133  0.82128867  0.52219267  1
  Zr  Zr13  1  0.48795533  0.70876067  0.81114067  1
  Zr  Zr14  1  0.17871133  0.62457267  0.52219267  1
  Zr  Zr15  1  0.37542733  0.55413867  0.52219267  1
  Zr  Zr16  1  0.29123933  0.77919467  0.81114067  1
  Zr  Zr17  1  0.22080533  0.51204467  0.81114067  1
  Cl  Cl18  1  0.87307700  0.82503000  0.67713300  1
  Cl  Cl19  1  0.10705800  0.74905800  0.67061200  1
  Cl  Cl20  1  0.89294200  0.25094200  0.32938800  1
  Cl  Cl21  1  0.74905800  0.64200000  0.32938800  1
  Cl  Cl22  1  0.25094200  0.35800000  0.67061200  1
  Cl  Cl23  1  0.35800000  0.10705800  0.32938800  1
  Cl  Cl24  1  0.17497000  0.04804700  0.67713300  1
  Cl  Cl25  1  0.12692300  0.17497000  0.32286700  1
  Cl  Cl26  1  0.04804700  0.87307700  0.32286700  1
  Cl  Cl27  1  0.95195300  0.12692300  0.67713300  1
  Cl  Cl28  1  0.82503000  0.95195300  0.32286700  1
  Cl  Cl29  1  0.64200000  0.89294200  0.67061200  1
  Cl  Cl30  1  0.53974367  0.15836333  0.01046633  1
  Cl  Cl31  1  0.77372467  0.08239133  0.00394533  1
  Cl  Cl32  1  0.55960867  0.58427533  0.66272133  1
  Cl  Cl33  1  0.41572467  0.97533333  0.66272133  1
  Cl  Cl34  1  0.91760867  0.69133333  0.00394533  1
  Cl  Cl35  1  0.02466667  0.44039133  0.66272133  1
  Cl  Cl36  1  0.84163667  0.38138033  0.01046633  1
  Cl  Cl37  1  0.79358967  0.50830333  0.65620033  1
  Cl  Cl38  1  0.71471367  0.20641033  0.65620033  1
  Cl  Cl39  1  0.61861967  0.46025633  0.01046633  1
  Cl  Cl40  1  0.49169667  0.28528633  0.65620033  1
  Cl  Cl41  1  0.30866667  0.22627533  0.00394533  1
  Cl  Cl42  1  0.20641033  0.49169667  0.34379967  1
  Cl  Cl43  1  0.44039133  0.41572467  0.33727867  1
  Cl  Cl44  1  0.22627533  0.91760867  0.99605467  1
  Cl  Cl45  1  0.08239133  0.30866667  0.99605467  1
  Cl  Cl46  1  0.58427533  0.02466667  0.33727867  1
  Cl  Cl47  1  0.69133333  0.77372467  0.99605467  1
  Cl  Cl48  1  0.50830333  0.71471367  0.34379967  1
  Cl  Cl49  1  0.46025633  0.84163667  0.98953367  1
  Cl  Cl50  1  0.38138033  0.53974367  0.98953367  1
  Cl  Cl51  1  0.28528633  0.79358967  0.34379967  1
  Cl  Cl52  1  0.15836333  0.61861967  0.98953367  1
  Cl  Cl53  1  0.97533333  0.55960867  0.33727867  1
