# generated using pymatgen
data_Rb2SbBr6
_symmetry_space_group_name_H-M   'P 1'
_cell_length_a   11.01831200
_cell_length_b   11.01831200
_cell_length_c   22.15175600
_cell_angle_alpha   90.00000000
_cell_angle_beta   90.00000000
_cell_angle_gamma   90.00000000
_symmetry_Int_Tables_number   1
_chemical_formula_structural   Rb2SbBr6
_chemical_formula_sum   'Rb16 Sb8 Br48'
_cell_volume   2689.29404916
_cell_formula_units_Z   8
loop_
 _symmetry_equiv_pos_site_id
 _symmetry_equiv_pos_as_xyz
  1  'x, y, z'
loop_
 _atom_site_type_symbol
 _atom_site_label
 _atom_site_symmetry_multiplicity
 _atom_site_fract_x
 _atom_site_fract_y
 _atom_site_fract_z
 _atom_site_occupancy
  Rb  Rb0  1  0.25000000  0.72396600  0.37500000  1
  Rb  Rb1  1  0.77603400  0.25000000  0.12500000  1
  Rb  Rb2  1  0.25000000  0.27603400  0.37500000  1
  Rb  Rb3  1  0.22396600  0.25000000  0.12500000  1
  Rb  Rb4  1  0.22396600  0.75000000  0.12500000  1
  Rb  Rb5  1  0.77603400  0.75000000  0.12500000  1
  Rb  Rb6  1  0.75000000  0.72396600  0.37500000  1
  Rb  Rb7  1  0.75000000  0.27603400  0.37500000  1
  Rb  Rb8  1  0.75000000  0.22396600  0.87500000  1
  Rb  Rb9  1  0.27603400  0.75000000  0.62500000  1
  Rb  Rb10  1  0.75000000  0.77603400  0.87500000  1
  Rb  Rb11  1  0.72396600  0.75000000  0.62500000  1
  Rb  Rb12  1  0.72396600  0.25000000  0.62500000  1
  Rb  Rb13  1  0.27603400  0.25000000  0.62500000  1
  Rb  Rb14  1  0.25000000  0.22396600  0.87500000  1
  Rb  Rb15  1  0.25000000  0.77603400  0.87500000  1
  Sb  Sb16  1  0.00000000  0.50000000  0.25000000  1
  Sb  Sb17  1  0.50000000  0.50000000  0.00000000  1
  Sb  Sb18  1  0.50000000  0.00000000  0.25000000  1
  Sb  Sb19  1  0.00000000  0.00000000  0.00000000  1
  Sb  Sb20  1  0.50000000  0.00000000  0.75000000  1
  Sb  Sb21  1  0.00000000  0.00000000  0.50000000  1
  Sb  Sb22  1  0.00000000  0.50000000  0.75000000  1
  Sb  Sb23  1  0.50000000  0.50000000  0.50000000  1
  Br  Br24  1  0.50000000  0.75055100  0.49749300  1
  Br  Br25  1  0.74944900  0.00000000  0.00250700  1
  Br  Br26  1  0.74162000  0.00000000  0.24847600  1
  Br  Br27  1  0.25055100  0.50000000  0.24749300  1
  Br  Br28  1  0.50000000  0.24162000  0.25152400  1
  Br  Br29  1  0.00000000  0.00000000  0.12497600  1
  Br  Br30  1  0.74162000  0.50000000  0.00152400  1
  Br  Br31  1  0.00000000  0.50000000  0.37497600  1
  Br  Br32  1  0.25055100  0.00000000  0.00250700  1
  Br  Br33  1  0.00000000  0.00000000  0.38070200  1
  Br  Br34  1  0.50000000  0.50000000  0.11929800  1
  Br  Br35  1  0.25838000  0.50000000  0.00152400  1
  Br  Br36  1  0.00000000  0.75838000  0.49847600  1
  Br  Br37  1  0.00000000  0.24944900  0.25250700  1
  Br  Br38  1  0.50000000  0.00000000  0.36929800  1
  Br  Br39  1  0.00000000  0.50000000  0.12502400  1
  Br  Br40  1  0.25838000  0.00000000  0.24847600  1
  Br  Br41  1  0.50000000  0.00000000  0.13070200  1
  Br  Br42  1  0.50000000  0.75838000  0.25152400  1
  Br  Br43  1  0.00000000  0.75055100  0.25250700  1
  Br  Br44  1  0.50000000  0.24944900  0.49749300  1
  Br  Br45  1  0.00000000  0.24162000  0.49847600  1
  Br  Br46  1  0.74944900  0.50000000  0.24749300  1
  Br  Br47  1  0.50000000  0.50000000  0.37502400  1
  Br  Br48  1  0.00000000  0.25055100  0.99749300  1
  Br  Br49  1  0.24944900  0.50000000  0.50250700  1
  Br  Br50  1  0.24162000  0.50000000  0.74847600  1
  Br  Br51  1  0.75055100  0.00000000  0.74749300  1
  Br  Br52  1  0.00000000  0.74162000  0.75152400  1
  Br  Br53  1  0.50000000  0.50000000  0.62497600  1
  Br  Br54  1  0.24162000  0.00000000  0.50152400  1
  Br  Br55  1  0.50000000  0.00000000  0.87497600  1
  Br  Br56  1  0.75055100  0.50000000  0.50250700  1
  Br  Br57  1  0.50000000  0.50000000  0.88070200  1
  Br  Br58  1  0.00000000  0.00000000  0.61929800  1
  Br  Br59  1  0.75838000  0.00000000  0.50152400  1
  Br  Br60  1  0.50000000  0.25838000  0.99847600  1
  Br  Br61  1  0.50000000  0.74944900  0.75250700  1
  Br  Br62  1  0.00000000  0.50000000  0.86929800  1
  Br  Br63  1  0.50000000  0.00000000  0.62502400  1
  Br  Br64  1  0.75838000  0.50000000  0.74847600  1
  Br  Br65  1  0.00000000  0.50000000  0.63070200  1
  Br  Br66  1  0.00000000  0.25838000  0.75152400  1
  Br  Br67  1  0.50000000  0.25055100  0.75250700  1
  Br  Br68  1  0.00000000  0.74944900  0.99749300  1
  Br  Br69  1  0.50000000  0.74162000  0.99847600  1
  Br  Br70  1  0.24944900  0.00000000  0.74749300  1
  Br  Br71  1  0.00000000  0.00000000  0.87502400  1
