# generated using pymatgen
data_Er2Co7
_symmetry_space_group_name_H-M   'P 1'
_cell_length_a   4.93904827
_cell_length_b   4.93904827
_cell_length_c   36.05150549
_cell_angle_alpha   90.00000000
_cell_angle_beta   90.00000000
_cell_angle_gamma   120.00000000
_symmetry_Int_Tables_number   1
_chemical_formula_structural   Er2Co7
_chemical_formula_sum   'Er12 Co42'
_cell_volume   761.62392572
_cell_formula_units_Z   6
loop_
 _symmetry_equiv_pos_site_id
 _symmetry_equiv_pos_as_xyz
  1  'x, y, z'
loop_
 _atom_site_type_symbol
 _atom_site_label
 _atom_site_symmetry_multiplicity
 _atom_site_fract_x
 _atom_site_fract_y
 _atom_site_fract_z
 _atom_site_occupancy
  Er  Er0  1  0.00000000  0.00000000  0.94853200  1
  Er  Er1  1  0.33333333  0.66666667  0.81473067  1
  Er  Er2  1  0.33333333  0.66666667  0.71813467  1
  Er  Er3  1  0.00000000  0.00000000  0.85193600  1
  Er  Er4  1  0.66666667  0.33333333  0.28186533  1
  Er  Er5  1  0.00000000  0.00000000  0.14806400  1
  Er  Er6  1  0.00000000  0.00000000  0.05146800  1
  Er  Er7  1  0.66666667  0.33333333  0.18526933  1
  Er  Er8  1  0.33333333  0.66666667  0.61519867  1
  Er  Er9  1  0.66666667  0.33333333  0.48139733  1
  Er  Er10  1  0.66666667  0.33333333  0.38480133  1
  Er  Er11  1  0.33333333  0.66666667  0.51860267  1
  Co  Co12  1  0.66666667  0.33333333  0.94454333  1
  Co  Co13  1  0.66666667  0.33333333  0.72212333  1
  Co  Co14  1  0.33187400  0.16593700  0.77621100  1
  Co  Co15  1  0.49927033  0.99854067  0.89045567  1
  Co  Co16  1  0.83406300  0.66812600  0.77621100  1
  Co  Co17  1  0.83406300  0.16593700  0.77621100  1
  Co  Co18  1  0.49927033  0.50072967  0.89045567  1
  Co  Co19  1  0.50000000  0.50000000  0.00000000  1
  Co  Co20  1  0.00000000  0.00000000  0.72156200  1
  Co  Co21  1  0.66666667  0.33333333  0.83333333  1
  Co  Co22  1  0.00145933  0.50072967  0.89045567  1
  Co  Co23  1  0.00000000  0.50000000  0.00000000  1
  Co  Co24  1  0.33333333  0.66666667  0.94510467  1
  Co  Co25  1  0.50000000  0.00000000  0.00000000  1
  Co  Co26  1  0.33333333  0.66666667  0.27787667  1
  Co  Co27  1  0.33333333  0.66666667  0.05545667  1
  Co  Co28  1  0.99854067  0.49927033  0.10954433  1
  Co  Co29  1  0.16593700  0.33187400  0.22378900  1
  Co  Co30  1  0.50072967  0.00145933  0.10954433  1
  Co  Co31  1  0.50072967  0.49927033  0.10954433  1
  Co  Co32  1  0.16593700  0.83406300  0.22378900  1
  Co  Co33  1  0.16666667  0.83333333  0.33333333  1
  Co  Co34  1  0.66666667  0.33333333  0.05489533  1
  Co  Co35  1  0.33333333  0.66666667  0.16666667  1
  Co  Co36  1  0.66812600  0.83406300  0.22378900  1
  Co  Co37  1  0.66666667  0.83333333  0.33333333  1
  Co  Co38  1  0.00000000  0.00000000  0.27843800  1
  Co  Co39  1  0.16666667  0.33333333  0.33333333  1
  Co  Co40  1  0.00000000  0.00000000  0.61121000  1
  Co  Co41  1  0.00000000  0.00000000  0.38879000  1
  Co  Co42  1  0.66520733  0.83260367  0.44287767  1
  Co  Co43  1  0.83260367  0.66520733  0.55712233  1
  Co  Co44  1  0.16739633  0.33479267  0.44287767  1
  Co  Co45  1  0.16739633  0.83260367  0.44287767  1
  Co  Co46  1  0.83260367  0.16739633  0.55712233  1
  Co  Co47  1  0.83333333  0.16666667  0.66666667  1
  Co  Co48  1  0.33333333  0.66666667  0.38822867  1
  Co  Co49  1  1.00000000  1.00000000  0.50000000  1
  Co  Co50  1  0.33479267  0.16739633  0.55712233  1
  Co  Co51  1  0.33333333  0.16666667  0.66666667  1
  Co  Co52  1  0.66666667  0.33333333  0.61177133  1
  Co  Co53  1  0.83333333  0.66666667  0.66666667  1
