# generated using pymatgen
data_K3(PdO2)2
_symmetry_space_group_name_H-M   'P 1'
_cell_length_a   6.22737200
_cell_length_b   9.32302600
_cell_length_c   11.55507700
_cell_angle_alpha   90.00000000
_cell_angle_beta   90.00000000
_cell_angle_gamma   90.00000000
_symmetry_Int_Tables_number   1
_chemical_formula_structural   K3(PdO2)2
_chemical_formula_sum   'K12 Pd8 O16'
_cell_volume   670.86409505
_cell_formula_units_Z   4
loop_
 _symmetry_equiv_pos_site_id
 _symmetry_equiv_pos_as_xyz
  1  'x, y, z'
loop_
 _atom_site_type_symbol
 _atom_site_label
 _atom_site_symmetry_multiplicity
 _atom_site_fract_x
 _atom_site_fract_y
 _atom_site_fract_z
 _atom_site_occupancy
  K  K0  1  0.50000000  0.14901400  0.56819600  1
  K  K1  1  0.50000000  0.85098600  0.06819600  1
  K  K2  1  0.50000000  0.21012600  0.25000000  1
  K  K3  1  0.50000000  0.85098600  0.43180400  1
  K  K4  1  0.50000000  0.78987400  0.75000000  1
  K  K5  1  0.50000000  0.14901400  0.93180400  1
  K  K6  1  0.00000000  0.64901400  0.56819600  1
  K  K7  1  0.00000000  0.35098600  0.06819600  1
  K  K8  1  0.00000000  0.71012600  0.25000000  1
  K  K9  1  0.00000000  0.35098600  0.43180400  1
  K  K10  1  0.00000000  0.28987400  0.75000000  1
  K  K11  1  0.00000000  0.64901400  0.93180400  1
  Pd  Pd12  1  0.50000000  0.42520100  0.75000000  1
  Pd  Pd13  1  0.00000000  0.00000000  0.00000000  1
  Pd  Pd14  1  0.50000000  0.57479900  0.25000000  1
  Pd  Pd15  1  0.00000000  0.00000000  0.50000000  1
  Pd  Pd16  1  0.00000000  0.92520100  0.75000000  1
  Pd  Pd17  1  0.50000000  0.50000000  0.00000000  1
  Pd  Pd18  1  0.00000000  0.07479900  0.25000000  1
  Pd  Pd19  1  0.50000000  0.50000000  0.50000000  1
  O  O20  1  0.21256150  0.07859150  0.38392700  1
  O  O21  1  0.78743850  0.07859150  0.38392700  1
  O  O22  1  0.21256150  0.92140850  0.61607300  1
  O  O23  1  0.78743850  0.07859150  0.11607300  1
  O  O24  1  0.78743850  0.92140850  0.61607300  1
  O  O25  1  0.21256150  0.92140850  0.88392700  1
  O  O26  1  0.21256150  0.07859150  0.11607300  1
  O  O27  1  0.78743850  0.92140850  0.88392700  1
  O  O28  1  0.71256150  0.57859150  0.38392700  1
  O  O29  1  0.28743850  0.57859150  0.38392700  1
  O  O30  1  0.71256150  0.42140850  0.61607300  1
  O  O31  1  0.28743850  0.57859150  0.11607300  1
  O  O32  1  0.28743850  0.42140850  0.61607300  1
  O  O33  1  0.71256150  0.42140850  0.88392700  1
  O  O34  1  0.71256150  0.57859150  0.11607300  1
  O  O35  1  0.28743850  0.42140850  0.88392700  1
