# generated using pymatgen
data_RbC8
_symmetry_space_group_name_H-M   'P 1'
_cell_length_a   4.97328600
_cell_length_b   8.61873000
_cell_length_c   22.98070400
_cell_angle_alpha   90.00000000
_cell_angle_beta   90.00000000
_cell_angle_gamma   90.00000000
_symmetry_Int_Tables_number   1
_chemical_formula_structural   RbC8
_chemical_formula_sum   'Rb8 C64'
_cell_volume   985.03132033
_cell_formula_units_Z   8
loop_
 _symmetry_equiv_pos_site_id
 _symmetry_equiv_pos_as_xyz
  1  'x, y, z'
loop_
 _atom_site_type_symbol
 _atom_site_label
 _atom_site_symmetry_multiplicity
 _atom_site_fract_x
 _atom_site_fract_y
 _atom_site_fract_z
 _atom_site_occupancy
  Rb  Rb0  1  0.50000000  0.00000000  0.00000000  1
  Rb  Rb1  1  0.75000000  0.75000000  0.75000000  1
  Rb  Rb2  1  0.50000000  0.50000000  0.50000000  1
  Rb  Rb3  1  0.75000000  0.25000000  0.25000000  1
  Rb  Rb4  1  0.00000000  0.00000000  0.50000000  1
  Rb  Rb5  1  0.25000000  0.75000000  0.25000000  1
  Rb  Rb6  1  0.00000000  0.50000000  0.00000000  1
  Rb  Rb7  1  0.25000000  0.25000000  0.75000000  1
  C  C8  1  0.49988800  0.66656650  0.62498350  1
  C  C9  1  0.00011200  0.66656650  0.87501650  1
  C  C10  1  0.00011200  0.83343350  0.62498350  1
  C  C11  1  0.74988800  0.91656650  0.62501650  1
  C  C12  1  0.50014150  0.83336850  0.62392900  1
  C  C13  1  0.50014150  0.66663150  0.87607100  1
  C  C14  1  0.74988800  0.58343350  0.87498350  1
  C  C15  1  0.24985850  0.91663150  0.62607100  1
  C  C16  1  0.25014150  0.58336850  0.62607100  1
  C  C17  1  0.24985850  0.58336850  0.87392900  1
  C  C18  1  0.75011200  0.91656650  0.87498350  1
  C  C19  1  0.75011200  0.58343350  0.62501650  1
  C  C20  1  0.49988800  0.83343350  0.87501650  1
  C  C21  1  0.99985850  0.66663150  0.62392900  1
  C  C22  1  0.25014150  0.91663150  0.87392900  1
  C  C23  1  0.99985850  0.83336850  0.87607100  1
  C  C24  1  0.49988800  0.16656650  0.12498350  1
  C  C25  1  0.00011200  0.16656650  0.37501650  1
  C  C26  1  0.00011200  0.33343350  0.12498350  1
  C  C27  1  0.74988800  0.41656650  0.12501650  1
  C  C28  1  0.50014150  0.33336850  0.12392900  1
  C  C29  1  0.50014150  0.16663150  0.37607100  1
  C  C30  1  0.74988800  0.08343350  0.37498350  1
  C  C31  1  0.24985850  0.41663150  0.12607100  1
  C  C32  1  0.25014150  0.08336850  0.12607100  1
  C  C33  1  0.24985850  0.08336850  0.37392900  1
  C  C34  1  0.75011200  0.41656650  0.37498350  1
  C  C35  1  0.75011200  0.08343350  0.12501650  1
  C  C36  1  0.49988800  0.33343350  0.37501650  1
  C  C37  1  0.99985850  0.16663150  0.12392900  1
  C  C38  1  0.25014150  0.41663150  0.37392900  1
  C  C39  1  0.99985850  0.33336850  0.37607100  1
  C  C40  1  0.99988800  0.66656650  0.12498350  1
  C  C41  1  0.50011200  0.66656650  0.37501650  1
  C  C42  1  0.50011200  0.83343350  0.12498350  1
  C  C43  1  0.24988800  0.91656650  0.12501650  1
  C  C44  1  0.00014150  0.83336850  0.12392900  1
  C  C45  1  0.00014150  0.66663150  0.37607100  1
  C  C46  1  0.24988800  0.58343350  0.37498350  1
  C  C47  1  0.74985850  0.91663150  0.12607100  1
  C  C48  1  0.75014150  0.58336850  0.12607100  1
  C  C49  1  0.74985850  0.58336850  0.37392900  1
  C  C50  1  0.25011200  0.91656650  0.37498350  1
  C  C51  1  0.25011200  0.58343350  0.12501650  1
  C  C52  1  0.99988800  0.83343350  0.37501650  1
  C  C53  1  0.49985850  0.66663150  0.12392900  1
  C  C54  1  0.75014150  0.91663150  0.37392900  1
  C  C55  1  0.49985850  0.83336850  0.37607100  1
  C  C56  1  0.99988800  0.16656650  0.62498350  1
  C  C57  1  0.50011200  0.16656650  0.87501650  1
  C  C58  1  0.50011200  0.33343350  0.62498350  1
  C  C59  1  0.24988800  0.41656650  0.62501650  1
  C  C60  1  0.00014150  0.33336850  0.62392900  1
  C  C61  1  0.00014150  0.16663150  0.87607100  1
  C  C62  1  0.24988800  0.08343350  0.87498350  1
  C  C63  1  0.74985850  0.41663150  0.62607100  1
  C  C64  1  0.75014150  0.08336850  0.62607100  1
  C  C65  1  0.74985850  0.08336850  0.87392900  1
  C  C66  1  0.25011200  0.41656650  0.87498350  1
  C  C67  1  0.25011200  0.08343350  0.62501650  1
  C  C68  1  0.99988800  0.33343350  0.87501650  1
  C  C69  1  0.49985850  0.16663150  0.62392900  1
  C  C70  1  0.75014150  0.41663150  0.87392900  1
  C  C71  1  0.49985850  0.33336850  0.87607100  1
