# generated using pymatgen
data_CsV(SO4)2
_symmetry_space_group_name_H-M   'P 1'
_cell_length_a   4.97913579
_cell_length_b   4.97913579
_cell_length_c   9.00329925
_cell_angle_alpha   90.00000000
_cell_angle_beta   90.00000000
_cell_angle_gamma   120.00000000
_symmetry_Int_Tables_number   1
_chemical_formula_structural   CsV(SO4)2
_chemical_formula_sum   'Cs1 V1 S2 O8'
_cell_volume   193.30374073
_cell_formula_units_Z   1
loop_
 _symmetry_equiv_pos_site_id
 _symmetry_equiv_pos_as_xyz
  1  'x, y, z'
loop_
 _atom_site_type_symbol
 _atom_site_label
 _atom_site_symmetry_multiplicity
 _atom_site_fract_x
 _atom_site_fract_y
 _atom_site_fract_z
 _atom_site_occupancy
  Cs  Cs0  1  0.00000000  0.00000000  0.00000000  1
  V  V1  1  0.00000000  0.00000000  0.50000000  1
  S  S2  1  0.33333333  0.66666667  0.68978900  1
  S  S3  1  0.66666667  0.33333333  0.31021100  1
  O  O4  1  0.33333333  0.66666667  0.85236100  1
  O  O5  1  0.66666667  0.33333333  0.14763900  1
  O  O6  1  0.71491125  0.63777900  0.36598525  1
  O  O7  1  0.63777900  0.92286775  0.63401475  1
  O  O8  1  0.28508875  0.36222100  0.63401475  1
  O  O9  1  0.92286775  0.28508875  0.36598525  1
  O  O10  1  0.36222100  0.07713225  0.36598525  1
  O  O11  1  0.07713225  0.71491125  0.63401475  1
