# generated using pymatgen
data_UP2
_symmetry_space_group_name_H-M   'P 1'
_cell_length_a   5.36787800
_cell_length_b   5.36787800
_cell_length_c   15.44649600
_cell_angle_alpha   90.00000000
_cell_angle_beta   90.00000000
_cell_angle_gamma   90.00000000
_symmetry_Int_Tables_number   1
_chemical_formula_structural   UP2
_chemical_formula_sum   'U8 P16'
_cell_volume   445.07710009
_cell_formula_units_Z   8
loop_
 _symmetry_equiv_pos_site_id
 _symmetry_equiv_pos_as_xyz
  1  'x, y, z'
loop_
 _atom_site_type_symbol
 _atom_site_label
 _atom_site_symmetry_multiplicity
 _atom_site_fract_x
 _atom_site_fract_y
 _atom_site_fract_z
 _atom_site_occupancy
  U  U0  1  0.50000000  0.50000000  0.49603800  1
  U  U1  1  0.50000000  0.50000000  0.00854000  1
  U  U2  1  0.50000000  0.00000000  0.21891700  1
  U  U3  1  0.00000000  0.50000000  0.21891700  1
  U  U4  1  0.00000000  0.00000000  0.99603800  1
  U  U5  1  0.00000000  0.00000000  0.50854000  1
  U  U6  1  0.00000000  0.50000000  0.71891700  1
  U  U7  1  0.50000000  0.00000000  0.71891700  1
  P  P8  1  0.50000000  0.00000000  0.03816700  1
  P  P9  1  0.00000000  0.50000000  0.03816700  1
  P  P10  1  0.00000000  0.00000000  0.17754100  1
  P  P11  1  0.50000000  0.50000000  0.18617400  1
  P  P12  1  0.22649350  0.22649350  0.36061150  1
  P  P13  1  0.77350650  0.22649350  0.36061150  1
  P  P14  1  0.22649350  0.77350650  0.36061150  1
  P  P15  1  0.77350650  0.77350650  0.36061150  1
  P  P16  1  0.00000000  0.50000000  0.53816700  1
  P  P17  1  0.50000000  0.00000000  0.53816700  1
  P  P18  1  0.50000000  0.50000000  0.67754100  1
  P  P19  1  0.00000000  0.00000000  0.68617400  1
  P  P20  1  0.72649350  0.72649350  0.86061150  1
  P  P21  1  0.27350650  0.72649350  0.86061150  1
  P  P22  1  0.72649350  0.27350650  0.86061150  1
  P  P23  1  0.27350650  0.27350650  0.86061150  1
