# generated using pymatgen
data_Ni4(Bi4I)3
_symmetry_space_group_name_H-M   'P 1'
_cell_length_a   4.08570400
_cell_length_b   16.09333600
_cell_length_c   34.93053600
_cell_angle_alpha   90.00000000
_cell_angle_beta   90.00000000
_cell_angle_gamma   90.00000000
_symmetry_Int_Tables_number   1
_chemical_formula_structural   Ni4(Bi4I)3
_chemical_formula_sum   'Ni16 Bi48 I12'
_cell_volume   2296.77381529
_cell_formula_units_Z   4
loop_
 _symmetry_equiv_pos_site_id
 _symmetry_equiv_pos_as_xyz
  1  'x, y, z'
loop_
 _atom_site_type_symbol
 _atom_site_label
 _atom_site_symmetry_multiplicity
 _atom_site_fract_x
 _atom_site_fract_y
 _atom_site_fract_z
 _atom_site_occupancy
  Ni  Ni0  1  0.00000000  0.48470200  0.35369800  1
  Ni  Ni1  1  0.50000000  0.01529800  0.64630200  1
  Ni  Ni2  1  0.50000000  0.01529800  0.85369800  1
  Ni  Ni3  1  0.00000000  0.48470200  0.14630200  1
  Ni  Ni4  1  0.00000000  0.06271600  0.37920500  1
  Ni  Ni5  1  0.50000000  0.43728400  0.62079500  1
  Ni  Ni6  1  0.50000000  0.43728400  0.87920500  1
  Ni  Ni7  1  0.00000000  0.06271600  0.12079500  1
  Ni  Ni8  1  0.50000000  0.98470200  0.35369800  1
  Ni  Ni9  1  0.00000000  0.51529800  0.64630200  1
  Ni  Ni10  1  0.00000000  0.51529800  0.85369800  1
  Ni  Ni11  1  0.50000000  0.98470200  0.14630200  1
  Ni  Ni12  1  0.50000000  0.56271600  0.37920500  1
  Ni  Ni13  1  0.00000000  0.93728400  0.62079500  1
  Ni  Ni14  1  0.00000000  0.93728400  0.87920500  1
  Ni  Ni15  1  0.50000000  0.56271600  0.12079500  1
  Bi  Bi16  1  0.00000000  0.01578100  0.30236800  1
  Bi  Bi17  1  0.50000000  0.48421900  0.69763200  1
  Bi  Bi18  1  0.50000000  0.48421900  0.80236800  1
  Bi  Bi19  1  0.00000000  0.01578100  0.19763200  1
  Bi  Bi20  1  0.50000000  0.16082500  0.35307200  1
  Bi  Bi21  1  0.00000000  0.33917500  0.64692800  1
  Bi  Bi22  1  0.00000000  0.33917500  0.85307200  1
  Bi  Bi23  1  0.50000000  0.16082500  0.14692800  1
  Bi  Bi24  1  0.50000000  0.38821200  0.38025200  1
  Bi  Bi25  1  0.00000000  0.11178800  0.61974800  1
  Bi  Bi26  1  0.00000000  0.11178800  0.88025200  1
  Bi  Bi27  1  0.50000000  0.38821200  0.11974800  1
  Bi  Bi28  1  0.50000000  0.03217900  0.43097500  1
  Bi  Bi29  1  0.00000000  0.46782100  0.56902500  1
  Bi  Bi30  1  0.00000000  0.46782100  0.93097500  1
  Bi  Bi31  1  0.50000000  0.03217900  0.06902500  1
  Bi  Bi32  1  0.00000000  0.35672700  0.30245400  1
  Bi  Bi33  1  0.50000000  0.14327300  0.69754600  1
  Bi  Bi34  1  0.50000000  0.14327300  0.80245400  1
  Bi  Bi35  1  0.00000000  0.35672700  0.19754600  1
  Bi  Bi36  1  0.00000000  0.19330800  0.42775800  1
  Bi  Bi37  1  0.50000000  0.30669200  0.57224200  1
  Bi  Bi38  1  0.50000000  0.30669200  0.92775800  1
  Bi  Bi39  1  0.00000000  0.19330800  0.07224200  1
  Bi  Bi40  1  0.50000000  0.51578100  0.30236800  1
  Bi  Bi41  1  0.00000000  0.98421900  0.69763200  1
  Bi  Bi42  1  0.00000000  0.98421900  0.80236800  1
  Bi  Bi43  1  0.50000000  0.51578100  0.19763200  1
  Bi  Bi44  1  0.00000000  0.66082500  0.35307200  1
  Bi  Bi45  1  0.50000000  0.83917500  0.64692800  1
  Bi  Bi46  1  0.50000000  0.83917500  0.85307200  1
  Bi  Bi47  1  0.00000000  0.66082500  0.14692800  1
  Bi  Bi48  1  0.00000000  0.88821200  0.38025200  1
  Bi  Bi49  1  0.50000000  0.61178800  0.61974800  1
  Bi  Bi50  1  0.50000000  0.61178800  0.88025200  1
  Bi  Bi51  1  0.00000000  0.88821200  0.11974800  1
  Bi  Bi52  1  0.00000000  0.53217900  0.43097500  1
  Bi  Bi53  1  0.50000000  0.96782100  0.56902500  1
  Bi  Bi54  1  0.50000000  0.96782100  0.93097500  1
  Bi  Bi55  1  0.00000000  0.53217900  0.06902500  1
  Bi  Bi56  1  0.50000000  0.85672700  0.30245400  1
  Bi  Bi57  1  0.00000000  0.64327300  0.69754600  1
  Bi  Bi58  1  0.00000000  0.64327300  0.80245400  1
  Bi  Bi59  1  0.50000000  0.85672700  0.19754600  1
  Bi  Bi60  1  0.50000000  0.69330800  0.42775800  1
  Bi  Bi61  1  0.00000000  0.80669200  0.57224200  1
  Bi  Bi62  1  0.00000000  0.80669200  0.92775800  1
  Bi  Bi63  1  0.50000000  0.69330800  0.07224200  1
  I  I64  1  0.50000000  0.36953800  0.47643700  1
  I  I65  1  0.00000000  0.13046200  0.52356300  1
  I  I66  1  0.00000000  0.13046200  0.97643700  1
  I  I67  1  0.50000000  0.36953800  0.02356300  1
  I  I68  1  0.50000000  0.17960200  0.25000000  1
  I  I69  1  0.00000000  0.32039800  0.75000000  1
  I  I70  1  0.00000000  0.86953800  0.47643700  1
  I  I71  1  0.50000000  0.63046200  0.52356300  1
  I  I72  1  0.50000000  0.63046200  0.97643700  1
  I  I73  1  0.00000000  0.86953800  0.02356300  1
  I  I74  1  0.00000000  0.67960200  0.25000000  1
  I  I75  1  0.50000000  0.82039800  0.75000000  1
