# generated using pymatgen
data_BaMo4(PO8)2
_symmetry_space_group_name_H-M   'P 1'
_cell_length_a   7.60041600
_cell_length_b   7.60041600
_cell_length_c   11.44550600
_cell_angle_alpha   90.00000000
_cell_angle_beta   90.00000000
_cell_angle_gamma   90.00000000
_symmetry_Int_Tables_number   1
_chemical_formula_structural   BaMo4(PO8)2
_chemical_formula_sum   'Ba2 Mo8 P4 O32'
_cell_volume   661.16480076
_cell_formula_units_Z   2
loop_
 _symmetry_equiv_pos_site_id
 _symmetry_equiv_pos_as_xyz
  1  'x, y, z'
loop_
 _atom_site_type_symbol
 _atom_site_label
 _atom_site_symmetry_multiplicity
 _atom_site_fract_x
 _atom_site_fract_y
 _atom_site_fract_z
 _atom_site_occupancy
  Ba  Ba0  1  0.00000000  0.00000000  0.00000000  1
  Ba  Ba1  1  0.50000000  0.50000000  0.50000000  1
  Mo  Mo2  1  0.87769100  0.87769100  0.37180300  1
  Mo  Mo3  1  0.37769100  0.62230900  0.12819700  1
  Mo  Mo4  1  0.12230900  0.12230900  0.37180300  1
  Mo  Mo5  1  0.62230900  0.37769100  0.12819700  1
  Mo  Mo6  1  0.37769100  0.37769100  0.87180300  1
  Mo  Mo7  1  0.87769100  0.12230900  0.62819700  1
  Mo  Mo8  1  0.62230900  0.62230900  0.87180300  1
  Mo  Mo9  1  0.12230900  0.87769100  0.62819700  1
  P  P10  1  0.00000000  0.50000000  0.00000000  1
  P  P11  1  0.50000000  0.00000000  0.00000000  1
  P  P12  1  0.50000000  0.00000000  0.50000000  1
  P  P13  1  0.00000000  0.50000000  0.50000000  1
  O  O14  1  0.85942150  0.85942150  0.22226650  1
  O  O15  1  0.62521100  0.11343800  0.07689800  1
  O  O16  1  0.87025950  0.12974050  0.41414950  1
  O  O17  1  0.38656200  0.12521100  0.42310200  1
  O  O18  1  0.12521100  0.38656200  0.42310200  1
  O  O19  1  0.61343800  0.87478900  0.42310200  1
  O  O20  1  0.88656200  0.37478900  0.07689800  1
  O  O21  1  0.37478900  0.88656200  0.07689800  1
  O  O22  1  0.62974050  0.62974050  0.08585050  1
  O  O23  1  0.11343800  0.62521100  0.07689800  1
  O  O24  1  0.37025950  0.37025950  0.08585050  1
  O  O25  1  0.14057850  0.14057850  0.22226650  1
  O  O26  1  0.12974050  0.87025950  0.41414950  1
  O  O27  1  0.87478900  0.61343800  0.42310200  1
  O  O28  1  0.35942150  0.64057850  0.27773350  1
  O  O29  1  0.64057850  0.35942150  0.27773350  1
  O  O30  1  0.35942150  0.35942150  0.72226650  1
  O  O31  1  0.12521100  0.61343800  0.57689800  1
  O  O32  1  0.37025950  0.62974050  0.91414950  1
  O  O33  1  0.88656200  0.62521100  0.92310200  1
  O  O34  1  0.62521100  0.88656200  0.92310200  1
  O  O35  1  0.11343800  0.37478900  0.92310200  1
  O  O36  1  0.38656200  0.87478900  0.57689800  1
  O  O37  1  0.87478900  0.38656200  0.57689800  1
  O  O38  1  0.12974050  0.12974050  0.58585050  1
  O  O39  1  0.61343800  0.12521100  0.57689800  1
  O  O40  1  0.87025950  0.87025950  0.58585050  1
  O  O41  1  0.64057850  0.64057850  0.72226650  1
  O  O42  1  0.62974050  0.37025950  0.91414950  1
  O  O43  1  0.37478900  0.11343800  0.92310200  1
  O  O44  1  0.85942150  0.14057850  0.77773350  1
  O  O45  1  0.14057850  0.85942150  0.77773350  1
