# generated using pymatgen
data_V2Zn4O9
_symmetry_space_group_name_H-M   'P 1'
_cell_length_a   9.82809200
_cell_length_b   8.30461900
_cell_length_c   10.51578540
_cell_angle_alpha   90.00000000
_cell_angle_beta   117.16984766
_cell_angle_gamma   90.00000000
_symmetry_Int_Tables_number   1
_chemical_formula_structural   V2Zn4O9
_chemical_formula_sum   'V8 Zn16 O36'
_cell_volume   763.57753682
_cell_formula_units_Z   4
loop_
 _symmetry_equiv_pos_site_id
 _symmetry_equiv_pos_as_xyz
  1  'x, y, z'
loop_
 _atom_site_type_symbol
 _atom_site_label
 _atom_site_symmetry_multiplicity
 _atom_site_fract_x
 _atom_site_fract_y
 _atom_site_fract_z
 _atom_site_occupancy
  V  V0  1  0.85330400  0.62229000  0.99616900  1
  V  V1  1  0.14669600  0.12229000  0.00383100  1
  V  V2  1  0.04167400  0.64633100  0.55658700  1
  V  V3  1  0.95832600  0.14633100  0.44341300  1
  V  V4  1  0.46654600  0.61918700  0.97006100  1
  V  V5  1  0.53345400  0.11918700  0.02993900  1
  V  V6  1  0.64104800  0.62992400  0.47863100  1
  V  V7  1  0.35895200  0.12992400  0.52136900  1
  Zn  Zn8  1  0.80768800  0.18790200  0.91464200  1
  Zn  Zn9  1  0.19231200  0.68790200  0.08535800  1
  Zn  Zn10  1  0.43973100  0.97118300  0.28146300  1
  Zn  Zn11  1  0.56026900  0.47118300  0.71853700  1
  Zn  Zn12  1  0.28586900  0.64712200  0.38971300  1
  Zn  Zn13  1  0.71413100  0.14712200  0.61028700  1
  Zn  Zn14  1  0.06531500  0.33269300  0.22675400  1
  Zn  Zn15  1  0.93468500  0.83269300  0.77324600  1
  Zn  Zn16  1  0.74015400  0.82396800  0.26178300  1
  Zn  Zn17  1  0.25984600  0.32396800  0.73821700  1
  Zn  Zn18  1  0.60208200  0.89590100  0.79030000  1
  Zn  Zn19  1  0.39791800  0.39590100  0.20970000  1
  Zn  Zn20  1  0.74810600  0.44987400  0.25882100  1
  Zn  Zn21  1  0.25189400  0.94987400  0.74117900  1
  Zn  Zn22  1  0.06347800  0.94605900  0.23453200  1
  Zn  Zn23  1  0.93652200  0.44605900  0.76546800  1
  O  O24  1  0.13453200  0.92594500  0.94328600  1
  O  O25  1  0.86546800  0.42594500  0.05671400  1
  O  O26  1  0.58817700  0.29715400  0.12002300  1
  O  O27  1  0.41182300  0.79715400  0.87997700  1
  O  O28  1  0.07545700  0.26542800  0.87391800  1
  O  O29  1  0.92454300  0.76542800  0.12608200  1
  O  O30  1  0.65374000  0.07006700  0.95202700  1
  O  O31  1  0.34626000  0.57006700  0.04797300  1
  O  O32  1  0.50158200  0.61491000  0.53908400  1
  O  O33  1  0.49841800  0.11491000  0.46091600  1
  O  O34  1  0.38576100  0.31098600  0.61035500  1
  O  O35  1  0.61423900  0.81098600  0.38964500  1
  O  O36  1  0.32424300  0.17067600  0.15122200  1
  O  O37  1  0.67575700  0.67067600  0.84877800  1
  O  O38  1  0.77788900  0.98461500  0.76392000  1
  O  O39  1  0.18441200  0.65933600  0.50918000  1
  O  O40  1  0.74256900  0.33273700  0.74581500  1
  O  O41  1  0.25743100  0.83273700  0.25418500  1
  O  O42  1  0.01249600  0.13062500  0.07964800  1
  O  O43  1  0.98750400  0.63062500  0.92035200  1
  O  O44  1  0.86747000  0.63964100  0.39816300  1
  O  O45  1  0.13253000  0.13964100  0.60183700  1
  O  O46  1  0.39607900  0.96507700  0.64118900  1
  O  O47  1  0.60392100  0.46507700  0.35881100  1
  O  O48  1  0.18558400  0.13266700  0.36572800  1
  O  O49  1  0.81441600  0.63266700  0.63427200  1
  O  O50  1  0.44532800  0.46930700  0.84387800  1
  O  O51  1  0.55467200  0.96930700  0.15612200  1
  O  O52  1  0.92126300  0.97354300  0.33190700  1
  O  O53  1  0.07873700  0.47354300  0.66809300  1
  O  O54  1  0.94094700  0.32072900  0.33783400  1
  O  O55  1  0.05905300  0.82072900  0.66216600  1
  O  O56  1  0.65471900  0.63722200  0.11445100  1
  O  O57  1  0.34528100  0.13722200  0.88554900  1
  O  O58  1  0.22211100  0.48461500  0.23608000  1
  O  O59  1  0.81558800  0.15933600  0.49082000  1
