# generated using pymatgen
data_V2Cu2O7
_symmetry_space_group_name_H-M   'P 1'
_cell_length_a   6.43461800
_cell_length_b   8.92160000
_cell_length_c   20.73660000
_cell_angle_alpha   90.00000000
_cell_angle_beta   90.00000000
_cell_angle_gamma   90.00000000
_symmetry_Int_Tables_number   1
_chemical_formula_structural   V2Cu2O7
_chemical_formula_sum   'V16 Cu16 O56'
_cell_volume   1190.42781996
_cell_formula_units_Z   8
loop_
 _symmetry_equiv_pos_site_id
 _symmetry_equiv_pos_as_xyz
  1  'x, y, z'
loop_
 _atom_site_type_symbol
 _atom_site_label
 _atom_site_symmetry_multiplicity
 _atom_site_fract_x
 _atom_site_fract_y
 _atom_site_fract_z
 _atom_site_occupancy
  V  V0  1  0.51553000  0.90316950  0.79956050  1
  V  V1  1  0.01553000  0.09683050  0.70043950  1
  V  V2  1  0.76553000  0.84683050  0.54956050  1
  V  V3  1  0.26553000  0.15316950  0.95043950  1
  V  V4  1  0.01553000  0.90316950  0.29956050  1
  V  V5  1  0.51553000  0.09683050  0.20043950  1
  V  V6  1  0.26553000  0.84683050  0.04956050  1
  V  V7  1  0.76553000  0.15316950  0.45043950  1
  V  V8  1  0.01553000  0.40316950  0.79956050  1
  V  V9  1  0.51553000  0.59683050  0.70043950  1
  V  V10  1  0.26553000  0.34683050  0.54956050  1
  V  V11  1  0.76553000  0.65316950  0.95043950  1
  V  V12  1  0.51553000  0.40316950  0.29956050  1
  V  V13  1  0.01553000  0.59683050  0.20043950  1
  V  V14  1  0.76553000  0.34683050  0.04956050  1
  V  V15  1  0.26553000  0.65316950  0.45043950  1
  Cu  Cu16  1  0.99472000  0.87162650  0.83639850  1
  Cu  Cu17  1  0.49472000  0.12837350  0.66360150  1
  Cu  Cu18  1  0.24472000  0.87837350  0.58639850  1
  Cu  Cu19  1  0.74472000  0.12162650  0.91360150  1
  Cu  Cu20  1  0.49472000  0.87162650  0.33639850  1
  Cu  Cu21  1  0.99472000  0.12837350  0.16360150  1
  Cu  Cu22  1  0.74472000  0.87837350  0.08639850  1
  Cu  Cu23  1  0.24472000  0.12162650  0.41360150  1
  Cu  Cu24  1  0.49472000  0.37162650  0.83639850  1
  Cu  Cu25  1  0.99472000  0.62837350  0.66360150  1
  Cu  Cu26  1  0.74472000  0.37837350  0.58639850  1
  Cu  Cu27  1  0.24472000  0.62162650  0.91360150  1
  Cu  Cu28  1  0.99472000  0.37162650  0.33639850  1
  Cu  Cu29  1  0.49472000  0.62837350  0.16360150  1
  Cu  Cu30  1  0.24472000  0.37837350  0.08639850  1
  Cu  Cu31  1  0.74472000  0.62162650  0.41360150  1
  O  O32  1  0.09960900  0.25000000  0.75000000  1
  O  O33  1  0.84960900  0.00000000  0.50000000  1
  O  O34  1  0.29083900  0.84926250  0.83823850  1
  O  O35  1  0.29083900  0.65073750  0.66176150  1
  O  O36  1  0.04083900  0.40073750  0.58823850  1
  O  O37  1  0.04083900  0.09926250  0.91176150  1
  O  O38  1  0.71566150  0.94276100  0.85779950  1
  O  O39  1  0.21566150  0.05723900  0.64220050  1
  O  O40  1  0.22474550  0.80034600  0.50048150  1
  O  O41  1  0.72474550  0.19965400  0.99951850  1
  O  O42  1  0.97474550  0.94965400  0.75048150  1
  O  O43  1  0.47474550  0.05034600  0.74951850  1
  O  O44  1  0.46566150  0.19276100  0.89220050  1
  O  O45  1  0.96566150  0.80723900  0.60779950  1
  O  O46  1  0.59960900  0.25000000  0.25000000  1
  O  O47  1  0.34960900  0.00000000  0.00000000  1
  O  O48  1  0.79083900  0.84926250  0.33823850  1
  O  O49  1  0.79083900  0.65073750  0.16176150  1
  O  O50  1  0.54083900  0.40073750  0.08823850  1
  O  O51  1  0.54083900  0.09926250  0.41176150  1
  O  O52  1  0.21566150  0.94276100  0.35779950  1
  O  O53  1  0.71566150  0.05723900  0.14220050  1
  O  O54  1  0.72474550  0.80034600  0.00048150  1
  O  O55  1  0.22474550  0.19965400  0.49951850  1
  O  O56  1  0.47474550  0.94965400  0.25048150  1
  O  O57  1  0.97474550  0.05034600  0.24951850  1
  O  O58  1  0.96566150  0.19276100  0.39220050  1
  O  O59  1  0.46566150  0.80723900  0.10779950  1
  O  O60  1  0.59960900  0.75000000  0.75000000  1
  O  O61  1  0.34960900  0.50000000  0.50000000  1
  O  O62  1  0.79083900  0.34926250  0.83823850  1
  O  O63  1  0.79083900  0.15073750  0.66176150  1
  O  O64  1  0.54083900  0.90073750  0.58823850  1
  O  O65  1  0.54083900  0.59926250  0.91176150  1
  O  O66  1  0.21566150  0.44276100  0.85779950  1
  O  O67  1  0.71566150  0.55723900  0.64220050  1
  O  O68  1  0.72474550  0.30034600  0.50048150  1
  O  O69  1  0.22474550  0.69965400  0.99951850  1
  O  O70  1  0.47474550  0.44965400  0.75048150  1
  O  O71  1  0.97474550  0.55034600  0.74951850  1
  O  O72  1  0.96566150  0.69276100  0.89220050  1
  O  O73  1  0.46566150  0.30723900  0.60779950  1
  O  O74  1  0.09960900  0.75000000  0.25000000  1
  O  O75  1  0.84960900  0.50000000  0.00000000  1
  O  O76  1  0.29083900  0.34926250  0.33823850  1
  O  O77  1  0.29083900  0.15073750  0.16176150  1
  O  O78  1  0.04083900  0.90073750  0.08823850  1
  O  O79  1  0.04083900  0.59926250  0.41176150  1
  O  O80  1  0.71566150  0.44276100  0.35779950  1
  O  O81  1  0.21566150  0.55723900  0.14220050  1
  O  O82  1  0.22474550  0.30034600  0.00048150  1
  O  O83  1  0.72474550  0.69965400  0.49951850  1
  O  O84  1  0.97474550  0.44965400  0.25048150  1
  O  O85  1  0.47474550  0.55034600  0.24951850  1
  O  O86  1  0.46566150  0.69276100  0.39220050  1
  O  O87  1  0.96566150  0.30723900  0.10779950  1
