# generated using pymatgen
data_Ca3Fe2Cl2O5
_symmetry_space_group_name_H-M   'P 1'
_cell_length_a   3.89928660
_cell_length_b   3.89928660
_cell_length_c   23.55428770
_cell_angle_alpha   90.00000000
_cell_angle_beta   90.00000000
_cell_angle_gamma   90.00000000
_symmetry_Int_Tables_number   1
_chemical_formula_structural   Ca3Fe2Cl2O5
_chemical_formula_sum   'Ca6 Fe4 Cl4 O10'
_cell_volume   358.12965950
_cell_formula_units_Z   2
loop_
 _symmetry_equiv_pos_site_id
 _symmetry_equiv_pos_as_xyz
  1  'x, y, z'
loop_
 _atom_site_type_symbol
 _atom_site_label
 _atom_site_symmetry_multiplicity
 _atom_site_fract_x
 _atom_site_fract_y
 _atom_site_fract_z
 _atom_site_occupancy
  Ca  Ca0  1  0.50000000  0.50000000  0.00000000  1
  Ca  Ca1  1  0.50000000  0.50000000  0.84749575  1
  Ca  Ca2  1  0.00000000  0.00000000  0.65250425  1
  Ca  Ca3  1  0.00000000  0.00000000  0.50000000  1
  Ca  Ca4  1  0.00000000  0.00000000  0.34749575  1
  Ca  Ca5  1  0.50000000  0.50000000  0.15250425  1
  Fe  Fe6  1  0.50000000  0.50000000  0.58128700  1
  Fe  Fe7  1  0.00000000  0.00000000  0.91871300  1
  Fe  Fe8  1  0.00000000  0.00000000  0.08128700  1
  Fe  Fe9  1  0.50000000  0.50000000  0.41871300  1
  Cl  Cl10  1  0.50000000  0.50000000  0.70225325  1
  Cl  Cl11  1  0.00000000  0.00000000  0.79774675  1
  Cl  Cl12  1  0.00000000  0.00000000  0.20225325  1
  Cl  Cl13  1  0.50000000  0.50000000  0.29774675  1
  O  O14  1  0.00000000  0.00000000  0.00000000  1
  O  O15  1  0.50000000  0.00000000  0.90782100  1
  O  O16  1  0.00000000  0.50000000  0.90782100  1
  O  O17  1  0.00000000  0.50000000  0.59217900  1
  O  O18  1  0.50000000  0.00000000  0.59217900  1
  O  O19  1  0.50000000  0.50000000  0.50000000  1
  O  O20  1  0.00000000  0.50000000  0.40782100  1
  O  O21  1  0.50000000  0.00000000  0.40782100  1
  O  O22  1  0.50000000  0.00000000  0.09217900  1
  O  O23  1  0.00000000  0.50000000  0.09217900  1
