# generated using pymatgen
data_Y2Ge5Ir3
_symmetry_space_group_name_H-M   'P 1'
_cell_length_a   6.04842800
_cell_length_b   10.31389200
_cell_length_c   11.79246000
_cell_angle_alpha   90.00000000
_cell_angle_beta   90.00000000
_cell_angle_gamma   90.00000000
_symmetry_Int_Tables_number   1
_chemical_formula_structural   Y2Ge5Ir3
_chemical_formula_sum   'Y8 Ge20 Ir12'
_cell_volume   735.64706475
_cell_formula_units_Z   4
loop_
 _symmetry_equiv_pos_site_id
 _symmetry_equiv_pos_as_xyz
  1  'x, y, z'
loop_
 _atom_site_type_symbol
 _atom_site_label
 _atom_site_symmetry_multiplicity
 _atom_site_fract_x
 _atom_site_fract_y
 _atom_site_fract_z
 _atom_site_occupancy
  Y  Y0  1  0.00000000  0.27395400  0.36588200  1
  Y  Y1  1  0.00000000  0.72604600  0.63411800  1
  Y  Y2  1  0.50000000  0.27395400  0.63411800  1
  Y  Y3  1  0.50000000  0.72604600  0.36588200  1
  Y  Y4  1  0.50000000  0.77395400  0.86588200  1
  Y  Y5  1  0.50000000  0.22604600  0.13411800  1
  Y  Y6  1  0.00000000  0.77395400  0.13411800  1
  Y  Y7  1  0.00000000  0.22604600  0.86588200  1
  Ge  Ge8  1  0.50000000  0.83766000  0.59808400  1
  Ge  Ge9  1  0.50000000  0.16234000  0.40191600  1
  Ge  Ge10  1  0.00000000  0.83766000  0.40191600  1
  Ge  Ge11  1  0.00000000  0.16234000  0.59808400  1
  Ge  Ge12  1  0.25000000  0.00000000  0.27652000  1
  Ge  Ge13  1  0.25000000  0.00000000  0.72348000  1
  Ge  Ge14  1  0.75000000  0.00000000  0.72348000  1
  Ge  Ge15  1  0.75000000  0.00000000  0.27652000  1
  Ge  Ge16  1  0.25000000  0.00000000  0.00000000  1
  Ge  Ge17  1  0.75000000  0.00000000  0.00000000  1
  Ge  Ge18  1  0.00000000  0.33766000  0.09808400  1
  Ge  Ge19  1  0.00000000  0.66234000  0.90191600  1
  Ge  Ge20  1  0.50000000  0.33766000  0.90191600  1
  Ge  Ge21  1  0.50000000  0.66234000  0.09808400  1
  Ge  Ge22  1  0.75000000  0.50000000  0.77652000  1
  Ge  Ge23  1  0.75000000  0.50000000  0.22348000  1
  Ge  Ge24  1  0.25000000  0.50000000  0.22348000  1
  Ge  Ge25  1  0.25000000  0.50000000  0.77652000  1
  Ge  Ge26  1  0.75000000  0.50000000  0.50000000  1
  Ge  Ge27  1  0.25000000  0.50000000  0.50000000  1
  Ir  Ir28  1  0.00000000  0.11129800  0.14200300  1
  Ir  Ir29  1  0.00000000  0.88870200  0.85799700  1
  Ir  Ir30  1  0.50000000  0.11129800  0.85799700  1
  Ir  Ir31  1  0.50000000  0.88870200  0.14200300  1
  Ir  Ir32  1  0.75000000  0.00000000  0.50000000  1
  Ir  Ir33  1  0.25000000  0.00000000  0.50000000  1
  Ir  Ir34  1  0.50000000  0.61129800  0.64200300  1
  Ir  Ir35  1  0.50000000  0.38870200  0.35799700  1
  Ir  Ir36  1  0.00000000  0.61129800  0.35799700  1
  Ir  Ir37  1  0.00000000  0.38870200  0.64200300  1
  Ir  Ir38  1  0.25000000  0.50000000  0.00000000  1
  Ir  Ir39  1  0.75000000  0.50000000  0.00000000  1
