# generated using pymatgen
data_BaCoF4
_symmetry_space_group_name_H-M   'P 1'
_cell_length_a   4.22761400
_cell_length_b   14.86337000
_cell_length_c   6.00806800
_cell_angle_alpha   90.00000000
_cell_angle_beta   90.00000000
_cell_angle_gamma   90.00000000
_symmetry_Int_Tables_number   1
_chemical_formula_structural   BaCoF4
_chemical_formula_sum   'Ba4 Co4 F16'
_cell_volume   377.52651221
_cell_formula_units_Z   4
loop_
 _symmetry_equiv_pos_site_id
 _symmetry_equiv_pos_as_xyz
  1  'x, y, z'
loop_
 _atom_site_type_symbol
 _atom_site_label
 _atom_site_symmetry_multiplicity
 _atom_site_fract_x
 _atom_site_fract_y
 _atom_site_fract_z
 _atom_site_occupancy
  Ba  Ba0  1  0.00000000  0.85246400  0.04419700  1
  Ba  Ba1  1  0.50000000  0.64753600  0.54419700  1
  Ba  Ba2  1  0.50000000  0.35246400  0.04419700  1
  Ba  Ba3  1  0.00000000  0.14753600  0.54419700  1
  Co  Co4  1  0.50000000  0.91382700  0.49784100  1
  Co  Co5  1  0.00000000  0.58617300  0.99784100  1
  Co  Co6  1  0.00000000  0.41382700  0.49784100  1
  Co  Co7  1  0.50000000  0.08617300  0.99784100  1
  F  F8  1  0.00000000  0.92408500  0.48292100  1
  F  F9  1  0.50000000  0.57591500  0.98292100  1
  F  F10  1  0.50000000  0.96936000  0.17467200  1
  F  F11  1  0.00000000  0.53064000  0.67467200  1
  F  F12  1  0.00000000  0.69942900  0.80735000  1
  F  F13  1  0.50000000  0.80057100  0.30735000  1
  F  F14  1  0.00000000  0.66231500  0.27541900  1
  F  F15  1  0.50000000  0.83768500  0.77541900  1
  F  F16  1  0.50000000  0.42408500  0.48292100  1
  F  F17  1  0.00000000  0.07591500  0.98292100  1
  F  F18  1  0.00000000  0.46936000  0.17467200  1
  F  F19  1  0.50000000  0.03064000  0.67467200  1
  F  F20  1  0.50000000  0.19942900  0.80735000  1
  F  F21  1  0.00000000  0.30057100  0.30735000  1
  F  F22  1  0.50000000  0.16231500  0.27541900  1
  F  F23  1  0.00000000  0.33768500  0.77541900  1
