# generated using pymatgen
data_Nb2Te3
_symmetry_space_group_name_H-M   'P 1'
_cell_length_a   15.26124000
_cell_length_b   3.70333600
_cell_length_c   10.65755917
_cell_angle_alpha   90.00000000
_cell_angle_beta   123.42152335
_cell_angle_gamma   90.00000000
_symmetry_Int_Tables_number   1
_chemical_formula_structural   Nb2Te3
_chemical_formula_sum   'Nb8 Te12'
_cell_volume   502.73649615
_cell_formula_units_Z   4
loop_
 _symmetry_equiv_pos_site_id
 _symmetry_equiv_pos_as_xyz
  1  'x, y, z'
loop_
 _atom_site_type_symbol
 _atom_site_label
 _atom_site_symmetry_multiplicity
 _atom_site_fract_x
 _atom_site_fract_y
 _atom_site_fract_z
 _atom_site_occupancy
  Nb  Nb0  1  0.16641400  0.50000000  0.88135100  1
  Nb  Nb1  1  0.83358600  0.50000000  0.11864900  1
  Nb  Nb2  1  0.25612100  0.50000000  0.62610400  1
  Nb  Nb3  1  0.74387900  0.50000000  0.37389600  1
  Nb  Nb4  1  0.66641400  0.00000000  0.88135100  1
  Nb  Nb5  1  0.33358600  0.00000000  0.11864900  1
  Nb  Nb6  1  0.75612100  0.00000000  0.62610400  1
  Nb  Nb7  1  0.24387900  0.00000000  0.37389600  1
  Te  Te8  1  0.91098800  0.50000000  0.67759700  1
  Te  Te9  1  0.37118900  0.50000000  0.95635800  1
  Te  Te10  1  0.12287400  0.00000000  0.64916700  1
  Te  Te11  1  0.87712600  0.00000000  0.35083300  1
  Te  Te12  1  0.08901200  0.50000000  0.32240300  1
  Te  Te13  1  0.62881100  0.50000000  0.04364200  1
  Te  Te14  1  0.41098800  0.00000000  0.67759700  1
  Te  Te15  1  0.87118900  0.00000000  0.95635800  1
  Te  Te16  1  0.62287400  0.50000000  0.64916700  1
  Te  Te17  1  0.37712600  0.50000000  0.35083300  1
  Te  Te18  1  0.58901200  0.00000000  0.32240300  1
  Te  Te19  1  0.12881100  0.00000000  0.04364200  1
