# generated using pymatgen
data_Na2Zr(MoO4)3
_symmetry_space_group_name_H-M   'P 1'
_cell_length_a   16.79383000
_cell_length_b   11.41458200
_cell_length_c   5.16865960
_cell_angle_alpha   90.00000000
_cell_angle_beta   101.30364094
_cell_angle_gamma   90.00000000
_symmetry_Int_Tables_number   1
_chemical_formula_structural   Na2Zr(MoO4)3
_chemical_formula_sum   'Na8 Zr4 Mo12 O48'
_cell_volume   971.58446365
_cell_formula_units_Z   4
loop_
 _symmetry_equiv_pos_site_id
 _symmetry_equiv_pos_as_xyz
  1  'x, y, z'
loop_
 _atom_site_type_symbol
 _atom_site_label
 _atom_site_symmetry_multiplicity
 _atom_site_fract_x
 _atom_site_fract_y
 _atom_site_fract_z
 _atom_site_occupancy
  Na  Na0  1  0.15858250  0.12787050  0.87387100  1
  Na  Na1  1  0.84141750  0.12787050  0.62612900  1
  Na  Na2  1  0.84141750  0.87212950  0.12612900  1
  Na  Na3  1  0.15858250  0.87212950  0.37387100  1
  Na  Na4  1  0.65858250  0.62787050  0.87387100  1
  Na  Na5  1  0.34141750  0.62787050  0.62612900  1
  Na  Na6  1  0.34141750  0.37212950  0.12612900  1
  Na  Na7  1  0.65858250  0.37212950  0.37387100  1
  Zr  Zr8  1  0.50000000  0.87592000  0.75000000  1
  Zr  Zr9  1  0.50000000  0.12408000  0.25000000  1
  Zr  Zr10  1  0.00000000  0.37592000  0.75000000  1
  Zr  Zr11  1  0.00000000  0.62408000  0.25000000  1
  Mo  Mo12  1  0.65812300  0.10812700  0.86520600  1
  Mo  Mo13  1  0.34187700  0.10812700  0.63479400  1
  Mo  Mo14  1  0.34187700  0.89187300  0.13479400  1
  Mo  Mo15  1  0.65812300  0.89187300  0.36520600  1
  Mo  Mo16  1  0.50000000  0.35956400  0.75000000  1
  Mo  Mo17  1  0.50000000  0.64043600  0.25000000  1
  Mo  Mo18  1  0.15812300  0.60812700  0.86520600  1
  Mo  Mo19  1  0.84187700  0.60812700  0.63479400  1
  Mo  Mo20  1  0.84187700  0.39187300  0.13479400  1
  Mo  Mo21  1  0.15812300  0.39187300  0.36520600  1
  Mo  Mo22  1  0.00000000  0.85956400  0.75000000  1
  Mo  Mo23  1  0.00000000  0.14043600  0.25000000  1
  O  O24  1  0.60487450  0.18569350  0.09414700  1
  O  O25  1  0.39512550  0.18569350  0.40585300  1
  O  O26  1  0.39512550  0.81430650  0.90585300  1
  O  O27  1  0.60487450  0.81430650  0.59414700  1
  O  O28  1  0.71425200  0.21376100  0.73644600  1
  O  O29  1  0.28574800  0.21376100  0.76355400  1
  O  O30  1  0.28574800  0.78623900  0.26355400  1
  O  O31  1  0.71425200  0.78623900  0.23644600  1
  O  O32  1  0.56831300  0.04179100  0.61577300  1
  O  O33  1  0.43168700  0.04179100  0.88422700  1
  O  O34  1  0.43168700  0.95820900  0.38422700  1
  O  O35  1  0.56831300  0.95820900  0.11577300  1
  O  O36  1  0.07829700  0.05347300  0.43041100  1
  O  O37  1  0.92170300  0.05347300  0.06958900  1
  O  O38  1  0.92170300  0.94652700  0.56958900  1
  O  O39  1  0.07829700  0.94652700  0.93041100  1
  O  O40  1  0.54547950  0.72998750  0.01714900  1
  O  O41  1  0.45452050  0.72998750  0.48285100  1
  O  O42  1  0.72465550  0.01251750  0.07894500  1
  O  O43  1  0.54547950  0.27001250  0.51714900  1
  O  O44  1  0.72465550  0.98748250  0.57894500  1
  O  O45  1  0.27534450  0.98748250  0.92105500  1
  O  O46  1  0.27534450  0.01251750  0.42105500  1
  O  O47  1  0.45452050  0.27001250  0.98285100  1
  O  O48  1  0.10487450  0.68569350  0.09414700  1
  O  O49  1  0.89512550  0.68569350  0.40585300  1
  O  O50  1  0.89512550  0.31430650  0.90585300  1
  O  O51  1  0.10487450  0.31430650  0.59414700  1
  O  O52  1  0.21425200  0.71376100  0.73644600  1
  O  O53  1  0.78574800  0.71376100  0.76355400  1
  O  O54  1  0.78574800  0.28623900  0.26355400  1
  O  O55  1  0.21425200  0.28623900  0.23644600  1
  O  O56  1  0.06831300  0.54179100  0.61577300  1
  O  O57  1  0.93168700  0.54179100  0.88422700  1
  O  O58  1  0.93168700  0.45820900  0.38422700  1
  O  O59  1  0.06831300  0.45820900  0.11577300  1
  O  O60  1  0.57829700  0.55347300  0.43041100  1
  O  O61  1  0.42170300  0.55347300  0.06958900  1
  O  O62  1  0.42170300  0.44652700  0.56958900  1
  O  O63  1  0.57829700  0.44652700  0.93041100  1
  O  O64  1  0.04547950  0.22998750  0.01714900  1
  O  O65  1  0.95452050  0.22998750  0.48285100  1
  O  O66  1  0.22465550  0.51251750  0.07894500  1
  O  O67  1  0.04547950  0.77001250  0.51714900  1
  O  O68  1  0.22465550  0.48748250  0.57894500  1
  O  O69  1  0.77534450  0.48748250  0.92105500  1
  O  O70  1  0.77534450  0.51251750  0.42105500  1
  O  O71  1  0.95452050  0.77001250  0.98285100  1
