# generated using pymatgen
data_LiMnPO4
_symmetry_space_group_name_H-M   'P 1'
_cell_length_a   17.81506800
_cell_length_b   10.09348200
_cell_length_c   16.77392969
_cell_angle_alpha   90.00000000
_cell_angle_beta   99.09305967
_cell_angle_gamma   90.00000000
_symmetry_Int_Tables_number   1
_chemical_formula_structural   LiMnPO4
_chemical_formula_sum   'Li32 Mn32 P32 O128'
_cell_volume   2978.31709328
_cell_formula_units_Z   32
loop_
 _symmetry_equiv_pos_site_id
 _symmetry_equiv_pos_as_xyz
  1  'x, y, z'
loop_
 _atom_site_type_symbol
 _atom_site_label
 _atom_site_symmetry_multiplicity
 _atom_site_fract_x
 _atom_site_fract_y
 _atom_site_fract_z
 _atom_site_occupancy
  Li  Li0  1  0.50652600  0.30851700  0.99688800  1
  Li  Li1  1  0.50652600  0.69148300  0.49688800  1
  Li  Li2  1  0.63958050  0.93536850  0.74753400  1
  Li  Li3  1  0.66535250  0.40804150  0.74896100  1
  Li  Li4  1  0.72790700  0.58714500  0.99827400  1
  Li  Li5  1  0.63958050  0.06463150  0.24753400  1
  Li  Li6  1  0.75666050  0.05635950  0.99623900  1
  Li  Li7  1  0.66535250  0.59195850  0.24896100  1
  Li  Li8  1  0.72790700  0.41285500  0.49827400  1
  Li  Li9  1  0.75666050  0.94364050  0.49623900  1
  Li  Li10  1  0.88628600  0.68119700  0.74790300  1
  Li  Li11  1  0.91830500  0.16076500  0.74658900  1
  Li  Li12  1  0.97751950  0.33739450  0.99700600  1
  Li  Li13  1  0.88628600  0.31880300  0.24790300  1
  Li  Li14  1  0.91830500  0.83923500  0.24658900  1
  Li  Li15  1  0.97751950  0.66260550  0.49700600  1
  Li  Li16  1  0.00652600  0.80851700  0.99688800  1
  Li  Li17  1  0.00652600  0.19148300  0.49688800  1
  Li  Li18  1  0.13958050  0.43536850  0.74753400  1
  Li  Li19  1  0.16535250  0.90804150  0.74896100  1
  Li  Li20  1  0.22790700  0.08714500  0.99827400  1
  Li  Li21  1  0.13958050  0.56463150  0.24753400  1
  Li  Li22  1  0.25666050  0.55635950  0.99623900  1
  Li  Li23  1  0.16535250  0.09195850  0.24896100  1
  Li  Li24  1  0.22790700  0.91285500  0.49827400  1
  Li  Li25  1  0.25666050  0.44364050  0.49623900  1
  Li  Li26  1  0.38628600  0.18119700  0.74790300  1
  Li  Li27  1  0.41830500  0.66076500  0.74658900  1
  Li  Li28  1  0.47751950  0.83739450  0.99700600  1
  Li  Li29  1  0.38628600  0.81880300  0.24790300  1
  Li  Li30  1  0.41830500  0.33923500  0.24658900  1
  Li  Li31  1  0.47751950  0.16260550  0.49700600  1
  Mn  Mn32  1  0.57650550  0.69104450  0.87177700  1
  Mn  Mn33  1  0.60682200  0.16266100  0.87223100  1
  Mn  Mn34  1  0.57650550  0.30895550  0.37177700  1
  Mn  Mn35  1  0.60682200  0.83733900  0.37223100  1
  Mn  Mn36  1  0.66507650  0.66114850  0.62125100  1
  Mn  Mn37  1  0.69559550  0.18474150  0.62160100  1
  Mn  Mn38  1  0.66507650  0.33885150  0.12125100  1
  Mn  Mn39  1  0.69559550  0.81525850  0.12160100  1
  Mn  Mn40  1  0.82690700  0.44367600  0.87248500  1
  Mn  Mn41  1  0.85621000  0.91169900  0.87044100  1
  Mn  Mn42  1  0.82690700  0.55632400  0.37248500  1
  Mn  Mn43  1  0.85621000  0.08830100  0.37044100  1
  Mn  Mn44  1  0.91763900  0.90877500  0.62029600  1
  Mn  Mn45  1  0.94290350  0.43825050  0.62101300  1
  Mn  Mn46  1  0.91763900  0.09122500  0.12029600  1
  Mn  Mn47  1  0.94290350  0.56174950  0.12101300  1
  Mn  Mn48  1  0.07650550  0.19104450  0.87177700  1
  Mn  Mn49  1  0.10682200  0.66266100  0.87223100  1
  Mn  Mn50  1  0.07650550  0.80895550  0.37177700  1
  Mn  Mn51  1  0.10682200  0.33733900  0.37223100  1
  Mn  Mn52  1  0.16507650  0.16114850  0.62125100  1
  Mn  Mn53  1  0.19559550  0.68474150  0.62160100  1
  Mn  Mn54  1  0.16507650  0.83885150  0.12125100  1
  Mn  Mn55  1  0.19559550  0.31525850  0.12160100  1
  Mn  Mn56  1  0.32690700  0.94367600  0.87248500  1
  Mn  Mn57  1  0.35621000  0.41169900  0.87044100  1
  Mn  Mn58  1  0.32690700  0.05632400  0.37248500  1
  Mn  Mn59  1  0.35621000  0.58830100  0.37044100  1
  Mn  Mn60  1  0.41763900  0.40877500  0.62029600  1
  Mn  Mn61  1  0.44290350  0.93825050  0.62101300  1
  Mn  Mn62  1  0.41763900  0.59122500  0.12029600  1
  Mn  Mn63  1  0.44290350  0.06174950  0.12101300  1
  P  P64  1  0.50712250  0.40664150  0.80908700  1
  P  P65  1  0.50712250  0.59335850  0.30908700  1
  P  P66  1  0.57635950  0.40621150  0.56057500  1
  P  P67  1  0.60145600  0.93486800  0.55910300  1
  P  P68  1  0.57635950  0.59378850  0.06057500  1
  P  P69  1  0.60145600  0.06513200  0.05910300  1
  P  P70  1  0.73025100  0.68494900  0.81101900  1
  P  P71  1  0.75907050  0.15740150  0.80909500  1
  P  P72  1  0.73025100  0.31505100  0.31101900  1
  P  P73  1  0.75907050  0.84259850  0.30909500  1
  P  P74  1  0.82436900  0.65790500  0.56033700  1
  P  P75  1  0.85309800  0.18499600  0.55850300  1
  P  P76  1  0.82436900  0.34209500  0.06033700  1
  P  P77  1  0.85309800  0.81500400  0.05850300  1
  P  P78  1  0.98145750  0.43514150  0.81044400  1
  P  P79  1  0.98145750  0.56485850  0.31044400  1
  P  P80  1  0.00712250  0.90664150  0.80908700  1
  P  P81  1  0.00712250  0.09335850  0.30908700  1
  P  P82  1  0.07635950  0.90621150  0.56057500  1
  P  P83  1  0.10145600  0.43486800  0.55910300  1
  P  P84  1  0.07635950  0.09378850  0.06057500  1
  P  P85  1  0.10145600  0.56513200  0.05910300  1
  P  P86  1  0.23025100  0.18494900  0.81101900  1
  P  P87  1  0.25907050  0.65740150  0.80909500  1
  P  P88  1  0.23025100  0.81505100  0.31101900  1
  P  P89  1  0.25907050  0.34259850  0.30909500  1
  P  P90  1  0.32436900  0.15790500  0.56033700  1
  P  P91  1  0.35309800  0.68499600  0.55850300  1
  P  P92  1  0.32436900  0.84209500  0.06033700  1
  P  P93  1  0.35309800  0.31500400  0.05850300  1
  P  P94  1  0.48145750  0.93514150  0.81044400  1
  P  P95  1  0.48145750  0.06485850  0.31044400  1
  O  O96  1  0.51155500  0.55845000  0.79489500  1
  O  O97  1  0.55264900  0.01619000  0.79739400  1
  O  O98  1  0.58211100  0.16589200  0.98846700  1
  O  O99  1  0.53158350  0.02182850  0.56913100  1
  O  O100  1  0.58813300  0.34660300  0.81668900  1
  O  O101  1  0.51155500  0.44155000  0.29489500  1
  O  O102  1  0.61648750  0.62682050  0.98689700  1
  O  O103  1  0.56713000  0.55815700  0.57040600  1
  O  O104  1  0.55264900  0.98381000  0.29739400  1
  O  O105  1  0.58211100  0.83410800  0.48846700  1
  O  O106  1  0.53158350  0.97817150  0.06913100  1
  O  O107  1  0.62487650  0.85253250  0.63781800  1
  O  O108  1  0.62905150  0.35095350  0.63635600  1
  O  O109  1  0.58813300  0.65339700  0.31668900  1
  O  O110  1  0.66503200  0.78108700  0.82350900  1
  O  O111  1  0.61648750  0.37317950  0.48689700  1
  O  O112  1  0.56713000  0.44184300  0.07040600  1
  O  O113  1  0.66809250  0.02501850  0.54265900  1
  O  O114  1  0.72368750  0.12292950  0.88586900  1
  O  O115  1  0.70412900  0.59266000  0.73742500  1
  O  O116  1  0.70604450  0.09679250  0.73515000  1
  O  O117  1  0.62487650  0.14746750  0.13781800  1
  O  O118  1  0.62905150  0.64904650  0.13635600  1
  O  O119  1  0.66503200  0.21891300  0.32350900  1
  O  O120  1  0.75023250  0.59492750  0.88696700  1
  O  O121  1  0.76167950  0.30999850  0.79658000  1
  O  O122  1  0.66809250  0.97498150  0.04265900  1
  O  O123  1  0.74358500  0.59599700  0.54784000  1
  O  O124  1  0.72368750  0.87707050  0.38586900  1
  O  O125  1  0.70412900  0.40734000  0.23742500  1
  O  O126  1  0.70604450  0.90320750  0.23515000  1
  O  O127  1  0.80105500  0.76510400  0.79583800  1
  O  O128  1  0.83191300  0.91337100  0.98695000  1
  O  O129  1  0.75023250  0.40507250  0.38696700  1
  O  O130  1  0.78347800  0.27113300  0.57091000  1
  O  O131  1  0.86591300  0.37935300  0.98822700  1
  O  O132  1  0.76167950  0.69000150  0.29658000  1
  O  O133  1  0.84062850  0.09960550  0.81771700  1
  O  O134  1  0.81775450  0.81058750  0.56889800  1
  O  O135  1  0.74358500  0.40400300  0.04784000  1
  O  O136  1  0.80105500  0.23489600  0.29583800  1
  O  O137  1  0.83191300  0.08662900  0.48695000  1
  O  O138  1  0.78347800  0.72886700  0.07091000  1
  O  O139  1  0.87463950  0.60240550  0.63778800  1
  O  O140  1  0.87868250  0.10017450  0.63568200  1
  O  O141  1  0.86591300  0.62064700  0.48822700  1
  O  O142  1  0.91578900  0.53008700  0.82332300  1
  O  O143  1  0.84062850  0.90039450  0.31771700  1
  O  O144  1  0.81775450  0.18941250  0.06889800  1
  O  O145  1  0.91884900  0.27694600  0.54197400  1
  O  O146  1  0.97360000  0.87659400  0.88766900  1
  O  O147  1  0.95149100  0.84408900  0.73804200  1
  O  O148  1  0.95727600  0.34688000  0.73439200  1
  O  O149  1  0.87463950  0.39759450  0.13778800  1
  O  O150  1  0.87868250  0.89982550  0.13568200  1
  O  O151  1  0.91578900  0.46991300  0.32332300  1
  O  O152  1  0.99941250  0.34220750  0.88519400  1
  O  O153  1  0.91884900  0.72305400  0.04197400  1
  O  O154  1  0.99641850  0.84094150  0.54918700  1
  O  O155  1  0.97360000  0.12340600  0.38766900  1
  O  O156  1  0.95149100  0.15591100  0.23804200  1
  O  O157  1  0.95727600  0.65312000  0.23439200  1
  O  O158  1  0.99941250  0.65779250  0.38519400  1
  O  O159  1  0.99641850  0.15905850  0.04918700  1
  O  O160  1  0.01155500  0.05845000  0.79489500  1
  O  O161  1  0.05264900  0.51619000  0.79739400  1
  O  O162  1  0.08211100  0.66589200  0.98846700  1
  O  O163  1  0.03158350  0.52182850  0.56913100  1
  O  O164  1  0.08813300  0.84660300  0.81668900  1
  O  O165  1  0.01155500  0.94155000  0.29489500  1
  O  O166  1  0.11648750  0.12682050  0.98689700  1
  O  O167  1  0.06713000  0.05815700  0.57040600  1
  O  O168  1  0.05264900  0.48381000  0.29739400  1
  O  O169  1  0.08211100  0.33410800  0.48846700  1
  O  O170  1  0.03158350  0.47817150  0.06913100  1
  O  O171  1  0.12487650  0.35253250  0.63781800  1
  O  O172  1  0.12905150  0.85095350  0.63635600  1
  O  O173  1  0.08813300  0.15339700  0.31668900  1
  O  O174  1  0.16503200  0.28108700  0.82350900  1
  O  O175  1  0.11648750  0.87317950  0.48689700  1
  O  O176  1  0.06713000  0.94184300  0.07040600  1
  O  O177  1  0.16809250  0.52501850  0.54265900  1
  O  O178  1  0.22368750  0.62292950  0.88586900  1
  O  O179  1  0.20412900  0.09266000  0.73742500  1
  O  O180  1  0.20604450  0.59679250  0.73515000  1
  O  O181  1  0.12487650  0.64746750  0.13781800  1
  O  O182  1  0.12905150  0.14904650  0.13635600  1
  O  O183  1  0.16503200  0.71891300  0.32350900  1
  O  O184  1  0.25023250  0.09492750  0.88696700  1
  O  O185  1  0.26167950  0.80999850  0.79658000  1
  O  O186  1  0.16809250  0.47498150  0.04265900  1
  O  O187  1  0.24358500  0.09599700  0.54784000  1
  O  O188  1  0.22368750  0.37707050  0.38586900  1
  O  O189  1  0.20412900  0.90734000  0.23742500  1
  O  O190  1  0.20604450  0.40320750  0.23515000  1
  O  O191  1  0.30105500  0.26510400  0.79583800  1
  O  O192  1  0.33191300  0.41337100  0.98695000  1
  O  O193  1  0.25023250  0.90507250  0.38696700  1
  O  O194  1  0.28347800  0.77113300  0.57091000  1
  O  O195  1  0.36591300  0.87935300  0.98822700  1
  O  O196  1  0.26167950  0.19000150  0.29658000  1
  O  O197  1  0.34062850  0.59960550  0.81771700  1
  O  O198  1  0.31775450  0.31058750  0.56889800  1
  O  O199  1  0.24358500  0.90400300  0.04784000  1
  O  O200  1  0.30105500  0.73489600  0.29583800  1
  O  O201  1  0.33191300  0.58662900  0.48695000  1
  O  O202  1  0.28347800  0.22886700  0.07091000  1
  O  O203  1  0.37463950  0.10240550  0.63778800  1
  O  O204  1  0.37868250  0.60017450  0.63568200  1
  O  O205  1  0.36591300  0.12064700  0.48822700  1
  O  O206  1  0.41578900  0.03008700  0.82332300  1
  O  O207  1  0.34062850  0.40039450  0.31771700  1
  O  O208  1  0.31775450  0.68941250  0.06889800  1
  O  O209  1  0.41884900  0.77694600  0.54197400  1
  O  O210  1  0.47360000  0.37659400  0.88766900  1
  O  O211  1  0.45149100  0.34408900  0.73804200  1
  O  O212  1  0.45727600  0.84688000  0.73439200  1
  O  O213  1  0.37463950  0.89759450  0.13778800  1
  O  O214  1  0.37868250  0.39982550  0.13568200  1
  O  O215  1  0.41578900  0.96991300  0.32332300  1
  O  O216  1  0.49941250  0.84220750  0.88519400  1
  O  O217  1  0.41884900  0.22305400  0.04197400  1
  O  O218  1  0.49641850  0.34094150  0.54918700  1
  O  O219  1  0.47360000  0.62340600  0.38766900  1
  O  O220  1  0.45149100  0.65591100  0.23804200  1
  O  O221  1  0.45727600  0.15312000  0.23439200  1
  O  O222  1  0.49941250  0.15779250  0.38519400  1
  O  O223  1  0.49641850  0.65905850  0.04918700  1
