# generated using pymatgen
data_NiMoO4
_symmetry_space_group_name_H-M   'P 1'
_cell_length_a   9.73804400
_cell_length_b   8.89681400
_cell_length_c   7.77496185
_cell_angle_alpha   90.00000000
_cell_angle_beta   114.11818357
_cell_angle_gamma   90.00000000
_symmetry_Int_Tables_number   1
_chemical_formula_structural   NiMoO4
_chemical_formula_sum   'Ni8 Mo8 O32'
_cell_volume   614.80122263
_cell_formula_units_Z   8
loop_
 _symmetry_equiv_pos_site_id
 _symmetry_equiv_pos_as_xyz
  1  'x, y, z'
loop_
 _atom_site_type_symbol
 _atom_site_label
 _atom_site_symmetry_multiplicity
 _atom_site_fract_x
 _atom_site_fract_y
 _atom_site_fract_z
 _atom_site_occupancy
  Ni  Ni0  1  0.81448500  0.50000000  0.15731600  1
  Ni  Ni1  1  0.18551500  0.50000000  0.84268400  1
  Ni  Ni2  1  0.00000000  0.31418400  0.50000000  1
  Ni  Ni3  1  0.00000000  0.68581600  0.50000000  1
  Ni  Ni4  1  0.31448500  0.00000000  0.15731600  1
  Ni  Ni5  1  0.68551500  0.00000000  0.84268400  1
  Ni  Ni6  1  0.50000000  0.81418400  0.50000000  1
  Ni  Ni7  1  0.50000000  0.18581600  0.50000000  1
  Mo  Mo8  1  0.78269700  0.50000000  0.63819100  1
  Mo  Mo9  1  0.21730300  0.50000000  0.36180900  1
  Mo  Mo10  1  0.00000000  0.28329600  0.00000000  1
  Mo  Mo11  1  0.00000000  0.71670400  0.00000000  1
  Mo  Mo12  1  0.28269700  0.00000000  0.63819100  1
  Mo  Mo13  1  0.71730300  0.00000000  0.36180900  1
  Mo  Mo14  1  0.50000000  0.78329600  0.00000000  1
  Mo  Mo15  1  0.50000000  0.21670400  0.00000000  1
  O  O16  1  0.00150600  0.65105900  0.23871500  1
  O  O17  1  0.99849400  0.65105900  0.76128500  1
  O  O18  1  0.99849400  0.34894100  0.76128500  1
  O  O19  1  0.00150600  0.34894100  0.23871500  1
  O  O20  1  0.15564450  0.16206250  0.07877700  1
  O  O21  1  0.84435550  0.16206250  0.92122300  1
  O  O22  1  0.84435550  0.83793750  0.92122300  1
  O  O23  1  0.15564450  0.83793750  0.07877700  1
  O  O24  1  0.66140050  0.65546150  0.57823200  1
  O  O25  1  0.33859950  0.65546150  0.42176800  1
  O  O26  1  0.33859950  0.34453850  0.42176800  1
  O  O27  1  0.66140050  0.34453850  0.57823200  1
  O  O28  1  0.84952200  0.50000000  0.43760600  1
  O  O29  1  0.15047800  0.50000000  0.56239400  1
  O  O30  1  0.84787200  0.50000000  0.91303700  1
  O  O31  1  0.15212800  0.50000000  0.08696300  1
  O  O32  1  0.50150600  0.15105900  0.23871500  1
  O  O33  1  0.49849400  0.15105900  0.76128500  1
  O  O34  1  0.49849400  0.84894100  0.76128500  1
  O  O35  1  0.50150600  0.84894100  0.23871500  1
  O  O36  1  0.65564450  0.66206250  0.07877700  1
  O  O37  1  0.34435550  0.66206250  0.92122300  1
  O  O38  1  0.34435550  0.33793750  0.92122300  1
  O  O39  1  0.65564450  0.33793750  0.07877700  1
  O  O40  1  0.16140050  0.15546150  0.57823200  1
  O  O41  1  0.83859950  0.15546150  0.42176800  1
  O  O42  1  0.83859950  0.84453850  0.42176800  1
  O  O43  1  0.16140050  0.84453850  0.57823200  1
  O  O44  1  0.34952200  0.00000000  0.43760600  1
  O  O45  1  0.65047800  0.00000000  0.56239400  1
  O  O46  1  0.34787200  0.00000000  0.91303700  1
  O  O47  1  0.65212800  0.00000000  0.08696300  1
