# generated using pymatgen
data_Zr2Si4Ru3
_symmetry_space_group_name_H-M   'P 1'
_cell_length_a   19.09040200
_cell_length_b   5.39080800
_cell_length_c   13.38500636
_cell_angle_alpha   90.00000000
_cell_angle_beta   127.77989433
_cell_angle_gamma   90.00000000
_symmetry_Int_Tables_number   1
_chemical_formula_structural   Zr2Si4Ru3
_chemical_formula_sum   'Zr16 Si32 Ru24'
_cell_volume   1088.72448139
_cell_formula_units_Z   8
loop_
 _symmetry_equiv_pos_site_id
 _symmetry_equiv_pos_as_xyz
  1  'x, y, z'
loop_
 _atom_site_type_symbol
 _atom_site_label
 _atom_site_symmetry_multiplicity
 _atom_site_fract_x
 _atom_site_fract_y
 _atom_site_fract_z
 _atom_site_occupancy
  Zr  Zr0  1  0.83352950  0.12709850  0.63717900  1
  Zr  Zr1  1  0.16647050  0.12709850  0.86282100  1
  Zr  Zr2  1  0.16647050  0.87290150  0.36282100  1
  Zr  Zr3  1  0.83352950  0.87290150  0.13717900  1
  Zr  Zr4  1  0.07334050  0.62677150  0.64835300  1
  Zr  Zr5  1  0.92665950  0.62677150  0.85164700  1
  Zr  Zr6  1  0.92665950  0.37322850  0.35164700  1
  Zr  Zr7  1  0.07334050  0.37322850  0.14835300  1
  Zr  Zr8  1  0.33352950  0.62709850  0.63717900  1
  Zr  Zr9  1  0.66647050  0.62709850  0.86282100  1
  Zr  Zr10  1  0.66647050  0.37290150  0.36282100  1
  Zr  Zr11  1  0.33352950  0.37290150  0.13717900  1
  Zr  Zr12  1  0.57334050  0.12677150  0.64835300  1
  Zr  Zr13  1  0.42665950  0.12677150  0.85164700  1
  Zr  Zr14  1  0.42665950  0.87322850  0.35164700  1
  Zr  Zr15  1  0.57334050  0.87322850  0.14835300  1
  Si  Si16  1  0.38729000  0.64108800  0.89489100  1
  Si  Si17  1  0.11271000  0.14108800  0.60510900  1
  Si  Si18  1  0.61271000  0.35891200  0.10510900  1
  Si  Si19  1  0.88729000  0.85891200  0.39489100  1
  Si  Si20  1  0.23500750  0.62347150  0.89552200  1
  Si  Si21  1  0.26499250  0.12347150  0.60447800  1
  Si  Si22  1  0.76499250  0.37652850  0.10447800  1
  Si  Si23  1  0.73500750  0.87652850  0.39552200  1
  Si  Si24  1  0.17018000  0.74285200  0.56498200  1
  Si  Si25  1  0.32982000  0.24285200  0.93501800  1
  Si  Si26  1  0.82982000  0.25714800  0.43501800  1
  Si  Si27  1  0.67018000  0.75714800  0.06498200  1
  Si  Si28  1  0.00000000  0.38012800  0.75000000  1
  Si  Si29  1  0.00000000  0.61987200  0.25000000  1
  Si  Si30  1  0.00000000  0.86989200  0.75000000  1
  Si  Si31  1  0.00000000  0.13010800  0.25000000  1
  Si  Si32  1  0.88729000  0.14108800  0.89489100  1
  Si  Si33  1  0.61271000  0.64108800  0.60510900  1
  Si  Si34  1  0.11271000  0.85891200  0.10510900  1
  Si  Si35  1  0.38729000  0.35891200  0.39489100  1
  Si  Si36  1  0.73500750  0.12347150  0.89552200  1
  Si  Si37  1  0.76499250  0.62347150  0.60447800  1
  Si  Si38  1  0.26499250  0.87652850  0.10447800  1
  Si  Si39  1  0.23500750  0.37652850  0.39552200  1
  Si  Si40  1  0.67018000  0.24285200  0.56498200  1
  Si  Si41  1  0.82982000  0.74285200  0.93501800  1
  Si  Si42  1  0.32982000  0.75714800  0.43501800  1
  Si  Si43  1  0.17018000  0.25714800  0.06498200  1
  Si  Si44  1  0.50000000  0.88012800  0.75000000  1
  Si  Si45  1  0.50000000  0.11987200  0.25000000  1
  Si  Si46  1  0.50000000  0.36989200  0.75000000  1
  Si  Si47  1  0.50000000  0.63010800  0.25000000  1
  Ru  Ru48  1  0.97853400  0.11012600  0.58505200  1
  Ru  Ru49  1  0.02146600  0.11012600  0.91494800  1
  Ru  Ru50  1  0.02146600  0.88987400  0.41494800  1
  Ru  Ru51  1  0.97853400  0.88987400  0.08505200  1
  Ru  Ru52  1  0.26208450  0.90916750  0.77949100  1
  Ru  Ru53  1  0.23791550  0.40916750  0.72050900  1
  Ru  Ru54  1  0.73791550  0.09083250  0.22050900  1
  Ru  Ru55  1  0.76208450  0.59083250  0.27949100  1
  Ru  Ru56  1  0.12360600  0.64060700  0.93418800  1
  Ru  Ru57  1  0.87639400  0.64060700  0.56581200  1
  Ru  Ru58  1  0.87639400  0.35939300  0.06581200  1
  Ru  Ru59  1  0.12360600  0.35939300  0.43418800  1
  Ru  Ru60  1  0.47853400  0.61012600  0.58505200  1
  Ru  Ru61  1  0.52146600  0.61012600  0.91494800  1
  Ru  Ru62  1  0.52146600  0.38987400  0.41494800  1
  Ru  Ru63  1  0.47853400  0.38987400  0.08505200  1
  Ru  Ru64  1  0.76208450  0.40916750  0.77949100  1
  Ru  Ru65  1  0.73791550  0.90916750  0.72050900  1
  Ru  Ru66  1  0.23791550  0.59083250  0.22050900  1
  Ru  Ru67  1  0.26208450  0.09083250  0.27949100  1
  Ru  Ru68  1  0.62360600  0.14060700  0.93418800  1
  Ru  Ru69  1  0.37639400  0.14060700  0.56581200  1
  Ru  Ru70  1  0.37639400  0.85939300  0.06581200  1
  Ru  Ru71  1  0.62360600  0.85939300  0.43418800  1
