# generated using pymatgen
data_VInO4
_symmetry_space_group_name_H-M   'P 1'
_cell_length_a   10.47031600
_cell_length_b   9.59312200
_cell_length_c   7.17550783
_cell_angle_alpha   90.00000000
_cell_angle_beta   104.92891845
_cell_angle_gamma   90.00000000
_symmetry_Int_Tables_number   1
_chemical_formula_structural   VInO4
_chemical_formula_sum   'V8 In8 O32'
_cell_volume   696.40228512
_cell_formula_units_Z   8
loop_
 _symmetry_equiv_pos_site_id
 _symmetry_equiv_pos_as_xyz
  1  'x, y, z'
loop_
 _atom_site_type_symbol
 _atom_site_label
 _atom_site_symmetry_multiplicity
 _atom_site_fract_x
 _atom_site_fract_y
 _atom_site_fract_z
 _atom_site_occupancy
  V  V0  1  0.00000000  0.25301800  0.00000000  1
  V  V1  1  0.00000000  0.74698200  0.00000000  1
  V  V2  1  0.77468650  0.50000000  0.40749300  1
  V  V3  1  0.22531350  0.50000000  0.59250700  1
  V  V4  1  0.50000000  0.75301800  0.00000000  1
  V  V5  1  0.50000000  0.24698200  0.00000000  1
  V  V6  1  0.27468650  0.00000000  0.40749300  1
  V  V7  1  0.72531350  0.00000000  0.59250700  1
  In  In8  1  0.00000000  0.18668000  0.50000000  1
  In  In9  1  0.00000000  0.81332000  0.50000000  1
  In  In10  1  0.28991200  0.50000000  0.12990600  1
  In  In11  1  0.71008800  0.50000000  0.87009400  1
  In  In12  1  0.50000000  0.68668000  0.50000000  1
  In  In13  1  0.50000000  0.31332000  0.50000000  1
  In  In14  1  0.78991200  0.00000000  0.12990600  1
  In  In15  1  0.21008800  0.00000000  0.87009400  1
  O  O16  1  0.64134000  0.50000000  0.54054300  1
  O  O17  1  0.35866000  0.50000000  0.45945700  1
  O  O18  1  0.29155500  0.50000000  0.83634200  1
  O  O19  1  0.70844500  0.50000000  0.16365800  1
  O  O20  1  0.13368500  0.64931900  0.10681800  1
  O  O21  1  0.86631500  0.64931900  0.89318200  1
  O  O22  1  0.86631500  0.35068100  0.89318200  1
  O  O23  1  0.13368500  0.35068100  0.10681800  1
  O  O24  1  0.04760800  0.15539100  0.81234100  1
  O  O25  1  0.95239200  0.15539100  0.18765900  1
  O  O26  1  0.95239200  0.84460900  0.18765900  1
  O  O27  1  0.04760800  0.84460900  0.81234100  1
  O  O28  1  0.13858400  0.35069500  0.52325600  1
  O  O29  1  0.86141600  0.35069500  0.47674400  1
  O  O30  1  0.86141600  0.64930500  0.47674400  1
  O  O31  1  0.13858400  0.64930500  0.52325600  1
  O  O32  1  0.14134000  0.00000000  0.54054300  1
  O  O33  1  0.85866000  0.00000000  0.45945700  1
  O  O34  1  0.79155500  0.00000000  0.83634200  1
  O  O35  1  0.20844500  0.00000000  0.16365800  1
  O  O36  1  0.63368500  0.14931900  0.10681800  1
  O  O37  1  0.36631500  0.14931900  0.89318200  1
  O  O38  1  0.36631500  0.85068100  0.89318200  1
  O  O39  1  0.63368500  0.85068100  0.10681800  1
  O  O40  1  0.54760800  0.65539100  0.81234100  1
  O  O41  1  0.45239200  0.65539100  0.18765900  1
  O  O42  1  0.45239200  0.34460900  0.18765900  1
  O  O43  1  0.54760800  0.34460900  0.81234100  1
  O  O44  1  0.63858400  0.85069500  0.52325600  1
  O  O45  1  0.36141600  0.85069500  0.47674400  1
  O  O46  1  0.36141600  0.14930500  0.47674400  1
  O  O47  1  0.63858400  0.14930500  0.52325600  1
