# generated using pymatgen
data_Sr2SmGaCu2O7
_symmetry_space_group_name_H-M   'P 1'
_cell_length_a   5.45263600
_cell_length_b   5.57180800
_cell_length_c   23.21372000
_cell_angle_alpha   90.00000000
_cell_angle_beta   90.00000000
_cell_angle_gamma   90.00000000
_symmetry_Int_Tables_number   1
_chemical_formula_structural   Sr2SmGaCu2O7
_chemical_formula_sum   'Sr8 Sm4 Ga4 Cu8 O28'
_cell_volume   705.25697643
_cell_formula_units_Z   4
loop_
 _symmetry_equiv_pos_site_id
 _symmetry_equiv_pos_as_xyz
  1  'x, y, z'
loop_
 _atom_site_type_symbol
 _atom_site_label
 _atom_site_symmetry_multiplicity
 _atom_site_fract_x
 _atom_site_fract_y
 _atom_site_fract_z
 _atom_site_occupancy
  Sr  Sr0  1  0.00155600  0.51774300  0.65222000  1
  Sr  Sr1  1  0.50155600  0.98225700  0.84778000  1
  Sr  Sr2  1  0.50155600  0.98225700  0.65222000  1
  Sr  Sr3  1  0.00155600  0.51774300  0.84778000  1
  Sr  Sr4  1  0.50155600  0.01774300  0.15222000  1
  Sr  Sr5  1  0.00155600  0.48225700  0.34778000  1
  Sr  Sr6  1  0.00155600  0.48225700  0.15222000  1
  Sr  Sr7  1  0.50155600  0.01774300  0.34778000  1
  Sm  Sm8  1  0.49928800  0.00000000  0.00000000  1
  Sm  Sm9  1  0.99928800  0.50000000  0.00000000  1
  Sm  Sm10  1  0.99928800  0.50000000  0.50000000  1
  Sm  Sm11  1  0.49928800  0.00000000  0.50000000  1
  Ga  Ga12  1  0.53386950  0.43165450  0.75000000  1
  Ga  Ga13  1  0.03386950  0.06834550  0.75000000  1
  Ga  Ga14  1  0.03386950  0.93165450  0.25000000  1
  Ga  Ga15  1  0.53386950  0.56834550  0.25000000  1
  Cu  Cu16  1  0.49873050  0.49890850  0.57382550  1
  Cu  Cu17  1  0.99873050  0.00109150  0.92617450  1
  Cu  Cu18  1  0.99873050  0.00109150  0.57382550  1
  Cu  Cu19  1  0.49873050  0.49890850  0.92617450  1
  Cu  Cu20  1  0.99873050  0.99890850  0.07382550  1
  Cu  Cu21  1  0.49873050  0.50109150  0.42617450  1
  Cu  Cu22  1  0.49873050  0.50109150  0.07382550  1
  Cu  Cu23  1  0.99873050  0.99890850  0.42617450  1
  O  O24  1  0.38264500  0.12135500  0.75000000  1
  O  O25  1  0.88264500  0.37864500  0.75000000  1
  O  O26  1  0.24889400  0.24956800  0.56661200  1
  O  O27  1  0.74889400  0.25043200  0.93338800  1
  O  O28  1  0.74889400  0.25043200  0.56661200  1
  O  O29  1  0.24889400  0.24956800  0.93338800  1
  O  O30  1  0.74976950  0.74845050  0.56354650  1
  O  O31  1  0.24976950  0.75154950  0.93645350  1
  O  O32  1  0.24976950  0.75154950  0.56354650  1
  O  O33  1  0.74976950  0.74845050  0.93645350  1
  O  O34  1  0.96884350  0.95062950  0.67716250  1
  O  O35  1  0.46884350  0.54937050  0.82283750  1
  O  O36  1  0.46884350  0.54937050  0.67716250  1
  O  O37  1  0.96884350  0.95062950  0.82283750  1
  O  O38  1  0.88264500  0.62135500  0.25000000  1
  O  O39  1  0.38264500  0.87864500  0.25000000  1
  O  O40  1  0.74889400  0.74956800  0.06661200  1
  O  O41  1  0.24889400  0.75043200  0.43338800  1
  O  O42  1  0.24889400  0.75043200  0.06661200  1
  O  O43  1  0.74889400  0.74956800  0.43338800  1
  O  O44  1  0.24976950  0.24845050  0.06354650  1
  O  O45  1  0.74976950  0.25154950  0.43645350  1
  O  O46  1  0.74976950  0.25154950  0.06354650  1
  O  O47  1  0.24976950  0.24845050  0.43645350  1
  O  O48  1  0.46884350  0.45062950  0.17716250  1
  O  O49  1  0.96884350  0.04937050  0.32283750  1
  O  O50  1  0.96884350  0.04937050  0.17716250  1
  O  O51  1  0.46884350  0.45062950  0.32283750  1
