# generated using pymatgen
data_Li2MnP2O7
_symmetry_space_group_name_H-M   'P 1'
_cell_length_a   15.60868400
_cell_length_b   5.02969000
_cell_length_c   9.02114557
_cell_angle_alpha   90.00000000
_cell_angle_beta   114.80370614
_cell_angle_gamma   90.00000000
_symmetry_Int_Tables_number   1
_chemical_formula_structural   Li2MnP2O7
_chemical_formula_sum   'Li8 Mn4 P8 O28'
_cell_volume   642.88844537
_cell_formula_units_Z   4
loop_
 _symmetry_equiv_pos_site_id
 _symmetry_equiv_pos_as_xyz
  1  'x, y, z'
loop_
 _atom_site_type_symbol
 _atom_site_label
 _atom_site_symmetry_multiplicity
 _atom_site_fract_x
 _atom_site_fract_y
 _atom_site_fract_z
 _atom_site_occupancy
  Li  Li0  1  0.30905850  0.85860750  0.94711600  1
  Li  Li1  1  0.19094150  0.35860750  0.55288400  1
  Li  Li2  1  0.30905850  0.14139250  0.44711600  1
  Li  Li3  1  0.19094150  0.64139250  0.05288400  1
  Li  Li4  1  0.80905850  0.35860750  0.94711600  1
  Li  Li5  1  0.69094150  0.85860750  0.55288400  1
  Li  Li6  1  0.80905850  0.64139250  0.44711600  1
  Li  Li7  1  0.69094150  0.14139250  0.05288400  1
  Mn  Mn8  1  0.00000000  0.50000000  0.50000000  1
  Mn  Mn9  1  0.00000000  0.50000000  0.00000000  1
  Mn  Mn10  1  0.50000000  0.00000000  0.50000000  1
  Mn  Mn11  1  0.50000000  0.00000000  0.00000000  1
  P  P12  1  0.39627700  0.36920800  0.18536000  1
  P  P13  1  0.10372300  0.86920800  0.31464000  1
  P  P14  1  0.10372300  0.13079200  0.81464000  1
  P  P15  1  0.39627700  0.63079200  0.68536000  1
  P  P16  1  0.89627700  0.86920800  0.18536000  1
  P  P17  1  0.60372300  0.36920800  0.31464000  1
  P  P18  1  0.60372300  0.63079200  0.81464000  1
  P  P19  1  0.89627700  0.13079200  0.68536000  1
  O  O20  1  0.10769400  0.73739800  0.16344400  1
  O  O21  1  0.10353000  0.34153300  0.93828200  1
  O  O22  1  0.10353000  0.65846700  0.43828200  1
  O  O23  1  0.39647000  0.15846700  0.06171800  1
  O  O24  1  0.39647000  0.84153300  0.56171800  1
  O  O25  1  0.17609400  0.91351700  0.88662300  1
  O  O26  1  0.10769400  0.26260200  0.66344400  1
  O  O27  1  0.00000000  0.97917100  0.75000000  1
  O  O28  1  0.39230600  0.76260200  0.83655600  1
  O  O29  1  0.32390600  0.41351700  0.61337700  1
  O  O30  1  0.00000000  0.02082900  0.25000000  1
  O  O31  1  0.39230600  0.23739800  0.33655600  1
  O  O32  1  0.32390600  0.58648300  0.11337700  1
  O  O33  1  0.17609400  0.08648300  0.38662300  1
  O  O34  1  0.60769400  0.23739800  0.16344400  1
  O  O35  1  0.60353000  0.84153300  0.93828200  1
  O  O36  1  0.60353000  0.15846700  0.43828200  1
  O  O37  1  0.89647000  0.65846700  0.06171800  1
  O  O38  1  0.89647000  0.34153300  0.56171800  1
  O  O39  1  0.67609400  0.41351700  0.88662300  1
  O  O40  1  0.60769400  0.76260200  0.66344400  1
  O  O41  1  0.50000000  0.47917100  0.75000000  1
  O  O42  1  0.89230600  0.26260200  0.83655600  1
  O  O43  1  0.82390600  0.91351700  0.61337700  1
  O  O44  1  0.50000000  0.52082900  0.25000000  1
  O  O45  1  0.89230600  0.73739800  0.33655600  1
  O  O46  1  0.82390600  0.08648300  0.11337700  1
  O  O47  1  0.67609400  0.58648300  0.38662300  1
