# generated using pymatgen
data_SrCrSn(PO4)3
_symmetry_space_group_name_H-M   'P 1'
_cell_length_a   8.58916386
_cell_length_b   8.58916386
_cell_length_c   23.08695454
_cell_angle_alpha   90.00000000
_cell_angle_beta   90.00000000
_cell_angle_gamma   120.00000000
_symmetry_Int_Tables_number   1
_chemical_formula_structural   SrCrSn(PO4)3
_chemical_formula_sum   'Sr6 Cr6 Sn6 P18 O72'
_cell_volume   1475.02389528
_cell_formula_units_Z   6
loop_
 _symmetry_equiv_pos_site_id
 _symmetry_equiv_pos_as_xyz
  1  'x, y, z'
loop_
 _atom_site_type_symbol
 _atom_site_label
 _atom_site_symmetry_multiplicity
 _atom_site_fract_x
 _atom_site_fract_y
 _atom_site_fract_z
 _atom_site_occupancy
  Sr  Sr0  1  0.00000000  0.00000000  0.00000000  1
  Sr  Sr1  1  0.33333333  0.66666667  0.16666667  1
  Sr  Sr2  1  0.66666667  0.33333333  0.33333333  1
  Sr  Sr3  1  1.00000000  0.00000000  0.50000000  1
  Sr  Sr4  1  0.33333333  0.66666667  0.66666667  1
  Sr  Sr5  1  0.66666667  0.33333333  0.83333333  1
  Cr  Cr6  1  0.66666667  0.33333333  0.18326833  1
  Cr  Cr7  1  0.00000000  0.00000000  0.15006500  1
  Cr  Cr8  1  0.33333333  0.66666667  0.51660167  1
  Cr  Cr9  1  0.66666667  0.33333333  0.48339833  1
  Cr  Cr10  1  0.00000000  0.00000000  0.84993500  1
  Cr  Cr11  1  0.33333333  0.66666667  0.81673167  1
  Sn  Sn12  1  0.33333333  0.66666667  0.01741867  1
  Sn  Sn13  1  0.33333333  0.66666667  0.31591467  1
  Sn  Sn14  1  0.00000000  0.00000000  0.35075200  1
  Sn  Sn15  1  0.00000000  0.00000000  0.64924800  1
  Sn  Sn16  1  0.66666667  0.33333333  0.68408533  1
  Sn  Sn17  1  0.66666667  0.33333333  0.98258133  1
  P  P18  1  0.29123800  0.00344200  0.24833500  1
  P  P19  1  0.95446267  0.62457133  0.08499833  1
  P  P20  1  0.67010867  0.04553733  0.08499833  1
  P  P21  1  0.71220400  0.70876200  0.24833500  1
  P  P22  1  0.37542867  0.32989133  0.08499833  1
  P  P23  1  0.99655800  0.28779600  0.24833500  1
  P  P24  1  0.95790467  0.33677533  0.58166833  1
  P  P25  1  0.62112933  0.95790467  0.41833167  1
  P  P26  1  0.33677533  0.37887067  0.41833167  1
  P  P27  1  0.37887067  0.04209533  0.58166833  1
  P  P28  1  0.04209533  0.66322467  0.41833167  1
  P  P29  1  0.66322467  0.62112933  0.58166833  1
  P  P30  1  0.62457133  0.67010867  0.91500167  1
  P  P31  1  0.28779600  0.29123800  0.75166500  1
  P  P32  1  0.00344200  0.71220400  0.75166500  1
  P  P33  1  0.04553733  0.37542867  0.91500167  1
  P  P34  1  0.70876200  0.99655800  0.75166500  1
  P  P35  1  0.32989133  0.95446267  0.91500167  1
  O  O36  1  0.69313500  0.14261600  0.02603200  1
  O  O37  1  0.80928267  0.78281433  0.30730133  1
  O  O38  1  0.16134767  0.94695533  0.19736533  1
  O  O39  1  0.46825467  0.18263433  0.24074133  1
  O  O40  1  0.05304467  0.21439233  0.19736533  1
  O  O41  1  0.33569700  0.84802700  0.25499900  1
  O  O42  1  0.97353167  0.19071733  0.30730133  1
  O  O43  1  0.33096967  0.48530633  0.07833433  1
  O  O44  1  0.15433667  0.66903033  0.07833433  1
  O  O45  1  0.51469367  0.84566333  0.07833433  1
  O  O46  1  0.84930100  0.04771300  0.09259200  1
  O  O47  1  0.15197300  0.48767000  0.25499900  1
  O  O48  1  0.95228700  0.80158800  0.09259200  1
  O  O49  1  0.19841200  0.15069900  0.09259200  1
  O  O50  1  0.51233000  0.66430300  0.25499900  1
  O  O51  1  0.44948100  0.30686500  0.02603200  1
  O  O52  1  0.61362200  0.11894100  0.13596800  1
  O  O53  1  0.71437967  0.53174533  0.24074133  1
  O  O54  1  0.88105900  0.49468100  0.13596800  1
  O  O55  1  0.81736567  0.28562033  0.24074133  1
  O  O56  1  0.50531900  0.38637800  0.13596800  1
  O  O57  1  0.78560767  0.83865233  0.19736533  1
  O  O58  1  0.85738400  0.55051900  0.02603200  1
  O  O59  1  0.21718567  0.02646833  0.30730133  1
  O  O60  1  0.35980167  0.47594933  0.35936533  1
  O  O61  1  0.47594933  0.11614767  0.64063467  1
  O  O62  1  0.82801433  0.28028867  0.53069867  1
  O  O63  1  0.13492133  0.51596767  0.57407467  1
  O  O64  1  0.71971133  0.54772567  0.53069867  1
  O  O65  1  0.00236367  0.18136033  0.58833233  1
  O  O66  1  0.64019833  0.52405067  0.64063467  1
  O  O67  1  0.99763633  0.81863967  0.41166767  1
  O  O68  1  0.82100333  0.00236367  0.41166767  1
  O  O69  1  0.18136033  0.17899667  0.41166767  1
  O  O70  1  0.51596767  0.38104633  0.42592533  1
  O  O71  1  0.81863967  0.82100333  0.58833233  1
  O  O72  1  0.61895367  0.13492133  0.42592533  1
  O  O73  1  0.86507867  0.48403233  0.42592533  1
  O  O74  1  0.17899667  0.99763633  0.58833233  1
  O  O75  1  0.11614767  0.64019833  0.35936533  1
  O  O76  1  0.28028867  0.45227433  0.46930133  1
  O  O77  1  0.38104633  0.86507867  0.57407467  1
  O  O78  1  0.54772567  0.82801433  0.46930133  1
  O  O79  1  0.48403233  0.61895367  0.57407467  1
  O  O80  1  0.17198567  0.71971133  0.46930133  1
  O  O81  1  0.45227433  0.17198567  0.53069867  1
  O  O82  1  0.52405067  0.88385233  0.35936533  1
  O  O83  1  0.88385233  0.35980167  0.64063467  1
  O  O84  1  0.02646833  0.80928267  0.69269867  1
  O  O85  1  0.14261600  0.44948100  0.97396800  1
  O  O86  1  0.49468100  0.61362200  0.86403200  1
  O  O87  1  0.80158800  0.84930100  0.90740800  1
  O  O88  1  0.38637800  0.88105900  0.86403200  1
  O  O89  1  0.66903033  0.51469367  0.92166567  1
  O  O90  1  0.30686500  0.85738400  0.97396800  1
  O  O91  1  0.66430300  0.15197300  0.74500100  1
  O  O92  1  0.48767000  0.33569700  0.74500100  1
  O  O93  1  0.84802700  0.51233000  0.74500100  1
  O  O94  1  0.18263433  0.71437967  0.75925867  1
  O  O95  1  0.48530633  0.15433667  0.92166567  1
  O  O96  1  0.28562033  0.46825467  0.75925867  1
  O  O97  1  0.53174533  0.81736567  0.75925867  1
  O  O98  1  0.84566333  0.33096967  0.92166567  1
  O  O99  1  0.78281433  0.97353167  0.69269867  1
  O  O100  1  0.94695533  0.78560767  0.80263467  1
  O  O101  1  0.04771300  0.19841200  0.90740800  1
  O  O102  1  0.21439233  0.16134767  0.80263467  1
  O  O103  1  0.15069900  0.95228700  0.90740800  1
  O  O104  1  0.83865233  0.05304467  0.80263467  1
  O  O105  1  0.11894100  0.50531900  0.86403200  1
  O  O106  1  0.19071733  0.21718567  0.69269867  1
  O  O107  1  0.55051900  0.69313500  0.97396800  1
