# generated using pymatgen
data_Li3Ni(PO4)2
_symmetry_space_group_name_H-M   'P 1'
_cell_length_a   8.27076800
_cell_length_b   5.42398400
_cell_length_c   6.24397606
_cell_angle_alpha   90.00000000
_cell_angle_beta   90.11261919
_cell_angle_gamma   90.00000000
_symmetry_Int_Tables_number   1
_chemical_formula_structural   Li3Ni(PO4)2
_chemical_formula_sum   'Li6 Ni2 P4 O16'
_cell_volume   280.10743006
_cell_formula_units_Z   2
loop_
 _symmetry_equiv_pos_site_id
 _symmetry_equiv_pos_as_xyz
  1  'x, y, z'
loop_
 _atom_site_type_symbol
 _atom_site_label
 _atom_site_symmetry_multiplicity
 _atom_site_fract_x
 _atom_site_fract_y
 _atom_site_fract_z
 _atom_site_occupancy
  Li  Li0  1  0.50000000  0.00000000  0.50000000  1
  Li  Li1  1  0.82677800  0.00000000  0.73326800  1
  Li  Li2  1  0.17322200  0.00000000  0.26673200  1
  Li  Li3  1  0.00000000  0.50000000  0.50000000  1
  Li  Li4  1  0.32677800  0.50000000  0.73326800  1
  Li  Li5  1  0.67322200  0.50000000  0.26673200  1
  Ni  Ni6  1  0.50000000  0.00000000  0.00000000  1
  Ni  Ni7  1  0.00000000  0.50000000  0.00000000  1
  P  P8  1  0.85574200  0.00000000  0.23615700  1
  P  P9  1  0.14425800  0.00000000  0.76384300  1
  P  P10  1  0.35574200  0.50000000  0.23615700  1
  P  P11  1  0.64425800  0.50000000  0.76384300  1
  O  O12  1  0.53074400  0.26894000  0.76197700  1
  O  O13  1  0.74742500  0.00000000  0.03332300  1
  O  O14  1  0.46925600  0.26894000  0.23802300  1
  O  O15  1  0.53074400  0.73106000  0.76197700  1
  O  O16  1  0.46925600  0.73106000  0.23802300  1
  O  O17  1  0.25257500  0.00000000  0.96667700  1
  O  O18  1  0.24960200  0.00000000  0.56130100  1
  O  O19  1  0.75039800  0.00000000  0.43869900  1
  O  O20  1  0.03074400  0.76894000  0.76197700  1
  O  O21  1  0.24742500  0.50000000  0.03332300  1
  O  O22  1  0.96925600  0.76894000  0.23802300  1
  O  O23  1  0.03074400  0.23106000  0.76197700  1
  O  O24  1  0.96925600  0.23106000  0.23802300  1
  O  O25  1  0.75257500  0.50000000  0.96667700  1
  O  O26  1  0.74960200  0.50000000  0.56130100  1
  O  O27  1  0.25039800  0.50000000  0.43869900  1
