# generated using pymatgen
data_NaLiV2O6
_symmetry_space_group_name_H-M   'P 1'
_cell_length_a   10.40047200
_cell_length_b   9.23841600
_cell_length_c   5.91184589
_cell_angle_alpha   90.00000000
_cell_angle_beta   109.84090522
_cell_angle_gamma   90.00000000
_symmetry_Int_Tables_number   1
_chemical_formula_structural   NaLiV2O6
_chemical_formula_sum   'Na4 Li4 V8 O24'
_cell_volume   534.31394376
_cell_formula_units_Z   4
loop_
 _symmetry_equiv_pos_site_id
 _symmetry_equiv_pos_as_xyz
  1  'x, y, z'
loop_
 _atom_site_type_symbol
 _atom_site_label
 _atom_site_symmetry_multiplicity
 _atom_site_fract_x
 _atom_site_fract_y
 _atom_site_fract_z
 _atom_site_occupancy
  Na  Na0  1  0.00000000  0.71353200  0.25000000  1
  Na  Na1  1  0.00000000  0.28646800  0.75000000  1
  Na  Na2  1  0.50000000  0.21353200  0.25000000  1
  Na  Na3  1  0.50000000  0.78646800  0.75000000  1
  Li  Li4  1  0.00000000  0.08795900  0.25000000  1
  Li  Li5  1  0.00000000  0.91204100  0.75000000  1
  Li  Li6  1  0.50000000  0.58795900  0.25000000  1
  Li  Li7  1  0.50000000  0.41204100  0.75000000  1
  V  V8  1  0.78805150  0.59199550  0.74433900  1
  V  V9  1  0.21194850  0.59199550  0.75566100  1
  V  V10  1  0.78805150  0.40800450  0.24433900  1
  V  V11  1  0.21194850  0.40800450  0.25566100  1
  V  V12  1  0.28805150  0.09199550  0.74433900  1
  V  V13  1  0.71194850  0.09199550  0.75566100  1
  V  V14  1  0.28805150  0.90800450  0.24433900  1
  V  V15  1  0.71194850  0.90800450  0.25566100  1
  O  O16  1  0.38417950  0.40553450  0.35580000  1
  O  O17  1  0.14504450  0.50090450  0.46517100  1
  O  O18  1  0.85226850  0.24034250  0.29689700  1
  O  O19  1  0.61582050  0.40553450  0.14420000  1
  O  O20  1  0.14773150  0.24034250  0.20310300  1
  O  O21  1  0.14504450  0.49909550  0.96517100  1
  O  O22  1  0.61582050  0.59446550  0.64420000  1
  O  O23  1  0.85495550  0.49909550  0.53482900  1
  O  O24  1  0.14773150  0.75965750  0.70310300  1
  O  O25  1  0.38417950  0.59446550  0.85580000  1
  O  O26  1  0.85226850  0.75965750  0.79689700  1
  O  O27  1  0.85495550  0.50090450  0.03482900  1
  O  O28  1  0.88417950  0.90553450  0.35580000  1
  O  O29  1  0.64504450  0.00090450  0.46517100  1
  O  O30  1  0.35226850  0.74034250  0.29689700  1
  O  O31  1  0.11582050  0.90553450  0.14420000  1
  O  O32  1  0.64773150  0.74034250  0.20310300  1
  O  O33  1  0.64504450  0.99909550  0.96517100  1
  O  O34  1  0.11582050  0.09446550  0.64420000  1
  O  O35  1  0.35495550  0.99909550  0.53482900  1
  O  O36  1  0.64773150  0.25965750  0.70310300  1
  O  O37  1  0.88417950  0.09446550  0.85580000  1
  O  O38  1  0.35226850  0.25965750  0.79689700  1
  O  O39  1  0.35495550  0.00090450  0.03482900  1
