# generated using pymatgen
data_Li3Mo(PO3)8
_symmetry_space_group_name_H-M   'P 1'
_cell_length_a   12.02688000
_cell_length_b   8.33130800
_cell_length_c   10.11335039
_cell_angle_alpha   90.00000000
_cell_angle_beta   119.30485160
_cell_angle_gamma   90.00000000
_symmetry_Int_Tables_number   1
_chemical_formula_structural   Li3Mo(PO3)8
_chemical_formula_sum   'Li6 Mo2 P16 O48'
_cell_volume   883.67296347
_cell_formula_units_Z   2
loop_
 _symmetry_equiv_pos_site_id
 _symmetry_equiv_pos_as_xyz
  1  'x, y, z'
loop_
 _atom_site_type_symbol
 _atom_site_label
 _atom_site_symmetry_multiplicity
 _atom_site_fract_x
 _atom_site_fract_y
 _atom_site_fract_z
 _atom_site_occupancy
  Li  Li0  1  0.00000000  0.54742500  0.50000000  1
  Li  Li1  1  0.77999200  0.73288300  0.28741900  1
  Li  Li2  1  0.22000800  0.73288300  0.71258100  1
  Li  Li3  1  0.50000000  0.04742500  0.50000000  1
  Li  Li4  1  0.27999200  0.23288300  0.28741900  1
  Li  Li5  1  0.72000800  0.23288300  0.71258100  1
  Mo  Mo6  1  0.00000000  0.44762100  0.00000000  1
  Mo  Mo7  1  0.50000000  0.94762100  0.00000000  1
  P  P8  1  0.00372000  0.76488700  0.22685900  1
  P  P9  1  0.19988600  0.01252500  0.95611200  1
  P  P10  1  0.30011400  0.51252500  0.04388800  1
  P  P11  1  0.48700300  0.74166200  0.27463500  1
  P  P12  1  0.19923750  0.98842050  0.44387300  1
  P  P13  1  0.49628000  0.26488700  0.77314100  1
  P  P14  1  0.51299700  0.74166200  0.72536500  1
  P  P15  1  0.30076250  0.48842050  0.55612700  1
  P  P16  1  0.50372000  0.26488700  0.22685900  1
  P  P17  1  0.69988600  0.51252500  0.95611200  1
  P  P18  1  0.80011400  0.01252500  0.04388800  1
  P  P19  1  0.98700300  0.24166200  0.27463500  1
  P  P20  1  0.69923750  0.48842050  0.44387300  1
  P  P21  1  0.99628000  0.76488700  0.77314100  1
  P  P22  1  0.01299700  0.24166200  0.72536500  1
  P  P23  1  0.80076250  0.98842050  0.55612700  1
  O  O24  1  0.95762950  0.38176750  0.33878300  1
  O  O25  1  0.21910050  0.91287150  0.58616400  1
  O  O26  1  0.13241350  0.86328150  0.29659200  1
  O  O27  1  0.19568550  0.56664450  0.56829800  1
  O  O28  1  0.58293450  0.62011250  0.39468800  1
  O  O29  1  0.31275000  0.93744600  0.94365100  1
  O  O30  1  0.77336200  0.08948500  0.90078700  1
  O  O31  1  0.86758650  0.86328150  0.70340800  1
  O  O32  1  0.30431450  0.06664450  0.43170200  1
  O  O33  1  0.95668750  0.73486550  0.33438400  1
  O  O34  1  0.09588200  0.87215700  0.91721100  1
  O  O35  1  0.18725000  0.43744600  0.05634900  1
  O  O36  1  0.54237050  0.88176750  0.66121700  1
  O  O37  1  0.47101400  0.11883300  0.85041700  1
  O  O38  1  0.90411800  0.87215700  0.08278900  1
  O  O39  1  0.46517400  0.78236400  0.84243200  1
  O  O40  1  0.03482600  0.28236400  0.15756800  1
  O  O41  1  0.72663800  0.58948500  0.09921300  1
  O  O42  1  0.41706550  0.62011250  0.60531200  1
  O  O43  1  0.13910000  0.13227000  0.81437500  1
  O  O44  1  0.02898600  0.61883300  0.14958300  1
  O  O45  1  0.28089950  0.41287150  0.41383600  1
  O  O46  1  0.04331250  0.73486550  0.66561600  1
  O  O47  1  0.36090000  0.63227000  0.18562500  1
  O  O48  1  0.45762950  0.88176750  0.33878300  1
  O  O49  1  0.71910050  0.41287150  0.58616400  1
  O  O50  1  0.63241350  0.36328150  0.29659200  1
  O  O51  1  0.69568550  0.06664450  0.56829800  1
  O  O52  1  0.08293450  0.12011250  0.39468800  1
  O  O53  1  0.81275000  0.43744600  0.94365100  1
  O  O54  1  0.27336200  0.58948500  0.90078700  1
  O  O55  1  0.36758650  0.36328150  0.70340800  1
  O  O56  1  0.80431450  0.56664450  0.43170200  1
  O  O57  1  0.45668750  0.23486550  0.33438400  1
  O  O58  1  0.59588200  0.37215700  0.91721100  1
  O  O59  1  0.68725000  0.93744600  0.05634900  1
  O  O60  1  0.04237050  0.38176750  0.66121700  1
  O  O61  1  0.97101400  0.61883300  0.85041700  1
  O  O62  1  0.40411800  0.37215700  0.08278900  1
  O  O63  1  0.96517400  0.28236400  0.84243200  1
  O  O64  1  0.53482600  0.78236400  0.15756800  1
  O  O65  1  0.22663800  0.08948500  0.09921300  1
  O  O66  1  0.91706550  0.12011250  0.60531200  1
  O  O67  1  0.63910000  0.63227000  0.81437500  1
  O  O68  1  0.52898600  0.11883300  0.14958300  1
  O  O69  1  0.78089950  0.91287150  0.41383600  1
  O  O70  1  0.54331250  0.23486550  0.66561600  1
  O  O71  1  0.86090000  0.13227000  0.18562500  1
