# generated using pymatgen
data_Sc6Si11Ni18
_symmetry_space_group_name_H-M   'P 1'
_cell_length_a   8.02506800
_cell_length_b   12.22746400
_cell_length_c   17.92089000
_cell_angle_alpha   90.00000000
_cell_angle_beta   90.00000000
_cell_angle_gamma   90.00000000
_symmetry_Int_Tables_number   1
_chemical_formula_structural   Sc6Si11Ni18
_chemical_formula_sum   'Sc24 Si44 Ni72'
_cell_volume   1758.50937516
_cell_formula_units_Z   4
loop_
 _symmetry_equiv_pos_site_id
 _symmetry_equiv_pos_as_xyz
  1  'x, y, z'
loop_
 _atom_site_type_symbol
 _atom_site_label
 _atom_site_symmetry_multiplicity
 _atom_site_fract_x
 _atom_site_fract_y
 _atom_site_fract_z
 _atom_site_occupancy
  Sc  Sc0  1  0.00000000  0.50000000  0.31017600  1
  Sc  Sc1  1  0.00000000  0.50000000  0.68982400  1
  Sc  Sc2  1  0.50000000  0.68359100  0.78495100  1
  Sc  Sc3  1  0.00000000  0.50000000  0.87025500  1
  Sc  Sc4  1  0.50000000  0.31640900  0.21504900  1
  Sc  Sc5  1  0.00000000  0.50000000  0.12974500  1
  Sc  Sc6  1  0.79597650  0.18245350  0.00000000  1
  Sc  Sc7  1  0.50000000  0.68359100  0.21504900  1
  Sc  Sc8  1  0.20402350  0.81754650  0.00000000  1
  Sc  Sc9  1  0.50000000  0.31640900  0.78495100  1
  Sc  Sc10  1  0.20402350  0.18245350  0.00000000  1
  Sc  Sc11  1  0.79597650  0.81754650  0.00000000  1
  Sc  Sc12  1  0.50000000  0.00000000  0.81017600  1
  Sc  Sc13  1  0.50000000  0.00000000  0.18982400  1
  Sc  Sc14  1  0.00000000  0.18359100  0.28495100  1
  Sc  Sc15  1  0.50000000  0.00000000  0.37025500  1
  Sc  Sc16  1  0.00000000  0.81640900  0.71504900  1
  Sc  Sc17  1  0.50000000  0.00000000  0.62974500  1
  Sc  Sc18  1  0.29597650  0.68245350  0.50000000  1
  Sc  Sc19  1  0.00000000  0.18359100  0.71504900  1
  Sc  Sc20  1  0.70402350  0.31754650  0.50000000  1
  Sc  Sc21  1  0.00000000  0.81640900  0.28495100  1
  Sc  Sc22  1  0.70402350  0.68245350  0.50000000  1
  Sc  Sc23  1  0.29597650  0.31754650  0.50000000  1
  Si  Si24  1  0.67798000  0.50000000  0.83165800  1
  Si  Si25  1  0.76735200  0.50000000  0.00000000  1
  Si  Si26  1  0.25778250  0.83195450  0.84309150  1
  Si  Si27  1  0.50000000  0.67449200  0.00000000  1
  Si  Si28  1  0.00000000  0.28322700  0.88342400  1
  Si  Si29  1  0.32202000  0.50000000  0.83165800  1
  Si  Si30  1  0.25778250  0.16804550  0.84309150  1
  Si  Si31  1  0.00000000  0.71677300  0.88342400  1
  Si  Si32  1  0.25778250  0.16804550  0.15690850  1
  Si  Si33  1  0.00000000  0.28322700  0.11657600  1
  Si  Si34  1  0.67798000  0.50000000  0.16834200  1
  Si  Si35  1  0.23264800  0.50000000  0.00000000  1
  Si  Si36  1  0.74221750  0.83195450  0.84309150  1
  Si  Si37  1  0.00000000  0.00000000  0.00000000  1
  Si  Si38  1  0.74221750  0.16804550  0.15690850  1
  Si  Si39  1  0.25778250  0.83195450  0.15690850  1
  Si  Si40  1  0.32202000  0.50000000  0.16834200  1
  Si  Si41  1  0.00000000  0.71677300  0.11657600  1
  Si  Si42  1  0.50000000  0.00000000  0.00000000  1
  Si  Si43  1  0.74221750  0.83195450  0.15690850  1
  Si  Si44  1  0.74221750  0.16804550  0.84309150  1
  Si  Si45  1  0.50000000  0.32550800  0.00000000  1
  Si  Si46  1  0.17798000  0.00000000  0.33165800  1
  Si  Si47  1  0.26735200  0.00000000  0.50000000  1
  Si  Si48  1  0.75778250  0.33195450  0.34309150  1
  Si  Si49  1  0.00000000  0.17449200  0.50000000  1
  Si  Si50  1  0.50000000  0.78322700  0.38342400  1
  Si  Si51  1  0.82202000  0.00000000  0.33165800  1
  Si  Si52  1  0.75778250  0.66804550  0.34309150  1
  Si  Si53  1  0.50000000  0.21677300  0.38342400  1
  Si  Si54  1  0.75778250  0.66804550  0.65690850  1
  Si  Si55  1  0.50000000  0.78322700  0.61657600  1
  Si  Si56  1  0.17798000  0.00000000  0.66834200  1
  Si  Si57  1  0.73264800  0.00000000  0.50000000  1
  Si  Si58  1  0.24221750  0.33195450  0.34309150  1
  Si  Si59  1  0.50000000  0.50000000  0.50000000  1
  Si  Si60  1  0.24221750  0.66804550  0.65690850  1
  Si  Si61  1  0.75778250  0.33195450  0.65690850  1
  Si  Si62  1  0.82202000  0.00000000  0.66834200  1
  Si  Si63  1  0.50000000  0.21677300  0.61657600  1
  Si  Si64  1  0.00000000  0.50000000  0.50000000  1
  Si  Si65  1  0.24221750  0.33195450  0.65690850  1
  Si  Si66  1  0.24221750  0.66804550  0.34309150  1
  Si  Si67  1  0.00000000  0.82550800  0.50000000  1
  Ni  Ni68  1  0.72263400  0.35232400  0.91568800  1
  Ni  Ni69  1  0.72263400  0.35232400  0.08431200  1
  Ni  Ni70  1  0.50000000  0.60035900  0.38685100  1
  Ni  Ni71  1  0.50000000  0.60035900  0.61314900  1
  Ni  Ni72  1  0.72263400  0.64767600  0.08431200  1
  Ni  Ni73  1  0.27736600  0.35232400  0.08431200  1
  Ni  Ni74  1  0.66704100  0.50000000  0.70980200  1
  Ni  Ni75  1  0.72263400  0.64767600  0.91568800  1
  Ni  Ni76  1  0.33295900  0.50000000  0.70980200  1
  Ni  Ni77  1  0.00000000  0.61821600  0.00000000  1
  Ni  Ni78  1  0.50000000  0.39964100  0.61314900  1
  Ni  Ni79  1  0.50000000  0.17246950  0.92060250  1
  Ni  Ni80  1  0.23046600  0.50000000  0.57561000  1
  Ni  Ni81  1  0.50000000  0.50000000  0.06884900  1
  Ni  Ni82  1  0.83052150  0.34433850  0.78220150  1
  Ni  Ni83  1  0.27736600  0.35232400  0.91568800  1
  Ni  Ni84  1  0.00000000  0.38178400  0.00000000  1
  Ni  Ni85  1  0.50000000  0.82753050  0.07939750  1
  Ni  Ni86  1  0.33295900  0.50000000  0.29019800  1
  Ni  Ni87  1  0.50000000  0.39964100  0.38685100  1
  Ni  Ni88  1  0.83052150  0.65566150  0.78220150  1
  Ni  Ni89  1  0.50000000  0.17246950  0.07939750  1
  Ni  Ni90  1  0.16947850  0.65566150  0.78220150  1
  Ni  Ni91  1  0.66704100  0.50000000  0.29019800  1
  Ni  Ni92  1  0.50000000  0.50000000  0.93115100  1
  Ni  Ni93  1  0.83052150  0.65566150  0.21779850  1
  Ni  Ni94  1  0.76953400  0.50000000  0.42439000  1
  Ni  Ni95  1  0.27736600  0.64767600  0.91568800  1
  Ni  Ni96  1  0.83052150  0.34433850  0.21779850  1
  Ni  Ni97  1  0.16947850  0.34433850  0.21779850  1
  Ni  Ni98  1  0.27736600  0.64767600  0.08431200  1
  Ni  Ni99  1  0.16947850  0.34433850  0.78220150  1
  Ni  Ni100  1  0.76953400  0.50000000  0.57561000  1
  Ni  Ni101  1  0.16947850  0.65566150  0.21779850  1
  Ni  Ni102  1  0.50000000  0.82753050  0.92060250  1
  Ni  Ni103  1  0.23046600  0.50000000  0.42439000  1
  Ni  Ni104  1  0.22263400  0.85232400  0.41568800  1
  Ni  Ni105  1  0.22263400  0.85232400  0.58431200  1
  Ni  Ni106  1  0.00000000  0.10035900  0.88685100  1
  Ni  Ni107  1  0.00000000  0.10035900  0.11314900  1
  Ni  Ni108  1  0.22263400  0.14767600  0.58431200  1
  Ni  Ni109  1  0.77736600  0.85232400  0.58431200  1
  Ni  Ni110  1  0.16704100  0.00000000  0.20980200  1
  Ni  Ni111  1  0.22263400  0.14767600  0.41568800  1
  Ni  Ni112  1  0.83295900  0.00000000  0.20980200  1
  Ni  Ni113  1  0.50000000  0.11821600  0.50000000  1
  Ni  Ni114  1  0.00000000  0.89964100  0.11314900  1
  Ni  Ni115  1  0.00000000  0.67246950  0.42060250  1
  Ni  Ni116  1  0.73046600  0.00000000  0.07561000  1
  Ni  Ni117  1  0.00000000  0.00000000  0.56884900  1
  Ni  Ni118  1  0.33052150  0.84433850  0.28220150  1
  Ni  Ni119  1  0.77736600  0.85232400  0.41568800  1
  Ni  Ni120  1  0.50000000  0.88178400  0.50000000  1
  Ni  Ni121  1  0.00000000  0.32753050  0.57939750  1
  Ni  Ni122  1  0.83295900  0.00000000  0.79019800  1
  Ni  Ni123  1  0.00000000  0.89964100  0.88685100  1
  Ni  Ni124  1  0.33052150  0.15566150  0.28220150  1
  Ni  Ni125  1  0.00000000  0.67246950  0.57939750  1
  Ni  Ni126  1  0.66947850  0.15566150  0.28220150  1
  Ni  Ni127  1  0.16704100  0.00000000  0.79019800  1
  Ni  Ni128  1  0.00000000  0.00000000  0.43115100  1
  Ni  Ni129  1  0.33052150  0.15566150  0.71779850  1
  Ni  Ni130  1  0.26953400  0.00000000  0.92439000  1
  Ni  Ni131  1  0.77736600  0.14767600  0.41568800  1
  Ni  Ni132  1  0.33052150  0.84433850  0.71779850  1
  Ni  Ni133  1  0.66947850  0.84433850  0.71779850  1
  Ni  Ni134  1  0.77736600  0.14767600  0.58431200  1
  Ni  Ni135  1  0.66947850  0.84433850  0.28220150  1
  Ni  Ni136  1  0.26953400  0.00000000  0.07561000  1
  Ni  Ni137  1  0.66947850  0.15566150  0.71779850  1
  Ni  Ni138  1  0.00000000  0.32753050  0.42060250  1
  Ni  Ni139  1  0.73046600  0.00000000  0.92439000  1
