# generated using pymatgen
data_Sr2ErGaCu2O7
_symmetry_space_group_name_H-M   'P 1'
_cell_length_a   5.40059000
_cell_length_b   5.50378600
_cell_length_c   23.16420400
_cell_angle_alpha   90.00000000
_cell_angle_beta   90.00000000
_cell_angle_gamma   90.00000000
_symmetry_Int_Tables_number   1
_chemical_formula_structural   Sr2ErGaCu2O7
_chemical_formula_sum   'Sr8 Er4 Ga4 Cu8 O28'
_cell_volume   688.52565664
_cell_formula_units_Z   4
loop_
 _symmetry_equiv_pos_site_id
 _symmetry_equiv_pos_as_xyz
  1  'x, y, z'
loop_
 _atom_site_type_symbol
 _atom_site_label
 _atom_site_symmetry_multiplicity
 _atom_site_fract_x
 _atom_site_fract_y
 _atom_site_fract_z
 _atom_site_occupancy
  Sr  Sr0  1  0.00104300  0.98399200  0.65099800  1
  Sr  Sr1  1  0.50104300  0.51600800  0.84900200  1
  Sr  Sr2  1  0.50104300  0.51600800  0.65099800  1
  Sr  Sr3  1  0.00104300  0.98399200  0.84900200  1
  Sr  Sr4  1  0.50104300  0.48399200  0.15099800  1
  Sr  Sr5  1  0.00104300  0.01600800  0.34900200  1
  Sr  Sr6  1  0.00104300  0.01600800  0.15099800  1
  Sr  Sr7  1  0.50104300  0.48399200  0.34900200  1
  Er  Er8  1  0.49928400  0.50000000  0.00000000  1
  Er  Er9  1  0.99928400  0.00000000  0.00000000  1
  Er  Er10  1  0.99928400  0.00000000  0.50000000  1
  Er  Er11  1  0.49928400  0.50000000  0.50000000  1
  Ga  Ga12  1  0.53775800  0.06844500  0.75000000  1
  Ga  Ga13  1  0.03775800  0.43155500  0.75000000  1
  Ga  Ga14  1  0.03775800  0.56844500  0.25000000  1
  Ga  Ga15  1  0.53775800  0.93155500  0.25000000  1
  Cu  Cu16  1  0.49937400  0.00083400  0.57066100  1
  Cu  Cu17  1  0.99937400  0.49916600  0.92933900  1
  Cu  Cu18  1  0.99937400  0.49916600  0.57066100  1
  Cu  Cu19  1  0.49937400  0.00083400  0.92933900  1
  Cu  Cu20  1  0.99937400  0.50083400  0.07066100  1
  Cu  Cu21  1  0.49937400  0.99916600  0.42933900  1
  Cu  Cu22  1  0.49937400  0.99916600  0.07066100  1
  Cu  Cu23  1  0.99937400  0.50083400  0.42933900  1
  O  O24  1  0.39058700  0.38489800  0.75000000  1
  O  O25  1  0.89058700  0.11510200  0.75000000  1
  O  O26  1  0.24912050  0.25016850  0.56314550  1
  O  O27  1  0.74912050  0.24983150  0.93685450  1
  O  O28  1  0.74912050  0.24983150  0.56314550  1
  O  O29  1  0.24912050  0.25016850  0.93685450  1
  O  O30  1  0.75008950  0.75112550  0.56009550  1
  O  O31  1  0.25008950  0.74887450  0.93990450  1
  O  O32  1  0.25008950  0.74887450  0.56009550  1
  O  O33  1  0.75008950  0.75112550  0.93990450  1
  O  O34  1  0.97200000  0.54452300  0.67634500  1
  O  O35  1  0.47200000  0.95547700  0.82365500  1
  O  O36  1  0.47200000  0.95547700  0.67634500  1
  O  O37  1  0.97200000  0.54452300  0.82365500  1
  O  O38  1  0.89058700  0.88489800  0.25000000  1
  O  O39  1  0.39058700  0.61510200  0.25000000  1
  O  O40  1  0.74912050  0.75016850  0.06314550  1
  O  O41  1  0.24912050  0.74983150  0.43685450  1
  O  O42  1  0.24912050  0.74983150  0.06314550  1
  O  O43  1  0.74912050  0.75016850  0.43685450  1
  O  O44  1  0.25008950  0.25112550  0.06009550  1
  O  O45  1  0.75008950  0.24887450  0.43990450  1
  O  O46  1  0.75008950  0.24887450  0.06009550  1
  O  O47  1  0.25008950  0.25112550  0.43990450  1
  O  O48  1  0.47200000  0.04452300  0.17634500  1
  O  O49  1  0.97200000  0.45547700  0.32365500  1
  O  O50  1  0.97200000  0.45547700  0.17634500  1
  O  O51  1  0.47200000  0.04452300  0.32365500  1
