# generated using pymatgen
data_Ti3O5
_symmetry_space_group_name_H-M   'P 1'
_cell_length_a   10.19932800
_cell_length_b   5.06690800
_cell_length_c   7.25376131
_cell_angle_alpha   90.00000000
_cell_angle_beta   112.14688741
_cell_angle_gamma   90.00000000
_symmetry_Int_Tables_number   1
_chemical_formula_structural   Ti3O5
_chemical_formula_sum   'Ti12 O20'
_cell_volume   347.20997970
_cell_formula_units_Z   4
loop_
 _symmetry_equiv_pos_site_id
 _symmetry_equiv_pos_as_xyz
  1  'x, y, z'
loop_
 _atom_site_type_symbol
 _atom_site_label
 _atom_site_symmetry_multiplicity
 _atom_site_fract_x
 _atom_site_fract_y
 _atom_site_fract_z
 _atom_site_occupancy
  Ti  Ti0  1  0.12787750  0.01241750  0.21825400  1
  Ti  Ti1  1  0.12787750  0.98758250  0.71825400  1
  Ti  Ti2  1  0.37212250  0.51241750  0.28174600  1
  Ti  Ti3  1  0.37212250  0.48758250  0.78174600  1
  Ti  Ti4  1  0.00000000  0.50000000  0.50000000  1
  Ti  Ti5  1  0.00000000  0.50000000  0.00000000  1
  Ti  Ti6  1  0.62787750  0.51241750  0.21825400  1
  Ti  Ti7  1  0.62787750  0.48758250  0.71825400  1
  Ti  Ti8  1  0.87212250  0.01241750  0.28174600  1
  Ti  Ti9  1  0.87212250  0.98758250  0.78174600  1
  Ti  Ti10  1  0.50000000  0.00000000  0.50000000  1
  Ti  Ti11  1  0.50000000  0.00000000  0.00000000  1
  O  O12  1  0.18976500  0.66221100  0.15425300  1
  O  O13  1  0.00000000  0.68769300  0.75000000  1
  O  O14  1  0.41863200  0.65769700  0.55856200  1
  O  O15  1  0.41863200  0.34230300  0.05856200  1
  O  O16  1  0.31023500  0.83778900  0.84574700  1
  O  O17  1  0.08136800  0.84230300  0.44143800  1
  O  O18  1  0.00000000  0.31230700  0.25000000  1
  O  O19  1  0.31023500  0.16221100  0.34574700  1
  O  O20  1  0.08136800  0.15769700  0.94143800  1
  O  O21  1  0.18976500  0.33778900  0.65425300  1
  O  O22  1  0.68976500  0.16221100  0.15425300  1
  O  O23  1  0.50000000  0.18769300  0.75000000  1
  O  O24  1  0.91863200  0.15769700  0.55856200  1
  O  O25  1  0.91863200  0.84230300  0.05856200  1
  O  O26  1  0.81023500  0.33778900  0.84574700  1
  O  O27  1  0.58136800  0.34230300  0.44143800  1
  O  O28  1  0.50000000  0.81230700  0.25000000  1
  O  O29  1  0.81023500  0.66221100  0.34574700  1
  O  O30  1  0.58136800  0.65769700  0.94143800  1
  O  O31  1  0.68976500  0.83778900  0.65425300  1
