# generated using pymatgen
data_Na2FeNiF7
_symmetry_space_group_name_H-M   'P 1'
_cell_length_a   7.30180000
_cell_length_b   7.56529000
_cell_length_c   10.43190200
_cell_angle_alpha   90.00000000
_cell_angle_beta   90.00000000
_cell_angle_gamma   90.00000000
_symmetry_Int_Tables_number   1
_chemical_formula_structural   Na2FeNiF7
_chemical_formula_sum   'Na8 Fe4 Ni4 F28'
_cell_volume   576.26071299
_cell_formula_units_Z   4
loop_
 _symmetry_equiv_pos_site_id
 _symmetry_equiv_pos_as_xyz
  1  'x, y, z'
loop_
 _atom_site_type_symbol
 _atom_site_label
 _atom_site_symmetry_multiplicity
 _atom_site_fract_x
 _atom_site_fract_y
 _atom_site_fract_z
 _atom_site_occupancy
  Na  Na0  1  0.25040200  0.01014700  0.50000000  1
  Na  Na1  1  0.50000000  0.75086050  0.74629750  1
  Na  Na2  1  0.74959800  0.01014700  0.50000000  1
  Na  Na3  1  0.50000000  0.75086050  0.25370250  1
  Na  Na4  1  0.75040200  0.51014700  0.00000000  1
  Na  Na5  1  0.00000000  0.25086050  0.24629750  1
  Na  Na6  1  0.24959800  0.51014700  0.00000000  1
  Na  Na7  1  0.00000000  0.25086050  0.75370250  1
  Fe  Fe8  1  0.00000000  0.75224600  0.74986500  1
  Fe  Fe9  1  0.00000000  0.75224600  0.25013500  1
  Fe  Fe10  1  0.50000000  0.25224600  0.24986500  1
  Fe  Fe11  1  0.50000000  0.25224600  0.75013500  1
  Ni  Ni12  1  0.24946300  0.50180900  0.50000000  1
  Ni  Ni13  1  0.75053700  0.50180900  0.50000000  1
  Ni  Ni14  1  0.74946300  0.00180900  0.00000000  1
  Ni  Ni15  1  0.25053700  0.00180900  0.00000000  1
  F  F16  1  0.30050800  0.31605400  0.63438500  1
  F  F17  1  0.50000000  0.02316150  0.65728250  1
  F  F18  1  0.00000000  0.39906300  0.50000000  1
  F  F19  1  0.19898350  0.68687450  0.63469250  1
  F  F20  1  0.00000000  0.98203450  0.34128050  1
  F  F21  1  0.30050800  0.31605400  0.36561500  1
  F  F22  1  0.80101650  0.68687450  0.63469250  1
  F  F23  1  0.69949200  0.31605400  0.36561500  1
  F  F24  1  0.69949200  0.31605400  0.63438500  1
  F  F25  1  0.50000000  0.02316150  0.34271750  1
  F  F26  1  0.00000000  0.98203450  0.65871950  1
  F  F27  1  0.50000000  0.60330700  0.50000000  1
  F  F28  1  0.80101650  0.68687450  0.36530750  1
  F  F29  1  0.19898350  0.68687450  0.36530750  1
  F  F30  1  0.80050800  0.81605400  0.13438500  1
  F  F31  1  0.00000000  0.52316150  0.15728250  1
  F  F32  1  0.50000000  0.89906300  0.00000000  1
  F  F33  1  0.69898350  0.18687450  0.13469250  1
  F  F34  1  0.50000000  0.48203450  0.84128050  1
  F  F35  1  0.80050800  0.81605400  0.86561500  1
  F  F36  1  0.30101650  0.18687450  0.13469250  1
  F  F37  1  0.19949200  0.81605400  0.86561500  1
  F  F38  1  0.19949200  0.81605400  0.13438500  1
  F  F39  1  0.00000000  0.52316150  0.84271750  1
  F  F40  1  0.50000000  0.48203450  0.15871950  1
  F  F41  1  0.00000000  0.10330700  0.00000000  1
  F  F42  1  0.30101650  0.18687450  0.86530750  1
  F  F43  1  0.69898350  0.18687450  0.86530750  1
