# generated using pymatgen
data_Ti3O5
_symmetry_space_group_name_H-M   'P 1'
_cell_length_a   9.87398000
_cell_length_b   3.79535400
_cell_length_c   10.02092035
_cell_angle_alpha   90.00000000
_cell_angle_beta   91.18006797
_cell_angle_gamma   90.00000000
_symmetry_Int_Tables_number   1
_chemical_formula_structural   Ti3O5
_chemical_formula_sum   'Ti12 O20'
_cell_volume   375.45684220
_cell_formula_units_Z   4
loop_
 _symmetry_equiv_pos_site_id
 _symmetry_equiv_pos_as_xyz
  1  'x, y, z'
loop_
 _atom_site_type_symbol
 _atom_site_label
 _atom_site_symmetry_multiplicity
 _atom_site_fract_x
 _atom_site_fract_y
 _atom_site_fract_z
 _atom_site_occupancy
  Ti  Ti0  1  0.80418900  0.00000000  0.24334900  1
  Ti  Ti1  1  0.62906600  0.50000000  0.04981800  1
  Ti  Ti2  1  0.69581100  0.50000000  0.75665100  1
  Ti  Ti3  1  0.87093400  0.00000000  0.95018200  1
  Ti  Ti4  1  0.86567600  0.00000000  0.56459700  1
  Ti  Ti5  1  0.63432400  0.50000000  0.43540300  1
  Ti  Ti6  1  0.30418900  0.50000000  0.24334900  1
  Ti  Ti7  1  0.12906600  0.00000000  0.04981800  1
  Ti  Ti8  1  0.19581100  0.00000000  0.75665100  1
  Ti  Ti9  1  0.37093400  0.50000000  0.95018200  1
  Ti  Ti10  1  0.36567600  0.50000000  0.56459700  1
  Ti  Ti11  1  0.13432400  0.00000000  0.43540300  1
  O  O12  1  0.55132100  0.50000000  0.61502500  1
  O  O13  1  0.82125200  0.50000000  0.93626200  1
  O  O14  1  0.95503000  0.00000000  0.13168400  1
  O  O15  1  0.54497000  0.50000000  0.86831600  1
  O  O16  1  0.67874800  0.00000000  0.06373800  1
  O  O17  1  0.73764800  0.50000000  0.24998200  1
  O  O18  1  0.68786700  0.00000000  0.42643200  1
  O  O19  1  0.76235200  0.00000000  0.75001800  1
  O  O20  1  0.94867900  0.00000000  0.38497500  1
  O  O21  1  0.81213300  0.50000000  0.57356800  1
  O  O22  1  0.05132100  0.00000000  0.61502500  1
  O  O23  1  0.32125200  0.00000000  0.93626200  1
  O  O24  1  0.45503000  0.50000000  0.13168400  1
  O  O25  1  0.04497000  0.00000000  0.86831600  1
  O  O26  1  0.17874800  0.50000000  0.06373800  1
  O  O27  1  0.23764800  0.00000000  0.24998200  1
  O  O28  1  0.18786700  0.50000000  0.42643200  1
  O  O29  1  0.26235200  0.50000000  0.75001800  1
  O  O30  1  0.44867900  0.50000000  0.38497500  1
  O  O31  1  0.31213300  0.00000000  0.57356800  1
