# generated using pymatgen
data_Li2Fe(PO4)2
_symmetry_space_group_name_H-M   'P 1'
_cell_length_a   8.15183800
_cell_length_b   5.36536200
_cell_length_c   6.41052979
_cell_angle_alpha   90.00000000
_cell_angle_beta   91.23899529
_cell_angle_gamma   90.00000000
_symmetry_Int_Tables_number   1
_chemical_formula_structural   Li2Fe(PO4)2
_chemical_formula_sum   'Li4 Fe2 P4 O16'
_cell_volume   280.31538967
_cell_formula_units_Z   2
loop_
 _symmetry_equiv_pos_site_id
 _symmetry_equiv_pos_as_xyz
  1  'x, y, z'
loop_
 _atom_site_type_symbol
 _atom_site_label
 _atom_site_symmetry_multiplicity
 _atom_site_fract_x
 _atom_site_fract_y
 _atom_site_fract_z
 _atom_site_occupancy
  Li  Li0  1  0.50282700  0.00000000  0.48800600  1
  Li  Li1  1  0.17570700  0.00000000  0.72934900  1
  Li  Li2  1  0.00282700  0.50000000  0.48800600  1
  Li  Li3  1  0.67570700  0.50000000  0.72934900  1
  Fe  Fe4  1  0.50291100  0.00000000  0.00865100  1
  Fe  Fe5  1  0.00291100  0.50000000  0.00865100  1
  P  P6  1  0.85122900  0.00000000  0.76516000  1
  P  P7  1  0.14591200  0.00000000  0.23291500  1
  P  P8  1  0.35122900  0.50000000  0.76516000  1
  P  P9  1  0.64591200  0.50000000  0.23291500  1
  O  O10  1  0.46687350  0.26670550  0.77047200  1
  O  O11  1  0.73970800  0.00000000  0.95608200  1
  O  O12  1  0.74580600  0.00000000  0.56438900  1
  O  O13  1  0.53685900  0.26294500  0.22828100  1
  O  O14  1  0.53685900  0.73705500  0.22828100  1
  O  O15  1  0.24701400  0.00000000  0.44009600  1
  O  O16  1  0.46687350  0.73329450  0.77047200  1
  O  O17  1  0.25888300  0.00000000  0.03907900  1
  O  O18  1  0.96687350  0.76670550  0.77047200  1
  O  O19  1  0.23970800  0.50000000  0.95608200  1
  O  O20  1  0.24580600  0.50000000  0.56438900  1
  O  O21  1  0.03685900  0.76294500  0.22828100  1
  O  O22  1  0.03685900  0.23705500  0.22828100  1
  O  O23  1  0.74701400  0.50000000  0.44009600  1
  O  O24  1  0.96687350  0.23329450  0.77047200  1
  O  O25  1  0.75888300  0.50000000  0.03907900  1
