# generated using pymatgen
data_TiBr3
_symmetry_space_group_name_H-M   'P 1'
_cell_length_a   6.48229431
_cell_length_b   6.48229431
_cell_length_c   19.97751732
_cell_angle_alpha   90.00000000
_cell_angle_beta   90.00000000
_cell_angle_gamma   120.00000000
_symmetry_Int_Tables_number   1
_chemical_formula_structural   TiBr3
_chemical_formula_sum   'Ti6 Br18'
_cell_volume   726.99201094
_cell_formula_units_Z   6
loop_
 _symmetry_equiv_pos_site_id
 _symmetry_equiv_pos_as_xyz
  1  'x, y, z'
loop_
 _atom_site_type_symbol
 _atom_site_label
 _atom_site_symmetry_multiplicity
 _atom_site_fract_x
 _atom_site_fract_y
 _atom_site_fract_z
 _atom_site_occupancy
  Ti  Ti0  1  0.33333333  0.66666667  0.33325267  1
  Ti  Ti1  1  0.33333333  0.66666667  0.00008067  1
  Ti  Ti2  1  0.00000000  0.00000000  0.66658600  1
  Ti  Ti3  1  0.00000000  0.00000000  0.33341400  1
  Ti  Ti4  1  0.66666667  0.33333333  0.99991933  1
  Ti  Ti5  1  0.66666667  0.33333333  0.66674733  1
  Br  Br6  1  0.01742367  0.33297133  0.25793433  1
  Br  Br7  1  0.99963800  0.64888100  0.07539900  1
  Br  Br8  1  0.64924300  0.00036200  0.07539900  1
  Br  Br9  1  0.31554767  0.98257633  0.25793433  1
  Br  Br10  1  0.35111900  0.35075700  0.07539900  1
  Br  Br11  1  0.66702867  0.68445233  0.25793433  1
  Br  Br12  1  0.68409033  0.66630467  0.59126767  1
  Br  Br13  1  0.66630467  0.98221433  0.40873233  1
  Br  Br14  1  0.31590967  0.33369533  0.40873233  1
  Br  Br15  1  0.98221433  0.31590967  0.59126767  1
  Br  Br16  1  0.01778567  0.68409033  0.40873233  1
  Br  Br17  1  0.33369533  0.01778567  0.59126767  1
  Br  Br18  1  0.35075700  0.99963800  0.92460100  1
  Br  Br19  1  0.33297133  0.31554767  0.74206567  1
  Br  Br20  1  0.98257633  0.66702867  0.74206567  1
  Br  Br21  1  0.64888100  0.64924300  0.92460100  1
  Br  Br22  1  0.68445233  0.01742367  0.74206567  1
  Br  Br23  1  0.00036200  0.35111900  0.92460100  1
