# generated using pymatgen
data_Sb(PO3)4
_symmetry_space_group_name_H-M   'P 1'
_cell_length_a   5.38504200
_cell_length_b   14.05847200
_cell_length_c   7.38693575
_cell_angle_alpha   90.00000000
_cell_angle_beta   99.19229145
_cell_angle_gamma   90.00000000
_symmetry_Int_Tables_number   1
_chemical_formula_structural   Sb(PO3)4
_chemical_formula_sum   'Sb2 P8 O24'
_cell_volume   552.04960527
_cell_formula_units_Z   2
loop_
 _symmetry_equiv_pos_site_id
 _symmetry_equiv_pos_as_xyz
  1  'x, y, z'
loop_
 _atom_site_type_symbol
 _atom_site_label
 _atom_site_symmetry_multiplicity
 _atom_site_fract_x
 _atom_site_fract_y
 _atom_site_fract_z
 _atom_site_occupancy
  Sb  Sb0  1  0.48599900  0.26240000  0.48658200  1
  Sb  Sb1  1  0.51400100  0.76240000  0.51341800  1
  P  P2  1  0.00038400  0.11885100  0.55976900  1
  P  P3  1  0.02703800  0.90217300  0.56410800  1
  P  P4  1  0.99961600  0.61885100  0.44023100  1
  P  P5  1  0.12085700  0.33119300  0.08340700  1
  P  P6  1  0.22636100  0.67943300  0.11182700  1
  P  P7  1  0.97296200  0.40217300  0.43589200  1
  P  P8  1  0.87914300  0.83119300  0.91659300  1
  P  P9  1  0.77363900  0.17943300  0.88817300  1
  O  O10  1  0.95272900  0.23612300  0.04562700  1
  O  O11  1  0.20330900  0.67270900  0.56638900  1
  O  O12  1  0.73347400  0.63305600  0.47856500  1
  O  O13  1  0.62106000  0.25587200  0.76516000  1
  O  O14  1  0.82497900  0.84071900  0.45316100  1
  O  O15  1  0.01217200  0.63926200  0.23234800  1
  O  O16  1  0.28753100  0.89101700  0.51308400  1
  O  O17  1  0.26652600  0.13305600  0.52143500  1
  O  O18  1  0.79669100  0.17270900  0.43361100  1
  O  O19  1  0.36751800  0.29717700  0.20263800  1
  O  O20  1  0.98782800  0.13926200  0.76765200  1
  O  O21  1  0.04727100  0.73612300  0.95437300  1
  O  O22  1  0.95824900  0.38619200  0.22348000  1
  O  O23  1  0.63248200  0.79717700  0.79736200  1
  O  O24  1  0.04175100  0.88619200  0.77652000  1
  O  O25  1  0.13728600  0.39003600  0.92305600  1
  O  O26  1  0.64215000  0.10207900  0.96436800  1
  O  O27  1  0.17502100  0.34071900  0.54683900  1
  O  O28  1  0.71246900  0.39101700  0.48691600  1
  O  O29  1  0.86271400  0.89003600  0.07694400  1
  O  O30  1  0.37894000  0.75587200  0.23484000  1
  O  O31  1  0.93383400  0.00871100  0.52992600  1
  O  O32  1  0.06616600  0.50871100  0.47007400  1
  O  O33  1  0.35785000  0.60207900  0.03563200  1
