# generated using pymatgen
data_Te2Au
_symmetry_space_group_name_H-M   'P 1'
_cell_length_a   8.96597500
_cell_length_b   4.43184200
_cell_length_c   10.29713999
_cell_angle_alpha   90.00000000
_cell_angle_beta   124.96805439
_cell_angle_gamma   90.00000000
_symmetry_Int_Tables_number   1
_chemical_formula_structural   Te2Au
_chemical_formula_sum   'Te8 Au4'
_cell_volume   335.29909345
_cell_formula_units_Z   4
loop_
 _symmetry_equiv_pos_site_id
 _symmetry_equiv_pos_as_xyz
  1  'x, y, z'
loop_
 _atom_site_type_symbol
 _atom_site_label
 _atom_site_symmetry_multiplicity
 _atom_site_fract_x
 _atom_site_fract_y
 _atom_site_fract_z
 _atom_site_occupancy
  Te  Te0  1  0.05801500  0.55658000  0.63617400  1
  Te  Te1  1  0.93565300  0.98591000  0.86230100  1
  Te  Te2  1  0.93565300  0.01409000  0.36230100  1
  Te  Te3  1  0.43602700  0.56452700  0.61240800  1
  Te  Te4  1  0.43602700  0.43547300  0.11240800  1
  Te  Te5  1  0.05801500  0.44342000  0.13617400  1
  Te  Te6  1  0.55739300  0.94908000  0.88325800  1
  Te  Te7  1  0.55739300  0.05092000  0.38325800  1
  Au  Au8  1  0.74746000  0.51097300  0.62462100  1
  Au  Au9  1  0.24715200  0.00413000  0.37363800  1
  Au  Au10  1  0.24715200  0.99587000  0.87363800  1
  Au  Au11  1  0.74746000  0.48902700  0.12462100  1
