# generated using pymatgen
data_K17Fe5O16
_symmetry_space_group_name_H-M   'P 1'
_cell_length_a   6.79246400
_cell_length_b   36.63895400
_cell_length_c   6.78661201
_cell_angle_alpha   90.00000000
_cell_angle_beta   119.37465959
_cell_angle_gamma   90.00000000
_symmetry_Int_Tables_number   1
_chemical_formula_structural   K17Fe5O16
_chemical_formula_sum   'K34 Fe10 O32'
_cell_volume   1471.82562025
_cell_formula_units_Z   2
loop_
 _symmetry_equiv_pos_site_id
 _symmetry_equiv_pos_as_xyz
  1  'x, y, z'
loop_
 _atom_site_type_symbol
 _atom_site_label
 _atom_site_symmetry_multiplicity
 _atom_site_fract_x
 _atom_site_fract_y
 _atom_site_fract_z
 _atom_site_occupancy
  K  K0  1  0.49905050  0.58452450  0.12040700  1
  K  K1  1  0.55274450  0.77422650  0.54219200  1
  K  K2  1  0.99667800  0.83092800  0.39257000  1
  K  K3  1  0.95306550  0.63936250  0.98209300  1
  K  K4  1  0.54138650  0.95405950  0.54213500  1
  K  K5  1  0.99760600  0.00000000  0.41720700  1
  K  K6  1  0.49667800  0.66907200  0.39257000  1
  K  K7  1  0.04138650  0.54594050  0.54213500  1
  K  K8  1  0.94130800  0.73297700  0.98917300  1
  K  K9  1  0.05274450  0.72577350  0.54219200  1
  K  K10  1  0.44130800  0.76702300  0.98917300  1
  K  K11  1  0.99905050  0.91547550  0.12040700  1
  K  K12  1  0.54371300  0.86250200  0.52627800  1
  K  K13  1  0.45306550  0.86063750  0.98209300  1
  K  K14  1  0.45623900  0.95343600  0.99958600  1
  K  K15  1  0.95623900  0.54656400  0.99958600  1
  K  K16  1  0.04371300  0.63749800  0.52627800  1
  K  K17  1  0.99905050  0.08452450  0.12040700  1
  K  K18  1  0.05274450  0.27422650  0.54219200  1
  K  K19  1  0.49667800  0.33092800  0.39257000  1
  K  K20  1  0.45306550  0.13936250  0.98209300  1
  K  K21  1  0.04138650  0.45405950  0.54213500  1
  K  K22  1  0.49760600  0.50000000  0.41720700  1
  K  K23  1  0.99667800  0.16907200  0.39257000  1
  K  K24  1  0.54138650  0.04594050  0.54213500  1
  K  K25  1  0.44130800  0.23297700  0.98917300  1
  K  K26  1  0.55274450  0.22577350  0.54219200  1
  K  K27  1  0.94130800  0.26702300  0.98917300  1
  K  K28  1  0.49905050  0.41547550  0.12040700  1
  K  K29  1  0.04371300  0.36250200  0.52627800  1
  K  K30  1  0.95306550  0.36063750  0.98209300  1
  K  K31  1  0.95623900  0.45343600  0.99958600  1
  K  K32  1  0.45623900  0.04656400  0.99958600  1
  K  K33  1  0.54371300  0.13749800  0.52627800  1
  Fe  Fe34  1  0.99890600  0.00000000  0.92542400  1
  Fe  Fe35  1  0.49862100  0.67939100  0.91467900  1
  Fe  Fe36  1  0.99862100  0.82060900  0.91467900  1
  Fe  Fe37  1  0.49909200  0.58963600  0.61111900  1
  Fe  Fe38  1  0.99909200  0.91036400  0.61111900  1
  Fe  Fe39  1  0.49890600  0.50000000  0.92542400  1
  Fe  Fe40  1  0.99862100  0.17939100  0.91467900  1
  Fe  Fe41  1  0.49862100  0.32060900  0.91467900  1
  Fe  Fe42  1  0.99909200  0.08963600  0.61111900  1
  Fe  Fe43  1  0.49909200  0.41036400  0.61111900  1
  O  O44  1  0.26653750  0.90707350  0.59130300  1
  O  O45  1  0.99700950  0.87136150  0.80413200  1
  O  O46  1  0.73276750  0.90710850  0.32650400  1
  O  O47  1  0.76653750  0.59292650  0.59130300  1
  O  O48  1  0.22980150  0.68662150  0.93351600  1
  O  O49  1  0.23276750  0.59289150  0.32650400  1
  O  O50  1  0.49700950  0.62863850  0.80413200  1
  O  O51  1  0.72979900  0.00000000  0.94297800  1
  O  O52  1  0.49692600  0.71325200  0.70038300  1
  O  O53  1  0.76835100  0.68580600  0.19674100  1
  O  O54  1  0.72980150  0.81337850  0.93351600  1
  O  O55  1  0.99692600  0.78674800  0.70038300  1
  O  O56  1  0.26835100  0.81419400  0.19674100  1
  O  O57  1  0.49905100  0.54300300  0.75532800  1
  O  O58  1  0.26566300  0.00000000  0.20978300  1
  O  O59  1  0.99905100  0.95699700  0.75532800  1
  O  O60  1  0.76653750  0.40707350  0.59130300  1
  O  O61  1  0.49700950  0.37136150  0.80413200  1
  O  O62  1  0.23276750  0.40710850  0.32650400  1
  O  O63  1  0.26653750  0.09292650  0.59130300  1
  O  O64  1  0.72980150  0.18662150  0.93351600  1
  O  O65  1  0.73276750  0.09289150  0.32650400  1
  O  O66  1  0.99700950  0.12863850  0.80413200  1
  O  O67  1  0.22979900  0.50000000  0.94297800  1
  O  O68  1  0.99692600  0.21325200  0.70038300  1
  O  O69  1  0.26835100  0.18580600  0.19674100  1
  O  O70  1  0.22980150  0.31337850  0.93351600  1
  O  O71  1  0.49692600  0.28674800  0.70038300  1
  O  O72  1  0.76835100  0.31419400  0.19674100  1
  O  O73  1  0.99905100  0.04300300  0.75532800  1
  O  O74  1  0.76566300  0.50000000  0.20978300  1
  O  O75  1  0.49905100  0.45699700  0.75532800  1
