# generated using pymatgen
data_LiCu2P5O16
_symmetry_space_group_name_H-M   'P 1'
_cell_length_a   4.96534100
_cell_length_b   6.71882400
_cell_length_c   18.54339709
_cell_angle_alpha   90.00000000
_cell_angle_beta   90.46248326
_cell_angle_gamma   90.00000000
_symmetry_Int_Tables_number   1
_chemical_formula_structural   LiCu2P5O16
_chemical_formula_sum   'Li2 Cu4 P10 O32'
_cell_volume   618.61079523
_cell_formula_units_Z   2
loop_
 _symmetry_equiv_pos_site_id
 _symmetry_equiv_pos_as_xyz
  1  'x, y, z'
loop_
 _atom_site_type_symbol
 _atom_site_label
 _atom_site_symmetry_multiplicity
 _atom_site_fract_x
 _atom_site_fract_y
 _atom_site_fract_z
 _atom_site_occupancy
  Li  Li0  1  0.26437800  0.37582800  0.47197900  1
  Li  Li1  1  0.26437800  0.62417200  0.97197900  1
  Cu  Cu2  1  0.25550600  0.82154000  0.40833100  1
  Cu  Cu3  1  0.25550600  0.17846000  0.90833100  1
  Cu  Cu4  1  0.74550000  0.82073600  0.09229500  1
  Cu  Cu5  1  0.74550000  0.17926400  0.59229500  1
  P  P6  1  0.26550300  0.53700400  0.13041400  1
  P  P7  1  0.76737300  0.12439500  0.42079000  1
  P  P8  1  0.26550300  0.46299600  0.63041400  1
  P  P9  1  0.99491900  0.24652700  0.74998800  1
  P  P10  1  0.22904100  0.12670300  0.07765100  1
  P  P11  1  0.22904100  0.87329700  0.57765100  1
  P  P12  1  0.73953700  0.46677100  0.86941600  1
  P  P13  1  0.76737300  0.87560500  0.92079000  1
  P  P14  1  0.99491900  0.75347300  0.24998800  1
  P  P15  1  0.73953700  0.53322900  0.36941600  1
  O  O16  1  0.56397600  0.43336300  0.61832900  1
  O  O17  1  0.18904600  0.40276600  0.71109500  1
  O  O18  1  0.93526000  0.93509100  0.56724500  1
  O  O19  1  0.08232300  0.36580800  0.57433700  1
  O  O20  1  0.34780800  0.77332200  0.51040300  1
  O  O21  1  0.60757400  0.04478200  0.88691500  1
  O  O22  1  0.15629300  0.86719500  0.30504100  1
  O  O23  1  0.84302400  0.87640200  0.19554600  1
  O  O24  1  0.44425900  0.55837100  0.38916900  1
  O  O25  1  0.60757400  0.95521800  0.38691500  1
  O  O26  1  0.40230000  0.03401100  0.61285400  1
  O  O27  1  0.06912500  0.91865800  0.93183500  1
  O  O28  1  0.78319800  0.60629400  0.28871000  1
  O  O29  1  0.63444500  0.77655900  0.98655300  1
  O  O30  1  0.78319800  0.39370600  0.78871000  1
  O  O31  1  0.77300400  0.70084600  0.85874200  1
  O  O32  1  0.94896000  0.61446400  0.42141800  1
  O  O33  1  0.93526000  0.06490900  0.06724500  1
  O  O34  1  0.06912500  0.08134200  0.43183500  1
  O  O35  1  0.94896000  0.38553600  0.92141800  1
  O  O36  1  0.40230000  0.96598900  0.11285400  1
  O  O37  1  0.34780800  0.22667800  0.01040300  1
  O  O38  1  0.77300400  0.29915400  0.35874200  1
  O  O39  1  0.08232300  0.63419200  0.07433700  1
  O  O40  1  0.56397600  0.56663700  0.11832900  1
  O  O41  1  0.84302400  0.12359800  0.69554600  1
  O  O42  1  0.63444500  0.22344100  0.48655300  1
  O  O43  1  0.21617600  0.69520600  0.63752700  1
  O  O44  1  0.21617600  0.30479400  0.13752700  1
  O  O45  1  0.18904600  0.59723400  0.21109500  1
  O  O46  1  0.44425900  0.44162900  0.88916900  1
  O  O47  1  0.15629300  0.13280500  0.80504100  1
