# generated using pymatgen
data_BaCeI4
_symmetry_space_group_name_H-M   'P 1'
_cell_length_a   10.48685200
_cell_length_b   15.26772200
_cell_length_c   7.51540575
_cell_angle_alpha   90.00000000
_cell_angle_beta   122.60480493
_cell_angle_gamma   90.00000000
_symmetry_Int_Tables_number   1
_chemical_formula_structural   BaCeI4
_chemical_formula_sum   'Ba4 Ce4 I16'
_cell_volume   1013.66369235
_cell_formula_units_Z   4
loop_
 _symmetry_equiv_pos_site_id
 _symmetry_equiv_pos_as_xyz
  1  'x, y, z'
loop_
 _atom_site_type_symbol
 _atom_site_label
 _atom_site_symmetry_multiplicity
 _atom_site_fract_x
 _atom_site_fract_y
 _atom_site_fract_z
 _atom_site_occupancy
  Ba  Ba0  1  0.00000000  0.36520800  0.25000000  1
  Ba  Ba1  1  0.50000000  0.13479200  0.75000000  1
  Ba  Ba2  1  0.50000000  0.86520800  0.25000000  1
  Ba  Ba3  1  0.00000000  0.63479200  0.75000000  1
  Ce  Ce4  1  0.00000000  0.00000400  0.25000000  1
  Ce  Ce5  1  0.50000000  0.49999600  0.75000000  1
  Ce  Ce6  1  0.50000000  0.50000400  0.25000000  1
  Ce  Ce7  1  0.00000000  0.99999600  0.75000000  1
  I  I8  1  0.29395100  0.06287700  0.21778600  1
  I  I9  1  0.20604900  0.43712300  0.78221400  1
  I  I10  1  0.79395100  0.43712300  0.71778600  1
  I  I11  1  0.61532350  0.32707450  0.08436100  1
  I  I12  1  0.11532350  0.17292550  0.58436100  1
  I  I13  1  0.38467650  0.32707450  0.41563900  1
  I  I14  1  0.88467650  0.17292550  0.91563900  1
  I  I15  1  0.70604900  0.06287700  0.28221400  1
  I  I16  1  0.79395100  0.56287700  0.21778600  1
  I  I17  1  0.70604900  0.93712300  0.78221400  1
  I  I18  1  0.29395100  0.93712300  0.71778600  1
  I  I19  1  0.11532350  0.82707450  0.08436100  1
  I  I20  1  0.61532350  0.67292550  0.58436100  1
  I  I21  1  0.88467650  0.82707450  0.41563900  1
  I  I22  1  0.38467650  0.67292550  0.91563900  1
  I  I23  1  0.20604900  0.56287700  0.28221400  1
