# generated using pymatgen
data_SrMnV2(AgO4)2
_symmetry_space_group_name_H-M   'P 1'
_cell_length_a   10.01479647
_cell_length_b   5.69078600
_cell_length_c   13.93252017
_cell_angle_alpha   90.00000000
_cell_angle_beta   90.80123617
_cell_angle_gamma   90.00000000
_symmetry_Int_Tables_number   1
_chemical_formula_structural   SrMnV2(AgO4)2
_chemical_formula_sum   'Sr4 Mn4 V8 Ag8 O32'
_cell_volume   793.96543586
_cell_formula_units_Z   4
loop_
 _symmetry_equiv_pos_site_id
 _symmetry_equiv_pos_as_xyz
  1  'x, y, z'
loop_
 _atom_site_type_symbol
 _atom_site_label
 _atom_site_symmetry_multiplicity
 _atom_site_fract_x
 _atom_site_fract_y
 _atom_site_fract_z
 _atom_site_occupancy
  Sr  Sr0  1  0.00000000  0.91716900  0.75000000  1
  Sr  Sr1  1  0.00000000  0.08283100  0.25000000  1
  Sr  Sr2  1  0.50000000  0.41716900  0.75000000  1
  Sr  Sr3  1  0.50000000  0.58283100  0.25000000  1
  Mn  Mn4  1  0.00000000  0.00000000  0.50000000  1
  Mn  Mn5  1  0.00000000  0.00000000  0.00000000  1
  Mn  Mn6  1  0.50000000  0.50000000  0.50000000  1
  Mn  Mn7  1  0.50000000  0.50000000  0.00000000  1
  V  V8  1  0.82649550  0.53895650  0.13008600  1
  V  V9  1  0.67350450  0.03895650  0.36991400  1
  V  V10  1  0.67350450  0.96104350  0.86991400  1
  V  V11  1  0.82649550  0.46104350  0.63008600  1
  V  V12  1  0.32649550  0.03895650  0.13008600  1
  V  V13  1  0.17350450  0.53895650  0.36991400  1
  V  V14  1  0.17350450  0.46104350  0.86991400  1
  V  V15  1  0.32649550  0.96104350  0.63008600  1
  Ag  Ag16  1  0.66087000  0.95092500  0.59592100  1
  Ag  Ag17  1  0.83913000  0.45092500  0.90407900  1
  Ag  Ag18  1  0.83913000  0.54907500  0.40407900  1
  Ag  Ag19  1  0.66087000  0.04907500  0.09592100  1
  Ag  Ag20  1  0.16087000  0.45092500  0.59592100  1
  Ag  Ag21  1  0.33913000  0.95092500  0.90407900  1
  Ag  Ag22  1  0.33913000  0.04907500  0.40407900  1
  Ag  Ag23  1  0.16087000  0.54907500  0.09592100  1
  O  O24  1  0.88831600  0.69145800  0.55836600  1
  O  O25  1  0.61168400  0.19145800  0.94163400  1
  O  O26  1  0.61168400  0.80854200  0.44163400  1
  O  O27  1  0.88831600  0.30854200  0.05836600  1
  O  O28  1  0.66349100  0.06116000  0.75317000  1
  O  O29  1  0.83650900  0.56116000  0.74683000  1
  O  O30  1  0.83650900  0.43884000  0.24683000  1
  O  O31  1  0.66349100  0.93884000  0.25317000  1
  O  O32  1  0.84174850  0.90770850  0.90079300  1
  O  O33  1  0.65825150  0.40770850  0.59920700  1
  O  O34  1  0.65825150  0.59229150  0.09920700  1
  O  O35  1  0.84174850  0.09229150  0.40079300  1
  O  O36  1  0.57464150  0.70608450  0.88112800  1
  O  O37  1  0.92535850  0.20608450  0.61887200  1
  O  O38  1  0.92535850  0.79391550  0.11887200  1
  O  O39  1  0.57464150  0.29391550  0.38112800  1
  O  O40  1  0.38831600  0.19145800  0.55836600  1
  O  O41  1  0.11168400  0.69145800  0.94163400  1
  O  O42  1  0.11168400  0.30854200  0.44163400  1
  O  O43  1  0.38831600  0.80854200  0.05836600  1
  O  O44  1  0.16349100  0.56116000  0.75317000  1
  O  O45  1  0.33650900  0.06116000  0.74683000  1
  O  O46  1  0.33650900  0.93884000  0.24683000  1
  O  O47  1  0.16349100  0.43884000  0.25317000  1
  O  O48  1  0.34174850  0.40770850  0.90079300  1
  O  O49  1  0.15825150  0.90770850  0.59920700  1
  O  O50  1  0.15825150  0.09229150  0.09920700  1
  O  O51  1  0.34174850  0.59229150  0.40079300  1
  O  O52  1  0.07464150  0.20608450  0.88112800  1
  O  O53  1  0.42535850  0.70608450  0.61887200  1
  O  O54  1  0.42535850  0.29391550  0.11887200  1
  O  O55  1  0.07464150  0.79391550  0.38112800  1
