# generated using pymatgen
data_Yb(ClO4)3
_symmetry_space_group_name_H-M   'P 1'
_cell_length_a   8.39883623
_cell_length_b   8.39883623
_cell_length_c   24.79523686
_cell_angle_alpha   90.00000000
_cell_angle_beta   90.00000000
_cell_angle_gamma   120.00000000
_symmetry_Int_Tables_number   1
_chemical_formula_structural   Yb(ClO4)3
_chemical_formula_sum   'Yb6 Cl18 O72'
_cell_volume   1514.73659961
_cell_formula_units_Z   6
loop_
 _symmetry_equiv_pos_site_id
 _symmetry_equiv_pos_as_xyz
  1  'x, y, z'
loop_
 _atom_site_type_symbol
 _atom_site_label
 _atom_site_symmetry_multiplicity
 _atom_site_fract_x
 _atom_site_fract_y
 _atom_site_fract_z
 _atom_site_occupancy
  Yb  Yb0  1  0.00000000  0.00000000  0.05975200  1
  Yb  Yb1  1  0.33333333  0.66666667  0.22641867  1
  Yb  Yb2  1  0.66666667  0.33333333  0.39308533  1
  Yb  Yb3  1  0.00000000  0.00000000  0.55975200  1
  Yb  Yb4  1  0.33333333  0.66666667  0.72641867  1
  Yb  Yb5  1  0.66666667  0.33333333  0.89308533  1
  Cl  Cl6  1  0.35901333  0.99300467  0.33312867  1
  Cl  Cl7  1  0.63399133  0.64098667  0.33312867  1
  Cl  Cl8  1  0.00699533  0.36600867  0.33312867  1
  Cl  Cl9  1  0.30065800  0.32633800  0.16646200  1
  Cl  Cl10  1  0.02568000  0.69934200  0.16646200  1
  Cl  Cl11  1  0.67366200  0.97432000  0.16646200  1
  Cl  Cl12  1  0.02568000  0.32633800  0.66646200  1
  Cl  Cl13  1  0.30065800  0.97432000  0.66646200  1
  Cl  Cl14  1  0.67366200  0.69934200  0.66646200  1
  Cl  Cl15  1  0.96732467  0.65967133  0.49979533  1
  Cl  Cl16  1  0.69234667  0.03267533  0.49979533  1
  Cl  Cl17  1  0.34032867  0.30765333  0.49979533  1
  Cl  Cl18  1  0.69234667  0.65967133  0.99979533  1
  Cl  Cl19  1  0.96732467  0.30765333  0.99979533  1
  Cl  Cl20  1  0.34032867  0.03267533  0.99979533  1
  Cl  Cl21  1  0.63399133  0.99300467  0.83312867  1
  Cl  Cl22  1  0.35901333  0.36600867  0.83312867  1
  Cl  Cl23  1  0.00699533  0.64098667  0.83312867  1
  O  O24  1  0.47915633  0.90322567  0.15363967  1
  O  O25  1  0.16473533  0.24198367  0.12332567  1
  O  O26  1  0.34376067  0.13008133  0.04976833  1
  O  O27  1  0.43010767  0.18751033  0.32030633  1
  O  O28  1  0.07724833  0.83526467  0.12332567  1
  O  O29  1  0.42406933  0.52084367  0.15363967  1
  O  O30  1  0.81248967  0.24259733  0.32030633  1
  O  O31  1  0.77009467  0.16972433  0.17432033  1
  O  O32  1  0.09677433  0.57593067  0.15363967  1
  O  O33  1  0.41058167  0.90865033  0.28999233  1
  O  O34  1  0.20325200  0.32290600  0.21643500  1
  O  O35  1  0.49806867  0.58941833  0.28999233  1
  O  O36  1  0.49694233  0.56323867  0.00765367  1
  O  O37  1  0.78632067  0.65623933  0.04976833  1
  O  O38  1  0.83027567  0.60037033  0.17432033  1
  O  O39  1  0.67709400  0.88034600  0.21643500  1
  O  O40  1  0.43676133  0.93370367  0.00765367  1
  O  O41  1  0.09134967  0.50193133  0.28999233  1
  O  O42  1  0.06629633  0.50305767  0.00765367  1
  O  O43  1  0.86991867  0.21367933  0.04976833  1
  O  O44  1  0.11965400  0.79674800  0.21643500  1
  O  O45  1  0.39962967  0.22990533  0.17432033  1
  O  O46  1  0.75801633  0.92275167  0.12332567  1
  O  O47  1  0.75740267  0.56989233  0.32030633  1
  O  O48  1  0.14582300  0.23655900  0.48697300  1
  O  O49  1  0.83140200  0.57531700  0.45665900  1
  O  O50  1  0.01042733  0.46341467  0.38310167  1
  O  O51  1  0.09677433  0.52084367  0.65363967  1
  O  O52  1  0.74391500  0.16859800  0.45665900  1
  O  O53  1  0.09073600  0.85417700  0.48697300  1
  O  O54  1  0.47915633  0.57593067  0.65363967  1
  O  O55  1  0.43676133  0.50305767  0.50765367  1
  O  O56  1  0.76344100  0.90926400  0.48697300  1
  O  O57  1  0.07724833  0.24198367  0.62332567  1
  O  O58  1  0.86991867  0.65623933  0.54976833  1
  O  O59  1  0.16473533  0.92275167  0.62332567  1
  O  O60  1  0.16360900  0.89657200  0.34098700  1
  O  O61  1  0.45298733  0.98957267  0.38310167  1
  O  O62  1  0.49694233  0.93370367  0.50765367  1
  O  O63  1  0.34376067  0.21367933  0.54976833  1
  O  O64  1  0.10342800  0.26703700  0.34098700  1
  O  O65  1  0.75801633  0.83526467  0.62332567  1
  O  O66  1  0.73296300  0.83639100  0.34098700  1
  O  O67  1  0.53658533  0.54701267  0.38310167  1
  O  O68  1  0.78632067  0.13008133  0.54976833  1
  O  O69  1  0.06629633  0.56323867  0.50765367  1
  O  O70  1  0.42468300  0.25608500  0.45665900  1
  O  O71  1  0.42406933  0.90322567  0.65363967  1
  O  O72  1  0.81248967  0.56989233  0.82030633  1
  O  O73  1  0.49806867  0.90865033  0.78999233  1
  O  O74  1  0.67709400  0.79674800  0.71643500  1
  O  O75  1  0.76344100  0.85417700  0.98697300  1
  O  O76  1  0.41058167  0.50193133  0.78999233  1
  O  O77  1  0.75740267  0.18751033  0.82030633  1
  O  O78  1  0.14582300  0.90926400  0.98697300  1
  O  O79  1  0.10342800  0.83639100  0.84098700  1
  O  O80  1  0.43010767  0.24259733  0.82030633  1
  O  O81  1  0.74391500  0.57531700  0.95665900  1
  O  O82  1  0.53658533  0.98957267  0.88310167  1
  O  O83  1  0.83140200  0.25608500  0.95665900  1
  O  O84  1  0.83027567  0.22990533  0.67432033  1
  O  O85  1  0.11965400  0.32290600  0.71643500  1
  O  O86  1  0.16360900  0.26703700  0.84098700  1
  O  O87  1  0.01042733  0.54701267  0.88310167  1
  O  O88  1  0.77009467  0.60037033  0.67432033  1
  O  O89  1  0.42468300  0.16859800  0.95665900  1
  O  O90  1  0.39962967  0.16972433  0.67432033  1
  O  O91  1  0.20325200  0.88034600  0.71643500  1
  O  O92  1  0.45298733  0.46341467  0.88310167  1
  O  O93  1  0.73296300  0.89657200  0.84098700  1
  O  O94  1  0.09134967  0.58941833  0.78999233  1
  O  O95  1  0.09073600  0.23655900  0.98697300  1
