# generated using pymatgen
data_Li6Nd6Sb(TeO8)3
_symmetry_space_group_name_H-M   'P 1'
_cell_length_a   17.98054200
_cell_length_b   12.73742400
_cell_length_c   12.73289543
_cell_angle_alpha   90.00000000
_cell_angle_beta   134.88963409
_cell_angle_gamma   90.00000000
_symmetry_Int_Tables_number   1
_chemical_formula_structural   Li6Nd6Sb(TeO8)3
_chemical_formula_sum   'Li24 Nd24 Sb4 Te12 O96'
_cell_volume   2066.00566932
_cell_formula_units_Z   4
loop_
 _symmetry_equiv_pos_site_id
 _symmetry_equiv_pos_as_xyz
  1  'x, y, z'
loop_
 _atom_site_type_symbol
 _atom_site_label
 _atom_site_symmetry_multiplicity
 _atom_site_fract_x
 _atom_site_fract_y
 _atom_site_fract_z
 _atom_site_occupancy
  Li  Li0  1  0.12474700  0.24957400  0.12431200  1
  Li  Li1  1  0.50000000  0.62518700  0.75000000  1
  Li  Li2  1  0.25066200  0.49965600  0.62590700  1
  Li  Li3  1  0.00000000  0.37544000  0.25000000  1
  Li  Li4  1  0.25066200  0.50034400  0.12590700  1
  Li  Li5  1  0.37525300  0.74957400  0.37568800  1
  Li  Li6  1  0.12474700  0.75042600  0.62431200  1
  Li  Li7  1  0.24933800  0.00034400  0.37409300  1
  Li  Li8  1  0.24933800  0.99965600  0.87409300  1
  Li  Li9  1  0.50000000  0.12456000  0.75000000  1
  Li  Li10  1  0.00000000  0.87481300  0.25000000  1
  Li  Li11  1  0.37525300  0.25042600  0.87568800  1
  Li  Li12  1  0.62474700  0.74957400  0.12431200  1
  Li  Li13  1  0.00000000  0.12518700  0.75000000  1
  Li  Li14  1  0.75066200  0.99965600  0.62590700  1
  Li  Li15  1  0.50000000  0.87544000  0.25000000  1
  Li  Li16  1  0.75066200  0.00034400  0.12590700  1
  Li  Li17  1  0.87525300  0.24957400  0.37568800  1
  Li  Li18  1  0.62474700  0.25042600  0.62431200  1
  Li  Li19  1  0.74933800  0.50034400  0.37409300  1
  Li  Li20  1  0.74933800  0.49965600  0.87409300  1
  Li  Li21  1  0.00000000  0.62456000  0.75000000  1
  Li  Li22  1  0.50000000  0.37481300  0.25000000  1
  Li  Li23  1  0.87525300  0.75042600  0.87568800  1
  Nd  Nd24  1  0.50000000  0.62478700  0.25000000  1
  Nd  Nd25  1  0.24924000  0.50038800  0.37379600  1
  Nd  Nd26  1  0.62447800  0.75096900  0.62518500  1
  Nd  Nd27  1  0.00000000  0.62432500  0.25000000  1
  Nd  Nd28  1  0.74924000  0.99961200  0.87379600  1
  Nd  Nd29  1  0.37552200  0.75096900  0.87481500  1
  Nd  Nd30  1  0.12447800  0.74903100  0.12518500  1
  Nd  Nd31  1  0.75076000  0.50038800  0.12620400  1
  Nd  Nd32  1  0.50000000  0.87567500  0.75000000  1
  Nd  Nd33  1  0.87552200  0.74903100  0.37481500  1
  Nd  Nd34  1  0.25076000  0.99961200  0.62620400  1
  Nd  Nd35  1  0.00000000  0.87521300  0.75000000  1
  Nd  Nd36  1  0.00000000  0.12478700  0.25000000  1
  Nd  Nd37  1  0.74924000  0.00038800  0.37379600  1
  Nd  Nd38  1  0.12447800  0.25096900  0.62518500  1
  Nd  Nd39  1  0.50000000  0.12432500  0.25000000  1
  Nd  Nd40  1  0.24924000  0.49961200  0.87379600  1
  Nd  Nd41  1  0.87552200  0.25096900  0.87481500  1
  Nd  Nd42  1  0.62447800  0.24903100  0.12518500  1
  Nd  Nd43  1  0.25076000  0.00038800  0.12620400  1
  Nd  Nd44  1  0.00000000  0.37567500  0.75000000  1
  Nd  Nd45  1  0.37552200  0.24903100  0.37481500  1
  Nd  Nd46  1  0.75076000  0.49961200  0.62620400  1
  Nd  Nd47  1  0.50000000  0.37521300  0.75000000  1
  Sb  Sb48  1  0.50000000  0.00000000  0.50000000  1
  Sb  Sb49  1  0.00000000  0.50000000  0.00000000  1
  Sb  Sb50  1  0.00000000  0.50000000  0.50000000  1
  Sb  Sb51  1  0.50000000  0.00000000  0.00000000  1
  Te  Te52  1  0.75000000  0.75000000  0.00000000  1
  Te  Te53  1  0.25000000  0.75000000  0.50000000  1
  Te  Te54  1  0.25000000  0.75000000  0.00000000  1
  Te  Te55  1  0.25000000  0.25000000  0.50000000  1
  Te  Te56  1  0.00000000  0.00000000  0.50000000  1
  Te  Te57  1  0.00000000  0.00000000  0.00000000  1
  Te  Te58  1  0.25000000  0.25000000  0.00000000  1
  Te  Te59  1  0.75000000  0.25000000  0.50000000  1
  Te  Te60  1  0.75000000  0.25000000  0.00000000  1
  Te  Te61  1  0.75000000  0.75000000  0.50000000  1
  Te  Te62  1  0.50000000  0.50000000  0.50000000  1
  Te  Te63  1  0.50000000  0.50000000  0.00000000  1
  O  O64  1  0.35704000  0.44994800  0.33038500  1
  O  O65  1  0.45029750  0.47316850  0.09382600  1
  O  O66  1  0.02675850  0.14309150  0.07713200  1
  O  O67  1  0.22311300  0.29971000  0.32990300  1
  O  O68  1  0.45029750  0.52683150  0.59382600  1
  O  O69  1  0.30016950  0.39318950  0.57662600  1
  O  O70  1  0.60645100  0.77646400  0.40654000  1
  O  O71  1  0.05360050  0.47454550  0.20023700  1
  O  O72  1  0.89354900  0.27646400  0.09346000  1
  O  O73  1  0.30016950  0.60681050  0.07662600  1
  O  O74  1  0.47324150  0.64309150  0.42286800  1
  O  O75  1  0.39286900  0.72297300  0.69230600  1
  O  O76  1  0.77662950  0.79982350  0.88340700  1
  O  O77  1  0.35704000  0.55005200  0.83038500  1
  O  O78  1  0.20066650  0.60679550  0.47780800  1
  O  O79  1  0.64705800  0.94695000  0.62155500  1
  O  O80  1  0.52556100  0.85306100  0.97277400  1
  O  O81  1  0.60713100  0.72297300  0.80769400  1
  O  O82  1  0.14705800  0.55305000  0.12155500  1
  O  O83  1  0.94639950  0.47454550  0.29976300  1
  O  O84  1  0.27688700  0.79971000  0.17009700  1
  O  O85  1  0.47443900  0.85306100  0.52722600  1
  O  O86  1  0.70066650  0.89320450  0.97780800  1
  O  O87  1  0.22337050  0.79982350  0.61659300  1
  O  O88  1  0.79933350  0.60679550  0.02219200  1
  O  O89  1  0.27662950  0.70017650  0.38340700  1
  O  O90  1  0.02556100  0.64693900  0.47277400  1
  O  O91  1  0.22311300  0.70029000  0.82990300  1
  O  O92  1  0.55360050  0.02545450  0.70023700  1
  O  O93  1  0.35294200  0.94695000  0.87844500  1
  O  O94  1  0.89286900  0.77702700  0.19230600  1
  O  O95  1  0.97443900  0.64693900  0.02722600  1
  O  O96  1  0.85294200  0.55305000  0.37844500  1
  O  O97  1  0.29933350  0.89320450  0.52219200  1
  O  O98  1  0.14296000  0.94994800  0.16961500  1
  O  O99  1  0.72337050  0.70017650  0.11659300  1
  O  O100  1  0.10713100  0.77702700  0.30769400  1
  O  O101  1  0.02675850  0.85690850  0.57713200  1
  O  O102  1  0.19983050  0.89318950  0.92337400  1
  O  O103  1  0.60645100  0.22353600  0.90654000  1
  O  O104  1  0.44639950  0.02545450  0.79976300  1
  O  O105  1  0.89354900  0.72353600  0.59346000  1
  O  O106  1  0.19983050  0.10681050  0.42337400  1
  O  O107  1  0.04970250  0.97316850  0.40617400  1
  O  O108  1  0.27688700  0.20029000  0.67009700  1
  O  O109  1  0.47324150  0.35690850  0.92286800  1
  O  O110  1  0.04970250  0.02683150  0.90617400  1
  O  O111  1  0.14296000  0.05005200  0.66961500  1
  O  O112  1  0.85704000  0.94994800  0.33038500  1
  O  O113  1  0.95029750  0.97316850  0.09382600  1
  O  O114  1  0.52675850  0.64309150  0.07713200  1
  O  O115  1  0.72311300  0.79971000  0.32990300  1
  O  O116  1  0.95029750  0.02683150  0.59382600  1
  O  O117  1  0.80016950  0.89318950  0.57662600  1
  O  O118  1  0.10645100  0.27646400  0.40654000  1
  O  O119  1  0.55360050  0.97454550  0.20023700  1
  O  O120  1  0.39354900  0.77646400  0.09346000  1
  O  O121  1  0.80016950  0.10681050  0.07662600  1
  O  O122  1  0.97324150  0.14309150  0.42286800  1
  O  O123  1  0.89286900  0.22297300  0.69230600  1
  O  O124  1  0.27662950  0.29982350  0.88340700  1
  O  O125  1  0.85704000  0.05005200  0.83038500  1
  O  O126  1  0.70066650  0.10679550  0.47780800  1
  O  O127  1  0.14705800  0.44695000  0.62155500  1
  O  O128  1  0.02556100  0.35306100  0.97277400  1
  O  O129  1  0.10713100  0.22297300  0.80769400  1
  O  O130  1  0.64705800  0.05305000  0.12155500  1
  O  O131  1  0.44639950  0.97454550  0.29976300  1
  O  O132  1  0.77688700  0.29971000  0.17009700  1
  O  O133  1  0.97443900  0.35306100  0.52722600  1
  O  O134  1  0.20066650  0.39320450  0.97780800  1
  O  O135  1  0.72337050  0.29982350  0.61659300  1
  O  O136  1  0.29933350  0.10679550  0.02219200  1
  O  O137  1  0.77662950  0.20017650  0.38340700  1
  O  O138  1  0.52556100  0.14693900  0.47277400  1
  O  O139  1  0.72311300  0.20029000  0.82990300  1
  O  O140  1  0.05360050  0.52545450  0.70023700  1
  O  O141  1  0.85294200  0.44695000  0.87844500  1
  O  O142  1  0.39286900  0.27702700  0.19230600  1
  O  O143  1  0.47443900  0.14693900  0.02722600  1
  O  O144  1  0.35294200  0.05305000  0.37844500  1
  O  O145  1  0.79933350  0.39320450  0.52219200  1
  O  O146  1  0.64296000  0.44994800  0.16961500  1
  O  O147  1  0.22337050  0.20017650  0.11659300  1
  O  O148  1  0.60713100  0.27702700  0.30769400  1
  O  O149  1  0.52675850  0.35690850  0.57713200  1
  O  O150  1  0.69983050  0.39318950  0.92337400  1
  O  O151  1  0.10645100  0.72353600  0.90654000  1
  O  O152  1  0.94639950  0.52545450  0.79976300  1
  O  O153  1  0.39354900  0.22353600  0.59346000  1
  O  O154  1  0.69983050  0.60681050  0.42337400  1
  O  O155  1  0.54970250  0.47316850  0.40617400  1
  O  O156  1  0.77688700  0.70029000  0.67009700  1
  O  O157  1  0.97324150  0.85690850  0.92286800  1
  O  O158  1  0.54970250  0.52683150  0.90617400  1
  O  O159  1  0.64296000  0.55005200  0.66961500  1
