# generated using pymatgen
data_Dy2Hf2(MoO4)7
_symmetry_space_group_name_H-M   'P 1'
_cell_length_a   21.14135800
_cell_length_b   9.96295400
_cell_length_c   14.04043762
_cell_angle_alpha   90.00000000
_cell_angle_beta   112.70659230
_cell_angle_gamma   90.00000000
_symmetry_Int_Tables_number   1
_chemical_formula_structural   Dy2Hf2(MoO4)7
_chemical_formula_sum   'Dy8 Hf8 Mo28 O112'
_cell_volume   2728.12993169
_cell_formula_units_Z   4
loop_
 _symmetry_equiv_pos_site_id
 _symmetry_equiv_pos_as_xyz
  1  'x, y, z'
loop_
 _atom_site_type_symbol
 _atom_site_label
 _atom_site_symmetry_multiplicity
 _atom_site_fract_x
 _atom_site_fract_y
 _atom_site_fract_z
 _atom_site_occupancy
  Dy  Dy0  1  0.13608850  0.51173850  0.93603600  1
  Dy  Dy1  1  0.36391150  0.98826150  0.06396400  1
  Dy  Dy2  1  0.13608850  0.48826150  0.43603600  1
  Dy  Dy3  1  0.36391150  0.01173850  0.56396400  1
  Dy  Dy4  1  0.63608850  0.01173850  0.93603600  1
  Dy  Dy5  1  0.86391150  0.48826150  0.06396400  1
  Dy  Dy6  1  0.63608850  0.98826150  0.43603600  1
  Dy  Dy7  1  0.86391150  0.51173850  0.56396400  1
  Hf  Hf8  1  0.11701500  0.96516400  0.18797100  1
  Hf  Hf9  1  0.38298500  0.46516400  0.31202900  1
  Hf  Hf10  1  0.38298500  0.53483600  0.81202900  1
  Hf  Hf11  1  0.11701500  0.03483600  0.68797100  1
  Hf  Hf12  1  0.61701500  0.46516400  0.18797100  1
  Hf  Hf13  1  0.88298500  0.96516400  0.31202900  1
  Hf  Hf14  1  0.88298500  0.03483600  0.81202900  1
  Hf  Hf15  1  0.61701500  0.53483600  0.68797100  1
  Mo  Mo16  1  0.34072200  0.38471200  0.02345000  1
  Mo  Mo17  1  0.34072200  0.61528800  0.52345000  1
  Mo  Mo18  1  0.06056050  0.37218050  0.64657100  1
  Mo  Mo19  1  0.24379650  0.24263050  0.32921000  1
  Mo  Mo20  1  0.00000000  0.20578500  0.25000000  1
  Mo  Mo21  1  0.25620350  0.74263050  0.17079000  1
  Mo  Mo22  1  0.25620350  0.25736950  0.67079000  1
  Mo  Mo23  1  0.15927800  0.11528800  0.97655000  1
  Mo  Mo24  1  0.00000000  0.79421500  0.75000000  1
  Mo  Mo25  1  0.06056050  0.62781950  0.14657100  1
  Mo  Mo26  1  0.24379650  0.75736950  0.82921000  1
  Mo  Mo27  1  0.43943950  0.12781950  0.35342900  1
  Mo  Mo28  1  0.15927800  0.88471200  0.47655000  1
  Mo  Mo29  1  0.43943950  0.87218050  0.85342900  1
  Mo  Mo30  1  0.84072200  0.88471200  0.02345000  1
  Mo  Mo31  1  0.84072200  0.11528800  0.52345000  1
  Mo  Mo32  1  0.56056050  0.87218050  0.64657100  1
  Mo  Mo33  1  0.74379650  0.74263050  0.32921000  1
  Mo  Mo34  1  0.50000000  0.70578500  0.25000000  1
  Mo  Mo35  1  0.75620350  0.24263050  0.17079000  1
  Mo  Mo36  1  0.75620350  0.75736950  0.67079000  1
  Mo  Mo37  1  0.65927800  0.61528800  0.97655000  1
  Mo  Mo38  1  0.50000000  0.29421500  0.75000000  1
  Mo  Mo39  1  0.56056050  0.12781950  0.14657100  1
  Mo  Mo40  1  0.74379650  0.25736950  0.82921000  1
  Mo  Mo41  1  0.93943950  0.62781950  0.35342900  1
  Mo  Mo42  1  0.65927800  0.38471200  0.47655000  1
  Mo  Mo43  1  0.93943950  0.37218050  0.85342900  1
  O  O44  1  0.10368400  0.59513300  0.28075000  1
  O  O45  1  0.47874300  0.05271000  0.10286400  1
  O  O46  1  0.47874300  0.94729000  0.60286400  1
  O  O47  1  0.06146750  0.30661050  0.34404600  1
  O  O48  1  0.45789900  0.60127400  0.31540500  1
  O  O49  1  0.10368400  0.40486700  0.78075000  1
  O  O50  1  0.43853250  0.80661050  0.15595400  1
  O  O51  1  0.19414300  0.17915800  0.71533800  1
  O  O52  1  0.11812100  0.01212700  0.04485700  1
  O  O53  1  0.37456850  0.57239550  0.66014800  1
  O  O54  1  0.04210100  0.89872600  0.68459500  1
  O  O55  1  0.30644300  0.61215100  0.25840600  1
  O  O56  1  0.30585700  0.32084200  0.28466200  1
  O  O57  1  0.19414300  0.82084200  0.21533800  1
  O  O58  1  0.04210100  0.10127400  0.18459500  1
  O  O59  1  0.38187900  0.51212700  0.45514300  1
  O  O60  1  0.14522750  0.28721850  0.99415100  1
  O  O61  1  0.45068850  0.31180750  0.37331700  1
  O  O62  1  0.12543150  0.07239550  0.83985200  1
  O  O63  1  0.38187900  0.48787300  0.95514300  1
  O  O64  1  0.25214550  0.58106850  0.47263800  1
  O  O65  1  0.21318550  0.32878050  0.54760000  1
  O  O66  1  0.43853250  0.19338950  0.65595400  1
  O  O67  1  0.10904400  0.44290800  0.57950500  1
  O  O68  1  0.18769050  0.36744450  0.33832500  1
  O  O69  1  0.39631600  0.09513300  0.21925000  1
  O  O70  1  0.02125700  0.55271000  0.39713600  1
  O  O71  1  0.45789900  0.39872600  0.81540500  1
  O  O72  1  0.11812100  0.98787300  0.54485700  1
  O  O73  1  0.24785450  0.08106850  0.02736200  1
  O  O74  1  0.35477250  0.21278150  0.00584900  1
  O  O75  1  0.31230950  0.13255550  0.66167500  1
  O  O76  1  0.45068850  0.68819250  0.87331700  1
  O  O77  1  0.39095600  0.05709200  0.42049500  1
  O  O78  1  0.25214550  0.41893150  0.97263800  1
  O  O79  1  0.28681450  0.82878050  0.95240000  1
  O  O80  1  0.31230950  0.86744450  0.16167500  1
  O  O81  1  0.28681450  0.17121950  0.45240000  1
  O  O82  1  0.14522750  0.71278150  0.49415100  1
  O  O83  1  0.30585700  0.67915800  0.78466200  1
  O  O84  1  0.30644300  0.38784900  0.75840600  1
  O  O85  1  0.19355700  0.11215100  0.24159400  1
  O  O86  1  0.37456850  0.42760450  0.16014800  1
  O  O87  1  0.19355700  0.88784900  0.74159400  1
  O  O88  1  0.35477250  0.78721850  0.50584900  1
  O  O89  1  0.02125700  0.44729000  0.89713600  1
  O  O90  1  0.21318550  0.67121950  0.04760000  1
  O  O91  1  0.39095600  0.94290800  0.92049500  1
  O  O92  1  0.18769050  0.63255550  0.83832500  1
  O  O93  1  0.04931150  0.81180750  0.12668300  1
  O  O94  1  0.04931150  0.18819250  0.62668300  1
  O  O95  1  0.10904400  0.55709200  0.07950500  1
  O  O96  1  0.12543150  0.92760450  0.33985200  1
  O  O97  1  0.06146750  0.69338950  0.84404600  1
  O  O98  1  0.24785450  0.91893150  0.52736200  1
  O  O99  1  0.39631600  0.90486700  0.71925000  1
  O  O100  1  0.60368400  0.09513300  0.28075000  1
  O  O101  1  0.97874300  0.55271000  0.10286400  1
  O  O102  1  0.97874300  0.44729000  0.60286400  1
  O  O103  1  0.56146750  0.80661050  0.34404600  1
  O  O104  1  0.95789900  0.10127400  0.31540500  1
  O  O105  1  0.60368400  0.90486700  0.78075000  1
  O  O106  1  0.93853250  0.30661050  0.15595400  1
  O  O107  1  0.69414300  0.67915800  0.71533800  1
  O  O108  1  0.61812100  0.51212700  0.04485700  1
  O  O109  1  0.87456850  0.07239550  0.66014800  1
  O  O110  1  0.54210100  0.39872600  0.68459500  1
  O  O111  1  0.80644300  0.11215100  0.25840600  1
  O  O112  1  0.80585700  0.82084200  0.28466200  1
  O  O113  1  0.69414300  0.32084200  0.21533800  1
  O  O114  1  0.54210100  0.60127400  0.18459500  1
  O  O115  1  0.88187900  0.01212700  0.45514300  1
  O  O116  1  0.64522750  0.78721850  0.99415100  1
  O  O117  1  0.95068850  0.81180750  0.37331700  1
  O  O118  1  0.62543150  0.57239550  0.83985200  1
  O  O119  1  0.88187900  0.98787300  0.95514300  1
  O  O120  1  0.75214550  0.08106850  0.47263800  1
  O  O121  1  0.71318550  0.82878050  0.54760000  1
  O  O122  1  0.93853250  0.69338950  0.65595400  1
  O  O123  1  0.60904400  0.94290800  0.57950500  1
  O  O124  1  0.68769050  0.86744450  0.33832500  1
  O  O125  1  0.89631600  0.59513300  0.21925000  1
  O  O126  1  0.52125700  0.05271000  0.39713600  1
  O  O127  1  0.95789900  0.89872600  0.81540500  1
  O  O128  1  0.61812100  0.48787300  0.54485700  1
  O  O129  1  0.74785450  0.58106850  0.02736200  1
  O  O130  1  0.85477250  0.71278150  0.00584900  1
  O  O131  1  0.81230950  0.63255550  0.66167500  1
  O  O132  1  0.95068850  0.18819250  0.87331700  1
  O  O133  1  0.89095600  0.55709200  0.42049500  1
  O  O134  1  0.75214550  0.91893150  0.97263800  1
  O  O135  1  0.78681450  0.32878050  0.95240000  1
  O  O136  1  0.81230950  0.36744450  0.16167500  1
  O  O137  1  0.78681450  0.67121950  0.45240000  1
  O  O138  1  0.64522750  0.21278150  0.49415100  1
  O  O139  1  0.80585700  0.17915800  0.78466200  1
  O  O140  1  0.80644300  0.88784900  0.75840600  1
  O  O141  1  0.69355700  0.61215100  0.24159400  1
  O  O142  1  0.87456850  0.92760450  0.16014800  1
  O  O143  1  0.69355700  0.38784900  0.74159400  1
  O  O144  1  0.85477250  0.28721850  0.50584900  1
  O  O145  1  0.52125700  0.94729000  0.89713600  1
  O  O146  1  0.71318550  0.17121950  0.04760000  1
  O  O147  1  0.89095600  0.44290800  0.92049500  1
  O  O148  1  0.68769050  0.13255550  0.83832500  1
  O  O149  1  0.54931150  0.31180750  0.12668300  1
  O  O150  1  0.54931150  0.68819250  0.62668300  1
  O  O151  1  0.60904400  0.05709200  0.07950500  1
  O  O152  1  0.62543150  0.42760450  0.33985200  1
  O  O153  1  0.56146750  0.19338950  0.84404600  1
  O  O154  1  0.74785450  0.41893150  0.52736200  1
  O  O155  1  0.89631600  0.40486700  0.71925000  1
