# generated using pymatgen
data_Co(PO3)4
_symmetry_space_group_name_H-M   'P 1'
_cell_length_a   9.65717200
_cell_length_b   13.70671600
_cell_length_c   7.66891349
_cell_angle_alpha   90.00000000
_cell_angle_beta   102.09240789
_cell_angle_gamma   90.00000000
_symmetry_Int_Tables_number   1
_chemical_formula_structural   Co(PO3)4
_chemical_formula_sum   'Co4 P16 O48'
_cell_volume   992.59512987
_cell_formula_units_Z   4
loop_
 _symmetry_equiv_pos_site_id
 _symmetry_equiv_pos_as_xyz
  1  'x, y, z'
loop_
 _atom_site_type_symbol
 _atom_site_label
 _atom_site_symmetry_multiplicity
 _atom_site_fract_x
 _atom_site_fract_y
 _atom_site_fract_z
 _atom_site_occupancy
  Co  Co0  1  0.50000000  0.36825700  0.25000000  1
  Co  Co1  1  0.50000000  0.63174300  0.75000000  1
  Co  Co2  1  0.00000000  0.86825700  0.25000000  1
  Co  Co3  1  0.00000000  0.13174300  0.75000000  1
  P  P4  1  0.59687000  0.83918400  0.62744300  1
  P  P5  1  0.12440050  0.07716750  0.16490200  1
  P  P6  1  0.87559950  0.92283250  0.83509800  1
  P  P7  1  0.87559950  0.07716750  0.33509800  1
  P  P8  1  0.40313000  0.16081600  0.37255700  1
  P  P9  1  0.12440050  0.92283250  0.66490200  1
  P  P10  1  0.40313000  0.83918400  0.87255700  1
  P  P11  1  0.59687000  0.16081600  0.12744300  1
  P  P12  1  0.09687000  0.33918400  0.62744300  1
  P  P13  1  0.62440050  0.57716750  0.16490200  1
  P  P14  1  0.37559950  0.42283250  0.83509800  1
  P  P15  1  0.37559950  0.57716750  0.33509800  1
  P  P16  1  0.90313000  0.66081600  0.37255700  1
  P  P17  1  0.62440050  0.42283250  0.66490200  1
  P  P18  1  0.90313000  0.33918400  0.87255700  1
  P  P19  1  0.09687000  0.66081600  0.12744300  1
  O  O20  1  0.47113650  0.86184350  0.06187800  1
  O  O21  1  0.52886350  0.13815650  0.93812200  1
  O  O22  1  0.50000000  0.37725200  0.75000000  1
  O  O23  1  0.52886350  0.86184350  0.43812200  1
  O  O24  1  0.86678250  0.13154650  0.50219600  1
  O  O25  1  0.88792000  0.03263800  0.84234000  1
  O  O26  1  0.37587800  0.73323600  0.81820900  1
  O  O27  1  0.86678250  0.86845350  0.00219600  1
  O  O28  1  0.50000000  0.10894400  0.25000000  1
  O  O29  1  0.25893750  0.89876650  0.81942900  1
  O  O30  1  0.50000000  0.89105600  0.75000000  1
  O  O31  1  0.50000000  0.62274800  0.25000000  1
  O  O32  1  0.13321750  0.13154650  0.99780400  1
  O  O33  1  0.13321750  0.86845350  0.49780400  1
  O  O34  1  0.88792000  0.96736200  0.34234000  1
  O  O35  1  0.11208000  0.96736200  0.15766000  1
  O  O36  1  0.62412200  0.26676400  0.18179100  1
  O  O37  1  0.11208000  0.03263800  0.65766000  1
  O  O38  1  0.37587800  0.26676400  0.31820900  1
  O  O39  1  0.74106250  0.89876650  0.68057100  1
  O  O40  1  0.62412200  0.73323600  0.68179100  1
  O  O41  1  0.74106250  0.10123350  0.18057100  1
  O  O42  1  0.25893750  0.10123350  0.31942900  1
  O  O43  1  0.47113650  0.13815650  0.56187800  1
  O  O44  1  0.97113650  0.36184350  0.06187800  1
  O  O45  1  0.02886350  0.63815650  0.93812200  1
  O  O46  1  0.00000000  0.87725200  0.75000000  1
  O  O47  1  0.02886350  0.36184350  0.43812200  1
  O  O48  1  0.36678250  0.63154650  0.50219600  1
  O  O49  1  0.38792000  0.53263800  0.84234000  1
  O  O50  1  0.87587800  0.23323600  0.81820900  1
  O  O51  1  0.36678250  0.36845350  0.00219600  1
  O  O52  1  0.00000000  0.60894400  0.25000000  1
  O  O53  1  0.75893750  0.39876650  0.81942900  1
  O  O54  1  0.00000000  0.39105600  0.75000000  1
  O  O55  1  0.00000000  0.12274800  0.25000000  1
  O  O56  1  0.63321750  0.63154650  0.99780400  1
  O  O57  1  0.63321750  0.36845350  0.49780400  1
  O  O58  1  0.38792000  0.46736200  0.34234000  1
  O  O59  1  0.61208000  0.46736200  0.15766000  1
  O  O60  1  0.12412200  0.76676400  0.18179100  1
  O  O61  1  0.61208000  0.53263800  0.65766000  1
  O  O62  1  0.87587800  0.76676400  0.31820900  1
  O  O63  1  0.24106250  0.39876650  0.68057100  1
  O  O64  1  0.12412200  0.23323600  0.68179100  1
  O  O65  1  0.24106250  0.60123350  0.18057100  1
  O  O66  1  0.75893750  0.60123350  0.31942900  1
  O  O67  1  0.97113650  0.63815650  0.56187800  1
