# generated using pymatgen
data_Sr9LuV7O28
_symmetry_space_group_name_H-M   'P 1'
_cell_length_a   11.36498381
_cell_length_b   11.36498381
_cell_length_c   40.13157206
_cell_angle_alpha   90.00000000
_cell_angle_beta   90.00000000
_cell_angle_gamma   120.00000000
_symmetry_Int_Tables_number   1
_chemical_formula_structural   Sr9LuV7O28
_chemical_formula_sum   'Sr54 Lu6 V42 O168'
_cell_volume   4489.05004650
_cell_formula_units_Z   6
loop_
 _symmetry_equiv_pos_site_id
 _symmetry_equiv_pos_as_xyz
  1  'x, y, z'
loop_
 _atom_site_type_symbol
 _atom_site_label
 _atom_site_symmetry_multiplicity
 _atom_site_fract_x
 _atom_site_fract_y
 _atom_site_fract_z
 _atom_site_occupancy
  Sr  Sr0  1  0.52142767  0.46177333  0.00825133  1
  Sr  Sr1  1  0.37868300  0.20323200  0.26810100  1
  Sr  Sr2  1  0.46343467  0.95465033  0.10143433  1
  Sr  Sr3  1  0.19900933  0.38752467  0.23402467  1
  Sr  Sr4  1  0.18851533  0.80099067  0.23402467  1
  Sr  Sr5  1  0.82454900  0.62131700  0.26810100  1
  Sr  Sr6  1  0.04534967  0.50878433  0.10143433  1
  Sr  Sr7  1  0.27367900  0.12844000  0.17491800  1
  Sr  Sr8  1  0.86567600  0.14481800  0.06735800  1
  Sr  Sr9  1  0.27914200  0.13432400  0.06735800  1
  Sr  Sr10  1  0.94034567  0.47857233  0.00825133  1
  Sr  Sr11  1  0.53822667  0.05965433  0.00825133  1
  Sr  Sr12  1  0.85518200  0.72085800  0.06735800  1
  Sr  Sr13  1  0.85476100  0.72632100  0.17491800  1
  Sr  Sr14  1  0.87156000  0.14523900  0.17491800  1
  Sr  Sr15  1  0.79676800  0.17545100  0.26810100  1
  Sr  Sr16  1  0.61247533  0.81148467  0.23402467  1
  Sr  Sr17  1  0.49121567  0.53656533  0.10143433  1
  Sr  Sr18  1  0.18809433  0.79510667  0.34158467  1
  Sr  Sr19  1  0.04534967  0.53656533  0.60143433  1
  Sr  Sr20  1  0.13010133  0.28798367  0.43476767  1
  Sr  Sr21  1  0.86567600  0.72085800  0.56735800  1
  Sr  Sr22  1  0.85518200  0.13432400  0.56735800  1
  Sr  Sr23  1  0.49121567  0.95465033  0.60143433  1
  Sr  Sr24  1  0.71201633  0.84211767  0.43476767  1
  Sr  Sr25  1  0.94034567  0.46177333  0.50825133  1
  Sr  Sr26  1  0.53234267  0.47815133  0.40069133  1
  Sr  Sr27  1  0.94580867  0.46765733  0.40069133  1
  Sr  Sr28  1  0.60701233  0.81190567  0.34158467  1
  Sr  Sr29  1  0.20489333  0.39298767  0.34158467  1
  Sr  Sr30  1  0.52184867  0.05419133  0.40069133  1
  Sr  Sr31  1  0.52142767  0.05965433  0.50825133  1
  Sr  Sr32  1  0.53822667  0.47857233  0.50825133  1
  Sr  Sr33  1  0.46343467  0.50878433  0.60143433  1
  Sr  Sr34  1  0.27914200  0.14481800  0.56735800  1
  Sr  Sr35  1  0.15788233  0.86989867  0.43476767  1
  Sr  Sr36  1  0.85476100  0.12844000  0.67491800  1
  Sr  Sr37  1  0.71201633  0.86989867  0.93476767  1
  Sr  Sr38  1  0.79676800  0.62131700  0.76810100  1
  Sr  Sr39  1  0.53234267  0.05419133  0.90069133  1
  Sr  Sr40  1  0.52184867  0.46765733  0.90069133  1
  Sr  Sr41  1  0.15788233  0.28798367  0.93476767  1
  Sr  Sr42  1  0.37868300  0.17545100  0.76810100  1
  Sr  Sr43  1  0.60701233  0.79510667  0.84158467  1
  Sr  Sr44  1  0.19900933  0.81148467  0.73402467  1
  Sr  Sr45  1  0.61247533  0.80099067  0.73402467  1
  Sr  Sr46  1  0.27367900  0.14523900  0.67491800  1
  Sr  Sr47  1  0.87156000  0.72632100  0.67491800  1
  Sr  Sr48  1  0.18851533  0.38752467  0.73402467  1
  Sr  Sr49  1  0.18809433  0.39298767  0.84158467  1
  Sr  Sr50  1  0.20489333  0.81190567  0.84158467  1
  Sr  Sr51  1  0.13010133  0.84211767  0.93476767  1
  Sr  Sr52  1  0.94580867  0.47815133  0.90069133  1
  Sr  Sr53  1  0.82454900  0.20323200  0.76810100  1
  Lu  Lu54  1  0.33333333  0.66666667  0.16676267  1
  Lu  Lu55  1  0.00000000  0.00000000  0.00009600  1
  Lu  Lu56  1  0.00000000  0.00000000  0.50009600  1
  Lu  Lu57  1  0.66666667  0.33333333  0.33342933  1
  Lu  Lu58  1  0.66666667  0.33333333  0.83342933  1
  Lu  Lu59  1  0.33333333  0.66666667  0.66676267  1
  V  V60  1  0.52559733  0.50684367  0.19818767  1
  V  V61  1  0.19226400  0.35208700  0.03152100  1
  V  V62  1  0.15982300  0.80773600  0.03152100  1
  V  V63  1  0.14497267  0.82274233  0.13503833  1
  V  V64  1  0.64791300  0.84017700  0.03152100  1
  V  V65  1  0.47830600  0.98889700  0.30170500  1
  V  V66  1  0.98124633  0.47440267  0.19818767  1
  V  V67  1  0.00000000  0.00000000  0.22902500  1
  V  V68  1  0.51059100  0.52169400  0.30170500  1
  V  V69  1  0.01110300  0.48940900  0.30170500  1
  V  V70  1  0.66666667  0.33333333  0.06235833  1
  V  V71  1  0.17725767  0.32223033  0.13503833  1
  V  V72  1  0.49315633  0.01875367  0.19818767  1
  V  V73  1  0.67776967  0.85502733  0.13503833  1
  V  V74  1  0.19226400  0.84017700  0.53152100  1
  V  V75  1  0.85893067  0.68542033  0.36485433  1
  V  V76  1  0.82648967  0.14106933  0.36485433  1
  V  V77  1  0.81163933  0.15607567  0.46837167  1
  V  V78  1  0.31457967  0.17351033  0.36485433  1
  V  V79  1  0.14497267  0.32223033  0.63503833  1
  V  V80  1  0.64791300  0.80773600  0.53152100  1
  V  V81  1  0.66666667  0.33333333  0.56235833  1
  V  V82  1  0.17725767  0.85502733  0.63503833  1
  V  V83  1  0.67776967  0.82274233  0.63503833  1
  V  V84  1  0.33333333  0.66666667  0.39569167  1
  V  V85  1  0.84392433  0.65556367  0.46837167  1
  V  V86  1  0.15982300  0.35208700  0.53152100  1
  V  V87  1  0.34443633  0.18836067  0.46837167  1
  V  V88  1  0.85893067  0.17351033  0.86485433  1
  V  V89  1  0.52559733  0.01875367  0.69818767  1
  V  V90  1  0.49315633  0.47440267  0.69818767  1
  V  V91  1  0.47830600  0.48940900  0.80170500  1
  V  V92  1  0.98124633  0.50684367  0.69818767  1
  V  V93  1  0.81163933  0.65556367  0.96837167  1
  V  V94  1  0.31457967  0.14106933  0.86485433  1
  V  V95  1  0.33333333  0.66666667  0.89569167  1
  V  V96  1  0.84392433  0.18836067  0.96837167  1
  V  V97  1  0.34443633  0.15607567  0.96837167  1
  V  V98  1  0.00000000  0.00000000  0.72902500  1
  V  V99  1  0.51059100  0.98889700  0.80170500  1
  V  V100  1  0.82648967  0.68542033  0.86485433  1
  V  V101  1  0.01110300  0.52169400  0.80170500  1
  O  O102  1  0.66666667  0.33333333  0.01912633  1
  O  O103  1  0.09651300  0.42164500  0.04613400  1
  O  O104  1  0.16214933  0.57988967  0.20176567  1
  O  O105  1  0.91205467  0.72906533  0.32466233  1
  O  O106  1  0.13638900  0.85322100  0.17672600  1
  O  O107  1  0.91168833  0.57015367  0.21280067  1
  O  O108  1  0.67120800  0.61500800  0.22116400  1
  O  O109  1  0.59309000  0.42607000  0.29599400  1
  O  O110  1  0.08440700  0.91322300  0.03509900  1
  O  O111  1  0.35471933  0.43753667  0.28196367  1
  O  O112  1  0.82881600  0.91559300  0.03509900  1
  O  O113  1  0.52701533  0.17737867  0.07406767  1
  O  O114  1  0.56246333  0.91718267  0.28196367  1
  O  O115  1  0.65846533  0.08831167  0.21280067  1
  O  O116  1  0.97976067  0.71474033  0.12164133  1
  O  O117  1  0.80305567  0.61650133  0.01005933  1
  O  O118  1  0.08677700  0.17118400  0.03509900  1
  O  O119  1  0.57393000  0.16702000  0.29599400  1
  O  O120  1  0.98369667  0.84404533  0.24073433  1
  O  O121  1  0.06831300  0.38140700  0.28830800  1
  O  O122  1  0.94380000  0.32879200  0.22116400  1
  O  O123  1  0.82262133  0.34963667  0.07406767  1
  O  O124  1  0.14677900  0.28316800  0.17672600  1
  O  O125  1  0.38349867  0.18655433  0.01005933  1
  O  O126  1  0.73497967  0.02023933  0.12164133  1
  O  O127  1  0.08281733  0.64528067  0.28196367  1
  O  O128  1  0.00000000  0.00000000  0.18579300  1
  O  O129  1  0.81344567  0.19694433  0.01005933  1
  O  O130  1  0.28525967  0.26502033  0.12164133  1
  O  O131  1  0.57835500  0.67486800  0.04613400  1
  O  O132  1  0.74948400  0.77087000  0.11529700  1
  O  O133  1  0.24059667  0.74024333  0.12932733  1
  O  O134  1  0.02138600  0.25051600  0.11529700  1
  O  O135  1  0.71683200  0.86361100  0.17672600  1
  O  O136  1  0.86034867  0.01630333  0.24073433  1
  O  O137  1  0.61046667  0.94834133  0.05449733  1
  O  O138  1  0.48367733  0.06239867  0.15799567  1
  O  O139  1  0.32513200  0.90348700  0.04613400  1
  O  O140  1  0.31309400  0.93168700  0.28830800  1
  O  O141  1  0.93760133  0.42127867  0.15799567  1
  O  O142  1  0.49964667  0.75940333  0.12932733  1
  O  O143  1  0.15595467  0.13965133  0.24073433  1
  O  O144  1  0.42984633  0.34153467  0.21280067  1
  O  O145  1  0.22913000  0.97861400  0.11529700  1
  O  O146  1  0.61859300  0.68690600  0.28830800  1
  O  O147  1  0.05165867  0.66212533  0.05449733  1
  O  O148  1  0.25975667  0.50035333  0.12932733  1
  O  O149  1  0.81701067  0.08794533  0.32466233  1
  O  O150  1  0.33787467  0.38953333  0.05449733  1
  O  O151  1  0.83298000  0.40691000  0.29599400  1
  O  O152  1  0.42011033  0.58225967  0.20176567  1
  O  O153  1  0.27093467  0.18298933  0.32466233  1
  O  O154  1  0.57872133  0.51632267  0.15799567  1
  O  O155  1  0.41774033  0.83785067  0.20176567  1
  O  O156  1  0.38499200  0.05620000  0.22116400  1
  O  O157  1  0.65036333  0.47298467  0.07406767  1
  O  O158  1  0.33333333  0.66666667  0.35245967  1
  O  O159  1  0.76317967  0.75497833  0.37946733  1
  O  O160  1  0.82881600  0.91322300  0.53509900  1
  O  O161  1  0.57872133  0.06239867  0.65799567  1
  O  O162  1  0.80305567  0.18655433  0.51005933  1
  O  O163  1  0.57835500  0.90348700  0.54613400  1
  O  O164  1  0.33787467  0.94834133  0.55449733  1
  O  O165  1  0.25975667  0.75940333  0.62932733  1
  O  O166  1  0.75107367  0.24655633  0.36843233  1
  O  O167  1  0.02138600  0.77087000  0.61529700  1
  O  O168  1  0.49548267  0.24892633  0.36843233  1
  O  O169  1  0.19368200  0.51071200  0.40740100  1
  O  O170  1  0.22913000  0.25051600  0.61529700  1
  O  O171  1  0.32513200  0.42164500  0.54613400  1
  O  O172  1  0.64642733  0.04807367  0.45497467  1
  O  O173  1  0.46972233  0.94983467  0.34339267  1
  O  O174  1  0.75344367  0.50451733  0.36843233  1
  O  O175  1  0.24059667  0.50035333  0.62932733  1
  O  O176  1  0.65036333  0.17737867  0.57406767  1
  O  O177  1  0.73497967  0.71474033  0.62164133  1
  O  O178  1  0.61046667  0.66212533  0.55449733  1
  O  O179  1  0.48928800  0.68297000  0.40740100  1
  O  O180  1  0.81344567  0.61650133  0.51005933  1
  O  O181  1  0.05016533  0.51988767  0.34339267  1
  O  O182  1  0.40164633  0.35357267  0.45497467  1
  O  O183  1  0.74948400  0.97861400  0.61529700  1
  O  O184  1  0.66666667  0.33333333  0.51912633  1
  O  O185  1  0.48011233  0.53027767  0.34339267  1
  O  O186  1  0.95192633  0.59835367  0.45497467  1
  O  O187  1  0.24502167  0.00820133  0.37946733  1
  O  O188  1  0.41615067  0.10420333  0.44863033  1
  O  O189  1  0.90726333  0.07357667  0.46266067  1
  O  O190  1  0.68805267  0.58384933  0.44863033  1
  O  O191  1  0.38349867  0.19694433  0.51005933  1
  O  O192  1  0.52701533  0.34963667  0.57406767  1
  O  O193  1  0.27713333  0.28167467  0.38783067  1
  O  O194  1  0.15034400  0.39573200  0.49132900  1
  O  O195  1  0.99179867  0.23682033  0.37946733  1
  O  O196  1  0.97976067  0.26502033  0.62164133  1
  O  O197  1  0.60426800  0.75461200  0.49132900  1
  O  O198  1  0.16631333  0.09273667  0.46266067  1
  O  O199  1  0.82262133  0.47298467  0.57406767  1
  O  O200  1  0.09651300  0.67486800  0.54613400  1
  O  O201  1  0.89579667  0.31194733  0.44863033  1
  O  O202  1  0.28525967  0.02023933  0.62164133  1
  O  O203  1  0.71832533  0.99545867  0.38783067  1
  O  O204  1  0.92642333  0.83368667  0.46266067  1
  O  O205  1  0.48367733  0.42127867  0.65799567  1
  O  O206  1  0.00454133  0.72286667  0.38783067  1
  O  O207  1  0.49964667  0.74024333  0.62932733  1
  O  O208  1  0.08677700  0.91559300  0.53509900  1
  O  O209  1  0.93760133  0.51632267  0.65799567  1
  O  O210  1  0.24538800  0.84965600  0.49132900  1
  O  O211  1  0.08440700  0.17118400  0.53509900  1
  O  O212  1  0.05165867  0.38953333  0.55449733  1
  O  O213  1  0.31703000  0.80631800  0.40740100  1
  O  O214  1  0.00000000  0.00000000  0.68579300  1
  O  O215  1  0.42984633  0.08831167  0.71280067  1
  O  O216  1  0.49548267  0.24655633  0.86843233  1
  O  O217  1  0.24538800  0.39573200  0.99132900  1
  O  O218  1  0.46972233  0.51988767  0.84339267  1
  O  O219  1  0.24502167  0.23682033  0.87946733  1
  O  O220  1  0.00454133  0.28167467  0.88783067  1
  O  O221  1  0.92642333  0.09273667  0.96266067  1
  O  O222  1  0.41774033  0.57988967  0.70176567  1
  O  O223  1  0.68805267  0.10420333  0.94863033  1
  O  O224  1  0.16214933  0.58225967  0.70176567  1
  O  O225  1  0.86034867  0.84404533  0.74073433  1
  O  O226  1  0.89579667  0.58384933  0.94863033  1
  O  O227  1  0.99179867  0.75497833  0.87946733  1
  O  O228  1  0.31309400  0.38140700  0.78830800  1
  O  O229  1  0.13638900  0.28316800  0.67672600  1
  O  O230  1  0.42011033  0.83785067  0.70176567  1
  O  O231  1  0.90726333  0.83368667  0.96266067  1
  O  O232  1  0.31703000  0.51071200  0.90740100  1
  O  O233  1  0.40164633  0.04807367  0.95497467  1
  O  O234  1  0.27713333  0.99545867  0.88783067  1
  O  O235  1  0.15595467  0.01630333  0.74073433  1
  O  O236  1  0.48011233  0.94983467  0.84339267  1
  O  O237  1  0.71683200  0.85322100  0.67672600  1
  O  O238  1  0.06831300  0.68690600  0.78830800  1
  O  O239  1  0.41615067  0.31194733  0.94863033  1
  O  O240  1  0.33333333  0.66666667  0.85245967  1
  O  O241  1  0.14677900  0.86361100  0.67672600  1
  O  O242  1  0.61859300  0.93168700  0.78830800  1
  O  O243  1  0.91168833  0.34153467  0.71280067  1
  O  O244  1  0.08281733  0.43753667  0.78196367  1
  O  O245  1  0.57393000  0.40691000  0.79599400  1
  O  O246  1  0.35471933  0.91718267  0.78196367  1
  O  O247  1  0.05016533  0.53027767  0.84339267  1
  O  O248  1  0.19368200  0.68297000  0.90740100  1
  O  O249  1  0.94380000  0.61500800  0.72116400  1
  O  O250  1  0.81701067  0.72906533  0.82466233  1
  O  O251  1  0.65846533  0.57015367  0.71280067  1
  O  O252  1  0.64642733  0.59835367  0.95497467  1
  O  O253  1  0.27093467  0.08794533  0.82466233  1
  O  O254  1  0.83298000  0.42607000  0.79599400  1
  O  O255  1  0.48928800  0.80631800  0.90740100  1
  O  O256  1  0.76317967  0.00820133  0.87946733  1
  O  O257  1  0.56246333  0.64528067  0.78196367  1
  O  O258  1  0.95192633  0.35357267  0.95497467  1
  O  O259  1  0.38499200  0.32879200  0.72116400  1
  O  O260  1  0.59309000  0.16702000  0.79599400  1
  O  O261  1  0.15034400  0.75461200  0.99132900  1
  O  O262  1  0.67120800  0.05620000  0.72116400  1
  O  O263  1  0.16631333  0.07357667  0.96266067  1
  O  O264  1  0.75344367  0.24892633  0.86843233  1
  O  O265  1  0.60426800  0.84965600  0.99132900  1
  O  O266  1  0.91205467  0.18298933  0.82466233  1
  O  O267  1  0.75107367  0.50451733  0.86843233  1
  O  O268  1  0.71832533  0.72286667  0.88783067  1
  O  O269  1  0.98369667  0.13965133  0.74073433  1
