# generated using pymatgen
data_Ba7Al10
_symmetry_space_group_name_H-M   'P 1'
_cell_length_a   6.04155784
_cell_length_b   6.04155784
_cell_length_c   49.61054371
_cell_angle_alpha   90.00000000
_cell_angle_beta   90.00000000
_cell_angle_gamma   120.00000000
_symmetry_Int_Tables_number   1
_chemical_formula_structural   Ba7Al10
_chemical_formula_sum   'Ba21 Al30'
_cell_volume   1568.20377036
_cell_formula_units_Z   3
loop_
 _symmetry_equiv_pos_site_id
 _symmetry_equiv_pos_as_xyz
  1  'x, y, z'
loop_
 _atom_site_type_symbol
 _atom_site_label
 _atom_site_symmetry_multiplicity
 _atom_site_fract_x
 _atom_site_fract_y
 _atom_site_fract_z
 _atom_site_occupancy
  Ba  Ba0  1  0.66666667  0.33333333  0.20410433  1
  Ba  Ba1  1  0.00000000  0.00000000  0.12922900  1
  Ba  Ba2  1  0.66666667  0.33333333  0.28092733  1
  Ba  Ba3  1  0.00000000  0.00000000  0.05240600  1
  Ba  Ba4  1  0.33333333  0.66666667  0.16666667  1
  Ba  Ba5  1  0.33333333  0.66666667  0.30738267  1
  Ba  Ba6  1  0.33333333  0.66666667  0.02595067  1
  Ba  Ba7  1  0.33333333  0.66666667  0.53743767  1
  Ba  Ba8  1  0.66666667  0.33333333  0.46256233  1
  Ba  Ba9  1  0.33333333  0.66666667  0.61426067  1
  Ba  Ba10  1  0.66666667  0.33333333  0.38573933  1
  Ba  Ba11  1  1.00000000  1.00000000  0.50000000  1
  Ba  Ba12  1  0.00000000  0.00000000  0.64071600  1
  Ba  Ba13  1  0.00000000  0.00000000  0.35928400  1
  Ba  Ba14  1  0.00000000  0.00000000  0.87077100  1
  Ba  Ba15  1  0.33333333  0.66666667  0.79589567  1
  Ba  Ba16  1  0.00000000  0.00000000  0.94759400  1
  Ba  Ba17  1  0.33333333  0.66666667  0.71907267  1
  Ba  Ba18  1  0.66666667  0.33333333  0.83333333  1
  Ba  Ba19  1  0.66666667  0.33333333  0.97404933  1
  Ba  Ba20  1  0.66666667  0.33333333  0.69261733  1
  Al  Al21  1  0.66666667  0.33333333  0.04938433  1
  Al  Al22  1  0.00000000  0.00000000  0.28394900  1
  Al  Al23  1  0.66666667  0.33333333  0.13235733  1
  Al  Al24  1  0.00000000  0.00000000  0.20097600  1
  Al  Al25  1  0.17426467  0.82573533  0.24220333  1
  Al  Al26  1  0.17426467  0.34852933  0.24220333  1
  Al  Al27  1  0.65147067  0.82573533  0.24220333  1
  Al  Al28  1  0.49240200  0.50759800  0.09113000  1
  Al  Al29  1  0.49240200  0.98480400  0.09113000  1
  Al  Al30  1  0.01519600  0.50759800  0.09113000  1
  Al  Al31  1  0.33333333  0.66666667  0.38271767  1
  Al  Al32  1  0.66666667  0.33333333  0.61728233  1
  Al  Al33  1  0.33333333  0.66666667  0.46569067  1
  Al  Al34  1  0.66666667  0.33333333  0.53430933  1
  Al  Al35  1  0.84093133  0.15906867  0.57553667  1
  Al  Al36  1  0.84093133  0.68186267  0.57553667  1
  Al  Al37  1  0.31813733  0.15906867  0.57553667  1
  Al  Al38  1  0.15906867  0.84093133  0.42446333  1
  Al  Al39  1  0.15906867  0.31813733  0.42446333  1
  Al  Al40  1  0.68186267  0.84093133  0.42446333  1
  Al  Al41  1  0.00000000  0.00000000  0.71605100  1
  Al  Al42  1  0.33333333  0.66666667  0.95061567  1
  Al  Al43  1  0.00000000  0.00000000  0.79902400  1
  Al  Al44  1  0.33333333  0.66666667  0.86764267  1
  Al  Al45  1  0.50759800  0.49240200  0.90887000  1
  Al  Al46  1  0.50759800  0.01519600  0.90887000  1
  Al  Al47  1  0.98480400  0.49240200  0.90887000  1
  Al  Al48  1  0.82573533  0.17426467  0.75779667  1
  Al  Al49  1  0.82573533  0.65147067  0.75779667  1
  Al  Al50  1  0.34852933  0.17426467  0.75779667  1
