# generated using pymatgen
data_NaFeBP2H3O10
_symmetry_space_group_name_H-M   'P 1'
_cell_length_a   10.52201800
_cell_length_b   8.32430400
_cell_length_c   9.27992590
_cell_angle_alpha   90.00000000
_cell_angle_beta   116.12819950
_cell_angle_gamma   90.00000000
_symmetry_Int_Tables_number   1
_chemical_formula_structural   NaFeBP2H3O10
_chemical_formula_sum   'Na4 Fe4 B4 P8 H12 O40'
_cell_volume   729.75381520
_cell_formula_units_Z   4
loop_
 _symmetry_equiv_pos_site_id
 _symmetry_equiv_pos_as_xyz
  1  'x, y, z'
loop_
 _atom_site_type_symbol
 _atom_site_label
 _atom_site_symmetry_multiplicity
 _atom_site_fract_x
 _atom_site_fract_y
 _atom_site_fract_z
 _atom_site_occupancy
  Na  Na0  1  0.00000000  0.13165300  0.75000000  1
  Na  Na1  1  0.00000000  0.86834700  0.25000000  1
  Na  Na2  1  0.50000000  0.63165300  0.75000000  1
  Na  Na3  1  0.50000000  0.36834700  0.25000000  1
  Fe  Fe4  1  0.25000000  0.75000000  0.00000000  1
  Fe  Fe5  1  0.75000000  0.75000000  0.50000000  1
  Fe  Fe6  1  0.75000000  0.25000000  0.00000000  1
  Fe  Fe7  1  0.25000000  0.25000000  0.50000000  1
  B  B8  1  0.00000000  0.52717500  0.75000000  1
  B  B9  1  0.00000000  0.47282500  0.25000000  1
  B  B10  1  0.50000000  0.02717500  0.75000000  1
  B  B11  1  0.50000000  0.97282500  0.25000000  1
  P  P12  1  0.72312850  0.43132050  0.67627400  1
  P  P13  1  0.27687150  0.43132050  0.82372600  1
  P  P14  1  0.27687150  0.56867950  0.32372600  1
  P  P15  1  0.72312850  0.56867950  0.17627400  1
  P  P16  1  0.22312850  0.93132050  0.67627400  1
  P  P17  1  0.77687150  0.93132050  0.82372600  1
  P  P18  1  0.77687150  0.06867950  0.32372600  1
  P  P19  1  0.22312850  0.06867950  0.17627400  1
  H  H20  1  0.98514500  0.67526300  0.92250500  1
  H  H21  1  0.01485500  0.67526300  0.57749500  1
  H  H22  1  0.01485500  0.32473700  0.07749500  1
  H  H23  1  0.98514500  0.32473700  0.42250500  1
  H  H24  1  0.25000000  0.75000000  0.50000000  1
  H  H25  1  0.75000000  0.75000000  0.00000000  1
  H  H26  1  0.48514500  0.17526300  0.92250500  1
  H  H27  1  0.51485500  0.17526300  0.57749500  1
  H  H28  1  0.51485500  0.82473700  0.07749500  1
  H  H29  1  0.48514500  0.82473700  0.42250500  1
  H  H30  1  0.75000000  0.25000000  0.50000000  1
  H  H31  1  0.25000000  0.25000000  0.00000000  1
  O  O32  1  0.88893400  0.41914000  0.74912200  1
  O  O33  1  0.11106600  0.41914000  0.75087800  1
  O  O34  1  0.11106600  0.58086000  0.25087800  1
  O  O35  1  0.88893400  0.58086000  0.24912200  1
  O  O36  1  0.83665250  0.19915850  0.45783700  1
  O  O37  1  0.16334750  0.19915850  0.04216300  1
  O  O38  1  0.16334750  0.80084150  0.54216300  1
  O  O39  1  0.83665250  0.80084150  0.95783700  1
  O  O40  1  0.32711150  0.60140850  0.89056400  1
  O  O41  1  0.67288850  0.60140850  0.60943600  1
  O  O42  1  0.67288850  0.39859150  0.10943600  1
  O  O43  1  0.32711150  0.39859150  0.39056400  1
  O  O44  1  0.67497850  0.39978950  0.80722100  1
  O  O45  1  0.32502150  0.39978950  0.69277900  1
  O  O46  1  0.32502150  0.60021050  0.19277900  1
  O  O47  1  0.67497850  0.60021050  0.30722100  1
  O  O48  1  0.05888950  0.62598650  0.89853200  1
  O  O49  1  0.94111050  0.62598650  0.60146800  1
  O  O50  1  0.94111050  0.37401350  0.10146800  1
  O  O51  1  0.05888950  0.37401350  0.39853200  1
  O  O52  1  0.38893400  0.91914000  0.74912200  1
  O  O53  1  0.61106600  0.91914000  0.75087800  1
  O  O54  1  0.61106600  0.08086000  0.25087800  1
  O  O55  1  0.38893400  0.08086000  0.24912200  1
  O  O56  1  0.33665250  0.69915850  0.45783700  1
  O  O57  1  0.66334750  0.69915850  0.04216300  1
  O  O58  1  0.66334750  0.30084150  0.54216300  1
  O  O59  1  0.33665250  0.30084150  0.95783700  1
  O  O60  1  0.82711150  0.10140850  0.89056400  1
  O  O61  1  0.17288850  0.10140850  0.60943600  1
  O  O62  1  0.17288850  0.89859150  0.10943600  1
  O  O63  1  0.82711150  0.89859150  0.39056400  1
  O  O64  1  0.17497850  0.89978950  0.80722100  1
  O  O65  1  0.82502150  0.89978950  0.69277900  1
  O  O66  1  0.82502150  0.10021050  0.19277900  1
  O  O67  1  0.17497850  0.10021050  0.30722100  1
  O  O68  1  0.55888950  0.12598650  0.89853200  1
  O  O69  1  0.44111050  0.12598650  0.60146800  1
  O  O70  1  0.44111050  0.87401350  0.10146800  1
  O  O71  1  0.55888950  0.87401350  0.39853200  1
