# generated using pymatgen
data_CeCrS2O
_symmetry_space_group_name_H-M   'P 1'
_cell_length_a   11.30370000
_cell_length_b   3.77807200
_cell_length_c   8.02688650
_cell_angle_alpha   90.00000000
_cell_angle_beta   90.21498228
_cell_angle_gamma   90.00000000
_symmetry_Int_Tables_number   1
_chemical_formula_structural   CeCrS2O
_chemical_formula_sum   'Ce4 Cr4 S8 O4'
_cell_volume   342.79534688
_cell_formula_units_Z   4
loop_
 _symmetry_equiv_pos_site_id
 _symmetry_equiv_pos_as_xyz
  1  'x, y, z'
loop_
 _atom_site_type_symbol
 _atom_site_label
 _atom_site_symmetry_multiplicity
 _atom_site_fract_x
 _atom_site_fract_y
 _atom_site_fract_z
 _atom_site_occupancy
  Ce  Ce0  1  0.73468200  0.00000000  0.70661300  1
  Ce  Ce1  1  0.76531800  0.50000000  0.29338700  1
  Ce  Ce2  1  0.23468200  0.50000000  0.70661300  1
  Ce  Ce3  1  0.26531800  0.00000000  0.29338700  1
  Cr  Cr4  1  0.00000000  0.00000000  0.50000000  1
  Cr  Cr5  1  0.00000000  0.50000000  0.00000000  1
  Cr  Cr6  1  0.50000000  0.50000000  0.50000000  1
  Cr  Cr7  1  0.50000000  0.00000000  0.00000000  1
  S  S8  1  0.95120400  0.50000000  0.70228900  1
  S  S9  1  0.85875900  0.00000000  0.03477700  1
  S  S10  1  0.64124100  0.50000000  0.96522300  1
  S  S11  1  0.54879600  0.00000000  0.29771100  1
  S  S12  1  0.45120400  0.00000000  0.70228900  1
  S  S13  1  0.35875900  0.50000000  0.03477700  1
  S  S14  1  0.14124100  0.00000000  0.96522300  1
  S  S15  1  0.04879600  0.50000000  0.29771100  1
  O  O16  1  0.67361200  0.50000000  0.56682000  1
  O  O17  1  0.82638800  0.00000000  0.43318000  1
  O  O18  1  0.17361200  0.00000000  0.56682000  1
  O  O19  1  0.32638800  0.50000000  0.43318000  1
