# generated using pymatgen
data_Na2YbMoPO8
_symmetry_space_group_name_H-M   'P 1'
_cell_length_a   6.97915600
_cell_length_b   12.29368800
_cell_length_c   18.22570200
_cell_angle_alpha   90.00000000
_cell_angle_beta   90.00000000
_cell_angle_gamma   90.00000000
_symmetry_Int_Tables_number   1
_chemical_formula_structural   Na2YbMoPO8
_chemical_formula_sum   'Na16 Yb8 Mo8 P8 O64'
_cell_volume   1563.75732834
_cell_formula_units_Z   8
loop_
 _symmetry_equiv_pos_site_id
 _symmetry_equiv_pos_as_xyz
  1  'x, y, z'
loop_
 _atom_site_type_symbol
 _atom_site_label
 _atom_site_symmetry_multiplicity
 _atom_site_fract_x
 _atom_site_fract_y
 _atom_site_fract_z
 _atom_site_occupancy
  Na  Na0  1  0.49251950  0.56519950  0.15055050  1
  Na  Na1  1  0.49251950  0.43480050  0.34944950  1
  Na  Na2  1  0.50748050  0.43480050  0.84944950  1
  Na  Na3  1  0.99251950  0.56519950  0.34944950  1
  Na  Na4  1  0.99251950  0.43480050  0.15055050  1
  Na  Na5  1  0.00748050  0.43480050  0.65055050  1
  Na  Na6  1  0.50748050  0.56519950  0.65055050  1
  Na  Na7  1  0.00748050  0.56519950  0.84944950  1
  Na  Na8  1  0.99251950  0.06519950  0.65055050  1
  Na  Na9  1  0.99251950  0.93480050  0.84944950  1
  Na  Na10  1  0.00748050  0.93480050  0.34944950  1
  Na  Na11  1  0.49251950  0.06519950  0.84944950  1
  Na  Na12  1  0.49251950  0.93480050  0.65055050  1
  Na  Na13  1  0.50748050  0.93480050  0.15055050  1
  Na  Na14  1  0.00748050  0.06519950  0.15055050  1
  Na  Na15  1  0.50748050  0.06519950  0.34944950  1
  Yb  Yb16  1  0.25000000  0.81909200  0.00000000  1
  Yb  Yb17  1  0.75000000  0.68090800  0.00000000  1
  Yb  Yb18  1  0.25000000  0.31909200  0.00000000  1
  Yb  Yb19  1  0.75000000  0.18090800  0.00000000  1
  Yb  Yb20  1  0.75000000  0.31909200  0.50000000  1
  Yb  Yb21  1  0.25000000  0.18090800  0.50000000  1
  Yb  Yb22  1  0.75000000  0.81909200  0.50000000  1
  Yb  Yb23  1  0.25000000  0.68090800  0.50000000  1
  Mo  Mo24  1  0.00000000  0.25000000  0.82171200  1
  Mo  Mo25  1  0.00000000  0.75000000  0.17828800  1
  Mo  Mo26  1  0.50000000  0.25000000  0.17828800  1
  Mo  Mo27  1  0.50000000  0.75000000  0.82171200  1
  Mo  Mo28  1  0.50000000  0.75000000  0.32171200  1
  Mo  Mo29  1  0.50000000  0.25000000  0.67828800  1
  Mo  Mo30  1  0.00000000  0.75000000  0.67828800  1
  Mo  Mo31  1  0.00000000  0.25000000  0.32171200  1
  P  P32  1  0.75000000  0.93227000  0.00000000  1
  P  P33  1  0.75000000  0.43227000  0.00000000  1
  P  P34  1  0.25000000  0.06773000  0.00000000  1
  P  P35  1  0.25000000  0.56773000  0.00000000  1
  P  P36  1  0.25000000  0.43227000  0.50000000  1
  P  P37  1  0.25000000  0.93227000  0.50000000  1
  P  P38  1  0.75000000  0.56773000  0.50000000  1
  P  P39  1  0.75000000  0.06773000  0.50000000  1
  O  O40  1  0.07489200  0.14396100  0.01091000  1
  O  O41  1  0.92510800  0.85603900  0.98909000  1
  O  O42  1  0.26734500  0.50527200  0.56871500  1
  O  O43  1  0.73265500  0.49472800  0.43128500  1
  O  O44  1  0.23265500  0.49472800  0.06871500  1
  O  O45  1  0.57489200  0.85603900  0.01091000  1
  O  O46  1  0.53701150  0.36998950  0.23233350  1
  O  O47  1  0.29014950  0.27230650  0.12225850  1
  O  O48  1  0.42510800  0.14396100  0.98909000  1
  O  O49  1  0.73265500  0.50527200  0.06871500  1
  O  O50  1  0.53701150  0.63001050  0.26766650  1
  O  O51  1  0.20985050  0.77230650  0.12225850  1
  O  O52  1  0.76734500  0.50527200  0.93128500  1
  O  O53  1  0.79014950  0.22769350  0.87774150  1
  O  O54  1  0.92510800  0.35603900  0.01091000  1
  O  O55  1  0.70985050  0.72769350  0.87774150  1
  O  O56  1  0.79014950  0.72769350  0.12225850  1
  O  O57  1  0.20985050  0.27230650  0.87774150  1
  O  O58  1  0.03701150  0.36998950  0.26766650  1
  O  O59  1  0.96298850  0.36998950  0.76766650  1
  O  O60  1  0.29014950  0.77230650  0.87774150  1
  O  O61  1  0.07489200  0.64396100  0.98909000  1
  O  O62  1  0.76734500  0.49472800  0.56871500  1
  O  O63  1  0.46298850  0.36998950  0.73233350  1
  O  O64  1  0.96298850  0.63001050  0.73233350  1
  O  O65  1  0.46298850  0.63001050  0.76766650  1
  O  O66  1  0.57489200  0.35603900  0.98909000  1
  O  O67  1  0.42510800  0.64396100  0.01091000  1
  O  O68  1  0.26734500  0.49472800  0.93128500  1
  O  O69  1  0.03701150  0.63001050  0.23233350  1
  O  O70  1  0.23265500  0.50527200  0.43128500  1
  O  O71  1  0.70985050  0.22769350  0.12225850  1
  O  O72  1  0.57489200  0.64396100  0.51091000  1
  O  O73  1  0.42510800  0.35603900  0.48909000  1
  O  O74  1  0.76734500  0.00527200  0.06871500  1
  O  O75  1  0.23265500  0.99472800  0.93128500  1
  O  O76  1  0.73265500  0.99472800  0.56871500  1
  O  O77  1  0.07489200  0.35603900  0.51091000  1
  O  O78  1  0.03701150  0.86998950  0.73233350  1
  O  O79  1  0.79014950  0.77230650  0.62225850  1
  O  O80  1  0.92510800  0.64396100  0.48909000  1
  O  O81  1  0.23265500  0.00527200  0.56871500  1
  O  O82  1  0.03701150  0.13001050  0.76766650  1
  O  O83  1  0.70985050  0.27230650  0.62225850  1
  O  O84  1  0.26734500  0.00527200  0.43128500  1
  O  O85  1  0.29014950  0.72769350  0.37774150  1
  O  O86  1  0.42510800  0.85603900  0.51091000  1
  O  O87  1  0.20985050  0.22769350  0.37774150  1
  O  O88  1  0.29014950  0.22769350  0.62225850  1
  O  O89  1  0.70985050  0.77230650  0.37774150  1
  O  O90  1  0.53701150  0.86998950  0.76766650  1
  O  O91  1  0.46298850  0.86998950  0.26766650  1
  O  O92  1  0.79014950  0.27230650  0.37774150  1
  O  O93  1  0.57489200  0.14396100  0.48909000  1
  O  O94  1  0.26734500  0.99472800  0.06871500  1
  O  O95  1  0.96298850  0.86998950  0.23233350  1
  O  O96  1  0.46298850  0.13001050  0.23233350  1
  O  O97  1  0.96298850  0.13001050  0.26766650  1
  O  O98  1  0.07489200  0.85603900  0.48909000  1
  O  O99  1  0.92510800  0.14396100  0.51091000  1
  O  O100  1  0.76734500  0.99472800  0.43128500  1
  O  O101  1  0.53701150  0.13001050  0.73233350  1
  O  O102  1  0.73265500  0.00527200  0.93128500  1
  O  O103  1  0.20985050  0.72769350  0.62225850  1
