# generated using pymatgen
data_MnGaH4O2F5
_symmetry_space_group_name_H-M   'P 1'
_cell_length_a   6.66506346
_cell_length_b   7.63977555
_cell_length_c   10.97537406
_cell_angle_alpha   90.00000000
_cell_angle_beta   90.00000000
_cell_angle_gamma   90.00000000
_symmetry_Int_Tables_number   1
_chemical_formula_structural   MnGaH4O2F5
_chemical_formula_sum   'Mn4 Ga4 H16 O8 F20'
_cell_volume   558.86153515
_cell_formula_units_Z   4
loop_
 _symmetry_equiv_pos_site_id
 _symmetry_equiv_pos_as_xyz
  1  'x, y, z'
loop_
 _atom_site_type_symbol
 _atom_site_label
 _atom_site_symmetry_multiplicity
 _atom_site_fract_x
 _atom_site_fract_y
 _atom_site_fract_z
 _atom_site_occupancy
  Mn  Mn0  1  0.50000000  0.50000000  0.50000000  1
  Mn  Mn1  1  0.00000000  0.00000000  0.50000000  1
  Mn  Mn2  1  0.00000000  0.00000000  0.00000000  1
  Mn  Mn3  1  0.50000000  0.50000000  0.00000000  1
  Ga  Ga4  1  0.25000000  0.25000000  0.75000000  1
  Ga  Ga5  1  0.25000000  0.75000000  0.75000000  1
  Ga  Ga6  1  0.75000000  0.75000000  0.25000000  1
  Ga  Ga7  1  0.75000000  0.25000000  0.25000000  1
  H  H8  1  0.11786600  0.60273000  0.40294300  1
  H  H9  1  0.61786600  0.89727000  0.59705700  1
  H  H10  1  0.88213400  0.60273000  0.59705700  1
  H  H11  1  0.38213400  0.89727000  0.40294300  1
  H  H12  1  0.88213400  0.39727000  0.59705700  1
  H  H13  1  0.38213400  0.10273000  0.40294300  1
  H  H14  1  0.11786600  0.39727000  0.40294300  1
  H  H15  1  0.61786600  0.10273000  0.59705700  1
  H  H16  1  0.61786600  0.10273000  0.90294300  1
  H  H17  1  0.11786600  0.39727000  0.09705700  1
  H  H18  1  0.38213400  0.10273000  0.09705700  1
  H  H19  1  0.88213400  0.39727000  0.90294300  1
  H  H20  1  0.38213400  0.89727000  0.09705700  1
  H  H21  1  0.88213400  0.60273000  0.90294300  1
  H  H22  1  0.61786600  0.89727000  0.90294300  1
  H  H23  1  0.11786600  0.60273000  0.09705700  1
  O  O24  1  0.29967650  0.00000000  0.07693650  1
  O  O25  1  0.29967650  0.00000000  0.42306350  1
  O  O26  1  0.70032350  0.00000000  0.92306350  1
  O  O27  1  0.70032350  0.00000000  0.57693650  1
  O  O28  1  0.79967650  0.50000000  0.57693650  1
  O  O29  1  0.79967650  0.50000000  0.92306350  1
  O  O30  1  0.20032350  0.50000000  0.42306350  1
  O  O31  1  0.20032350  0.50000000  0.07693650  1
  F  F32  1  0.31492800  0.00000000  0.75000000  1
  F  F33  1  0.68507200  0.00000000  0.25000000  1
  F  F34  1  0.44772550  0.28485550  0.62626450  1
  F  F35  1  0.94772550  0.21514450  0.37373550  1
  F  F36  1  0.55227450  0.28485550  0.37373550  1
  F  F37  1  0.05227450  0.21514450  0.62626450  1
  F  F38  1  0.55227450  0.71514450  0.37373550  1
  F  F39  1  0.05227450  0.78485550  0.62626450  1
  F  F40  1  0.44772550  0.71514450  0.62626450  1
  F  F41  1  0.94772550  0.78485550  0.37373550  1
  F  F42  1  0.81492800  0.50000000  0.25000000  1
  F  F43  1  0.18507200  0.50000000  0.75000000  1
  F  F44  1  0.94772550  0.78485550  0.12626450  1
  F  F45  1  0.44772550  0.71514450  0.87373550  1
  F  F46  1  0.05227450  0.78485550  0.87373550  1
  F  F47  1  0.55227450  0.71514450  0.12626450  1
  F  F48  1  0.05227450  0.21514450  0.87373550  1
  F  F49  1  0.55227450  0.28485550  0.12626450  1
  F  F50  1  0.94772550  0.21514450  0.12626450  1
  F  F51  1  0.44772550  0.28485550  0.87373550  1
