# generated using pymatgen
data_Cd3As2
_symmetry_space_group_name_H-M   'P 1'
_cell_length_a   12.90774200
_cell_length_b   12.90774200
_cell_length_c   25.98342600
_cell_angle_alpha   90.00000000
_cell_angle_beta   90.00000000
_cell_angle_gamma   90.00000000
_symmetry_Int_Tables_number   1
_chemical_formula_structural   Cd3As2
_chemical_formula_sum   'Cd96 As64'
_cell_volume   4329.09350112
_cell_formula_units_Z   32
loop_
 _symmetry_equiv_pos_site_id
 _symmetry_equiv_pos_as_xyz
  1  'x, y, z'
loop_
 _atom_site_type_symbol
 _atom_site_label
 _atom_site_symmetry_multiplicity
 _atom_site_fract_x
 _atom_site_fract_y
 _atom_site_fract_z
 _atom_site_occupancy
  Cd  Cd0  1  0.11928900  0.13961700  0.32251000  1
  Cd  Cd1  1  0.38071100  0.63961700  0.32251000  1
  Cd  Cd2  1  0.13961700  0.61928900  0.07251000  1
  Cd  Cd3  1  0.36038300  0.11928900  0.07251000  1
  Cd  Cd4  1  0.38071100  0.86038300  0.42749000  1
  Cd  Cd5  1  0.11928900  0.36038300  0.42749000  1
  Cd  Cd6  1  0.86038300  0.88071100  0.17749000  1
  Cd  Cd7  1  0.63961700  0.38071100  0.17749000  1
  Cd  Cd8  1  0.61928900  0.36038300  0.32251000  1
  Cd  Cd9  1  0.88071100  0.86038300  0.32251000  1
  Cd  Cd10  1  0.63961700  0.88071100  0.07251000  1
  Cd  Cd11  1  0.86038300  0.38071100  0.07251000  1
  Cd  Cd12  1  0.88071100  0.63961700  0.42749000  1
  Cd  Cd13  1  0.61928900  0.13961700  0.42749000  1
  Cd  Cd14  1  0.36038300  0.61928900  0.17749000  1
  Cd  Cd15  1  0.13961700  0.11928900  0.17749000  1
  Cd  Cd16  1  0.39236750  0.11167750  0.30244150  1
  Cd  Cd17  1  0.10763250  0.61167750  0.30244150  1
  Cd  Cd18  1  0.11167750  0.89236750  0.05244150  1
  Cd  Cd19  1  0.38832250  0.39236750  0.05244150  1
  Cd  Cd20  1  0.10763250  0.88832250  0.44755850  1
  Cd  Cd21  1  0.39236750  0.38832250  0.44755850  1
  Cd  Cd22  1  0.88832250  0.60763250  0.19755850  1
  Cd  Cd23  1  0.61167750  0.10763250  0.19755850  1
  Cd  Cd24  1  0.89236750  0.38832250  0.30244150  1
  Cd  Cd25  1  0.60763250  0.88832250  0.30244150  1
  Cd  Cd26  1  0.61167750  0.60763250  0.05244150  1
  Cd  Cd27  1  0.88832250  0.10763250  0.05244150  1
  Cd  Cd28  1  0.60763250  0.61167750  0.44755850  1
  Cd  Cd29  1  0.89236750  0.11167750  0.44755850  1
  Cd  Cd30  1  0.38832250  0.89236750  0.19755850  1
  Cd  Cd31  1  0.11167750  0.39236750  0.19755850  1
  Cd  Cd32  1  0.85567000  0.11875200  0.31248700  1
  Cd  Cd33  1  0.64433000  0.61875200  0.31248700  1
  Cd  Cd34  1  0.11875200  0.35567000  0.06248700  1
  Cd  Cd35  1  0.38124800  0.85567000  0.06248700  1
  Cd  Cd36  1  0.64433000  0.88124800  0.43751300  1
  Cd  Cd37  1  0.85567000  0.38124800  0.43751300  1
  Cd  Cd38  1  0.88124800  0.14433000  0.18751300  1
  Cd  Cd39  1  0.61875200  0.64433000  0.18751300  1
  Cd  Cd40  1  0.35567000  0.38124800  0.31248700  1
  Cd  Cd41  1  0.14433000  0.88124800  0.31248700  1
  Cd  Cd42  1  0.61875200  0.14433000  0.06248700  1
  Cd  Cd43  1  0.88124800  0.64433000  0.06248700  1
  Cd  Cd44  1  0.14433000  0.61875200  0.43751300  1
  Cd  Cd45  1  0.35567000  0.11875200  0.43751300  1
  Cd  Cd46  1  0.38124800  0.35567000  0.18751300  1
  Cd  Cd47  1  0.11875200  0.85567000  0.18751300  1
  Cd  Cd48  1  0.61928900  0.63961700  0.82251000  1
  Cd  Cd49  1  0.88071100  0.13961700  0.82251000  1
  Cd  Cd50  1  0.63961700  0.11928900  0.57251000  1
  Cd  Cd51  1  0.86038300  0.61928900  0.57251000  1
  Cd  Cd52  1  0.88071100  0.36038300  0.92749000  1
  Cd  Cd53  1  0.61928900  0.86038300  0.92749000  1
  Cd  Cd54  1  0.36038300  0.38071100  0.67749000  1
  Cd  Cd55  1  0.13961700  0.88071100  0.67749000  1
  Cd  Cd56  1  0.11928900  0.86038300  0.82251000  1
  Cd  Cd57  1  0.38071100  0.36038300  0.82251000  1
  Cd  Cd58  1  0.13961700  0.38071100  0.57251000  1
  Cd  Cd59  1  0.36038300  0.88071100  0.57251000  1
  Cd  Cd60  1  0.38071100  0.13961700  0.92749000  1
  Cd  Cd61  1  0.11928900  0.63961700  0.92749000  1
  Cd  Cd62  1  0.86038300  0.11928900  0.67749000  1
  Cd  Cd63  1  0.63961700  0.61928900  0.67749000  1
  Cd  Cd64  1  0.89236750  0.61167750  0.80244150  1
  Cd  Cd65  1  0.60763250  0.11167750  0.80244150  1
  Cd  Cd66  1  0.61167750  0.39236750  0.55244150  1
  Cd  Cd67  1  0.88832250  0.89236750  0.55244150  1
  Cd  Cd68  1  0.60763250  0.38832250  0.94755850  1
  Cd  Cd69  1  0.89236750  0.88832250  0.94755850  1
  Cd  Cd70  1  0.38832250  0.10763250  0.69755850  1
  Cd  Cd71  1  0.11167750  0.60763250  0.69755850  1
  Cd  Cd72  1  0.39236750  0.88832250  0.80244150  1
  Cd  Cd73  1  0.10763250  0.38832250  0.80244150  1
  Cd  Cd74  1  0.11167750  0.10763250  0.55244150  1
  Cd  Cd75  1  0.38832250  0.60763250  0.55244150  1
  Cd  Cd76  1  0.10763250  0.11167750  0.94755850  1
  Cd  Cd77  1  0.39236750  0.61167750  0.94755850  1
  Cd  Cd78  1  0.88832250  0.39236750  0.69755850  1
  Cd  Cd79  1  0.61167750  0.89236750  0.69755850  1
  Cd  Cd80  1  0.35567000  0.61875200  0.81248700  1
  Cd  Cd81  1  0.14433000  0.11875200  0.81248700  1
  Cd  Cd82  1  0.61875200  0.85567000  0.56248700  1
  Cd  Cd83  1  0.88124800  0.35567000  0.56248700  1
  Cd  Cd84  1  0.14433000  0.38124800  0.93751300  1
  Cd  Cd85  1  0.35567000  0.88124800  0.93751300  1
  Cd  Cd86  1  0.38124800  0.64433000  0.68751300  1
  Cd  Cd87  1  0.11875200  0.14433000  0.68751300  1
  Cd  Cd88  1  0.85567000  0.88124800  0.81248700  1
  Cd  Cd89  1  0.64433000  0.38124800  0.81248700  1
  Cd  Cd90  1  0.11875200  0.64433000  0.56248700  1
  Cd  Cd91  1  0.38124800  0.14433000  0.56248700  1
  Cd  Cd92  1  0.64433000  0.11875200  0.93751300  1
  Cd  Cd93  1  0.85567000  0.61875200  0.93751300  1
  Cd  Cd94  1  0.88124800  0.85567000  0.68751300  1
  Cd  Cd95  1  0.61875200  0.35567000  0.68751300  1
  As  As96  1  0.00769200  0.24564800  0.25187700  1
  As  As97  1  0.49230800  0.74564800  0.25187700  1
  As  As98  1  0.24564800  0.50769200  0.00187700  1
  As  As99  1  0.25435200  0.00769200  0.00187700  1
  As  As100  1  0.49230800  0.75435200  0.49812300  1
  As  As101  1  0.00769200  0.25435200  0.49812300  1
  As  As102  1  0.75435200  0.99230800  0.24812300  1
  As  As103  1  0.74564800  0.49230800  0.24812300  1
  As  As104  1  0.50769200  0.25435200  0.25187700  1
  As  As105  1  0.99230800  0.75435200  0.25187700  1
  As  As106  1  0.74564800  0.99230800  0.00187700  1
  As  As107  1  0.75435200  0.49230800  0.00187700  1
  As  As108  1  0.99230800  0.74564800  0.49812300  1
  As  As109  1  0.50769200  0.24564800  0.49812300  1
  As  As110  1  0.25435200  0.50769200  0.24812300  1
  As  As111  1  0.24564800  0.00769200  0.24812300  1
  As  As112  1  0.00000000  0.00000000  0.37549250  1
  As  As113  1  0.50000000  0.50000000  0.37549250  1
  As  As114  1  0.00000000  0.50000000  0.12549250  1
  As  As115  1  0.50000000  0.00000000  0.12549250  1
  As  As116  1  0.50000000  0.00000000  0.37450750  1
  As  As117  1  0.00000000  0.50000000  0.37450750  1
  As  As118  1  0.00000000  0.00000000  0.12450750  1
  As  As119  1  0.50000000  0.50000000  0.12450750  1
  As  As120  1  0.26079250  0.25000000  0.37500000  1
  As  As121  1  0.23920750  0.75000000  0.37500000  1
  As  As122  1  0.25000000  0.76079250  0.12500000  1
  As  As123  1  0.25000000  0.26079250  0.12500000  1
  As  As124  1  0.75000000  0.73920750  0.12500000  1
  As  As125  1  0.75000000  0.23920750  0.12500000  1
  As  As126  1  0.76079250  0.25000000  0.37500000  1
  As  As127  1  0.73920750  0.75000000  0.37500000  1
  As  As128  1  0.50769200  0.74564800  0.75187700  1
  As  As129  1  0.99230800  0.24564800  0.75187700  1
  As  As130  1  0.74564800  0.00769200  0.50187700  1
  As  As131  1  0.75435200  0.50769200  0.50187700  1
  As  As132  1  0.99230800  0.25435200  0.99812300  1
  As  As133  1  0.50769200  0.75435200  0.99812300  1
  As  As134  1  0.25435200  0.49230800  0.74812300  1
  As  As135  1  0.24564800  0.99230800  0.74812300  1
  As  As136  1  0.00769200  0.75435200  0.75187700  1
  As  As137  1  0.49230800  0.25435200  0.75187700  1
  As  As138  1  0.24564800  0.49230800  0.50187700  1
  As  As139  1  0.25435200  0.99230800  0.50187700  1
  As  As140  1  0.49230800  0.24564800  0.99812300  1
  As  As141  1  0.00769200  0.74564800  0.99812300  1
  As  As142  1  0.75435200  0.00769200  0.74812300  1
  As  As143  1  0.74564800  0.50769200  0.74812300  1
  As  As144  1  0.50000000  0.50000000  0.87549250  1
  As  As145  1  0.00000000  0.00000000  0.87549250  1
  As  As146  1  0.50000000  0.00000000  0.62549250  1
  As  As147  1  0.00000000  0.50000000  0.62549250  1
  As  As148  1  0.00000000  0.50000000  0.87450750  1
  As  As149  1  0.50000000  0.00000000  0.87450750  1
  As  As150  1  0.50000000  0.50000000  0.62450750  1
  As  As151  1  0.00000000  0.00000000  0.62450750  1
  As  As152  1  0.76079250  0.75000000  0.87500000  1
  As  As153  1  0.73920750  0.25000000  0.87500000  1
  As  As154  1  0.75000000  0.26079250  0.62500000  1
  As  As155  1  0.75000000  0.76079250  0.62500000  1
  As  As156  1  0.25000000  0.23920750  0.62500000  1
  As  As157  1  0.25000000  0.73920750  0.62500000  1
  As  As158  1  0.26079250  0.75000000  0.87500000  1
  As  As159  1  0.23920750  0.25000000  0.87500000  1
