# generated using pymatgen
data_La6Mo8O33
_symmetry_space_group_name_H-M   'P 1'
_cell_length_a   10.87511100
_cell_length_b   12.15245400
_cell_length_c   11.95181445
_cell_angle_alpha   90.00000000
_cell_angle_beta   116.04271146
_cell_angle_gamma   90.00000000
_symmetry_Int_Tables_number   1
_chemical_formula_structural   La6Mo8O33
_chemical_formula_sum   'La12 Mo16 O66'
_cell_volume   1419.16751646
_cell_formula_units_Z   2
loop_
 _symmetry_equiv_pos_site_id
 _symmetry_equiv_pos_as_xyz
  1  'x, y, z'
loop_
 _atom_site_type_symbol
 _atom_site_label
 _atom_site_symmetry_multiplicity
 _atom_site_fract_x
 _atom_site_fract_y
 _atom_site_fract_z
 _atom_site_occupancy
  La  La0  1  0.83961200  0.00066000  0.88512200  1
  La  La1  1  0.16038800  0.50066000  0.11487800  1
  La  La2  1  0.56791000  0.74912700  0.87552300  1
  La  La3  1  0.43209000  0.24912700  0.12447700  1
  La  La4  1  0.28247100  0.99220800  0.89060500  1
  La  La5  1  0.71752900  0.49220800  0.10939500  1
  La  La6  1  0.94712700  0.49901400  0.65818300  1
  La  La7  1  0.05287300  0.99901400  0.34181700  1
  La  La8  1  0.67618200  0.24513000  0.61297400  1
  La  La9  1  0.32381800  0.74513000  0.38702600  1
  La  La10  1  0.19479900  0.24505600  0.63432200  1
  La  La11  1  0.80520100  0.74505600  0.36567800  1
  Mo  Mo12  1  0.81759600  0.49014100  0.87209100  1
  Mo  Mo13  1  0.18240400  0.99014100  0.12790900  1
  Mo  Mo14  1  0.56535300  0.23351700  0.87643100  1
  Mo  Mo15  1  0.43464700  0.73351700  0.12356900  1
  Mo  Mo16  1  0.32974400  0.48729400  0.88221500  1
  Mo  Mo17  1  0.67025600  0.98729400  0.11778500  1
  Mo  Mo18  1  0.06409200  0.21644000  0.87489800  1
  Mo  Mo19  1  0.93590800  0.71644000  0.12510200  1
  Mo  Mo20  1  0.92738600  0.00652400  0.60154200  1
  Mo  Mo21  1  0.07261400  0.50652400  0.39845800  1
  Mo  Mo22  1  0.69663600  0.75349400  0.63142100  1
  Mo  Mo23  1  0.30336400  0.25349400  0.36857900  1
  Mo  Mo24  1  0.43611800  0.99708300  0.63550600  1
  Mo  Mo25  1  0.56388200  0.49708300  0.36449400  1
  Mo  Mo26  1  0.17566000  0.75627000  0.62346600  1
  Mo  Mo27  1  0.82434000  0.25627000  0.37653400  1
  O  O28  1  0.77980000  0.38712400  0.96051000  1
  O  O29  1  0.22020000  0.88712400  0.03949000  1
  O  O30  1  0.69411500  0.59826600  0.84023200  1
  O  O31  1  0.30588500  0.09826600  0.15976800  1
  O  O32  1  0.77443300  0.42393100  0.71975600  1
  O  O33  1  0.22556700  0.92393100  0.28024400  1
  O  O34  1  0.99526600  0.51556600  0.89409400  1
  O  O35  1  0.00473400  0.01556600  0.10590600  1
  O  O36  1  0.55880600  0.31735700  0.00368400  1
  O  O37  1  0.44119400  0.81735700  0.99631600  1
  O  O38  1  0.40921900  0.15160400  0.79973300  1
  O  O39  1  0.59078100  0.65160400  0.20026700  1
  O  O40  1  0.57304100  0.30290200  0.74900900  1
  O  O41  1  0.42695900  0.80290200  0.25099100  1
  O  O42  1  0.70494300  0.14036900  0.94390800  1
  O  O43  1  0.29505700  0.64036900  0.05609200  1
  O  O44  1  0.69156400  0.91951600  0.99241000  1
  O  O45  1  0.30843600  0.41951600  0.00759000  1
  O  O46  1  0.17978100  0.56454400  0.79292300  1
  O  O47  1  0.82021900  0.06454400  0.20707700  1
  O  O48  1  0.33551100  0.38516600  0.77724100  1
  O  O49  1  0.66448900  0.88516600  0.22275900  1
  O  O50  1  0.48915000  0.56672000  0.94345400  1
  O  O51  1  0.51085000  0.06672000  0.05654600  1
  O  O52  1  0.92669300  0.79921900  0.00220300  1
  O  O53  1  0.07330700  0.29921900  0.99779700  1
  O  O54  1  0.87471800  0.17479100  0.79358100  1
  O  O55  1  0.12528200  0.67479100  0.20641900  1
  O  O56  1  0.05279400  0.31150800  0.74618200  1
  O  O57  1  0.94720600  0.81150800  0.25381800  1
  O  O58  1  0.25472100  0.18956200  0.92153300  1
  O  O59  1  0.74527900  0.68956200  0.07846700  1
  O  O60  1  0.89483600  0.92942600  0.71151700  1
  O  O61  1  0.10516400  0.42942600  0.28848300  1
  O  O62  1  0.79148200  0.10319900  0.53617300  1
  O  O63  1  0.20851800  0.60319900  0.46382700  1
  O  O64  1  0.93339100  0.92490600  0.47521900  1
  O  O65  1  0.06660900  0.42490600  0.52478100  1
  O  O66  1  0.08898300  0.08120400  0.69149600  1
  O  O67  1  0.91101700  0.58120400  0.30850400  1
  O  O68  1  0.68844700  0.83752100  0.75796300  1
  O  O69  1  0.31155300  0.33752100  0.24203700  1
  O  O70  1  0.54113900  0.67664700  0.56509000  1
  O  O71  1  0.45886100  0.17664700  0.43491000  1
  O  O72  1  0.70825300  0.81821700  0.50095700  1
  O  O73  1  0.29174700  0.31821700  0.49904300  1
  O  O74  1  0.83752400  0.66068000  0.69548400  1
  O  O75  1  0.16247600  0.16068000  0.30451600  1
  O  O76  1  0.42793000  0.92324900  0.76421500  1
  O  O77  1  0.57207000  0.42324900  0.23578500  1
  O  O78  1  0.72393200  0.57236800  0.44708400  1
  O  O79  1  0.27606800  0.07236800  0.55291600  1
  O  O80  1  0.55303200  0.39873000  0.46903200  1
  O  O81  1  0.44696800  0.89873000  0.53096800  1
  O  O82  1  0.59398700  0.07543500  0.68833800  1
  O  O83  1  0.40601300  0.57543500  0.31166200  1
  O  O84  1  0.15571500  0.85385200  0.72587200  1
  O  O85  1  0.84428500  0.35385200  0.27412800  1
  O  O86  1  0.98164000  0.17126400  0.44147400  1
  O  O87  1  0.01836000  0.67126400  0.55852600  1
  O  O88  1  0.81526700  0.33265800  0.50313800  1
  O  O89  1  0.18473300  0.83265800  0.49686200  1
  O  O90  1  0.33848200  0.69312300  0.70898300  1
  O  O91  1  0.66151800  0.19312300  0.29101700  1
  O  O92  1  0.08040700  0.05741700  0.93177900  1
  O  O93  1  0.91959300  0.55741700  0.06822100  1
