# generated using pymatgen
data_Cr3B7ClO13
_symmetry_space_group_name_H-M   'P 1'
_cell_length_a   12.27004800
_cell_length_b   12.27004800
_cell_length_c   12.27004800
_cell_angle_alpha   90.00000000
_cell_angle_beta   90.00000000
_cell_angle_gamma   90.00000000
_symmetry_Int_Tables_number   1
_chemical_formula_structural   Cr3B7ClO13
_chemical_formula_sum   'Cr24 B56 Cl8 O104'
_cell_volume   1847.30576270
_cell_formula_units_Z   8
loop_
 _symmetry_equiv_pos_site_id
 _symmetry_equiv_pos_as_xyz
  1  'x, y, z'
loop_
 _atom_site_type_symbol
 _atom_site_label
 _atom_site_symmetry_multiplicity
 _atom_site_fract_x
 _atom_site_fract_y
 _atom_site_fract_z
 _atom_site_occupancy
  Cr  Cr0  1  0.25000000  0.25000000  0.00000000  1
  Cr  Cr1  1  0.25000000  0.00000000  0.75000000  1
  Cr  Cr2  1  0.25000000  0.00000000  0.25000000  1
  Cr  Cr3  1  0.00000000  0.25000000  0.75000000  1
  Cr  Cr4  1  0.75000000  0.25000000  0.00000000  1
  Cr  Cr5  1  0.00000000  0.25000000  0.25000000  1
  Cr  Cr6  1  0.25000000  0.75000000  0.50000000  1
  Cr  Cr7  1  0.25000000  0.50000000  0.25000000  1
  Cr  Cr8  1  0.25000000  0.50000000  0.75000000  1
  Cr  Cr9  1  0.00000000  0.75000000  0.25000000  1
  Cr  Cr10  1  0.75000000  0.75000000  0.50000000  1
  Cr  Cr11  1  0.00000000  0.75000000  0.75000000  1
  Cr  Cr12  1  0.75000000  0.25000000  0.50000000  1
  Cr  Cr13  1  0.75000000  0.00000000  0.25000000  1
  Cr  Cr14  1  0.75000000  0.00000000  0.75000000  1
  Cr  Cr15  1  0.50000000  0.25000000  0.25000000  1
  Cr  Cr16  1  0.25000000  0.25000000  0.50000000  1
  Cr  Cr17  1  0.50000000  0.25000000  0.75000000  1
  Cr  Cr18  1  0.75000000  0.75000000  0.00000000  1
  Cr  Cr19  1  0.75000000  0.50000000  0.75000000  1
  Cr  Cr20  1  0.75000000  0.50000000  0.25000000  1
  Cr  Cr21  1  0.50000000  0.75000000  0.75000000  1
  Cr  Cr22  1  0.25000000  0.75000000  0.00000000  1
  Cr  Cr23  1  0.50000000  0.75000000  0.25000000  1
  B  B24  1  0.42001500  0.07998500  0.42001500  1
  B  B25  1  0.00000000  0.25000000  0.00000000  1
  B  B26  1  0.07998500  0.07998500  0.07998500  1
  B  B27  1  0.50000000  0.00000000  0.25000000  1
  B  B28  1  0.57998500  0.07998500  0.07998500  1
  B  B29  1  0.07998500  0.42001500  0.92001500  1
  B  B30  1  0.92001500  0.42001500  0.07998500  1
  B  B31  1  0.50000000  0.25000000  0.00000000  1
  B  B32  1  0.42001500  0.42001500  0.07998500  1
  B  B33  1  0.75000000  0.00000000  0.00000000  1
  B  B34  1  0.25000000  0.00000000  0.00000000  1
  B  B35  1  0.42001500  0.07998500  0.92001500  1
  B  B36  1  0.07998500  0.42001500  0.42001500  1
  B  B37  1  0.50000000  0.00000000  0.75000000  1
  B  B38  1  0.42001500  0.57998500  0.92001500  1
  B  B39  1  0.00000000  0.75000000  0.50000000  1
  B  B40  1  0.07998500  0.57998500  0.57998500  1
  B  B41  1  0.50000000  0.50000000  0.75000000  1
  B  B42  1  0.57998500  0.57998500  0.57998500  1
  B  B43  1  0.07998500  0.92001500  0.42001500  1
  B  B44  1  0.92001500  0.92001500  0.57998500  1
  B  B45  1  0.50000000  0.75000000  0.50000000  1
  B  B46  1  0.42001500  0.92001500  0.57998500  1
  B  B47  1  0.75000000  0.50000000  0.50000000  1
  B  B48  1  0.25000000  0.50000000  0.50000000  1
  B  B49  1  0.42001500  0.57998500  0.42001500  1
  B  B50  1  0.07998500  0.92001500  0.92001500  1
  B  B51  1  0.50000000  0.50000000  0.25000000  1
  B  B52  1  0.92001500  0.07998500  0.92001500  1
  B  B53  1  0.50000000  0.25000000  0.50000000  1
  B  B54  1  0.57998500  0.07998500  0.57998500  1
  B  B55  1  0.00000000  0.00000000  0.75000000  1
  B  B56  1  0.07998500  0.07998500  0.57998500  1
  B  B57  1  0.57998500  0.42001500  0.42001500  1
  B  B58  1  0.42001500  0.42001500  0.57998500  1
  B  B59  1  0.00000000  0.25000000  0.50000000  1
  B  B60  1  0.92001500  0.42001500  0.57998500  1
  B  B61  1  0.25000000  0.00000000  0.50000000  1
  B  B62  1  0.75000000  0.00000000  0.50000000  1
  B  B63  1  0.92001500  0.07998500  0.42001500  1
  B  B64  1  0.57998500  0.42001500  0.92001500  1
  B  B65  1  0.00000000  0.00000000  0.25000000  1
  B  B66  1  0.92001500  0.57998500  0.42001500  1
  B  B67  1  0.50000000  0.75000000  0.00000000  1
  B  B68  1  0.57998500  0.57998500  0.07998500  1
  B  B69  1  0.00000000  0.50000000  0.25000000  1
  B  B70  1  0.07998500  0.57998500  0.07998500  1
  B  B71  1  0.57998500  0.92001500  0.92001500  1
  B  B72  1  0.42001500  0.92001500  0.07998500  1
  B  B73  1  0.00000000  0.75000000  0.00000000  1
  B  B74  1  0.92001500  0.92001500  0.07998500  1
  B  B75  1  0.25000000  0.50000000  0.00000000  1
  B  B76  1  0.75000000  0.50000000  0.00000000  1
  B  B77  1  0.92001500  0.57998500  0.92001500  1
  B  B78  1  0.57998500  0.92001500  0.42001500  1
  B  B79  1  0.00000000  0.50000000  0.75000000  1
  Cl  Cl80  1  0.25000000  0.25000000  0.25000000  1
  Cl  Cl81  1  0.25000000  0.25000000  0.75000000  1
  Cl  Cl82  1  0.25000000  0.75000000  0.75000000  1
  Cl  Cl83  1  0.25000000  0.75000000  0.25000000  1
  Cl  Cl84  1  0.75000000  0.25000000  0.75000000  1
  Cl  Cl85  1  0.75000000  0.25000000  0.25000000  1
  Cl  Cl86  1  0.75000000  0.75000000  0.25000000  1
  Cl  Cl87  1  0.75000000  0.75000000  0.75000000  1
  O  O88  1  0.47982950  0.17992550  0.90433900  1
  O  O89  1  0.97982950  0.40433900  0.67992550  1
  O  O90  1  0.59566100  0.02017050  0.17992550  1
  O  O91  1  0.50000000  0.00000000  0.00000000  1
  O  O92  1  0.97982950  0.32007450  0.09566100  1
  O  O93  1  0.82007450  0.02017050  0.90433900  1
  O  O94  1  0.67992550  0.47982950  0.90433900  1
  O  O95  1  0.59566100  0.32007450  0.97982950  1
  O  O96  1  0.00000000  0.00000000  0.00000000  1
  O  O97  1  0.09566100  0.47982950  0.82007450  1
  O  O98  1  0.82007450  0.40433900  0.02017050  1
  O  O99  1  0.09566100  0.17992550  0.02017050  1
  O  O100  1  0.90433900  0.17992550  0.97982950  1
  O  O101  1  0.32007450  0.09566100  0.97982950  1
  O  O102  1  0.17992550  0.02017050  0.09566100  1
  O  O103  1  0.40433900  0.32007450  0.02017050  1
  O  O104  1  0.52017050  0.17992550  0.09566100  1
  O  O105  1  0.02017050  0.32007450  0.90433900  1
  O  O106  1  0.90433900  0.47982950  0.17992550  1
  O  O107  1  0.40433900  0.02017050  0.82007450  1
  O  O108  1  0.52017050  0.09566100  0.67992550  1
  O  O109  1  0.47982950  0.09566100  0.32007450  1
  O  O110  1  0.02017050  0.40433900  0.32007450  1
  O  O111  1  0.32007450  0.47982950  0.09566100  1
  O  O112  1  0.17992550  0.40433900  0.97982950  1
  O  O113  1  0.67992550  0.09566100  0.02017050  1
  O  O114  1  0.47982950  0.67992550  0.40433900  1
  O  O115  1  0.97982950  0.90433900  0.17992550  1
  O  O116  1  0.59566100  0.52017050  0.67992550  1
  O  O117  1  0.50000000  0.50000000  0.50000000  1
  O  O118  1  0.97982950  0.82007450  0.59566100  1
  O  O119  1  0.82007450  0.52017050  0.40433900  1
  O  O120  1  0.67992550  0.97982950  0.40433900  1
  O  O121  1  0.59566100  0.82007450  0.47982950  1
  O  O122  1  0.00000000  0.50000000  0.50000000  1
  O  O123  1  0.09566100  0.97982950  0.32007450  1
  O  O124  1  0.82007450  0.90433900  0.52017050  1
  O  O125  1  0.09566100  0.67992550  0.52017050  1
  O  O126  1  0.90433900  0.67992550  0.47982950  1
  O  O127  1  0.32007450  0.59566100  0.47982950  1
  O  O128  1  0.17992550  0.52017050  0.59566100  1
  O  O129  1  0.40433900  0.82007450  0.52017050  1
  O  O130  1  0.52017050  0.67992550  0.59566100  1
  O  O131  1  0.02017050  0.82007450  0.40433900  1
  O  O132  1  0.90433900  0.97982950  0.67992550  1
  O  O133  1  0.40433900  0.52017050  0.32007450  1
  O  O134  1  0.52017050  0.59566100  0.17992550  1
  O  O135  1  0.47982950  0.59566100  0.82007450  1
  O  O136  1  0.02017050  0.90433900  0.82007450  1
  O  O137  1  0.32007450  0.97982950  0.59566100  1
  O  O138  1  0.17992550  0.90433900  0.47982950  1
  O  O139  1  0.67992550  0.59566100  0.52017050  1
  O  O140  1  0.97982950  0.17992550  0.40433900  1
  O  O141  1  0.47982950  0.40433900  0.17992550  1
  O  O142  1  0.09566100  0.02017050  0.67992550  1
  O  O143  1  0.00000000  0.00000000  0.50000000  1
  O  O144  1  0.47982950  0.32007450  0.59566100  1
  O  O145  1  0.32007450  0.02017050  0.40433900  1
  O  O146  1  0.17992550  0.47982950  0.40433900  1
  O  O147  1  0.09566100  0.32007450  0.47982950  1
  O  O148  1  0.50000000  0.00000000  0.50000000  1
  O  O149  1  0.59566100  0.47982950  0.32007450  1
  O  O150  1  0.32007450  0.40433900  0.52017050  1
  O  O151  1  0.59566100  0.17992550  0.52017050  1
  O  O152  1  0.40433900  0.17992550  0.47982950  1
  O  O153  1  0.82007450  0.09566100  0.47982950  1
  O  O154  1  0.67992550  0.02017050  0.59566100  1
  O  O155  1  0.90433900  0.32007450  0.52017050  1
  O  O156  1  0.02017050  0.17992550  0.59566100  1
  O  O157  1  0.52017050  0.32007450  0.40433900  1
  O  O158  1  0.40433900  0.47982950  0.67992550  1
  O  O159  1  0.90433900  0.02017050  0.32007450  1
  O  O160  1  0.02017050  0.09566100  0.17992550  1
  O  O161  1  0.97982950  0.09566100  0.82007450  1
  O  O162  1  0.52017050  0.40433900  0.82007450  1
  O  O163  1  0.82007450  0.47982950  0.59566100  1
  O  O164  1  0.67992550  0.40433900  0.47982950  1
  O  O165  1  0.17992550  0.09566100  0.52017050  1
  O  O166  1  0.97982950  0.67992550  0.90433900  1
  O  O167  1  0.47982950  0.90433900  0.67992550  1
  O  O168  1  0.09566100  0.52017050  0.17992550  1
  O  O169  1  0.00000000  0.50000000  0.00000000  1
  O  O170  1  0.47982950  0.82007450  0.09566100  1
  O  O171  1  0.32007450  0.52017050  0.90433900  1
  O  O172  1  0.17992550  0.97982950  0.90433900  1
  O  O173  1  0.09566100  0.82007450  0.97982950  1
  O  O174  1  0.50000000  0.50000000  0.00000000  1
  O  O175  1  0.59566100  0.97982950  0.82007450  1
  O  O176  1  0.32007450  0.90433900  0.02017050  1
  O  O177  1  0.59566100  0.67992550  0.02017050  1
  O  O178  1  0.40433900  0.67992550  0.97982950  1
  O  O179  1  0.82007450  0.59566100  0.97982950  1
  O  O180  1  0.67992550  0.52017050  0.09566100  1
  O  O181  1  0.90433900  0.82007450  0.02017050  1
  O  O182  1  0.02017050  0.67992550  0.09566100  1
  O  O183  1  0.52017050  0.82007450  0.90433900  1
  O  O184  1  0.40433900  0.97982950  0.17992550  1
  O  O185  1  0.90433900  0.52017050  0.82007450  1
  O  O186  1  0.02017050  0.59566100  0.67992550  1
  O  O187  1  0.97982950  0.59566100  0.32007450  1
  O  O188  1  0.52017050  0.90433900  0.32007450  1
  O  O189  1  0.82007450  0.97982950  0.09566100  1
  O  O190  1  0.67992550  0.90433900  0.97982950  1
  O  O191  1  0.17992550  0.59566100  0.02017050  1
