# generated using pymatgen
data_TiNb3Cl7O2
_symmetry_space_group_name_H-M   'P 1'
_cell_length_a   12.83126200
_cell_length_b   14.83812800
_cell_length_c   12.75043918
_cell_angle_alpha   90.00000000
_cell_angle_beta   95.73529590
_cell_angle_gamma   90.00000000
_symmetry_Int_Tables_number   1
_chemical_formula_structural   TiNb3Cl7O2
_chemical_formula_sum   'Ti8 Nb24 Cl56 O16'
_cell_volume   2415.42845459
_cell_formula_units_Z   8
loop_
 _symmetry_equiv_pos_site_id
 _symmetry_equiv_pos_as_xyz
  1  'x, y, z'
loop_
 _atom_site_type_symbol
 _atom_site_label
 _atom_site_symmetry_multiplicity
 _atom_site_fract_x
 _atom_site_fract_y
 _atom_site_fract_z
 _atom_site_occupancy
  Ti  Ti0  1  0.50000000  0.61026900  0.75000000  1
  Ti  Ti1  1  0.00000000  0.00000000  0.50000000  1
  Ti  Ti2  1  0.50000000  0.38973100  0.25000000  1
  Ti  Ti3  1  0.00000000  0.00000000  0.00000000  1
  Ti  Ti4  1  0.00000000  0.11026900  0.75000000  1
  Ti  Ti5  1  0.50000000  0.50000000  0.50000000  1
  Ti  Ti6  1  0.00000000  0.88973100  0.25000000  1
  Ti  Ti7  1  0.50000000  0.50000000  0.00000000  1
  Nb  Nb8  1  0.63629850  0.81025150  0.89190600  1
  Nb  Nb9  1  0.36507450  0.73024950  0.39245800  1
  Nb  Nb10  1  0.20452150  0.13033850  0.93900100  1
  Nb  Nb11  1  0.63629850  0.18974850  0.39190600  1
  Nb  Nb12  1  0.20452150  0.86966150  0.43900100  1
  Nb  Nb13  1  0.79547850  0.13033850  0.56099900  1
  Nb  Nb14  1  0.36370150  0.18974850  0.10809400  1
  Nb  Nb15  1  0.63492550  0.26975050  0.60754200  1
  Nb  Nb16  1  0.36370150  0.81025150  0.60809400  1
  Nb  Nb17  1  0.36507450  0.26975050  0.89245800  1
  Nb  Nb18  1  0.79547850  0.86966150  0.06099900  1
  Nb  Nb19  1  0.63492550  0.73024950  0.10754200  1
  Nb  Nb20  1  0.13629850  0.31025150  0.89190600  1
  Nb  Nb21  1  0.86507450  0.23024950  0.39245800  1
  Nb  Nb22  1  0.70452150  0.63033850  0.93900100  1
  Nb  Nb23  1  0.13629850  0.68974850  0.39190600  1
  Nb  Nb24  1  0.70452150  0.36966150  0.43900100  1
  Nb  Nb25  1  0.29547850  0.63033850  0.56099900  1
  Nb  Nb26  1  0.86370150  0.68974850  0.10809400  1
  Nb  Nb27  1  0.13492550  0.76975050  0.60754200  1
  Nb  Nb28  1  0.86370150  0.31025150  0.60809400  1
  Nb  Nb29  1  0.86507450  0.76975050  0.89245800  1
  Nb  Nb30  1  0.29547850  0.36966150  0.06099900  1
  Nb  Nb31  1  0.13492550  0.23024950  0.10754200  1
  Cl  Cl32  1  0.51057300  0.80646600  0.49687600  1
  Cl  Cl33  1  0.50000000  0.11532000  0.25000000  1
  Cl  Cl34  1  0.25291250  0.16572250  0.25083400  1
  Cl  Cl35  1  0.67076850  0.96831550  0.95227900  1
  Cl  Cl36  1  0.10866300  0.01470500  0.35139300  1
  Cl  Cl37  1  0.32923150  0.96831550  0.54772100  1
  Cl  Cl38  1  0.67068300  0.87915100  0.19734000  1
  Cl  Cl39  1  0.50000000  0.88468000  0.75000000  1
  Cl  Cl40  1  0.32931700  0.87915100  0.30266000  1
  Cl  Cl41  1  0.88339300  0.09880000  0.88894000  1
  Cl  Cl42  1  0.32923150  0.03168450  0.04772100  1
  Cl  Cl43  1  0.67068300  0.12084900  0.69734000  1
  Cl  Cl44  1  0.50000000  0.70798900  0.25000000  1
  Cl  Cl45  1  0.11660700  0.09880000  0.61106000  1
  Cl  Cl46  1  0.48942700  0.80646600  0.00312400  1
  Cl  Cl47  1  0.10866300  0.98529500  0.85139300  1
  Cl  Cl48  1  0.11660700  0.90120000  0.11106000  1
  Cl  Cl49  1  0.51057300  0.19353400  0.99687600  1
  Cl  Cl50  1  0.74708750  0.16572250  0.24916600  1
  Cl  Cl51  1  0.74708750  0.83427750  0.74916600  1
  Cl  Cl52  1  0.25291250  0.83427750  0.75083400  1
  Cl  Cl53  1  0.89133700  0.01470500  0.14860700  1
  Cl  Cl54  1  0.32931700  0.12084900  0.80266000  1
  Cl  Cl55  1  0.89133700  0.98529500  0.64860700  1
  Cl  Cl56  1  0.67076850  0.03168450  0.45227900  1
  Cl  Cl57  1  0.88339300  0.90120000  0.38894000  1
  Cl  Cl58  1  0.48942700  0.19353400  0.50312400  1
  Cl  Cl59  1  0.50000000  0.29201100  0.75000000  1
  Cl  Cl60  1  0.01057300  0.30646600  0.49687600  1
  Cl  Cl61  1  0.00000000  0.61532000  0.25000000  1
  Cl  Cl62  1  0.75291250  0.66572250  0.25083400  1
  Cl  Cl63  1  0.17076850  0.46831550  0.95227900  1
  Cl  Cl64  1  0.60866300  0.51470500  0.35139300  1
  Cl  Cl65  1  0.82923150  0.46831550  0.54772100  1
  Cl  Cl66  1  0.17068300  0.37915100  0.19734000  1
  Cl  Cl67  1  0.00000000  0.38468000  0.75000000  1
  Cl  Cl68  1  0.82931700  0.37915100  0.30266000  1
  Cl  Cl69  1  0.38339300  0.59880000  0.88894000  1
  Cl  Cl70  1  0.82923150  0.53168450  0.04772100  1
  Cl  Cl71  1  0.17068300  0.62084900  0.69734000  1
  Cl  Cl72  1  0.00000000  0.20798900  0.25000000  1
  Cl  Cl73  1  0.61660700  0.59880000  0.61106000  1
  Cl  Cl74  1  0.98942700  0.30646600  0.00312400  1
  Cl  Cl75  1  0.60866300  0.48529500  0.85139300  1
  Cl  Cl76  1  0.61660700  0.40120000  0.11106000  1
  Cl  Cl77  1  0.01057300  0.69353400  0.99687600  1
  Cl  Cl78  1  0.24708750  0.66572250  0.24916600  1
  Cl  Cl79  1  0.24708750  0.33427750  0.74916600  1
  Cl  Cl80  1  0.75291250  0.33427750  0.75083400  1
  Cl  Cl81  1  0.39133700  0.51470500  0.14860700  1
  Cl  Cl82  1  0.82931700  0.62084900  0.80266000  1
  Cl  Cl83  1  0.39133700  0.48529500  0.64860700  1
  Cl  Cl84  1  0.17076850  0.53168450  0.45227900  1
  Cl  Cl85  1  0.38339300  0.40120000  0.38894000  1
  Cl  Cl86  1  0.98942700  0.69353400  0.50312400  1
  Cl  Cl87  1  0.00000000  0.79201100  0.75000000  1
  O  O88  1  0.41031750  0.39242150  0.95842300  1
  O  O89  1  0.41031750  0.60757850  0.45842300  1
  O  O90  1  0.59051550  0.31195550  0.32965200  1
  O  O91  1  0.40948450  0.31195550  0.17034800  1
  O  O92  1  0.59051550  0.68804450  0.82965200  1
  O  O93  1  0.58968250  0.39242150  0.54157700  1
  O  O94  1  0.40948450  0.68804450  0.67034800  1
  O  O95  1  0.58968250  0.60757850  0.04157700  1
  O  O96  1  0.91031750  0.89242150  0.95842300  1
  O  O97  1  0.91031750  0.10757850  0.45842300  1
  O  O98  1  0.09051550  0.81195550  0.32965200  1
  O  O99  1  0.90948450  0.81195550  0.17034800  1
  O  O100  1  0.09051550  0.18804450  0.82965200  1
  O  O101  1  0.08968250  0.89242150  0.54157700  1
  O  O102  1  0.90948450  0.18804450  0.67034800  1
  O  O103  1  0.08968250  0.10757850  0.04157700  1
