# generated using pymatgen
data_U7(Pd3S4)8
_symmetry_space_group_name_H-M   'P 1'
_cell_length_a   13.38159400
_cell_length_b   13.38159400
_cell_length_c   13.38159400
_cell_angle_alpha   90.00000000
_cell_angle_beta   90.00000000
_cell_angle_gamma   90.00000000
_symmetry_Int_Tables_number   1
_chemical_formula_structural   U7(Pd3S4)8
_chemical_formula_sum   'U14 Pd48 S64'
_cell_volume   2396.20266867
_cell_formula_units_Z   2
loop_
 _symmetry_equiv_pos_site_id
 _symmetry_equiv_pos_as_xyz
  1  'x, y, z'
loop_
 _atom_site_type_symbol
 _atom_site_label
 _atom_site_symmetry_multiplicity
 _atom_site_fract_x
 _atom_site_fract_y
 _atom_site_fract_z
 _atom_site_occupancy
  U  U0  1  0.00000000  0.00000000  0.50000000  1
  U  U1  1  0.50000000  0.00000000  0.00000000  1
  U  U2  1  0.75000000  0.25000000  0.25000000  1
  U  U3  1  0.25000000  0.25000000  0.75000000  1
  U  U4  1  0.00000000  0.50000000  0.00000000  1
  U  U5  1  0.25000000  0.25000000  0.25000000  1
  U  U6  1  0.25000000  0.75000000  0.25000000  1
  U  U7  1  0.50000000  0.50000000  0.00000000  1
  U  U8  1  0.00000000  0.50000000  0.50000000  1
  U  U9  1  0.25000000  0.75000000  0.75000000  1
  U  U10  1  0.75000000  0.75000000  0.25000000  1
  U  U11  1  0.50000000  0.00000000  0.50000000  1
  U  U12  1  0.75000000  0.75000000  0.75000000  1
  U  U13  1  0.75000000  0.25000000  0.75000000  1
  Pd  Pd14  1  0.12831600  0.24896600  0.00000000  1
  Pd  Pd15  1  0.12831600  0.75103400  0.00000000  1
  Pd  Pd16  1  0.25045900  0.50000000  0.12377000  1
  Pd  Pd17  1  0.24896600  0.00000000  0.12831600  1
  Pd  Pd18  1  0.37623000  0.24954100  0.00000000  1
  Pd  Pd19  1  0.87623000  0.25045900  0.50000000  1
  Pd  Pd20  1  0.50000000  0.37168400  0.25103400  1
  Pd  Pd21  1  0.50000000  0.12377000  0.25045900  1
  Pd  Pd22  1  0.00000000  0.12831600  0.75103400  1
  Pd  Pd23  1  0.50000000  0.87623000  0.25045900  1
  Pd  Pd24  1  0.62377000  0.24954100  0.00000000  1
  Pd  Pd25  1  0.12377000  0.25045900  0.50000000  1
  Pd  Pd26  1  0.75103400  0.00000000  0.12831600  1
  Pd  Pd27  1  0.24954100  0.00000000  0.62377000  1
  Pd  Pd28  1  0.74896600  0.50000000  0.37168400  1
  Pd  Pd29  1  0.25045900  0.50000000  0.87623000  1
  Pd  Pd30  1  0.37168400  0.74896600  0.50000000  1
  Pd  Pd31  1  0.37168400  0.25103400  0.50000000  1
  Pd  Pd32  1  0.00000000  0.37623000  0.24954100  1
  Pd  Pd33  1  0.00000000  0.62377000  0.24954100  1
  Pd  Pd34  1  0.50000000  0.37168400  0.74896600  1
  Pd  Pd35  1  0.00000000  0.12831600  0.24896600  1
  Pd  Pd36  1  0.25103400  0.50000000  0.37168400  1
  Pd  Pd37  1  0.24954100  0.00000000  0.37623000  1
  Pd  Pd38  1  0.62831600  0.74896600  0.50000000  1
  Pd  Pd39  1  0.62831600  0.25103400  0.50000000  1
  Pd  Pd40  1  0.75045900  0.00000000  0.62377000  1
  Pd  Pd41  1  0.74896600  0.50000000  0.62831600  1
  Pd  Pd42  1  0.87623000  0.74954100  0.50000000  1
  Pd  Pd43  1  0.37623000  0.75045900  0.00000000  1
  Pd  Pd44  1  0.00000000  0.87168400  0.75103400  1
  Pd  Pd45  1  0.00000000  0.62377000  0.75045900  1
  Pd  Pd46  1  0.50000000  0.62831600  0.25103400  1
  Pd  Pd47  1  0.00000000  0.37623000  0.75045900  1
  Pd  Pd48  1  0.12377000  0.74954100  0.50000000  1
  Pd  Pd49  1  0.62377000  0.75045900  0.00000000  1
  Pd  Pd50  1  0.25103400  0.50000000  0.62831600  1
  Pd  Pd51  1  0.74954100  0.50000000  0.12377000  1
  Pd  Pd52  1  0.24896600  0.00000000  0.87168400  1
  Pd  Pd53  1  0.75045900  0.00000000  0.37623000  1
  Pd  Pd54  1  0.87168400  0.24896600  0.00000000  1
  Pd  Pd55  1  0.87168400  0.75103400  0.00000000  1
  Pd  Pd56  1  0.50000000  0.87623000  0.74954100  1
  Pd  Pd57  1  0.50000000  0.12377000  0.74954100  1
  Pd  Pd58  1  0.00000000  0.87168400  0.24896600  1
  Pd  Pd59  1  0.50000000  0.62831600  0.74896600  1
  Pd  Pd60  1  0.75103400  0.00000000  0.87168400  1
  Pd  Pd61  1  0.74954100  0.50000000  0.87623000  1
  S  S62  1  0.12528500  0.37472500  0.12441000  1
  S  S63  1  0.13092500  0.86907500  0.13092500  1
  S  S64  1  0.37472500  0.12441000  0.12528500  1
  S  S65  1  0.87559000  0.12528500  0.62527500  1
  S  S66  1  0.36907500  0.36907500  0.36907500  1
  S  S67  1  0.37471500  0.87472500  0.37559000  1
  S  S68  1  0.36907500  0.63092500  0.36907500  1
  S  S69  1  0.37559000  0.37471500  0.12527500  1
  S  S70  1  0.37472500  0.87559000  0.12528500  1
  S  S71  1  0.37471500  0.12527500  0.37559000  1
  S  S72  1  0.62441000  0.37471500  0.12527500  1
  S  S73  1  0.13092500  0.13092500  0.86907500  1
  S  S74  1  0.62527500  0.12441000  0.12528500  1
  S  S75  1  0.63092500  0.36907500  0.36907500  1
  S  S76  1  0.12441000  0.12528500  0.62527500  1
  S  S77  1  0.62527500  0.87559000  0.12528500  1
  S  S78  1  0.12528500  0.37472500  0.87559000  1
  S  S79  1  0.12528500  0.62527500  0.87559000  1
  S  S80  1  0.86907500  0.13092500  0.13092500  1
  S  S81  1  0.87472500  0.37559000  0.37471500  1
  S  S82  1  0.37471500  0.12527500  0.62441000  1
  S  S83  1  0.37559000  0.37471500  0.87472500  1
  S  S84  1  0.37471500  0.87472500  0.62441000  1
  S  S85  1  0.87472500  0.62441000  0.37471500  1
  S  S86  1  0.36907500  0.36907500  0.63092500  1
  S  S87  1  0.87559000  0.12528500  0.37472500  1
  S  S88  1  0.12527500  0.62441000  0.37471500  1
  S  S89  1  0.12441000  0.12528500  0.37472500  1
  S  S90  1  0.13092500  0.13092500  0.13092500  1
  S  S91  1  0.12527500  0.37559000  0.37471500  1
  S  S92  1  0.12528500  0.62527500  0.12441000  1
  S  S93  1  0.62441000  0.37471500  0.87472500  1
  S  S94  1  0.62528500  0.87472500  0.62441000  1
  S  S95  1  0.63092500  0.36907500  0.63092500  1
  S  S96  1  0.87472500  0.62441000  0.62528500  1
  S  S97  1  0.37559000  0.62528500  0.12527500  1
  S  S98  1  0.86907500  0.86907500  0.86907500  1
  S  S99  1  0.87471500  0.37472500  0.87559000  1
  S  S100  1  0.86907500  0.13092500  0.86907500  1
  S  S101  1  0.87559000  0.87471500  0.62527500  1
  S  S102  1  0.87472500  0.37559000  0.62528500  1
  S  S103  1  0.87471500  0.62527500  0.87559000  1
  S  S104  1  0.12441000  0.87471500  0.62527500  1
  S  S105  1  0.63092500  0.63092500  0.36907500  1
  S  S106  1  0.12527500  0.62441000  0.62528500  1
  S  S107  1  0.13092500  0.86907500  0.86907500  1
  S  S108  1  0.62441000  0.62528500  0.12527500  1
  S  S109  1  0.12527500  0.37559000  0.62528500  1
  S  S110  1  0.62528500  0.87472500  0.37559000  1
  S  S111  1  0.62528500  0.12527500  0.37559000  1
  S  S112  1  0.36907500  0.63092500  0.63092500  1
  S  S113  1  0.37472500  0.87559000  0.87471500  1
  S  S114  1  0.87471500  0.62527500  0.12441000  1
  S  S115  1  0.87559000  0.87471500  0.37472500  1
  S  S116  1  0.87471500  0.37472500  0.12441000  1
  S  S117  1  0.37472500  0.12441000  0.87471500  1
  S  S118  1  0.86907500  0.86907500  0.13092500  1
  S  S119  1  0.37559000  0.62528500  0.87472500  1
  S  S120  1  0.62527500  0.12441000  0.87471500  1
  S  S121  1  0.62441000  0.62528500  0.87472500  1
  S  S122  1  0.63092500  0.63092500  0.63092500  1
  S  S123  1  0.62527500  0.87559000  0.87471500  1
  S  S124  1  0.62528500  0.12527500  0.62441000  1
  S  S125  1  0.12441000  0.87471500  0.37472500  1
