# generated using pymatgen
data_CeAs2Pd3
_symmetry_space_group_name_H-M   'P 1'
_cell_length_a   16.80116400
_cell_length_b   4.14660400
_cell_length_c   10.09712486
_cell_angle_alpha   90.00000000
_cell_angle_beta   107.83244394
_cell_angle_gamma   90.00000000
_symmetry_Int_Tables_number   1
_chemical_formula_structural   CeAs2Pd3
_chemical_formula_sum   'Ce6 As12 Pd18'
_cell_volume   669.64803557
_cell_formula_units_Z   6
loop_
 _symmetry_equiv_pos_site_id
 _symmetry_equiv_pos_as_xyz
  1  'x, y, z'
loop_
 _atom_site_type_symbol
 _atom_site_label
 _atom_site_symmetry_multiplicity
 _atom_site_fract_x
 _atom_site_fract_y
 _atom_site_fract_z
 _atom_site_occupancy
  Ce  Ce0  1  0.34430900  0.50000000  0.29789900  1
  Ce  Ce1  1  0.15569100  0.00000000  0.70210100  1
  Ce  Ce2  1  0.00000000  0.00000000  0.00000000  1
  Ce  Ce3  1  0.84430900  0.00000000  0.29789900  1
  Ce  Ce4  1  0.65569100  0.50000000  0.70210100  1
  Ce  Ce5  1  0.50000000  0.50000000  0.00000000  1
  As  As6  1  0.19887200  0.00000000  0.12914100  1
  As  As7  1  0.36338300  0.00000000  0.54364700  1
  As  As8  1  0.13661700  0.50000000  0.45635300  1
  As  As9  1  0.30112800  0.50000000  0.87085900  1
  As  As10  1  0.46239000  0.00000000  0.21268300  1
  As  As11  1  0.03761000  0.50000000  0.78731700  1
  As  As12  1  0.69887200  0.50000000  0.12914100  1
  As  As13  1  0.86338300  0.50000000  0.54364700  1
  As  As14  1  0.63661700  0.00000000  0.45635300  1
  As  As15  1  0.80112800  0.00000000  0.87085900  1
  As  As16  1  0.96239000  0.50000000  0.21268300  1
  As  As17  1  0.53761000  0.00000000  0.78731700  1
  Pd  Pd18  1  0.45745700  0.50000000  0.66565100  1
  Pd  Pd19  1  0.17818200  0.50000000  0.96693900  1
  Pd  Pd20  1  0.32181800  0.00000000  0.03306100  1
  Pd  Pd21  1  0.21973300  0.00000000  0.39178400  1
  Pd  Pd22  1  0.12553600  0.50000000  0.20381400  1
  Pd  Pd23  1  0.04254300  0.00000000  0.33434900  1
  Pd  Pd24  1  0.28026700  0.50000000  0.60821600  1
  Pd  Pd25  1  0.00000000  0.50000000  0.50000000  1
  Pd  Pd26  1  0.37446400  0.00000000  0.79618600  1
  Pd  Pd27  1  0.95745700  0.00000000  0.66565100  1
  Pd  Pd28  1  0.67818200  0.00000000  0.96693900  1
  Pd  Pd29  1  0.82181800  0.50000000  0.03306100  1
  Pd  Pd30  1  0.71973300  0.50000000  0.39178400  1
  Pd  Pd31  1  0.62553600  0.00000000  0.20381400  1
  Pd  Pd32  1  0.54254300  0.50000000  0.33434900  1
  Pd  Pd33  1  0.78026700  0.00000000  0.60821600  1
  Pd  Pd34  1  0.50000000  0.00000000  0.50000000  1
  Pd  Pd35  1  0.87446400  0.50000000  0.79618600  1
