# generated using pymatgen
data_Ba2NiOsO6
_symmetry_space_group_name_H-M   'P 1'
_cell_length_a   5.81013140
_cell_length_b   5.81013140
_cell_length_c   14.26329389
_cell_angle_alpha   90.00000000
_cell_angle_beta   90.00000000
_cell_angle_gamma   120.00000000
_symmetry_Int_Tables_number   1
_chemical_formula_structural   Ba2NiOsO6
_chemical_formula_sum   'Ba6 Ni3 Os3 O18'
_cell_volume   416.98686093
_cell_formula_units_Z   3
loop_
 _symmetry_equiv_pos_site_id
 _symmetry_equiv_pos_as_xyz
  1  'x, y, z'
loop_
 _atom_site_type_symbol
 _atom_site_label
 _atom_site_symmetry_multiplicity
 _atom_site_fract_x
 _atom_site_fract_y
 _atom_site_fract_z
 _atom_site_occupancy
  Ba  Ba0  1  0.00000000  0.00000000  0.24953600  1
  Ba  Ba1  1  0.00000000  0.00000000  0.75046400  1
  Ba  Ba2  1  0.33333333  0.66666667  0.09027500  1
  Ba  Ba3  1  0.66666667  0.33333333  0.90972500  1
  Ba  Ba4  1  0.33333333  0.66666667  0.40317800  1
  Ba  Ba5  1  0.66666667  0.33333333  0.59682200  1
  Ni  Ni6  1  0.00000000  0.00000000  0.00000000  1
  Ni  Ni7  1  0.33333333  0.66666667  0.65123400  1
  Ni  Ni8  1  0.66666667  0.33333333  0.34876600  1
  Os  Os9  1  0.00000000  0.00000000  0.50000000  1
  Os  Os10  1  0.33333333  0.66666667  0.84103400  1
  Os  Os11  1  0.66666667  0.33333333  0.15896600  1
  O  O12  1  0.51435900  0.48564100  0.24513400  1
  O  O13  1  0.51435900  0.02871800  0.24513400  1
  O  O14  1  0.97128200  0.48564100  0.24513400  1
  O  O15  1  0.02871800  0.51435900  0.75486600  1
  O  O16  1  0.48564100  0.97128200  0.75486600  1
  O  O17  1  0.48564100  0.51435900  0.75486600  1
  O  O18  1  0.82723800  0.17276200  0.08364600  1
  O  O19  1  0.82723800  0.65447600  0.08364600  1
  O  O20  1  0.34552400  0.17276200  0.08364600  1
  O  O21  1  0.65447600  0.82723800  0.91635400  1
  O  O22  1  0.17276200  0.34552400  0.91635400  1
  O  O23  1  0.17276200  0.82723800  0.91635400  1
  O  O24  1  0.84091650  0.15908350  0.42215200  1
  O  O25  1  0.84091650  0.68183300  0.42215200  1
  O  O26  1  0.31816700  0.15908350  0.42215200  1
  O  O27  1  0.68183300  0.84091650  0.57784800  1
  O  O28  1  0.15908350  0.31816700  0.57784800  1
  O  O29  1  0.15908350  0.84091650  0.57784800  1
