# generated using pymatgen
data_LiCr3O8
_symmetry_space_group_name_H-M   'P 1'
_cell_length_a   8.48636144
_cell_length_b   5.53190014
_cell_length_c   6.45278843
_cell_angle_alpha   90.00000000
_cell_angle_beta   91.71612057
_cell_angle_gamma   90.00000000
_symmetry_Int_Tables_number   1
_chemical_formula_structural   LiCr3O8
_chemical_formula_sum   'Li2 Cr6 O16'
_cell_volume   302.79482337
_cell_formula_units_Z   2
loop_
 _symmetry_equiv_pos_site_id
 _symmetry_equiv_pos_as_xyz
  1  'x, y, z'
loop_
 _atom_site_type_symbol
 _atom_site_label
 _atom_site_symmetry_multiplicity
 _atom_site_fract_x
 _atom_site_fract_y
 _atom_site_fract_z
 _atom_site_occupancy
  Li  Li0  1  0.00000000  0.00000000  0.00000000  1
  Li  Li1  1  0.50000000  0.50000000  0.00000000  1
  Cr  Cr2  1  0.00000000  0.00000000  0.50000000  1
  Cr  Cr3  1  0.64584725  0.00000000  0.73919050  1
  Cr  Cr4  1  0.35415275  0.00000000  0.26080950  1
  Cr  Cr5  1  0.50000000  0.50000000  0.50000000  1
  Cr  Cr6  1  0.14584725  0.50000000  0.73919050  1
  Cr  Cr7  1  0.85415275  0.50000000  0.26080950  1
  O  O8  1  0.25338500  0.00000000  0.04554200  1
  O  O9  1  0.74661500  0.00000000  0.95445800  1
  O  O10  1  0.23121650  0.00000000  0.45570500  1
  O  O11  1  0.76878350  0.00000000  0.54429500  1
  O  O12  1  0.46865650  0.74605450  0.27236000  1
  O  O13  1  0.53134350  0.25394550  0.72764000  1
  O  O14  1  0.46865650  0.25394550  0.27236000  1
  O  O15  1  0.53134350  0.74605450  0.72764000  1
  O  O16  1  0.75338500  0.50000000  0.04554200  1
  O  O17  1  0.24661500  0.50000000  0.95445800  1
  O  O18  1  0.73121650  0.50000000  0.45570500  1
  O  O19  1  0.26878350  0.50000000  0.54429500  1
  O  O20  1  0.96865650  0.24605450  0.27236000  1
  O  O21  1  0.03134350  0.75394550  0.72764000  1
  O  O22  1  0.96865650  0.75394550  0.27236000  1
  O  O23  1  0.03134350  0.24605450  0.72764000  1
