# generated using pymatgen
data_Pr6Cd4Pd13
_symmetry_space_group_name_H-M   'P 1'
_cell_length_a   9.92198000
_cell_length_b   9.92198000
_cell_length_c   9.92198000
_cell_angle_alpha   90.00000000
_cell_angle_beta   90.00000000
_cell_angle_gamma   90.00000000
_symmetry_Int_Tables_number   1
_chemical_formula_structural   Pr6Cd4Pd13
_chemical_formula_sum   'Pr12 Cd8 Pd26'
_cell_volume   976.77613869
_cell_formula_units_Z   2
loop_
 _symmetry_equiv_pos_site_id
 _symmetry_equiv_pos_as_xyz
  1  'x, y, z'
loop_
 _atom_site_type_symbol
 _atom_site_label
 _atom_site_symmetry_multiplicity
 _atom_site_fract_x
 _atom_site_fract_y
 _atom_site_fract_z
 _atom_site_occupancy
  Pr  Pr0  1  0.30216900  0.00000000  0.00000000  1
  Pr  Pr1  1  0.69783100  0.00000000  0.00000000  1
  Pr  Pr2  1  0.00000000  0.30216900  0.00000000  1
  Pr  Pr3  1  0.00000000  0.00000000  0.69783100  1
  Pr  Pr4  1  0.00000000  0.69783100  0.00000000  1
  Pr  Pr5  1  0.00000000  0.00000000  0.30216900  1
  Pr  Pr6  1  0.80216900  0.50000000  0.50000000  1
  Pr  Pr7  1  0.19783100  0.50000000  0.50000000  1
  Pr  Pr8  1  0.50000000  0.80216900  0.50000000  1
  Pr  Pr9  1  0.50000000  0.50000000  0.19783100  1
  Pr  Pr10  1  0.50000000  0.19783100  0.50000000  1
  Pr  Pr11  1  0.50000000  0.50000000  0.80216900  1
  Cd  Cd12  1  0.25000000  0.25000000  0.75000000  1
  Cd  Cd13  1  0.75000000  0.25000000  0.25000000  1
  Cd  Cd14  1  0.25000000  0.75000000  0.25000000  1
  Cd  Cd15  1  0.25000000  0.25000000  0.25000000  1
  Cd  Cd16  1  0.75000000  0.75000000  0.25000000  1
  Cd  Cd17  1  0.25000000  0.75000000  0.75000000  1
  Cd  Cd18  1  0.75000000  0.25000000  0.75000000  1
  Cd  Cd19  1  0.75000000  0.75000000  0.75000000  1
  Pd  Pd20  1  0.15920100  0.84079900  0.50000000  1
  Pd  Pd21  1  0.50000000  0.15920100  0.84079900  1
  Pd  Pd22  1  0.84079900  0.50000000  0.15920100  1
  Pd  Pd23  1  0.50000000  0.15920100  0.15920100  1
  Pd  Pd24  1  0.15920100  0.50000000  0.15920100  1
  Pd  Pd25  1  0.00000000  0.34079900  0.34079900  1
  Pd  Pd26  1  0.34079900  0.00000000  0.34079900  1
  Pd  Pd27  1  0.34079900  0.34079900  0.00000000  1
  Pd  Pd28  1  0.50000000  0.84079900  0.15920100  1
  Pd  Pd29  1  0.15920100  0.15920100  0.50000000  1
  Pd  Pd30  1  0.15920100  0.50000000  0.84079900  1
  Pd  Pd31  1  0.00000000  0.00000000  0.00000000  1
  Pd  Pd32  1  0.84079900  0.15920100  0.50000000  1
  Pd  Pd33  1  0.65920100  0.34079900  0.00000000  1
  Pd  Pd34  1  0.00000000  0.65920100  0.34079900  1
  Pd  Pd35  1  0.34079900  0.00000000  0.65920100  1
  Pd  Pd36  1  0.00000000  0.65920100  0.65920100  1
  Pd  Pd37  1  0.65920100  0.00000000  0.65920100  1
  Pd  Pd38  1  0.50000000  0.84079900  0.84079900  1
  Pd  Pd39  1  0.84079900  0.50000000  0.84079900  1
  Pd  Pd40  1  0.84079900  0.84079900  0.50000000  1
  Pd  Pd41  1  0.00000000  0.34079900  0.65920100  1
  Pd  Pd42  1  0.65920100  0.65920100  0.00000000  1
  Pd  Pd43  1  0.65920100  0.00000000  0.34079900  1
  Pd  Pd44  1  0.50000000  0.50000000  0.50000000  1
  Pd  Pd45  1  0.34079900  0.65920100  0.00000000  1
