# generated using pymatgen
data_Li4CrP2O9
_symmetry_space_group_name_H-M   'P 1'
_cell_length_a   14.49055400
_cell_length_b   6.76949400
_cell_length_c   7.08165646
_cell_angle_alpha   90.00000000
_cell_angle_beta   90.24635544
_cell_angle_gamma   90.00000000
_symmetry_Int_Tables_number   1
_chemical_formula_structural   Li4CrP2O9
_chemical_formula_sum   'Li16 Cr4 P8 O36'
_cell_volume   694.65959309
_cell_formula_units_Z   4
loop_
 _symmetry_equiv_pos_site_id
 _symmetry_equiv_pos_as_xyz
  1  'x, y, z'
loop_
 _atom_site_type_symbol
 _atom_site_label
 _atom_site_symmetry_multiplicity
 _atom_site_fract_x
 _atom_site_fract_y
 _atom_site_fract_z
 _atom_site_occupancy
  Li  Li0  1  0.59789400  0.50000000  0.73839700  1
  Li  Li1  1  0.00000000  0.75404700  0.50000000  1
  Li  Li2  1  0.00000000  0.24595300  0.50000000  1
  Li  Li3  1  0.62491100  0.00000000  0.19625600  1
  Li  Li4  1  0.75000000  0.25000000  0.00000000  1
  Li  Li5  1  0.75000000  0.75000000  0.00000000  1
  Li  Li6  1  0.87508900  0.50000000  0.80374400  1
  Li  Li7  1  0.90210600  0.00000000  0.26160300  1
  Li  Li8  1  0.09789400  0.00000000  0.73839700  1
  Li  Li9  1  0.50000000  0.25404700  0.50000000  1
  Li  Li10  1  0.50000000  0.74595300  0.50000000  1
  Li  Li11  1  0.12491100  0.50000000  0.19625600  1
  Li  Li12  1  0.25000000  0.75000000  0.00000000  1
  Li  Li13  1  0.25000000  0.25000000  0.00000000  1
  Li  Li14  1  0.37508900  0.00000000  0.80374400  1
  Li  Li15  1  0.40210600  0.50000000  0.26160300  1
  Cr  Cr16  1  0.75000000  0.75000000  0.50000000  1
  Cr  Cr17  1  0.75000000  0.25000000  0.50000000  1
  Cr  Cr18  1  0.25000000  0.25000000  0.50000000  1
  Cr  Cr19  1  0.25000000  0.75000000  0.50000000  1
  P  P20  1  0.62713000  0.50000000  0.20441100  1
  P  P21  1  0.87287000  0.00000000  0.79558900  1
  P  P22  1  0.60236300  0.00000000  0.74185900  1
  P  P23  1  0.89763700  0.50000000  0.25814100  1
  P  P24  1  0.12713000  0.00000000  0.20441100  1
  P  P25  1  0.37287000  0.50000000  0.79558900  1
  P  P26  1  0.10236300  0.50000000  0.74185900  1
  P  P27  1  0.39763700  0.00000000  0.25814100  1
  O  O28  1  0.62976450  0.80852950  0.62451300  1
  O  O29  1  0.99740900  0.50000000  0.73630600  1
  O  O30  1  0.53520400  0.50000000  0.31151300  1
  O  O31  1  0.62945700  0.50000000  0.98972200  1
  O  O32  1  0.68281150  0.30615250  0.26086400  1
  O  O33  1  0.62976450  0.19147050  0.62451300  1
  O  O34  1  0.96479600  0.00000000  0.68848700  1
  O  O35  1  0.68281150  0.69384750  0.26086400  1
  O  O36  1  0.50259100  0.00000000  0.26369400  1
  O  O37  1  0.73791000  0.50000000  0.58210500  1
  O  O38  1  0.76209000  0.00000000  0.41789500  1
  O  O39  1  0.81718850  0.19384750  0.73913600  1
  O  O40  1  0.81718850  0.80615250  0.73913600  1
  O  O41  1  0.84673300  0.50000000  0.06796100  1
  O  O42  1  0.87023550  0.30852950  0.37548700  1
  O  O43  1  0.87023550  0.69147050  0.37548700  1
  O  O44  1  0.87054300  0.00000000  0.01027800  1
  O  O45  1  0.65326700  0.00000000  0.93203900  1
  O  O46  1  0.12976450  0.30852950  0.62451300  1
  O  O47  1  0.49740900  0.00000000  0.73630600  1
  O  O48  1  0.03520400  0.00000000  0.31151300  1
  O  O49  1  0.12945700  0.00000000  0.98972200  1
  O  O50  1  0.18281150  0.80615250  0.26086400  1
  O  O51  1  0.12976450  0.69147050  0.62451300  1
  O  O52  1  0.46479600  0.50000000  0.68848700  1
  O  O53  1  0.18281150  0.19384750  0.26086400  1
  O  O54  1  0.00259100  0.50000000  0.26369400  1
  O  O55  1  0.23791000  0.00000000  0.58210500  1
  O  O56  1  0.26209000  0.50000000  0.41789500  1
  O  O57  1  0.31718850  0.69384750  0.73913600  1
  O  O58  1  0.31718850  0.30615250  0.73913600  1
  O  O59  1  0.34673300  0.00000000  0.06796100  1
  O  O60  1  0.37023550  0.80852950  0.37548700  1
  O  O61  1  0.37023550  0.19147050  0.37548700  1
  O  O62  1  0.37054300  0.50000000  0.01027800  1
  O  O63  1  0.15326700  0.50000000  0.93203900  1
