# generated using pymatgen
data_Ce4Ru3
_symmetry_space_group_name_H-M   'P 1'
_cell_length_a   8.45313000
_cell_length_b   13.70719000
_cell_length_c   6.03041158
_cell_angle_alpha   90.00000000
_cell_angle_beta   117.33806398
_cell_angle_gamma   90.00000000
_symmetry_Int_Tables_number   1
_chemical_formula_structural   Ce4Ru3
_chemical_formula_sum   'Ce16 Ru12'
_cell_volume   620.69554487
_cell_formula_units_Z   4
loop_
 _symmetry_equiv_pos_site_id
 _symmetry_equiv_pos_as_xyz
  1  'x, y, z'
loop_
 _atom_site_type_symbol
 _atom_site_label
 _atom_site_symmetry_multiplicity
 _atom_site_fract_x
 _atom_site_fract_y
 _atom_site_fract_z
 _atom_site_occupancy
  Ce  Ce0  1  0.24521900  0.36640000  0.83454300  1
  Ce  Ce1  1  0.34873700  0.00000000  0.72346300  1
  Ce  Ce2  1  0.25478100  0.13360000  0.16545700  1
  Ce  Ce3  1  0.75478100  0.36640000  0.16545700  1
  Ce  Ce4  1  0.50000000  0.33387900  0.50000000  1
  Ce  Ce5  1  0.65126300  0.00000000  0.27653700  1
  Ce  Ce6  1  0.00000000  0.16612100  0.50000000  1
  Ce  Ce7  1  0.74521900  0.13360000  0.83454300  1
  Ce  Ce8  1  0.74521900  0.86640000  0.83454300  1
  Ce  Ce9  1  0.84873700  0.50000000  0.72346300  1
  Ce  Ce10  1  0.75478100  0.63360000  0.16545700  1
  Ce  Ce11  1  0.25478100  0.86640000  0.16545700  1
  Ce  Ce12  1  0.00000000  0.83387900  0.50000000  1
  Ce  Ce13  1  0.15126300  0.50000000  0.27653700  1
  Ce  Ce14  1  0.50000000  0.66612100  0.50000000  1
  Ce  Ce15  1  0.24521900  0.63360000  0.83454300  1
  Ru  Ru16  1  0.11917600  0.30129000  0.25525100  1
  Ru  Ru17  1  0.99327900  0.00000000  0.74952400  1
  Ru  Ru18  1  0.61917600  0.19871000  0.25525100  1
  Ru  Ru19  1  0.88082400  0.30129000  0.74474900  1
  Ru  Ru20  1  0.00672100  0.00000000  0.25047600  1
  Ru  Ru21  1  0.38082400  0.19871000  0.74474900  1
  Ru  Ru22  1  0.61917600  0.80129000  0.25525100  1
  Ru  Ru23  1  0.49327900  0.50000000  0.74952400  1
  Ru  Ru24  1  0.11917600  0.69871000  0.25525100  1
  Ru  Ru25  1  0.38082400  0.80129000  0.74474900  1
  Ru  Ru26  1  0.50672100  0.50000000  0.25047600  1
  Ru  Ru27  1  0.88082400  0.69871000  0.74474900  1
