# generated using pymatgen
data_La5Sn3
_symmetry_space_group_name_H-M   'P 1'
_cell_length_a   12.84010200
_cell_length_b   12.84010200
_cell_length_c   6.36379800
_cell_angle_alpha   90.00000000
_cell_angle_beta   90.00000000
_cell_angle_gamma   90.00000000
_symmetry_Int_Tables_number   1
_chemical_formula_structural   La5Sn3
_chemical_formula_sum   'La20 Sn12'
_cell_volume   1049.18804469
_cell_formula_units_Z   4
loop_
 _symmetry_equiv_pos_site_id
 _symmetry_equiv_pos_as_xyz
  1  'x, y, z'
loop_
 _atom_site_type_symbol
 _atom_site_label
 _atom_site_symmetry_multiplicity
 _atom_site_fract_x
 _atom_site_fract_y
 _atom_site_fract_z
 _atom_site_occupancy
  La  La0  1  0.50000000  0.00000000  0.75000000  1
  La  La1  1  0.50000000  0.00000000  0.25000000  1
  La  La2  1  0.41444400  0.71699200  0.00000000  1
  La  La3  1  0.21699200  0.08555600  0.50000000  1
  La  La4  1  0.78300800  0.91444400  0.50000000  1
  La  La5  1  0.58555600  0.28300800  0.00000000  1
  La  La6  1  0.21699200  0.91444400  0.00000000  1
  La  La7  1  0.78300800  0.08555600  0.00000000  1
  La  La8  1  0.58555600  0.71699200  0.50000000  1
  La  La9  1  0.41444400  0.28300800  0.50000000  1
  La  La10  1  0.00000000  0.50000000  0.25000000  1
  La  La11  1  0.00000000  0.50000000  0.75000000  1
  La  La12  1  0.91444400  0.21699200  0.50000000  1
  La  La13  1  0.71699200  0.58555600  0.00000000  1
  La  La14  1  0.28300800  0.41444400  0.00000000  1
  La  La15  1  0.08555600  0.78300800  0.50000000  1
  La  La16  1  0.71699200  0.41444400  0.50000000  1
  La  La17  1  0.28300800  0.58555600  0.50000000  1
  La  La18  1  0.08555600  0.21699200  0.00000000  1
  La  La19  1  0.91444400  0.78300800  0.00000000  1
  Sn  Sn20  1  0.00000000  0.00000000  0.25000000  1
  Sn  Sn21  1  0.00000000  0.00000000  0.75000000  1
  Sn  Sn22  1  0.33987800  0.16012200  0.00000000  1
  Sn  Sn23  1  0.66012200  0.16012200  0.50000000  1
  Sn  Sn24  1  0.33987800  0.83987800  0.50000000  1
  Sn  Sn25  1  0.66012200  0.83987800  0.00000000  1
  Sn  Sn26  1  0.50000000  0.50000000  0.75000000  1
  Sn  Sn27  1  0.50000000  0.50000000  0.25000000  1
  Sn  Sn28  1  0.83987800  0.66012200  0.50000000  1
  Sn  Sn29  1  0.16012200  0.66012200  0.00000000  1
  Sn  Sn30  1  0.83987800  0.33987800  0.00000000  1
  Sn  Sn31  1  0.16012200  0.33987800  0.50000000  1
