# generated using pymatgen
data_V2(PO4)3
_symmetry_space_group_name_H-M   'P 1'
_cell_length_a   8.59182971
_cell_length_b   8.59182971
_cell_length_c   20.75062414
_cell_angle_alpha   90.00000000
_cell_angle_beta   90.00000000
_cell_angle_gamma   120.00000000
_symmetry_Int_Tables_number   1
_chemical_formula_structural   V2(PO4)3
_chemical_formula_sum   'V12 P18 O72'
_cell_volume   1326.57899726
_cell_formula_units_Z   6
loop_
 _symmetry_equiv_pos_site_id
 _symmetry_equiv_pos_as_xyz
  1  'x, y, z'
loop_
 _atom_site_type_symbol
 _atom_site_label
 _atom_site_symmetry_multiplicity
 _atom_site_fract_x
 _atom_site_fract_y
 _atom_site_fract_z
 _atom_site_occupancy
  V  V0  1  0.33333333  0.66666667  0.03029167  1
  V  V1  1  0.33333333  0.66666667  0.80304167  1
  V  V2  1  0.33333333  0.66666667  0.53029167  1
  V  V3  1  0.33333333  0.66666667  0.30304167  1
  V  V4  1  0.00000000  0.00000000  0.36362500  1
  V  V5  1  1.00000000  0.00000000  0.13637500  1
  V  V6  1  0.00000000  0.00000000  0.86362500  1
  V  V7  1  0.00000000  0.00000000  0.63637500  1
  V  V8  1  0.66666667  0.33333333  0.69695833  1
  V  V9  1  0.66666667  0.33333333  0.46970833  1
  V  V10  1  0.66666667  0.33333333  0.19695833  1
  V  V11  1  0.66666667  0.33333333  0.96970833  1
  P  P12  1  0.95238467  0.33333333  0.08333333  1
  P  P13  1  0.71428200  0.00000000  0.25000000  1
  P  P14  1  0.00000000  0.71428200  0.25000000  1
  P  P15  1  0.28571800  0.28571800  0.25000000  1
  P  P16  1  0.38094867  0.04761533  0.08333333  1
  P  P17  1  0.66666667  0.61905133  0.08333333  1
  P  P18  1  0.61905133  0.66666667  0.41666667  1
  P  P19  1  0.38094867  0.33333333  0.58333333  1
  P  P20  1  0.66666667  0.04761533  0.58333333  1
  P  P21  1  0.95238467  0.61905133  0.58333333  1
  P  P22  1  0.04761533  0.38094867  0.41666667  1
  P  P23  1  0.33333333  0.95238467  0.41666667  1
  P  P24  1  0.28571800  0.00000000  0.75000000  1
  P  P25  1  0.04761533  0.66666667  0.91666667  1
  P  P26  1  0.33333333  0.38094867  0.91666667  1
  P  P27  1  0.61905133  0.95238467  0.91666667  1
  P  P28  1  0.71428200  0.71428200  0.75000000  1
  P  P29  1  0.00000000  0.28571800  0.75000000  1
  O  O30  1  0.34201733  0.85543067  0.35585367  1
  O  O31  1  0.69060967  0.16652533  0.24986433  1
  O  O32  1  0.35727633  0.85741767  0.08319767  1
  O  O33  1  0.30939033  0.47591567  0.25013567  1
  O  O34  1  0.14258233  0.49985867  0.08319767  1
  O  O35  1  0.19075100  0.02394300  0.08346900  1
  O  O36  1  0.52408433  0.83347467  0.25013567  1
  O  O37  1  0.34201733  0.48658667  0.85585367  1
  O  O38  1  0.32464933  0.84674667  0.47747967  1
  O  O39  1  0.14456933  0.65798267  0.85585367  1
  O  O40  1  0.51341333  0.85543067  0.85585367  1
  O  O41  1  0.32464933  0.47790267  0.97747967  1
  O  O42  1  0.51341333  0.65798267  0.35585367  1
  O  O43  1  0.47591567  0.30939033  0.24986433  1
  O  O44  1  0.15325333  0.67535067  0.97747967  1
  O  O45  1  0.14456933  0.48658667  0.35585367  1
  O  O46  1  0.16652533  0.69060967  0.25013567  1
  O  O47  1  0.50014133  0.64272367  0.08319767  1
  O  O48  1  0.52209733  0.67535067  0.47747967  1
  O  O49  1  0.97605700  0.16680800  0.08346900  1
  O  O50  1  0.52209733  0.84674667  0.97747967  1
  O  O51  1  0.83347467  0.52408433  0.24986433  1
  O  O52  1  0.83319200  0.80924900  0.08346900  1
  O  O53  1  0.15325333  0.47790267  0.47747967  1
  O  O54  1  0.00868400  0.18876400  0.68918700  1
  O  O55  1  0.35727633  0.49985867  0.58319767  1
  O  O56  1  0.02394300  0.19075100  0.41653100  1
  O  O57  1  0.97605700  0.80924900  0.58346900  1
  O  O58  1  0.80924900  0.83319200  0.41653100  1
  O  O59  1  0.85741767  0.35727633  0.41680233  1
  O  O60  1  0.19075100  0.16680800  0.58346900  1
  O  O61  1  0.00868400  0.81992000  0.18918700  1
  O  O62  1  0.99131600  0.18008000  0.81081300  1
  O  O63  1  0.81123600  0.99131600  0.18918700  1
  O  O64  1  0.18008000  0.18876400  0.18918700  1
  O  O65  1  0.99131600  0.81123600  0.31081300  1
  O  O66  1  0.18008000  0.99131600  0.68918700  1
  O  O67  1  0.14258233  0.64272367  0.58319767  1
  O  O68  1  0.81992000  0.00868400  0.31081300  1
  O  O69  1  0.81123600  0.81992000  0.68918700  1
  O  O70  1  0.83319200  0.02394300  0.58346900  1
  O  O71  1  0.16680800  0.97605700  0.41653100  1
  O  O72  1  0.18876400  0.00868400  0.81081300  1
  O  O73  1  0.64272367  0.50014133  0.41680233  1
  O  O74  1  0.18876400  0.18008000  0.31081300  1
  O  O75  1  0.50014133  0.85741767  0.58319767  1
  O  O76  1  0.49985867  0.14258233  0.41680233  1
  O  O77  1  0.81992000  0.81123600  0.81081300  1
  O  O78  1  0.67535067  0.52209733  0.02252033  1
  O  O79  1  0.02394300  0.83319200  0.91653100  1
  O  O80  1  0.69060967  0.52408433  0.74986433  1
  O  O81  1  0.64272367  0.14258233  0.91680233  1
  O  O82  1  0.47591567  0.16652533  0.74986433  1
  O  O83  1  0.52408433  0.69060967  0.75013567  1
  O  O84  1  0.85741767  0.50014133  0.91680233  1
  O  O85  1  0.67535067  0.15325333  0.52252033  1
  O  O86  1  0.65798267  0.51341333  0.14414633  1
  O  O87  1  0.47790267  0.32464933  0.52252033  1
  O  O88  1  0.84674667  0.52209733  0.52252033  1
  O  O89  1  0.65798267  0.14456933  0.64414633  1
  O  O90  1  0.84674667  0.32464933  0.02252033  1
  O  O91  1  0.80924900  0.97605700  0.91653100  1
  O  O92  1  0.48658667  0.34201733  0.64414633  1
  O  O93  1  0.47790267  0.15325333  0.02252033  1
  O  O94  1  0.49985867  0.35727633  0.91680233  1
  O  O95  1  0.83347467  0.30939033  0.74986433  1
  O  O96  1  0.85543067  0.34201733  0.14414633  1
  O  O97  1  0.30939033  0.83347467  0.75013567  1
  O  O98  1  0.85543067  0.51341333  0.64414633  1
  O  O99  1  0.16680800  0.19075100  0.91653100  1
  O  O100  1  0.16652533  0.47591567  0.75013567  1
  O  O101  1  0.48658667  0.14456933  0.14414633  1
