# generated using pymatgen
data_MnAlF5
_symmetry_space_group_name_H-M   'P 1'
_cell_length_a   3.63438000
_cell_length_b   10.04119000
_cell_length_c   9.70182600
_cell_angle_alpha   90.00000000
_cell_angle_beta   90.00000000
_cell_angle_gamma   90.00000000
_symmetry_Int_Tables_number   1
_chemical_formula_structural   MnAlF5
_chemical_formula_sum   'Mn4 Al4 F20'
_cell_volume   354.05358822
_cell_formula_units_Z   4
loop_
 _symmetry_equiv_pos_site_id
 _symmetry_equiv_pos_as_xyz
  1  'x, y, z'
loop_
 _atom_site_type_symbol
 _atom_site_label
 _atom_site_symmetry_multiplicity
 _atom_site_fract_x
 _atom_site_fract_y
 _atom_site_fract_z
 _atom_site_occupancy
  Mn  Mn0  1  0.50000000  0.00000000  0.00000000  1
  Mn  Mn1  1  0.50000000  0.00000000  0.50000000  1
  Mn  Mn2  1  0.00000000  0.50000000  0.00000000  1
  Mn  Mn3  1  0.00000000  0.50000000  0.50000000  1
  Al  Al4  1  0.50000000  0.29326700  0.75000000  1
  Al  Al5  1  0.00000000  0.20673300  0.25000000  1
  Al  Al6  1  0.00000000  0.79326700  0.75000000  1
  Al  Al7  1  0.50000000  0.70673300  0.25000000  1
  F  F8  1  0.00000000  0.30572400  0.75000000  1
  F  F9  1  0.50000000  0.19427600  0.25000000  1
  F  F10  1  0.00000000  0.07427900  0.11540700  1
  F  F11  1  0.50000000  0.42572100  0.88459300  1
  F  F12  1  0.00000000  0.33068000  0.38199700  1
  F  F13  1  0.50000000  0.16932000  0.61800300  1
  F  F14  1  0.50000000  0.16932000  0.88199700  1
  F  F15  1  0.00000000  0.33068000  0.11800300  1
  F  F16  1  0.00000000  0.07427900  0.38459300  1
  F  F17  1  0.50000000  0.42572100  0.61540700  1
  F  F18  1  0.50000000  0.80572400  0.75000000  1
  F  F19  1  0.00000000  0.69427600  0.25000000  1
  F  F20  1  0.50000000  0.57427900  0.11540700  1
  F  F21  1  0.00000000  0.92572100  0.88459300  1
  F  F22  1  0.50000000  0.83068000  0.38199700  1
  F  F23  1  0.00000000  0.66932000  0.61800300  1
  F  F24  1  0.00000000  0.66932000  0.88199700  1
  F  F25  1  0.50000000  0.83068000  0.11800300  1
  F  F26  1  0.50000000  0.57427900  0.38459300  1
  F  F27  1  0.00000000  0.92572100  0.61540700  1
