# generated using pymatgen
data_KMo2P3O13
_symmetry_space_group_name_H-M   'P 1'
_cell_length_a   10.93360200
_cell_length_b   14.36507600
_cell_length_c   9.02546592
_cell_angle_alpha   90.00000000
_cell_angle_beta   126.30962015
_cell_angle_gamma   90.00000000
_symmetry_Int_Tables_number   1
_chemical_formula_structural   KMo2P3O13
_chemical_formula_sum   'K4 Mo8 P12 O52'
_cell_volume   1142.30911407
_cell_formula_units_Z   4
loop_
 _symmetry_equiv_pos_site_id
 _symmetry_equiv_pos_as_xyz
  1  'x, y, z'
loop_
 _atom_site_type_symbol
 _atom_site_label
 _atom_site_symmetry_multiplicity
 _atom_site_fract_x
 _atom_site_fract_y
 _atom_site_fract_z
 _atom_site_occupancy
  K  K0  1  0.25000000  0.25000000  0.00000000  1
  K  K1  1  0.25000000  0.75000000  0.50000000  1
  K  K2  1  0.75000000  0.75000000  0.00000000  1
  K  K3  1  0.75000000  0.25000000  0.50000000  1
  Mo  Mo4  1  0.75597550  0.08268450  0.83178000  1
  Mo  Mo5  1  0.75597550  0.91731550  0.33178000  1
  Mo  Mo6  1  0.24402450  0.08268450  0.66822000  1
  Mo  Mo7  1  0.24402450  0.91731550  0.16822000  1
  Mo  Mo8  1  0.25597550  0.58268450  0.83178000  1
  Mo  Mo9  1  0.25597550  0.41731550  0.33178000  1
  Mo  Mo10  1  0.74402450  0.58268450  0.66822000  1
  Mo  Mo11  1  0.74402450  0.41731550  0.16822000  1
  P  P12  1  0.50000000  0.51167300  0.75000000  1
  P  P13  1  0.55536550  0.79484950  0.43714900  1
  P  P14  1  0.55536550  0.20515050  0.93714900  1
  P  P15  1  0.44463450  0.79484950  0.06285100  1
  P  P16  1  0.50000000  0.48832700  0.25000000  1
  P  P17  1  0.44463450  0.20515050  0.56285100  1
  P  P18  1  0.00000000  0.01167300  0.75000000  1
  P  P19  1  0.05536550  0.29484950  0.43714900  1
  P  P20  1  0.05536550  0.70515050  0.93714900  1
  P  P21  1  0.94463450  0.29484950  0.06285100  1
  P  P22  1  0.00000000  0.98832700  0.25000000  1
  P  P23  1  0.94463450  0.70515050  0.56285100  1
  O  O24  1  0.05373400  0.94993000  0.91755400  1
  O  O25  1  0.13165250  0.92490250  0.28894600  1
  O  O26  1  0.32993650  0.86837950  0.03391900  1
  O  O27  1  0.13165250  0.07509750  0.78894600  1
  O  O28  1  0.62157300  0.27462900  0.09211400  1
  O  O29  1  0.67280650  0.97588850  0.76991700  1
  O  O30  1  0.41139950  0.15850050  0.89960900  1
  O  O31  1  0.94626600  0.05007000  0.08244600  1
  O  O32  1  0.67280650  0.02411150  0.26991700  1
  O  O33  1  0.32719350  0.02411150  0.23008300  1
  O  O34  1  0.94626600  0.94993000  0.58244600  1
  O  O35  1  0.62157300  0.72537100  0.59211400  1
  O  O36  1  0.58860050  0.84149950  0.10039100  1
  O  O37  1  0.86834750  0.07509750  0.71105400  1
  O  O38  1  0.58860050  0.15850050  0.60039100  1
  O  O39  1  0.86834750  0.92490250  0.21105400  1
  O  O40  1  0.32993650  0.13162050  0.53391900  1
  O  O41  1  0.37842700  0.72537100  0.90788600  1
  O  O42  1  0.05373400  0.05007000  0.41755400  1
  O  O43  1  0.67006350  0.86837950  0.46608100  1
  O  O44  1  0.37842700  0.27462900  0.40788600  1
  O  O45  1  0.67006350  0.13162050  0.96608100  1
  O  O46  1  0.50000000  0.73939300  0.25000000  1
  O  O47  1  0.41139950  0.84149950  0.39960900  1
  O  O48  1  0.32719350  0.97588850  0.73008300  1
  O  O49  1  0.50000000  0.26060700  0.75000000  1
  O  O50  1  0.55373400  0.44993000  0.91755400  1
  O  O51  1  0.63165250  0.42490250  0.28894600  1
  O  O52  1  0.82993650  0.36837950  0.03391900  1
  O  O53  1  0.63165250  0.57509750  0.78894600  1
  O  O54  1  0.12157300  0.77462900  0.09211400  1
  O  O55  1  0.17280650  0.47588850  0.76991700  1
  O  O56  1  0.91139950  0.65850050  0.89960900  1
  O  O57  1  0.44626600  0.55007000  0.08244600  1
  O  O58  1  0.17280650  0.52411150  0.26991700  1
  O  O59  1  0.82719350  0.52411150  0.23008300  1
  O  O60  1  0.44626600  0.44993000  0.58244600  1
  O  O61  1  0.12157300  0.22537100  0.59211400  1
  O  O62  1  0.08860050  0.34149950  0.10039100  1
  O  O63  1  0.36834750  0.57509750  0.71105400  1
  O  O64  1  0.08860050  0.65850050  0.60039100  1
  O  O65  1  0.36834750  0.42490250  0.21105400  1
  O  O66  1  0.82993650  0.63162050  0.53391900  1
  O  O67  1  0.87842700  0.22537100  0.90788600  1
  O  O68  1  0.55373400  0.55007000  0.41755400  1
  O  O69  1  0.17006350  0.36837950  0.46608100  1
  O  O70  1  0.87842700  0.77462900  0.40788600  1
  O  O71  1  0.17006350  0.63162050  0.96608100  1
  O  O72  1  0.00000000  0.23939300  0.25000000  1
  O  O73  1  0.91139950  0.34149950  0.39960900  1
  O  O74  1  0.82719350  0.47588850  0.73008300  1
  O  O75  1  0.00000000  0.76060700  0.75000000  1
