# generated using pymatgen
data_BaYbSn3
_symmetry_space_group_name_H-M   'P 1'
_cell_length_a   9.49943600
_cell_length_b   16.04014800
_cell_length_c   17.42966800
_cell_angle_alpha   90.00000000
_cell_angle_beta   90.00000000
_cell_angle_gamma   90.00000000
_symmetry_Int_Tables_number   1
_chemical_formula_structural   BaYbSn3
_chemical_formula_sum   'Ba16 Yb16 Sn48'
_cell_volume   2655.79963596
_cell_formula_units_Z   16
loop_
 _symmetry_equiv_pos_site_id
 _symmetry_equiv_pos_as_xyz
  1  'x, y, z'
loop_
 _atom_site_type_symbol
 _atom_site_label
 _atom_site_symmetry_multiplicity
 _atom_site_fract_x
 _atom_site_fract_y
 _atom_site_fract_z
 _atom_site_occupancy
  Ba  Ba0  1  0.50000000  0.71568700  0.00000000  1
  Ba  Ba1  1  0.50000000  0.28431300  0.00000000  1
  Ba  Ba2  1  0.32492000  0.00000000  0.91390300  1
  Ba  Ba3  1  0.50000000  0.21568700  0.50000000  1
  Ba  Ba4  1  0.67508000  0.00000000  0.08609700  1
  Ba  Ba5  1  0.50000000  0.78431300  0.50000000  1
  Ba  Ba6  1  0.82492000  0.00000000  0.58609700  1
  Ba  Ba7  1  0.17508000  0.00000000  0.41390300  1
  Ba  Ba8  1  0.00000000  0.21568700  0.00000000  1
  Ba  Ba9  1  0.00000000  0.78431300  0.00000000  1
  Ba  Ba10  1  0.82492000  0.50000000  0.91390300  1
  Ba  Ba11  1  0.00000000  0.71568700  0.50000000  1
  Ba  Ba12  1  0.17508000  0.50000000  0.08609700  1
  Ba  Ba13  1  0.00000000  0.28431300  0.50000000  1
  Ba  Ba14  1  0.32492000  0.50000000  0.58609700  1
  Ba  Ba15  1  0.67508000  0.50000000  0.41390300  1
  Yb  Yb16  1  0.48801400  0.13431000  0.72750500  1
  Yb  Yb17  1  0.48801400  0.36569000  0.77249500  1
  Yb  Yb18  1  0.48801400  0.86569000  0.72750500  1
  Yb  Yb19  1  0.48801400  0.63431000  0.77249500  1
  Yb  Yb20  1  0.51198600  0.36569000  0.22750500  1
  Yb  Yb21  1  0.51198600  0.63431000  0.22750500  1
  Yb  Yb22  1  0.51198600  0.13431000  0.27249500  1
  Yb  Yb23  1  0.51198600  0.86569000  0.27249500  1
  Yb  Yb24  1  0.98801400  0.63431000  0.72750500  1
  Yb  Yb25  1  0.98801400  0.86569000  0.77249500  1
  Yb  Yb26  1  0.98801400  0.36569000  0.72750500  1
  Yb  Yb27  1  0.98801400  0.13431000  0.77249500  1
  Yb  Yb28  1  0.01198600  0.86569000  0.22750500  1
  Yb  Yb29  1  0.01198600  0.13431000  0.22750500  1
  Yb  Yb30  1  0.01198600  0.63431000  0.27249500  1
  Yb  Yb31  1  0.01198600  0.36569000  0.27249500  1
  Sn  Sn32  1  0.31596600  0.11843000  0.09295600  1
  Sn  Sn33  1  0.23524500  0.22286800  0.33561900  1
  Sn  Sn34  1  0.73524500  0.22286800  0.16438100  1
  Sn  Sn35  1  0.21828500  0.00000000  0.72030400  1
  Sn  Sn36  1  0.93512500  0.00000000  0.91361800  1
  Sn  Sn37  1  0.26475500  0.22286800  0.83561900  1
  Sn  Sn38  1  0.73524500  0.77713200  0.16438100  1
  Sn  Sn39  1  0.26475500  0.77713200  0.83561900  1
  Sn  Sn40  1  0.06487500  0.00000000  0.08638200  1
  Sn  Sn41  1  0.78171500  0.00000000  0.27969600  1
  Sn  Sn42  1  0.81596600  0.11843000  0.40704400  1
  Sn  Sn43  1  0.81596600  0.88157000  0.40704400  1
  Sn  Sn44  1  0.71828500  0.00000000  0.77969600  1
  Sn  Sn45  1  0.68403400  0.88157000  0.90704400  1
  Sn  Sn46  1  0.56487500  0.00000000  0.41361800  1
  Sn  Sn47  1  0.18403400  0.88157000  0.59295600  1
  Sn  Sn48  1  0.68403400  0.11843000  0.90704400  1
  Sn  Sn49  1  0.18403400  0.11843000  0.59295600  1
  Sn  Sn50  1  0.76475500  0.77713200  0.66438100  1
  Sn  Sn51  1  0.23524500  0.77713200  0.33561900  1
  Sn  Sn52  1  0.43512500  0.00000000  0.58638200  1
  Sn  Sn53  1  0.76475500  0.22286800  0.66438100  1
  Sn  Sn54  1  0.28171500  0.00000000  0.22030400  1
  Sn  Sn55  1  0.31596600  0.88157000  0.09295600  1
  Sn  Sn56  1  0.81596600  0.61843000  0.09295600  1
  Sn  Sn57  1  0.73524500  0.72286800  0.33561900  1
  Sn  Sn58  1  0.23524500  0.72286800  0.16438100  1
  Sn  Sn59  1  0.71828500  0.50000000  0.72030400  1
  Sn  Sn60  1  0.43512500  0.50000000  0.91361800  1
  Sn  Sn61  1  0.76475500  0.72286800  0.83561900  1
  Sn  Sn62  1  0.23524500  0.27713200  0.16438100  1
  Sn  Sn63  1  0.76475500  0.27713200  0.83561900  1
  Sn  Sn64  1  0.56487500  0.50000000  0.08638200  1
  Sn  Sn65  1  0.28171500  0.50000000  0.27969600  1
  Sn  Sn66  1  0.31596600  0.61843000  0.40704400  1
  Sn  Sn67  1  0.31596600  0.38157000  0.40704400  1
  Sn  Sn68  1  0.21828500  0.50000000  0.77969600  1
  Sn  Sn69  1  0.18403400  0.38157000  0.90704400  1
  Sn  Sn70  1  0.06487500  0.50000000  0.41361800  1
  Sn  Sn71  1  0.68403400  0.38157000  0.59295600  1
  Sn  Sn72  1  0.18403400  0.61843000  0.90704400  1
  Sn  Sn73  1  0.68403400  0.61843000  0.59295600  1
  Sn  Sn74  1  0.26475500  0.27713200  0.66438100  1
  Sn  Sn75  1  0.73524500  0.27713200  0.33561900  1
  Sn  Sn76  1  0.93512500  0.50000000  0.58638200  1
  Sn  Sn77  1  0.26475500  0.72286800  0.66438100  1
  Sn  Sn78  1  0.78171500  0.50000000  0.22030400  1
  Sn  Sn79  1  0.81596600  0.38157000  0.09295600  1
