# generated using pymatgen
data_Zr3(Al2C3)2
_symmetry_space_group_name_H-M   'P 1'
_cell_length_a   3.35699218
_cell_length_b   3.35699218
_cell_length_c   49.30515376
_cell_angle_alpha   90.00000000
_cell_angle_beta   90.00000000
_cell_angle_gamma   120.00000000
_symmetry_Int_Tables_number   1
_chemical_formula_structural   Zr3(Al2C3)2
_chemical_formula_sum   'Zr9 Al12 C18'
_cell_volume   481.19777397
_cell_formula_units_Z   3
loop_
 _symmetry_equiv_pos_site_id
 _symmetry_equiv_pos_as_xyz
  1  'x, y, z'
loop_
 _atom_site_type_symbol
 _atom_site_label
 _atom_site_symmetry_multiplicity
 _atom_site_fract_x
 _atom_site_fract_y
 _atom_site_fract_z
 _atom_site_occupancy
  Zr  Zr0  1  0.33333333  0.66666667  0.16666667  1
  Zr  Zr1  1  0.66666667  0.33333333  0.22160333  1
  Zr  Zr2  1  0.00000000  0.00000000  0.11173000  1
  Zr  Zr3  1  1.00000000  1.00000000  0.50000000  1
  Zr  Zr4  1  0.33333333  0.66666667  0.55493667  1
  Zr  Zr5  1  0.66666667  0.33333333  0.44506333  1
  Zr  Zr6  1  0.66666667  0.33333333  0.83333333  1
  Zr  Zr7  1  0.00000000  0.00000000  0.88827000  1
  Zr  Zr8  1  0.33333333  0.66666667  0.77839667  1
  Al  Al9  1  0.33333333  0.66666667  0.01910767  1
  Al  Al10  1  0.00000000  0.00000000  0.26851000  1
  Al  Al11  1  0.66666667  0.33333333  0.06482333  1
  Al  Al12  1  0.33333333  0.66666667  0.31422567  1
  Al  Al13  1  0.00000000  0.00000000  0.35244100  1
  Al  Al14  1  0.66666667  0.33333333  0.60184333  1
  Al  Al15  1  0.33333333  0.66666667  0.39815667  1
  Al  Al16  1  0.00000000  0.00000000  0.64755900  1
  Al  Al17  1  0.66666667  0.33333333  0.68577433  1
  Al  Al18  1  0.33333333  0.66666667  0.93517667  1
  Al  Al19  1  0.00000000  0.00000000  0.73149000  1
  Al  Al20  1  0.66666667  0.33333333  0.98089233  1
  C  C21  1  0.00000000  0.00000000  0.30813500  1
  C  C22  1  0.33333333  0.66666667  0.08294867  1
  C  C23  1  0.66666667  0.33333333  0.02519833  1
  C  C24  1  0.66666667  0.33333333  0.13881933  1
  C  C25  1  0.33333333  0.66666667  0.25038467  1
  C  C26  1  0.00000000  0.00000000  0.19451400  1
  C  C27  1  0.66666667  0.33333333  0.64146833  1
  C  C28  1  0.00000000  0.00000000  0.41628200  1
  C  C29  1  0.33333333  0.66666667  0.35853167  1
  C  C30  1  0.33333333  0.66666667  0.47215267  1
  C  C31  1  0.00000000  0.00000000  0.58371800  1
  C  C32  1  0.66666667  0.33333333  0.52784733  1
  C  C33  1  0.33333333  0.66666667  0.97480167  1
  C  C34  1  0.66666667  0.33333333  0.74961533  1
  C  C35  1  0.00000000  0.00000000  0.69186500  1
  C  C36  1  0.00000000  0.00000000  0.80548600  1
  C  C37  1  0.66666667  0.33333333  0.91705133  1
  C  C38  1  0.33333333  0.66666667  0.86118067  1
