# generated using pymatgen
data_CoNi(PO3)4
_symmetry_space_group_name_H-M   'P 1'
_cell_length_a   11.88398400
_cell_length_b   8.36954200
_cell_length_c   9.98284222
_cell_angle_alpha   90.00000000
_cell_angle_beta   118.56001853
_cell_angle_gamma   90.00000000
_symmetry_Int_Tables_number   1
_chemical_formula_structural   CoNi(PO3)4
_chemical_formula_sum   'Co4 Ni4 P16 O48'
_cell_volume   872.10574362
_cell_formula_units_Z   4
loop_
 _symmetry_equiv_pos_site_id
 _symmetry_equiv_pos_as_xyz
  1  'x, y, z'
loop_
 _atom_site_type_symbol
 _atom_site_label
 _atom_site_symmetry_multiplicity
 _atom_site_fract_x
 _atom_site_fract_y
 _atom_site_fract_z
 _atom_site_occupancy
  Co  Co0  1  0.50000000  0.55436100  0.75000000  1
  Co  Co1  1  0.00000000  0.94563900  0.25000000  1
  Co  Co2  1  0.00000000  0.05436100  0.75000000  1
  Co  Co3  1  0.50000000  0.44563900  0.25000000  1
  Ni  Ni4  1  0.25000000  0.75000000  0.50000000  1
  Ni  Ni5  1  0.75000000  0.75000000  0.00000000  1
  Ni  Ni6  1  0.75000000  0.25000000  0.50000000  1
  Ni  Ni7  1  0.25000000  0.25000000  0.00000000  1
  P  P8  1  0.30419800  0.99291500  0.80229300  1
  P  P9  1  0.69580200  0.99291500  0.69770700  1
  P  P10  1  0.19580200  0.50708500  0.19770700  1
  P  P11  1  0.80419800  0.50708500  0.30229300  1
  P  P12  1  0.99121000  0.26264100  0.02367600  1
  P  P13  1  0.50879000  0.76264100  0.47632400  1
  P  P14  1  0.50879000  0.23735900  0.97632400  1
  P  P15  1  0.99121000  0.73735900  0.52367600  1
  P  P16  1  0.80419800  0.49291500  0.80229300  1
  P  P17  1  0.19580200  0.49291500  0.69770700  1
  P  P18  1  0.69580200  0.00708500  0.19770700  1
  P  P19  1  0.30419800  0.00708500  0.30229300  1
  P  P20  1  0.49121000  0.76264100  0.02367600  1
  P  P21  1  0.00879000  0.26264100  0.47632400  1
  P  P22  1  0.00879000  0.73735900  0.97632400  1
  P  P23  1  0.49121000  0.23735900  0.52367600  1
  O  O24  1  0.42304900  0.11136800  0.84424200  1
  O  O25  1  0.07695100  0.61136800  0.65575800  1
  O  O26  1  0.07695100  0.38863200  0.15575800  1
  O  O27  1  0.42304900  0.88863200  0.34424200  1
  O  O28  1  0.35850100  0.85852700  0.93420100  1
  O  O29  1  0.64149900  0.85852700  0.56579900  1
  O  O30  1  0.14149900  0.64147300  0.06579900  1
  O  O31  1  0.85850100  0.64147300  0.43420100  1
  O  O32  1  0.26685450  0.92440750  0.65021500  1
  O  O33  1  0.73314550  0.92440750  0.84978500  1
  O  O34  1  0.23314550  0.57559250  0.34978500  1
  O  O35  1  0.76685450  0.57559250  0.15021500  1
  O  O36  1  0.20307950  0.08303950  0.82426700  1
  O  O37  1  0.29692050  0.58303950  0.67573300  1
  O  O38  1  0.29692050  0.41696050  0.17573300  1
  O  O39  1  0.20307950  0.91696050  0.32426700  1
  O  O40  1  0.55039450  0.74226050  0.91844600  1
  O  O41  1  0.44960550  0.74226050  0.58155400  1
  O  O42  1  0.94960550  0.75773950  0.08155400  1
  O  O43  1  0.05039450  0.75773950  0.41844600  1
  O  O44  1  0.46612700  0.62092300  0.09359600  1
  O  O45  1  0.53387300  0.62092300  0.40640400  1
  O  O46  1  0.03387300  0.87907700  0.90640400  1
  O  O47  1  0.96612700  0.87907700  0.59359600  1
  O  O48  1  0.92304900  0.61136800  0.84424200  1
  O  O49  1  0.57695100  0.11136800  0.65575800  1
  O  O50  1  0.57695100  0.88863200  0.15575800  1
  O  O51  1  0.92304900  0.38863200  0.34424200  1
  O  O52  1  0.85850100  0.35852700  0.93420100  1
  O  O53  1  0.14149900  0.35852700  0.56579900  1
  O  O54  1  0.64149900  0.14147300  0.06579900  1
  O  O55  1  0.35850100  0.14147300  0.43420100  1
  O  O56  1  0.76685450  0.42440750  0.65021500  1
  O  O57  1  0.23314550  0.42440750  0.84978500  1
  O  O58  1  0.73314550  0.07559250  0.34978500  1
  O  O59  1  0.26685450  0.07559250  0.15021500  1
  O  O60  1  0.70307950  0.58303950  0.82426700  1
  O  O61  1  0.79692050  0.08303950  0.67573300  1
  O  O62  1  0.79692050  0.91696050  0.17573300  1
  O  O63  1  0.70307950  0.41696050  0.32426700  1
  O  O64  1  0.05039450  0.24226050  0.91844600  1
  O  O65  1  0.94960550  0.24226050  0.58155400  1
  O  O66  1  0.44960550  0.25773950  0.08155400  1
  O  O67  1  0.55039450  0.25773950  0.41844600  1
  O  O68  1  0.96612700  0.12092300  0.09359600  1
  O  O69  1  0.03387300  0.12092300  0.40640400  1
  O  O70  1  0.53387300  0.37907700  0.90640400  1
  O  O71  1  0.46612700  0.37907700  0.59359600  1
