# generated using pymatgen
data_BaEu2CoO5
_symmetry_space_group_name_H-M   'P 1'
_cell_length_a   3.77247000
_cell_length_b   5.97652800
_cell_length_c   11.77363000
_cell_angle_alpha   90.00000000
_cell_angle_beta   90.00000000
_cell_angle_gamma   90.00000000
_symmetry_Int_Tables_number   1
_chemical_formula_structural   BaEu2CoO5
_chemical_formula_sum   'Ba2 Eu4 Co2 O10'
_cell_volume   265.45147129
_cell_formula_units_Z   2
loop_
 _symmetry_equiv_pos_site_id
 _symmetry_equiv_pos_as_xyz
  1  'x, y, z'
loop_
 _atom_site_type_symbol
 _atom_site_label
 _atom_site_symmetry_multiplicity
 _atom_site_fract_x
 _atom_site_fract_y
 _atom_site_fract_z
 _atom_site_occupancy
  Ba  Ba0  1  0.00000000  0.00000000  0.00000000  1
  Ba  Ba1  1  0.50000000  0.50000000  0.50000000  1
  Eu  Eu2  1  0.50000000  0.00000000  0.70654400  1
  Eu  Eu3  1  0.00000000  0.50000000  0.79345600  1
  Eu  Eu4  1  0.00000000  0.50000000  0.20654400  1
  Eu  Eu5  1  0.50000000  0.00000000  0.29345600  1
  Co  Co6  1  0.50000000  0.50000000  0.00000000  1
  Co  Co7  1  0.00000000  0.00000000  0.50000000  1
  O  O8  1  0.50000000  0.25963700  0.85927500  1
  O  O9  1  0.00000000  0.24036300  0.64072500  1
  O  O10  1  0.00000000  0.75963700  0.64072500  1
  O  O11  1  0.50000000  0.74036300  0.85927500  1
  O  O12  1  0.00000000  0.50000000  0.00000000  1
  O  O13  1  0.00000000  0.75963700  0.35927500  1
  O  O14  1  0.50000000  0.74036300  0.14072500  1
  O  O15  1  0.50000000  0.25963700  0.14072500  1
  O  O16  1  0.00000000  0.24036300  0.35927500  1
  O  O17  1  0.50000000  0.00000000  0.50000000  1
