# generated using pymatgen
data_UBN
_symmetry_space_group_name_H-M   'P 1'
_cell_length_a   3.57922000
_cell_length_b   11.81583000
_cell_length_c   3.25357500
_cell_angle_alpha   90.00000000
_cell_angle_beta   90.00000000
_cell_angle_gamma   90.00000000
_symmetry_Int_Tables_number   1
_chemical_formula_structural   UBN
_chemical_formula_sum   'U4 B4 N4'
_cell_volume   137.59842087
_cell_formula_units_Z   4
loop_
 _symmetry_equiv_pos_site_id
 _symmetry_equiv_pos_as_xyz
  1  'x, y, z'
loop_
 _atom_site_type_symbol
 _atom_site_label
 _atom_site_symmetry_multiplicity
 _atom_site_fract_x
 _atom_site_fract_y
 _atom_site_fract_z
 _atom_site_occupancy
  U  U0  1  0.00000000  0.13708500  0.25000000  1
  U  U1  1  0.50000000  0.36291500  0.75000000  1
  U  U2  1  0.50000000  0.63708500  0.25000000  1
  U  U3  1  0.00000000  0.86291500  0.75000000  1
  B  B4  1  0.00000000  0.46631700  0.25000000  1
  B  B5  1  0.50000000  0.03368300  0.75000000  1
  B  B6  1  0.50000000  0.96631700  0.25000000  1
  B  B7  1  0.00000000  0.53368300  0.75000000  1
  N  N8  1  0.00000000  0.33806700  0.25000000  1
  N  N9  1  0.50000000  0.16193300  0.75000000  1
  N  N10  1  0.50000000  0.83806700  0.25000000  1
  N  N11  1  0.00000000  0.66193300  0.75000000  1
