# generated using pymatgen
data_Tb2Al4NiGe2
_symmetry_space_group_name_H-M   'P 1'
_cell_length_a   4.15060200
_cell_length_b   4.15060200
_cell_length_c   19.46394200
_cell_angle_alpha   90.00000000
_cell_angle_beta   90.00000000
_cell_angle_gamma   90.00000000
_symmetry_Int_Tables_number   1
_chemical_formula_structural   Tb2Al4NiGe2
_chemical_formula_sum   'Tb4 Al8 Ni2 Ge4'
_cell_volume   335.31500168
_cell_formula_units_Z   2
loop_
 _symmetry_equiv_pos_site_id
 _symmetry_equiv_pos_as_xyz
  1  'x, y, z'
loop_
 _atom_site_type_symbol
 _atom_site_label
 _atom_site_symmetry_multiplicity
 _atom_site_fract_x
 _atom_site_fract_y
 _atom_site_fract_z
 _atom_site_occupancy
  Tb  Tb0  1  0.50000000  0.50000000  0.31401900  1
  Tb  Tb1  1  0.00000000  0.00000000  0.18598100  1
  Tb  Tb2  1  0.00000000  0.00000000  0.81401900  1
  Tb  Tb3  1  0.50000000  0.50000000  0.68598100  1
  Al  Al4  1  0.50000000  0.00000000  0.43269500  1
  Al  Al5  1  0.00000000  0.50000000  0.43269500  1
  Al  Al6  1  0.50000000  0.00000000  0.06730500  1
  Al  Al7  1  0.00000000  0.50000000  0.06730500  1
  Al  Al8  1  0.00000000  0.50000000  0.93269500  1
  Al  Al9  1  0.50000000  0.00000000  0.93269500  1
  Al  Al10  1  0.00000000  0.50000000  0.56730500  1
  Al  Al11  1  0.50000000  0.00000000  0.56730500  1
  Ni  Ni12  1  0.00000000  0.00000000  0.00000000  1
  Ni  Ni13  1  0.50000000  0.50000000  0.50000000  1
  Ge  Ge14  1  0.50000000  0.50000000  0.16227400  1
  Ge  Ge15  1  0.00000000  0.00000000  0.33772600  1
  Ge  Ge16  1  0.00000000  0.00000000  0.66227400  1
  Ge  Ge17  1  0.50000000  0.50000000  0.83772600  1
