# generated using pymatgen
data_LiV2P5O16
_symmetry_space_group_name_H-M   'P 1'
_cell_length_a   5.08218700
_cell_length_b   6.81572600
_cell_length_c   18.86099761
_cell_angle_alpha   90.00000000
_cell_angle_beta   90.22202667
_cell_angle_gamma   90.00000000
_symmetry_Int_Tables_number   1
_chemical_formula_structural   LiV2P5O16
_chemical_formula_sum   'Li2 V4 P10 O32'
_cell_volume   653.31730702
_cell_formula_units_Z   2
loop_
 _symmetry_equiv_pos_site_id
 _symmetry_equiv_pos_as_xyz
  1  'x, y, z'
loop_
 _atom_site_type_symbol
 _atom_site_label
 _atom_site_symmetry_multiplicity
 _atom_site_fract_x
 _atom_site_fract_y
 _atom_site_fract_z
 _atom_site_occupancy
  Li  Li0  1  0.72965200  0.65153000  0.47075900  1
  Li  Li1  1  0.72965200  0.34847000  0.97075900  1
  V  V2  1  0.73278000  0.18232100  0.40705700  1
  V  V3  1  0.73278000  0.81767900  0.90705700  1
  V  V4  1  0.25837100  0.17883900  0.09309600  1
  V  V5  1  0.25837100  0.82116100  0.59309600  1
  P  P6  1  0.25006600  0.47358700  0.36952800  1
  P  P7  1  0.25006600  0.52641300  0.86952800  1
  P  P8  1  0.74717700  0.46554600  0.13023700  1
  P  P9  1  0.22744400  0.12631500  0.92037900  1
  P  P10  1  0.74717700  0.53445400  0.63023700  1
  P  P11  1  0.00906600  0.74127600  0.75039400  1
  P  P12  1  0.00906600  0.25872400  0.25039400  1
  P  P13  1  0.77225500  0.12869800  0.57767500  1
  P  P14  1  0.22744400  0.87368500  0.42037900  1
  P  P15  1  0.77225500  0.87130200  0.07767500  1
  O  O16  1  0.85105800  0.84879300  0.80532000  1
  O  O17  1  0.05383800  0.05522600  0.56979200  1
  O  O18  1  0.21642500  0.40287700  0.28899500  1
  O  O19  1  0.03658000  0.60870100  0.91623500  1
  O  O20  1  0.39214800  0.03778000  0.38888600  1
  O  O21  1  0.85105800  0.15120700  0.30532000  1
  O  O22  1  0.39214800  0.96222000  0.88888600  1
  O  O23  1  0.03658000  0.39129900  0.41623500  1
  O  O24  1  0.81634300  0.41042500  0.21091700  1
  O  O25  1  0.92901200  0.63560600  0.57748900  1
  O  O26  1  0.21888600  0.70368500  0.35896200  1
  O  O27  1  0.79825200  0.69362100  0.13545000  1
  O  O28  1  0.92901200  0.36439400  0.07748900  1
  O  O29  1  0.15834800  0.14131300  0.19729700  1
  O  O30  1  0.81634300  0.58957500  0.71091700  1
  O  O31  1  0.53319800  0.44155200  0.39204000  1
  O  O32  1  0.93506400  0.07993800  0.93096700  1
  O  O33  1  0.58441500  0.98253700  0.61077800  1
  O  O34  1  0.58441500  0.01746300  0.11077800  1
  O  O35  1  0.35853900  0.77838400  0.48583800  1
  O  O36  1  0.93506400  0.92006200  0.43096700  1
  O  O37  1  0.45845200  0.57188200  0.61755500  1
  O  O38  1  0.05383800  0.94477400  0.06979200  1
  O  O39  1  0.67392900  0.22650100  0.50932800  1
  O  O40  1  0.21888600  0.29631500  0.85896200  1
  O  O41  1  0.67392900  0.77349900  0.00932800  1
  O  O42  1  0.15834800  0.85868700  0.69729700  1
  O  O43  1  0.21642500  0.59712300  0.78899500  1
  O  O44  1  0.35853900  0.22161600  0.98583800  1
  O  O45  1  0.79825200  0.30637900  0.63545000  1
  O  O46  1  0.53319800  0.55844800  0.89204000  1
  O  O47  1  0.45845200  0.42811800  0.11755500  1
