# generated using pymatgen
data_Ca2VBiO6
_symmetry_space_group_name_H-M   'P 1'
_cell_length_a   9.01863600
_cell_length_b   12.07599800
_cell_length_c   5.60718200
_cell_angle_alpha   90.00000000
_cell_angle_beta   90.00000000
_cell_angle_gamma   90.00000000
_symmetry_Int_Tables_number   1
_chemical_formula_structural   Ca2VBiO6
_chemical_formula_sum   'Ca8 V4 Bi4 O24'
_cell_volume   610.67275433
_cell_formula_units_Z   4
loop_
 _symmetry_equiv_pos_site_id
 _symmetry_equiv_pos_as_xyz
  1  'x, y, z'
loop_
 _atom_site_type_symbol
 _atom_site_label
 _atom_site_symmetry_multiplicity
 _atom_site_fract_x
 _atom_site_fract_y
 _atom_site_fract_z
 _atom_site_occupancy
  Ca  Ca0  1  0.19768650  0.10690650  0.24153600  1
  Ca  Ca1  1  0.80231350  0.89309350  0.74153600  1
  Ca  Ca2  1  0.19768650  0.89309350  0.74153600  1
  Ca  Ca3  1  0.80231350  0.10690650  0.24153600  1
  Ca  Ca4  1  0.69768650  0.60690650  0.24153600  1
  Ca  Ca5  1  0.30231350  0.39309350  0.74153600  1
  Ca  Ca6  1  0.69768650  0.39309350  0.74153600  1
  Ca  Ca7  1  0.30231350  0.60690650  0.24153600  1
  V  V8  1  0.50000000  0.68414100  0.69536800  1
  V  V9  1  0.50000000  0.31585900  0.19536800  1
  V  V10  1  0.00000000  0.18414100  0.69536800  1
  V  V11  1  0.00000000  0.81585900  0.19536800  1
  Bi  Bi12  1  0.50000000  0.91042700  0.25695900  1
  Bi  Bi13  1  0.50000000  0.08957300  0.75695900  1
  Bi  Bi14  1  0.00000000  0.41042700  0.25695900  1
  Bi  Bi15  1  0.00000000  0.58957300  0.75695900  1
  O  O16  1  0.65347900  0.99518900  0.99565600  1
  O  O17  1  0.50000000  0.68386800  0.00815000  1
  O  O18  1  0.65603400  0.74833200  0.57438100  1
  O  O19  1  0.34396600  0.25166800  0.07438100  1
  O  O20  1  0.65347900  0.00481100  0.49565600  1
  O  O21  1  0.50000000  0.55303000  0.56437800  1
  O  O22  1  0.34652100  0.99518900  0.99565600  1
  O  O23  1  0.34652100  0.00481100  0.49565600  1
  O  O24  1  0.50000000  0.44697000  0.06437800  1
  O  O25  1  0.50000000  0.31613200  0.50815000  1
  O  O26  1  0.65603400  0.25166800  0.07438100  1
  O  O27  1  0.34396600  0.74833200  0.57438100  1
  O  O28  1  0.15347900  0.49518900  0.99565600  1
  O  O29  1  0.00000000  0.18386800  0.00815000  1
  O  O30  1  0.15603400  0.24833200  0.57438100  1
  O  O31  1  0.84396600  0.75166800  0.07438100  1
  O  O32  1  0.15347900  0.50481100  0.49565600  1
  O  O33  1  0.00000000  0.05303000  0.56437800  1
  O  O34  1  0.84652100  0.49518900  0.99565600  1
  O  O35  1  0.84652100  0.50481100  0.49565600  1
  O  O36  1  0.00000000  0.94697000  0.06437800  1
  O  O37  1  0.00000000  0.81613200  0.50815000  1
  O  O38  1  0.15603400  0.75166800  0.07438100  1
  O  O39  1  0.84396600  0.24833200  0.57438100  1
