# generated using pymatgen
data_Li2V(PO4)2
_symmetry_space_group_name_H-M   'P 1'
_cell_length_a   8.06156829
_cell_length_b   5.33734009
_cell_length_c   6.50180330
_cell_angle_alpha   90.00000000
_cell_angle_beta   92.42048766
_cell_angle_gamma   90.00000000
_symmetry_Int_Tables_number   1
_chemical_formula_structural   Li2V(PO4)2
_chemical_formula_sum   'Li4 V2 P4 O16'
_cell_volume   279.50564729
_cell_formula_units_Z   2
loop_
 _symmetry_equiv_pos_site_id
 _symmetry_equiv_pos_as_xyz
  1  'x, y, z'
loop_
 _atom_site_type_symbol
 _atom_site_label
 _atom_site_symmetry_multiplicity
 _atom_site_fract_x
 _atom_site_fract_y
 _atom_site_fract_z
 _atom_site_occupancy
  Li  Li0  1  0.67897300  0.00000000  0.71528525  1
  Li  Li1  1  0.50438425  0.50000000  0.47715350  1
  Li  Li2  1  0.17897300  0.50000000  0.71528525  1
  Li  Li3  1  0.00438425  0.00000000  0.47715350  1
  V  V4  1  0.50524575  0.50000000  0.00845875  1
  V  V5  1  0.00524575  0.00000000  0.00845875  1
  P  P6  1  0.65367087  0.00000000  0.23193025  1
  P  P7  1  0.84258250  0.50000000  0.77058575  1
  P  P8  1  0.15367087  0.50000000  0.23193025  1
  P  P9  1  0.34258250  0.00000000  0.77058575  1
  O  O10  1  0.73625038  0.50000000  0.57704375  1
  O  O11  1  0.76536200  0.00000000  0.03908575  1
  O  O12  1  0.73454650  0.50000000  0.96486425  1
  O  O13  1  0.75171725  0.00000000  0.43406875  1
  O  O14  1  0.53859838  0.76190587  0.21471425  1
  O  O15  1  0.03859838  0.73809413  0.21471425  1
  O  O16  1  0.46182650  0.76513725  0.78549075  1
  O  O17  1  0.96182650  0.73486275  0.78549075  1
  O  O18  1  0.23625038  0.00000000  0.57704375  1
  O  O19  1  0.26536200  0.50000000  0.03908575  1
  O  O20  1  0.23454650  0.00000000  0.96486425  1
  O  O21  1  0.25171725  0.50000000  0.43406875  1
  O  O22  1  0.03859838  0.26190587  0.21471425  1
  O  O23  1  0.53859838  0.23809413  0.21471425  1
  O  O24  1  0.96182650  0.26513725  0.78549075  1
  O  O25  1  0.46182650  0.23486275  0.78549075  1
