# generated using pymatgen
data_UV3O10
_symmetry_space_group_name_H-M   'P 1'
_cell_length_a   7.01890000
_cell_length_b   12.23131200
_cell_length_c   16.36953200
_cell_angle_alpha   90.00000000
_cell_angle_beta   90.00000000
_cell_angle_gamma   90.00000000
_symmetry_Int_Tables_number   1
_chemical_formula_structural   UV3O10
_chemical_formula_sum   'U8 V24 O80'
_cell_volume   1405.33014643
_cell_formula_units_Z   8
loop_
 _symmetry_equiv_pos_site_id
 _symmetry_equiv_pos_as_xyz
  1  'x, y, z'
loop_
 _atom_site_type_symbol
 _atom_site_label
 _atom_site_symmetry_multiplicity
 _atom_site_fract_x
 _atom_site_fract_y
 _atom_site_fract_z
 _atom_site_occupancy
  U  U0  1  0.50000000  0.00000000  0.00000000  1
  U  U1  1  0.75000000  0.75000000  0.75000000  1
  U  U2  1  0.50000000  0.50000000  0.50000000  1
  U  U3  1  0.75000000  0.25000000  0.25000000  1
  U  U4  1  0.00000000  0.00000000  0.50000000  1
  U  U5  1  0.25000000  0.75000000  0.25000000  1
  U  U6  1  0.00000000  0.50000000  0.00000000  1
  U  U7  1  0.25000000  0.25000000  0.75000000  1
  V  V8  1  0.00000000  0.00000000  0.00000000  1
  V  V9  1  0.25000000  0.75000000  0.75000000  1
  V  V10  1  0.00000000  0.00000000  0.77617500  1
  V  V11  1  0.50000000  0.00000000  0.72382500  1
  V  V12  1  0.25000000  0.75000000  0.97382500  1
  V  V13  1  0.25000000  0.75000000  0.52617500  1
  V  V14  1  0.00000000  0.50000000  0.50000000  1
  V  V15  1  0.25000000  0.25000000  0.25000000  1
  V  V16  1  0.00000000  0.50000000  0.27617500  1
  V  V17  1  0.50000000  0.50000000  0.22382500  1
  V  V18  1  0.25000000  0.25000000  0.47382500  1
  V  V19  1  0.25000000  0.25000000  0.02617500  1
  V  V20  1  0.50000000  0.00000000  0.50000000  1
  V  V21  1  0.75000000  0.75000000  0.25000000  1
  V  V22  1  0.50000000  0.00000000  0.27617500  1
  V  V23  1  0.00000000  0.00000000  0.22382500  1
  V  V24  1  0.75000000  0.75000000  0.47382500  1
  V  V25  1  0.75000000  0.75000000  0.02617500  1
  V  V26  1  0.50000000  0.50000000  0.00000000  1
  V  V27  1  0.75000000  0.25000000  0.75000000  1
  V  V28  1  0.50000000  0.50000000  0.77617500  1
  V  V29  1  0.00000000  0.50000000  0.72382500  1
  V  V30  1  0.75000000  0.25000000  0.97382500  1
  V  V31  1  0.75000000  0.25000000  0.52617500  1
  O  O32  1  0.30141400  0.60366150  0.99667350  1
  O  O33  1  0.30141400  0.89633850  0.50332650  1
  O  O34  1  0.19858600  0.60366150  0.50332650  1
  O  O35  1  0.19858600  0.89633850  0.99667350  1
  O  O36  1  0.44858600  0.64633850  0.75332650  1
  O  O37  1  0.44858600  0.85366150  0.74667350  1
  O  O38  1  0.05141400  0.64633850  0.74667350  1
  O  O39  1  0.05141400  0.85366150  0.75332650  1
  O  O40  1  0.00000000  0.00000000  0.87940900  1
  O  O41  1  0.50000000  0.00000000  0.62059100  1
  O  O42  1  0.25000000  0.75000000  0.87059100  1
  O  O43  1  0.25000000  0.75000000  0.62940900  1
  O  O44  1  0.00000000  0.00000000  0.61037500  1
  O  O45  1  0.50000000  0.00000000  0.88962500  1
  O  O46  1  0.75000000  0.75000000  0.63962500  1
  O  O47  1  0.75000000  0.75000000  0.86037500  1
  O  O48  1  0.00000000  0.70887800  0.00000000  1
  O  O49  1  0.50000000  0.79112200  0.00000000  1
  O  O50  1  0.75000000  0.54112200  0.75000000  1
  O  O51  1  0.75000000  0.95887800  0.75000000  1
  O  O52  1  0.30141400  0.10366150  0.49667350  1
  O  O53  1  0.30141400  0.39633850  0.00332650  1
  O  O54  1  0.19858600  0.10366150  0.00332650  1
  O  O55  1  0.19858600  0.39633850  0.49667350  1
  O  O56  1  0.44858600  0.14633850  0.25332650  1
  O  O57  1  0.44858600  0.35366150  0.24667350  1
  O  O58  1  0.05141400  0.14633850  0.24667350  1
  O  O59  1  0.05141400  0.35366150  0.25332650  1
  O  O60  1  0.00000000  0.50000000  0.37940900  1
  O  O61  1  0.50000000  0.50000000  0.12059100  1
  O  O62  1  0.25000000  0.25000000  0.37059100  1
  O  O63  1  0.25000000  0.25000000  0.12940900  1
  O  O64  1  0.00000000  0.50000000  0.11037500  1
  O  O65  1  0.50000000  0.50000000  0.38962500  1
  O  O66  1  0.75000000  0.25000000  0.13962500  1
  O  O67  1  0.75000000  0.25000000  0.36037500  1
  O  O68  1  0.00000000  0.20887800  0.50000000  1
  O  O69  1  0.50000000  0.29112200  0.50000000  1
  O  O70  1  0.75000000  0.04112200  0.25000000  1
  O  O71  1  0.75000000  0.45887800  0.25000000  1
  O  O72  1  0.80141400  0.60366150  0.49667350  1
  O  O73  1  0.80141400  0.89633850  0.00332650  1
  O  O74  1  0.69858600  0.60366150  0.00332650  1
  O  O75  1  0.69858600  0.89633850  0.49667350  1
  O  O76  1  0.94858600  0.64633850  0.25332650  1
  O  O77  1  0.94858600  0.85366150  0.24667350  1
  O  O78  1  0.55141400  0.64633850  0.24667350  1
  O  O79  1  0.55141400  0.85366150  0.25332650  1
  O  O80  1  0.50000000  0.00000000  0.37940900  1
  O  O81  1  0.00000000  0.00000000  0.12059100  1
  O  O82  1  0.75000000  0.75000000  0.37059100  1
  O  O83  1  0.75000000  0.75000000  0.12940900  1
  O  O84  1  0.50000000  0.00000000  0.11037500  1
  O  O85  1  0.00000000  0.00000000  0.38962500  1
  O  O86  1  0.25000000  0.75000000  0.13962500  1
  O  O87  1  0.25000000  0.75000000  0.36037500  1
  O  O88  1  0.50000000  0.70887800  0.50000000  1
  O  O89  1  0.00000000  0.79112200  0.50000000  1
  O  O90  1  0.25000000  0.54112200  0.25000000  1
  O  O91  1  0.25000000  0.95887800  0.25000000  1
  O  O92  1  0.80141400  0.10366150  0.99667350  1
  O  O93  1  0.80141400  0.39633850  0.50332650  1
  O  O94  1  0.69858600  0.10366150  0.50332650  1
  O  O95  1  0.69858600  0.39633850  0.99667350  1
  O  O96  1  0.94858600  0.14633850  0.75332650  1
  O  O97  1  0.94858600  0.35366150  0.74667350  1
  O  O98  1  0.55141400  0.14633850  0.74667350  1
  O  O99  1  0.55141400  0.35366150  0.75332650  1
  O  O100  1  0.50000000  0.50000000  0.87940900  1
  O  O101  1  0.00000000  0.50000000  0.62059100  1
  O  O102  1  0.75000000  0.25000000  0.87059100  1
  O  O103  1  0.75000000  0.25000000  0.62940900  1
  O  O104  1  0.50000000  0.50000000  0.61037500  1
  O  O105  1  0.00000000  0.50000000  0.88962500  1
  O  O106  1  0.25000000  0.25000000  0.63962500  1
  O  O107  1  0.25000000  0.25000000  0.86037500  1
  O  O108  1  0.50000000  0.20887800  0.00000000  1
  O  O109  1  0.00000000  0.29112200  0.00000000  1
  O  O110  1  0.25000000  0.04112200  0.75000000  1
  O  O111  1  0.25000000  0.45887800  0.75000000  1
