# generated using pymatgen
data_Sr2Cu3O5
_symmetry_space_group_name_H-M   'P 1'
_cell_length_a   3.45973400
_cell_length_b   3.95162000
_cell_length_c   18.69894400
_cell_angle_alpha   90.00000000
_cell_angle_beta   90.00000000
_cell_angle_gamma   90.00000000
_symmetry_Int_Tables_number   1
_chemical_formula_structural   Sr2Cu3O5
_chemical_formula_sum   'Sr4 Cu6 O10'
_cell_volume   255.64362393
_cell_formula_units_Z   2
loop_
 _symmetry_equiv_pos_site_id
 _symmetry_equiv_pos_as_xyz
  1  'x, y, z'
loop_
 _atom_site_type_symbol
 _atom_site_label
 _atom_site_symmetry_multiplicity
 _atom_site_fract_x
 _atom_site_fract_y
 _atom_site_fract_z
 _atom_site_occupancy
  Sr  Sr0  1  0.50000000  0.50000000  0.89422500  1
  Sr  Sr1  1  0.00000000  0.00000000  0.60577500  1
  Sr  Sr2  1  0.00000000  0.00000000  0.39422500  1
  Sr  Sr3  1  0.50000000  0.50000000  0.10577500  1
  Cu  Cu4  1  0.00000000  0.00000000  0.00000000  1
  Cu  Cu5  1  0.00000000  0.00000000  0.78793800  1
  Cu  Cu6  1  0.50000000  0.50000000  0.71206200  1
  Cu  Cu7  1  0.50000000  0.50000000  0.50000000  1
  Cu  Cu8  1  0.50000000  0.50000000  0.28793800  1
  Cu  Cu9  1  0.00000000  0.00000000  0.21206200  1
  O  O10  1  0.50000000  0.50000000  0.60383300  1
  O  O11  1  0.00000000  0.00000000  0.89616700  1
  O  O12  1  0.00000000  0.50000000  0.00000000  1
  O  O13  1  0.00000000  0.50000000  0.78082400  1
  O  O14  1  0.50000000  0.00000000  0.71917600  1
  O  O15  1  0.00000000  0.00000000  0.10383300  1
  O  O16  1  0.50000000  0.50000000  0.39616700  1
  O  O17  1  0.50000000  0.00000000  0.50000000  1
  O  O18  1  0.50000000  0.00000000  0.28082400  1
  O  O19  1  0.00000000  0.50000000  0.21917600  1
