# generated using pymatgen
data_Cr2S3
_symmetry_space_group_name_H-M   'P 1'
_cell_length_a   6.02157046
_cell_length_b   6.02157046
_cell_length_c   16.82911830
_cell_angle_alpha   90.00000000
_cell_angle_beta   90.00000000
_cell_angle_gamma   120.00000000
_symmetry_Int_Tables_number   1
_chemical_formula_structural   Cr2S3
_chemical_formula_sum   'Cr12 S18'
_cell_volume   528.45929383
_cell_formula_units_Z   6
loop_
 _symmetry_equiv_pos_site_id
 _symmetry_equiv_pos_as_xyz
  1  'x, y, z'
loop_
 _atom_site_type_symbol
 _atom_site_label
 _atom_site_symmetry_multiplicity
 _atom_site_fract_x
 _atom_site_fract_y
 _atom_site_fract_z
 _atom_site_occupancy
  Cr  Cr0  1  0.00000000  0.00000000  0.32252900  1
  Cr  Cr1  1  0.33333333  0.66666667  0.16666667  1
  Cr  Cr2  1  0.00000000  0.00000000  0.00000000  1
  Cr  Cr3  1  0.66666667  0.33333333  0.01080433  1
  Cr  Cr4  1  0.66666667  0.33333333  0.65586233  1
  Cr  Cr5  1  1.00000000  0.00000000  0.50000000  1
  Cr  Cr6  1  0.66666667  0.33333333  0.33333333  1
  Cr  Cr7  1  0.33333333  0.66666667  0.34413767  1
  Cr  Cr8  1  0.33333333  0.66666667  0.98919567  1
  Cr  Cr9  1  0.66666667  0.33333333  0.83333333  1
  Cr  Cr10  1  0.33333333  0.66666667  0.66666667  1
  Cr  Cr11  1  0.00000000  0.00000000  0.67747100  1
  S  S12  1  0.01930300  0.34429000  0.07850600  1
  S  S13  1  0.34167967  0.35263633  0.25482733  1
  S  S14  1  0.32498700  0.98069700  0.07850600  1
  S  S15  1  0.64736367  0.98904333  0.25482733  1
  S  S16  1  0.01095667  0.65832033  0.25482733  1
  S  S17  1  0.65571000  0.67501300  0.07850600  1
  S  S18  1  0.68596967  0.67762333  0.41183933  1
  S  S19  1  0.00834633  0.68596967  0.58816067  1
  S  S20  1  0.99165367  0.31403033  0.41183933  1
  S  S21  1  0.31403033  0.32237667  0.58816067  1
  S  S22  1  0.67762333  0.99165367  0.58816067  1
  S  S23  1  0.32237667  0.00834633  0.41183933  1
  S  S24  1  0.35263633  0.01095667  0.74517267  1
  S  S25  1  0.67501300  0.01930300  0.92149400  1
  S  S26  1  0.65832033  0.64736367  0.74517267  1
  S  S27  1  0.98069700  0.65571000  0.92149400  1
  S  S28  1  0.34429000  0.32498700  0.92149400  1
  S  S29  1  0.98904333  0.34167967  0.74517267  1
