# generated using pymatgen
data_RbV2I3O13
_symmetry_space_group_name_H-M   'P 1'
_cell_length_a   8.16944200
_cell_length_b   10.58756800
_cell_length_c   14.03021400
_cell_angle_alpha   90.00000000
_cell_angle_beta   90.00000000
_cell_angle_gamma   90.00000000
_symmetry_Int_Tables_number   1
_chemical_formula_structural   RbV2I3O13
_chemical_formula_sum   'Rb4 V8 I12 O52'
_cell_volume   1213.53666327
_cell_formula_units_Z   4
loop_
 _symmetry_equiv_pos_site_id
 _symmetry_equiv_pos_as_xyz
  1  'x, y, z'
loop_
 _atom_site_type_symbol
 _atom_site_label
 _atom_site_symmetry_multiplicity
 _atom_site_fract_x
 _atom_site_fract_y
 _atom_site_fract_z
 _atom_site_occupancy
  Rb  Rb0  1  0.69405100  0.10915750  0.25000000  1
  Rb  Rb1  1  0.69405100  0.89084250  0.75000000  1
  Rb  Rb2  1  0.19405100  0.60915750  0.75000000  1
  Rb  Rb3  1  0.19405100  0.39084250  0.25000000  1
  V  V4  1  0.21371300  0.98269250  0.62860400  1
  V  V5  1  0.21371300  0.01730750  0.12860400  1
  V  V6  1  0.21371300  0.01730750  0.37139600  1
  V  V7  1  0.21371300  0.98269250  0.87139600  1
  V  V8  1  0.71371300  0.48269250  0.12860400  1
  V  V9  1  0.71371300  0.51730750  0.62860400  1
  V  V10  1  0.71371300  0.51730750  0.87139600  1
  V  V11  1  0.71371300  0.48269250  0.37139600  1
  I  I12  1  0.94433400  0.25613950  0.00919700  1
  I  I13  1  0.44433400  0.24386050  0.00919700  1
  I  I14  1  0.96869750  0.22228300  0.75000000  1
  I  I15  1  0.96869750  0.77771700  0.25000000  1
  I  I16  1  0.44433400  0.75613950  0.99080300  1
  I  I17  1  0.94433400  0.74386050  0.99080300  1
  I  I18  1  0.44433400  0.75613950  0.50919700  1
  I  I19  1  0.94433400  0.74386050  0.50919700  1
  I  I20  1  0.46869750  0.72228300  0.25000000  1
  I  I21  1  0.46869750  0.27771700  0.75000000  1
  I  I22  1  0.94433400  0.25613950  0.49080300  1
  I  I23  1  0.44433400  0.24386050  0.49080300  1
  O  O24  1  0.38732100  0.15287150  0.90100400  1
  O  O25  1  0.29330800  0.01504350  0.75000000  1
  O  O26  1  0.76254350  0.15972200  0.75000000  1
  O  O27  1  0.04742350  0.87853200  0.14858450  1
  O  O28  1  0.41378800  0.11513150  0.10186000  1
  O  O29  1  0.04742350  0.12146800  0.64858450  1
  O  O30  1  0.76165700  0.83615050  0.96918600  1
  O  O31  1  0.17084750  0.00000000  0.00000000  1
  O  O32  1  0.91378800  0.61513150  0.89814000  1
  O  O33  1  0.38732100  0.84712850  0.09899600  1
  O  O34  1  0.29330800  0.98495650  0.25000000  1
  O  O35  1  0.08805000  0.13629050  0.15124300  1
  O  O36  1  0.76165700  0.16384950  0.03081400  1
  O  O37  1  0.08805000  0.86370950  0.84875700  1
  O  O38  1  0.67084750  0.50000000  0.00000000  1
  O  O39  1  0.08805000  0.13629050  0.34875700  1
  O  O40  1  0.88732100  0.34712850  0.90100400  1
  O  O41  1  0.91378800  0.38486850  0.10186000  1
  O  O42  1  0.26165700  0.66384950  0.96918600  1
  O  O43  1  0.26165700  0.33615050  0.03081400  1
  O  O44  1  0.88732100  0.65287150  0.09899600  1
  O  O45  1  0.76254350  0.84027800  0.25000000  1
  O  O46  1  0.04742350  0.12146800  0.85141550  1
  O  O47  1  0.08805000  0.86370950  0.65124300  1
  O  O48  1  0.04742350  0.87853200  0.35141550  1
  O  O49  1  0.41378800  0.88486850  0.89814000  1
  O  O50  1  0.88732100  0.65287150  0.40100400  1
  O  O51  1  0.79330800  0.51504350  0.25000000  1
  O  O52  1  0.26254350  0.65972200  0.25000000  1
  O  O53  1  0.54742350  0.37853200  0.64858450  1
  O  O54  1  0.91378800  0.61513150  0.60186000  1
  O  O55  1  0.54742350  0.62146800  0.14858450  1
  O  O56  1  0.26165700  0.33615050  0.46918600  1
  O  O57  1  0.67084750  0.50000000  0.50000000  1
  O  O58  1  0.41378800  0.11513150  0.39814000  1
  O  O59  1  0.88732100  0.34712850  0.59899600  1
  O  O60  1  0.79330800  0.48495650  0.75000000  1
  O  O61  1  0.58805000  0.63629050  0.65124300  1
  O  O62  1  0.26165700  0.66384950  0.53081400  1
  O  O63  1  0.58805000  0.36370950  0.34875700  1
  O  O64  1  0.17084750  0.00000000  0.50000000  1
  O  O65  1  0.58805000  0.63629050  0.84875700  1
  O  O66  1  0.38732100  0.84712850  0.40100400  1
  O  O67  1  0.41378800  0.88486850  0.60186000  1
  O  O68  1  0.76165700  0.16384950  0.46918600  1
  O  O69  1  0.76165700  0.83615050  0.53081400  1
  O  O70  1  0.38732100  0.15287150  0.59899600  1
  O  O71  1  0.26254350  0.34027800  0.75000000  1
  O  O72  1  0.54742350  0.62146800  0.35141550  1
  O  O73  1  0.58805000  0.36370950  0.15124300  1
  O  O74  1  0.54742350  0.37853200  0.85141550  1
  O  O75  1  0.91378800  0.38486850  0.39814000  1
