# generated using pymatgen
data_CsPd2F5
_symmetry_space_group_name_H-M   'P 1'
_cell_length_a   6.69779000
_cell_length_b   7.94293800
_cell_length_c   10.99937800
_cell_angle_alpha   90.00000000
_cell_angle_beta   90.00000000
_cell_angle_gamma   90.00000000
_symmetry_Int_Tables_number   1
_chemical_formula_structural   CsPd2F5
_chemical_formula_sum   'Cs4 Pd8 F20'
_cell_volume   585.16834730
_cell_formula_units_Z   4
loop_
 _symmetry_equiv_pos_site_id
 _symmetry_equiv_pos_as_xyz
  1  'x, y, z'
loop_
 _atom_site_type_symbol
 _atom_site_label
 _atom_site_symmetry_multiplicity
 _atom_site_fract_x
 _atom_site_fract_y
 _atom_site_fract_z
 _atom_site_occupancy
  Cs  Cs0  1  0.50000000  0.75000000  0.11160500  1
  Cs  Cs1  1  0.50000000  0.25000000  0.88839500  1
  Cs  Cs2  1  0.00000000  0.25000000  0.61160500  1
  Cs  Cs3  1  0.00000000  0.75000000  0.38839500  1
  Pd  Pd4  1  0.75000000  0.25000000  0.25000000  1
  Pd  Pd5  1  0.25000000  0.25000000  0.25000000  1
  Pd  Pd6  1  0.00000000  0.50000000  0.00000000  1
  Pd  Pd7  1  0.00000000  0.00000000  0.00000000  1
  Pd  Pd8  1  0.25000000  0.75000000  0.75000000  1
  Pd  Pd9  1  0.75000000  0.75000000  0.75000000  1
  Pd  Pd10  1  0.50000000  0.00000000  0.50000000  1
  Pd  Pd11  1  0.50000000  0.50000000  0.50000000  1
  F  F12  1  0.25137850  0.07179050  0.37925850  1
  F  F13  1  0.25137850  0.92820950  0.62074150  1
  F  F14  1  0.24862150  0.07179050  0.12074150  1
  F  F15  1  0.24862150  0.92820950  0.87925850  1
  F  F16  1  0.74862150  0.92820950  0.62074150  1
  F  F17  1  0.74862150  0.07179050  0.37925850  1
  F  F18  1  0.00000000  0.75000000  0.08716900  1
  F  F19  1  0.00000000  0.25000000  0.91283100  1
  F  F20  1  0.75137850  0.07179050  0.12074150  1
  F  F21  1  0.75137850  0.92820950  0.87925850  1
  F  F22  1  0.75137850  0.57179050  0.87925850  1
  F  F23  1  0.75137850  0.42820950  0.12074150  1
  F  F24  1  0.74862150  0.57179050  0.62074150  1
  F  F25  1  0.74862150  0.42820950  0.37925850  1
  F  F26  1  0.24862150  0.42820950  0.12074150  1
  F  F27  1  0.24862150  0.57179050  0.87925850  1
  F  F28  1  0.50000000  0.25000000  0.58716900  1
  F  F29  1  0.50000000  0.75000000  0.41283100  1
  F  F30  1  0.25137850  0.57179050  0.62074150  1
  F  F31  1  0.25137850  0.42820950  0.37925850  1
