# generated using pymatgen
data_MnCo(BiO3)2
_symmetry_space_group_name_H-M   'P 1'
_cell_length_a   9.64877600
_cell_length_b   5.52014600
_cell_length_c   9.73910375
_cell_angle_alpha   90.00000000
_cell_angle_beta   108.26206266
_cell_angle_gamma   90.00000000
_symmetry_Int_Tables_number   1
_chemical_formula_structural   MnCo(BiO3)2
_chemical_formula_sum   'Mn4 Co4 Bi8 O24'
_cell_volume   492.60368722
_cell_formula_units_Z   4
loop_
 _symmetry_equiv_pos_site_id
 _symmetry_equiv_pos_as_xyz
  1  'x, y, z'
loop_
 _atom_site_type_symbol
 _atom_site_label
 _atom_site_symmetry_multiplicity
 _atom_site_fract_x
 _atom_site_fract_y
 _atom_site_fract_z
 _atom_site_occupancy
  Mn  Mn0  1  0.74746800  0.00607300  0.25043100  1
  Mn  Mn1  1  0.75253200  0.50607300  0.74956900  1
  Mn  Mn2  1  0.24746800  0.50607300  0.25043100  1
  Mn  Mn3  1  0.25253200  0.00607300  0.74956900  1
  Co  Co4  1  0.00000000  0.99968800  0.00000000  1
  Co  Co5  1  0.00000000  0.51461900  0.50000000  1
  Co  Co6  1  0.50000000  0.49968800  0.00000000  1
  Co  Co7  1  0.50000000  0.01461900  0.50000000  1
  Bi  Bi8  1  0.86605850  0.54258250  0.12355900  1
  Bi  Bi9  1  0.63394150  0.04258250  0.87644100  1
  Bi  Bi10  1  0.86620550  0.97680550  0.62421100  1
  Bi  Bi11  1  0.63379450  0.47680550  0.37578900  1
  Bi  Bi12  1  0.36605850  0.04258250  0.12355900  1
  Bi  Bi13  1  0.13394150  0.54258250  0.87644100  1
  Bi  Bi14  1  0.36620550  0.47680550  0.62421100  1
  Bi  Bi15  1  0.13379450  0.97680550  0.37578900  1
  O  O16  1  0.84255600  0.22030900  0.86549900  1
  O  O17  1  0.83908700  0.28877000  0.36884700  1
  O  O18  1  0.65744400  0.72030900  0.13450100  1
  O  O19  1  0.85040300  0.72077200  0.90812000  1
  O  O20  1  0.90654800  0.95107300  0.16835000  1
  O  O21  1  0.84408750  0.78942750  0.40933700  1
  O  O22  1  0.58664150  0.06192250  0.32987800  1
  O  O23  1  0.91335850  0.56192250  0.67012200  1
  O  O24  1  0.66091300  0.78877000  0.63115300  1
  O  O25  1  0.65591250  0.28942750  0.59066300  1
  O  O26  1  0.59345200  0.45107300  0.83165000  1
  O  O27  1  0.64959700  0.22077200  0.09188000  1
  O  O28  1  0.34255600  0.72030900  0.86549900  1
  O  O29  1  0.33908700  0.78877000  0.36884700  1
  O  O30  1  0.15744400  0.22030900  0.13450100  1
  O  O31  1  0.35040300  0.22077200  0.90812000  1
  O  O32  1  0.40654800  0.45107300  0.16835000  1
  O  O33  1  0.34408750  0.28942750  0.40933700  1
  O  O34  1  0.08664150  0.56192250  0.32987800  1
  O  O35  1  0.41335850  0.06192250  0.67012200  1
  O  O36  1  0.16091300  0.28877000  0.63115300  1
  O  O37  1  0.15591250  0.78942750  0.59066300  1
  O  O38  1  0.09345200  0.95107300  0.83165000  1
  O  O39  1  0.14959700  0.72077200  0.09188000  1
