# generated using pymatgen
data_SmMoClO4
_symmetry_space_group_name_H-M   'P 1'
_cell_length_a   10.46928200
_cell_length_b   7.47618400
_cell_length_c   7.00646969
_cell_angle_alpha   90.00000000
_cell_angle_beta   106.81258704
_cell_angle_gamma   90.00000000
_symmetry_Int_Tables_number   1
_chemical_formula_structural   SmMoClO4
_chemical_formula_sum   'Sm4 Mo4 Cl4 O16'
_cell_volume   524.95758438
_cell_formula_units_Z   4
loop_
 _symmetry_equiv_pos_site_id
 _symmetry_equiv_pos_as_xyz
  1  'x, y, z'
loop_
 _atom_site_type_symbol
 _atom_site_label
 _atom_site_symmetry_multiplicity
 _atom_site_fract_x
 _atom_site_fract_y
 _atom_site_fract_z
 _atom_site_occupancy
  Sm  Sm0  1  0.22173400  0.00000000  0.11320200  1
  Sm  Sm1  1  0.77826600  0.00000000  0.88679800  1
  Sm  Sm2  1  0.72173400  0.50000000  0.11320200  1
  Sm  Sm3  1  0.27826600  0.50000000  0.88679800  1
  Mo  Mo4  1  0.63744400  0.00000000  0.26831500  1
  Mo  Mo5  1  0.36255600  0.00000000  0.73168500  1
  Mo  Mo6  1  0.13744400  0.50000000  0.26831500  1
  Mo  Mo7  1  0.86255600  0.50000000  0.73168500  1
  Cl  Cl8  1  0.01106100  0.00000000  0.76495600  1
  Cl  Cl9  1  0.98893900  0.00000000  0.23504400  1
  Cl  Cl10  1  0.51106100  0.50000000  0.76495600  1
  Cl  Cl11  1  0.48893900  0.50000000  0.23504400  1
  O  O12  1  0.30314300  0.81297500  0.84881500  1
  O  O13  1  0.70676700  0.00000000  0.53067000  1
  O  O14  1  0.46022800  0.00000000  0.20662500  1
  O  O15  1  0.29323300  0.00000000  0.46933000  1
  O  O16  1  0.53977200  0.00000000  0.79337500  1
  O  O17  1  0.69685700  0.81297500  0.15118500  1
  O  O18  1  0.69685700  0.18702500  0.15118500  1
  O  O19  1  0.30314300  0.18702500  0.84881500  1
  O  O20  1  0.80314300  0.31297500  0.84881500  1
  O  O21  1  0.20676700  0.50000000  0.53067000  1
  O  O22  1  0.96022800  0.50000000  0.20662500  1
  O  O23  1  0.79323300  0.50000000  0.46933000  1
  O  O24  1  0.03977200  0.50000000  0.79337500  1
  O  O25  1  0.19685700  0.31297500  0.15118500  1
  O  O26  1  0.19685700  0.68702500  0.15118500  1
  O  O27  1  0.80314300  0.68702500  0.84881500  1
