# generated using pymatgen
data_Li7Ti16O32
_symmetry_space_group_name_H-M   'P 1'
_cell_length_a   8.46364600
_cell_length_b   8.46364600
_cell_length_c   16.92779000
_cell_angle_alpha   90.00000000
_cell_angle_beta   90.00000000
_cell_angle_gamma   90.00000000
_symmetry_Int_Tables_number   1
_chemical_formula_structural   Li7Ti16O32
_chemical_formula_sum   'Li14 Ti32 O64'
_cell_volume   1212.59352057
_cell_formula_units_Z   2
loop_
 _symmetry_equiv_pos_site_id
 _symmetry_equiv_pos_as_xyz
  1  'x, y, z'
loop_
 _atom_site_type_symbol
 _atom_site_label
 _atom_site_symmetry_multiplicity
 _atom_site_fract_x
 _atom_site_fract_y
 _atom_site_fract_z
 _atom_site_occupancy
  Li  Li0  1  0.50000000  0.00000000  0.25000000  1
  Li  Li1  1  0.24922050  0.75077950  0.37547550  1
  Li  Li2  1  0.25077950  0.25077950  0.12452450  1
  Li  Li3  1  0.00000000  0.50000000  0.25000000  1
  Li  Li4  1  0.75077950  0.24922050  0.37547550  1
  Li  Li5  1  0.00000000  0.00000000  0.00000000  1
  Li  Li6  1  0.74922050  0.74922050  0.12452450  1
  Li  Li7  1  0.00000000  0.50000000  0.75000000  1
  Li  Li8  1  0.74922050  0.25077950  0.87547550  1
  Li  Li9  1  0.75077950  0.75077950  0.62452450  1
  Li  Li10  1  0.50000000  0.00000000  0.75000000  1
  Li  Li11  1  0.25077950  0.74922050  0.87547550  1
  Li  Li12  1  0.50000000  0.50000000  0.50000000  1
  Li  Li13  1  0.24922050  0.24922050  0.62452450  1
  Ti  Ti14  1  0.12482450  0.12482450  0.31364250  1
  Ti  Ti15  1  0.37215250  0.12405350  0.43789150  1
  Ti  Ti16  1  0.87215250  0.37594650  0.06210850  1
  Ti  Ti17  1  0.62784750  0.87594650  0.43789150  1
  Ti  Ti18  1  0.62468800  0.62468800  0.31290700  1
  Ti  Ti19  1  0.87594650  0.62784750  0.43789150  1
  Ti  Ti20  1  0.37594650  0.87215250  0.06210850  1
  Ti  Ti21  1  0.62405350  0.12784750  0.06210850  1
  Ti  Ti22  1  0.12405350  0.37215250  0.43789150  1
  Ti  Ti23  1  0.87531200  0.12468800  0.18709300  1
  Ti  Ti24  1  0.87517550  0.87517550  0.31364250  1
  Ti  Ti25  1  0.12468800  0.87531200  0.18709300  1
  Ti  Ti26  1  0.12784750  0.62405350  0.06210850  1
  Ti  Ti27  1  0.37517550  0.62482450  0.18635750  1
  Ti  Ti28  1  0.37531200  0.37531200  0.31290700  1
  Ti  Ti29  1  0.62482450  0.37517550  0.18635750  1
  Ti  Ti30  1  0.62482450  0.62482450  0.81364250  1
  Ti  Ti31  1  0.87215250  0.62405350  0.93789150  1
  Ti  Ti32  1  0.37215250  0.87594650  0.56210850  1
  Ti  Ti33  1  0.12784750  0.37594650  0.93789150  1
  Ti  Ti34  1  0.12468800  0.12468800  0.81290700  1
  Ti  Ti35  1  0.37594650  0.12784750  0.93789150  1
  Ti  Ti36  1  0.87594650  0.37215250  0.56210850  1
  Ti  Ti37  1  0.12405350  0.62784750  0.56210850  1
  Ti  Ti38  1  0.62405350  0.87215250  0.93789150  1
  Ti  Ti39  1  0.37531200  0.62468800  0.68709300  1
  Ti  Ti40  1  0.37517550  0.37517550  0.81364250  1
  Ti  Ti41  1  0.62468800  0.37531200  0.68709300  1
  Ti  Ti42  1  0.62784750  0.12405350  0.56210850  1
  Ti  Ti43  1  0.87517550  0.12482450  0.68635750  1
  Ti  Ti44  1  0.87531200  0.87531200  0.81290700  1
  Ti  Ti45  1  0.12482450  0.87517550  0.68635750  1
  O  O46  1  0.86293550  0.36214750  0.18136750  1
  O  O47  1  0.88767550  0.11232450  0.30583050  1
  O  O48  1  0.11226850  0.11226850  0.19382350  1
  O  O49  1  0.36293550  0.13785250  0.31863250  1
  O  O50  1  0.11232450  0.88767550  0.30583050  1
  O  O51  1  0.36214750  0.86293550  0.18136750  1
  O  O52  1  0.38811800  0.88778600  0.44383900  1
  O  O53  1  0.61188200  0.11221400  0.44383900  1
  O  O54  1  0.11188200  0.38778600  0.05616100  1
  O  O55  1  0.63706450  0.86214750  0.31863250  1
  O  O56  1  0.38773150  0.61226850  0.30617650  1
  O  O57  1  0.85875500  0.85875500  0.42934600  1
  O  O58  1  0.61232450  0.61232450  0.19416950  1
  O  O59  1  0.63720500  0.63720500  0.43118000  1
  O  O60  1  0.86214750  0.63706450  0.31863250  1
  O  O61  1  0.61226850  0.38773150  0.30617650  1
  O  O62  1  0.64124500  0.35875500  0.07065400  1
  O  O63  1  0.38778600  0.11188200  0.05616100  1
  O  O64  1  0.88778600  0.38811800  0.44383900  1
  O  O65  1  0.11221400  0.61188200  0.44383900  1
  O  O66  1  0.63785250  0.13706450  0.18136750  1
  O  O67  1  0.86279500  0.13720500  0.06882000  1
  O  O68  1  0.61221400  0.88811800  0.05616100  1
  O  O69  1  0.13785250  0.36293550  0.31863250  1
  O  O70  1  0.36279500  0.36279500  0.43118000  1
  O  O71  1  0.14124500  0.14124500  0.42934600  1
  O  O72  1  0.88773150  0.88773150  0.19382350  1
  O  O73  1  0.88811800  0.61221400  0.05616100  1
  O  O74  1  0.13720500  0.86279500  0.06882000  1
  O  O75  1  0.13706450  0.63785250  0.18136750  1
  O  O76  1  0.35875500  0.64124500  0.07065400  1
  O  O77  1  0.38767550  0.38767550  0.19416950  1
  O  O78  1  0.36293550  0.86214750  0.68136750  1
  O  O79  1  0.38767550  0.61232450  0.80583050  1
  O  O80  1  0.61226850  0.61226850  0.69382350  1
  O  O81  1  0.86293550  0.63785250  0.81863250  1
  O  O82  1  0.61232450  0.38767550  0.80583050  1
  O  O83  1  0.86214750  0.36293550  0.68136750  1
  O  O84  1  0.88811800  0.38778600  0.94383900  1
  O  O85  1  0.11188200  0.61221400  0.94383900  1
  O  O86  1  0.61188200  0.88778600  0.55616100  1
  O  O87  1  0.13706450  0.36214750  0.81863250  1
  O  O88  1  0.88773150  0.11226850  0.80617650  1
  O  O89  1  0.35875500  0.35875500  0.92934600  1
  O  O90  1  0.11232450  0.11232450  0.69416950  1
  O  O91  1  0.13720500  0.13720500  0.93118000  1
  O  O92  1  0.36214750  0.13706450  0.81863250  1
  O  O93  1  0.11226850  0.88773150  0.80617650  1
  O  O94  1  0.14124500  0.85875500  0.57065400  1
  O  O95  1  0.88778600  0.61188200  0.55616100  1
  O  O96  1  0.38778600  0.88811800  0.94383900  1
  O  O97  1  0.61221400  0.11188200  0.94383900  1
  O  O98  1  0.13785250  0.63706450  0.68136750  1
  O  O99  1  0.36279500  0.63720500  0.56882000  1
  O  O100  1  0.11221400  0.38811800  0.55616100  1
  O  O101  1  0.63785250  0.86293550  0.81863250  1
  O  O102  1  0.86279500  0.86279500  0.93118000  1
  O  O103  1  0.64124500  0.64124500  0.92934600  1
  O  O104  1  0.38773150  0.38773150  0.69382350  1
  O  O105  1  0.38811800  0.11221400  0.55616100  1
  O  O106  1  0.63720500  0.36279500  0.56882000  1
  O  O107  1  0.63706450  0.13785250  0.68136750  1
  O  O108  1  0.85875500  0.14124500  0.57065400  1
  O  O109  1  0.88767550  0.88767550  0.69416950  1
