# generated using pymatgen
data_Re2PbO6
_symmetry_space_group_name_H-M   'P 1'
_cell_length_a   10.60207067
_cell_length_b   10.60207067
_cell_length_c   11.31983581
_cell_angle_alpha   90.00000000
_cell_angle_beta   90.00000000
_cell_angle_gamma   120.00000000
_symmetry_Int_Tables_number   1
_chemical_formula_structural   Re2PbO6
_chemical_formula_sum   'Re18 Pb9 O54'
_cell_volume   1101.92528568
_cell_formula_units_Z   9
loop_
 _symmetry_equiv_pos_site_id
 _symmetry_equiv_pos_as_xyz
  1  'x, y, z'
loop_
 _atom_site_type_symbol
 _atom_site_label
 _atom_site_symmetry_multiplicity
 _atom_site_fract_x
 _atom_site_fract_y
 _atom_site_fract_z
 _atom_site_occupancy
  Re  Re0  1  0.65255000  0.65255000  0.50000000  1
  Re  Re1  1  0.34745000  0.34745000  0.50000000  1
  Re  Re2  1  0.00000000  0.34745000  0.50000000  1
  Re  Re3  1  0.65255000  0.00000000  0.50000000  1
  Re  Re4  1  0.00000000  0.65255000  0.50000000  1
  Re  Re5  1  0.34745000  0.00000000  0.50000000  1
  Re  Re6  1  0.31921667  0.98588333  0.83333333  1
  Re  Re7  1  0.01411667  0.68078333  0.83333333  1
  Re  Re8  1  0.66666667  0.68078333  0.83333333  1
  Re  Re9  1  0.31921667  0.33333333  0.83333333  1
  Re  Re10  1  0.66666667  0.98588333  0.83333333  1
  Re  Re11  1  0.01411667  0.33333333  0.83333333  1
  Re  Re12  1  0.98588333  0.31921667  0.16666667  1
  Re  Re13  1  0.68078333  0.01411667  0.16666667  1
  Re  Re14  1  0.33333333  0.01411667  0.16666667  1
  Re  Re15  1  0.98588333  0.66666667  0.16666667  1
  Re  Re16  1  0.33333333  0.31921667  0.16666667  1
  Re  Re17  1  0.68078333  0.66666667  0.16666667  1
  Pb  Pb18  1  0.00000000  0.00000000  0.31909500  1
  Pb  Pb19  1  0.00000000  0.00000000  0.68090500  1
  Pb  Pb20  1  0.00000000  0.00000000  0.00000000  1
  Pb  Pb21  1  0.66666667  0.33333333  0.65242833  1
  Pb  Pb22  1  0.66666667  0.33333333  0.01423833  1
  Pb  Pb23  1  0.66666667  0.33333333  0.33333333  1
  Pb  Pb24  1  0.33333333  0.66666667  0.98576167  1
  Pb  Pb25  1  0.33333333  0.66666667  0.34757167  1
  Pb  Pb26  1  0.33333333  0.66666667  0.66666667  1
  O  O27  1  0.84539133  0.15460867  0.52031267  1
  O  O28  1  0.36745567  0.33333333  0.33333333  1
  O  O29  1  0.09697967  0.90302033  0.81525333  1
  O  O30  1  0.96587767  0.33333333  0.33333333  1
  O  O31  1  0.84539133  0.69078267  0.52031267  1
  O  O32  1  0.36745567  0.03412233  0.33333333  1
  O  O33  1  0.09697967  0.19395933  0.81525333  1
  O  O34  1  0.90302033  0.09697967  0.18474667  1
  O  O35  1  0.19395933  0.09697967  0.18474667  1
  O  O36  1  0.66666667  0.03412233  0.33333333  1
  O  O37  1  0.15460867  0.30921733  0.47968733  1
  O  O38  1  0.66666667  0.63254433  0.33333333  1
  O  O39  1  0.90302033  0.80604067  0.18474667  1
  O  O40  1  0.15460867  0.84539133  0.47968733  1
  O  O41  1  0.30921733  0.15460867  0.52031267  1
  O  O42  1  0.96587767  0.63254433  0.33333333  1
  O  O43  1  0.80604067  0.90302033  0.81525333  1
  O  O44  1  0.69078267  0.84539133  0.47968733  1
  O  O45  1  0.51205800  0.48794200  0.85364600  1
  O  O46  1  0.03412233  0.66666667  0.66666667  1
  O  O47  1  0.76364633  0.23635367  0.14858667  1
  O  O48  1  0.63254433  0.66666667  0.66666667  1
  O  O49  1  0.51205800  0.02411600  0.85364600  1
  O  O50  1  0.03412233  0.36745567  0.66666667  1
  O  O51  1  0.76364633  0.52729267  0.14858667  1
  O  O52  1  0.56968700  0.43031300  0.51808000  1
  O  O53  1  0.86062600  0.43031300  0.51808000  1
  O  O54  1  0.33333333  0.36745567  0.66666667  1
  O  O55  1  0.82127533  0.64255067  0.81302067  1
  O  O56  1  0.33333333  0.96587767  0.66666667  1
  O  O57  1  0.56968700  0.13937400  0.51808000  1
  O  O58  1  0.82127533  0.17872467  0.81302067  1
  O  O59  1  0.97588400  0.48794200  0.85364600  1
  O  O60  1  0.63254433  0.96587767  0.66666667  1
  O  O61  1  0.47270733  0.23635367  0.14858667  1
  O  O62  1  0.35744933  0.17872467  0.81302067  1
  O  O63  1  0.17872467  0.82127533  0.18697933  1
  O  O64  1  0.70078900  0.00000000  0.00000000  1
  O  O65  1  0.43031300  0.56968700  0.48192000  1
  O  O66  1  0.29921100  0.00000000  0.00000000  1
  O  O67  1  0.17872467  0.35744933  0.18697933  1
  O  O68  1  0.70078900  0.70078900  0.00000000  1
  O  O69  1  0.43031300  0.86062600  0.48192000  1
  O  O70  1  0.23635367  0.76364633  0.85141333  1
  O  O71  1  0.52729267  0.76364633  0.85141333  1
  O  O72  1  0.00000000  0.70078900  0.00000000  1
  O  O73  1  0.48794200  0.97588400  0.14635400  1
  O  O74  1  0.00000000  0.29921100  0.00000000  1
  O  O75  1  0.23635367  0.47270733  0.85141333  1
  O  O76  1  0.48794200  0.51205800  0.14635400  1
  O  O77  1  0.64255067  0.82127533  0.18697933  1
  O  O78  1  0.29921100  0.29921100  0.00000000  1
  O  O79  1  0.13937400  0.56968700  0.48192000  1
  O  O80  1  0.02411600  0.51205800  0.14635400  1
