# generated using pymatgen
data_Li17Sn4
_symmetry_space_group_name_H-M   'P 1'
_cell_length_a   19.66361800
_cell_length_b   19.66361800
_cell_length_c   19.66361800
_cell_angle_alpha   90.00000000
_cell_angle_beta   90.00000000
_cell_angle_gamma   90.00000000
_symmetry_Int_Tables_number   1
_chemical_formula_structural   Li17Sn4
_chemical_formula_sum   'Li340 Sn80'
_cell_volume   7603.09270841
_cell_formula_units_Z   20
loop_
 _symmetry_equiv_pos_site_id
 _symmetry_equiv_pos_as_xyz
  1  'x, y, z'
loop_
 _atom_site_type_symbol
 _atom_site_label
 _atom_site_symmetry_multiplicity
 _atom_site_fract_x
 _atom_site_fract_y
 _atom_site_fract_z
 _atom_site_occupancy
  Li  Li0  1  0.50000000  0.50000000  0.17381825  1
  Li  Li1  1  0.51192225  0.65973525  0.34026475  1
  Li  Li2  1  0.50000000  0.50000000  0.82618175  1
  Li  Li3  1  0.42123725  0.25000000  0.25000000  1
  Li  Li4  1  0.58679075  0.74272175  0.08679075  1
  Li  Li5  1  0.69406242  0.30593758  0.30593758  1
  Li  Li6  1  0.32446225  0.67553775  0.82446225  1
  Li  Li7  1  0.58679075  0.41320925  0.75727825  1
  Li  Li8  1  0.57726458  0.57726458  0.42273542  1
  Li  Li9  1  0.40398925  0.73129475  0.40398925  1
  Li  Li10  1  0.15720175  0.65720175  0.48440675  1
  Li  Li11  1  0.33281008  0.66718992  0.16718992  1
  Li  Li12  1  0.65720175  0.34279825  0.01559325  1
  Li  Li13  1  0.57726458  0.42273542  0.57726458  1
  Li  Li14  1  0.25727825  0.58679075  0.91320925  1
  Li  Li15  1  0.75000000  0.25000000  0.57876275  1
  Li  Li16  1  0.40398925  0.59601075  0.26870525  1
  Li  Li17  1  0.76870525  0.40398925  0.09601075  1
  Li  Li18  1  0.59601075  0.40398925  0.26870525  1
  Li  Li19  1  0.55324025  0.44675975  0.05324025  1
  Li  Li20  1  0.66718992  0.33281008  0.16718992  1
  Li  Li21  1  0.75000000  0.57876275  0.25000000  1
  Li  Li22  1  0.73129475  0.40398925  0.40398925  1
  Li  Li23  1  0.32618175  0.50000000  0.00000000  1
  Li  Li24  1  0.58679075  0.25727825  0.91320925  1
  Li  Li25  1  0.42273542  0.42273542  0.42273542  1
  Li  Li26  1  0.15973525  0.48807775  0.15973525  1
  Li  Li27  1  0.56802275  0.56802275  0.56802275  1
  Li  Li28  1  0.41320925  0.41320925  0.24272175  1
  Li  Li29  1  0.15973525  0.65973525  0.98807775  1
  Li  Li30  1  0.65973525  0.51192225  0.34026475  1
  Li  Li31  1  0.32446225  0.32446225  0.17553775  1
  Li  Li32  1  0.56802275  0.43197725  0.43197725  1
  Li  Li33  1  0.84279825  0.48440675  0.34279825  1
  Li  Li34  1  0.44675975  0.44675975  0.94675975  1
  Li  Li35  1  0.42273542  0.57726458  0.57726458  1
  Li  Li36  1  0.75000000  0.25000000  0.92123725  1
  Li  Li37  1  0.74272175  0.41320925  0.91320925  1
  Li  Li38  1  0.50000000  0.67381825  0.00000000  1
  Li  Li39  1  0.50000000  0.32618175  0.00000000  1
  Li  Li40  1  0.67553775  0.32446225  0.82446225  1
  Li  Li41  1  0.80593758  0.30593758  0.19406242  1
  Li  Li42  1  0.15720175  0.51559325  0.34279825  1
  Li  Li43  1  0.48807775  0.34026475  0.34026475  1
  Li  Li44  1  0.83281008  0.33281008  0.33281008  1
  Li  Li45  1  0.84026475  0.51192225  0.15973525  1
  Li  Li46  1  0.65720175  0.48440675  0.15720175  1
  Li  Li47  1  0.41320925  0.58679075  0.75727825  1
  Li  Li48  1  0.90398925  0.40398925  0.23129475  1
  Li  Li49  1  0.30593758  0.69406242  0.30593758  1
  Li  Li50  1  0.90398925  0.26870525  0.09601075  1
  Li  Li51  1  0.44675975  0.55324025  0.05324025  1
  Li  Li52  1  0.19406242  0.69406242  0.19406242  1
  Li  Li53  1  0.16718992  0.66718992  0.33281008  1
  Li  Li54  1  0.34026475  0.48807775  0.34026475  1
  Li  Li55  1  0.25727825  0.41320925  0.08679075  1
  Li  Li56  1  0.51559325  0.34279825  0.15720175  1
  Li  Li57  1  0.41320925  0.25727825  0.08679075  1
  Li  Li58  1  0.01559325  0.65720175  0.34279825  1
  Li  Li59  1  0.59601075  0.26870525  0.40398925  1
  Li  Li60  1  0.84279825  0.34279825  0.48440675  1
  Li  Li61  1  0.23129475  0.59601075  0.09601075  1
  Li  Li62  1  0.48440675  0.65720175  0.15720175  1
  Li  Li63  1  0.34026475  0.65973525  0.51192225  1
  Li  Li64  1  0.09601075  0.73129475  0.09601075  1
  Li  Li65  1  0.67381825  0.50000000  0.00000000  1
  Li  Li66  1  0.67553775  0.67553775  0.17553775  1
  Li  Li67  1  0.84026475  0.34026475  0.98807775  1
  Li  Li68  1  0.43197725  0.56802275  0.43197725  1
  Li  Li69  1  0.34279825  0.51559325  0.15720175  1
  Li  Li70  1  0.98440675  0.34279825  0.34279825  1
  Li  Li71  1  0.25000000  0.42123725  0.25000000  1
  Li  Li72  1  0.58679075  0.58679075  0.24272175  1
  Li  Li73  1  0.65973525  0.34026475  0.51192225  1
  Li  Li74  1  0.55324025  0.55324025  0.94675975  1
  Li  Li75  1  0.25000000  0.25000000  0.25000000  1
  Li  Li76  1  0.09601075  0.59601075  0.23129475  1
  Li  Li77  1  0.74272175  0.58679075  0.08679075  1
  Li  Li78  1  0.26870525  0.59601075  0.40398925  1
  Li  Li79  1  0.07876275  0.25000000  0.25000000  1
  Li  Li80  1  0.43197725  0.43197725  0.56802275  1
  Li  Li81  1  0.34279825  0.65720175  0.01559325  1
  Li  Li82  1  0.41320925  0.74272175  0.91320925  1
  Li  Li83  1  0.98807775  0.65973525  0.15973525  1
  Li  Li84  1  0.01192225  0.34026475  0.15973525  1
  Li  Li85  1  0.50000000  0.00000000  0.67381825  1
  Li  Li86  1  0.51192225  0.15973525  0.84026475  1
  Li  Li87  1  0.50000000  0.00000000  0.32618175  1
  Li  Li88  1  0.42123725  0.75000000  0.75000000  1
  Li  Li89  1  0.58679075  0.24272175  0.58679075  1
  Li  Li90  1  0.69406242  0.80593758  0.80593758  1
  Li  Li91  1  0.32446225  0.17553775  0.32446225  1
  Li  Li92  1  0.58679075  0.91320925  0.25727825  1
  Li  Li93  1  0.57726458  0.07726458  0.92273542  1
  Li  Li94  1  0.40398925  0.23129475  0.90398925  1
  Li  Li95  1  0.15720175  0.15720175  0.98440675  1
  Li  Li96  1  0.33281008  0.16718992  0.66718992  1
  Li  Li97  1  0.65720175  0.84279825  0.51559325  1
  Li  Li98  1  0.57726458  0.92273542  0.07726458  1
  Li  Li99  1  0.25727825  0.08679075  0.41320925  1
  Li  Li100  1  0.75000000  0.75000000  0.07876275  1
  Li  Li101  1  0.40398925  0.09601075  0.76870525  1
  Li  Li102  1  0.76870525  0.90398925  0.59601075  1
  Li  Li103  1  0.59601075  0.90398925  0.76870525  1
  Li  Li104  1  0.55324025  0.94675975  0.55324025  1
  Li  Li105  1  0.66718992  0.83281008  0.66718992  1
  Li  Li106  1  0.75000000  0.07876275  0.75000000  1
  Li  Li107  1  0.73129475  0.90398925  0.90398925  1
  Li  Li108  1  0.32618175  0.00000000  0.50000000  1
  Li  Li109  1  0.58679075  0.75727825  0.41320925  1
  Li  Li110  1  0.42273542  0.92273542  0.92273542  1
  Li  Li111  1  0.15973525  0.98807775  0.65973525  1
  Li  Li112  1  0.56802275  0.06802275  0.06802275  1
  Li  Li113  1  0.41320925  0.91320925  0.74272175  1
  Li  Li114  1  0.15973525  0.15973525  0.48807775  1
  Li  Li115  1  0.65973525  0.01192225  0.84026475  1
  Li  Li116  1  0.32446225  0.82446225  0.67553775  1
  Li  Li117  1  0.56802275  0.93197725  0.93197725  1
  Li  Li118  1  0.84279825  0.98440675  0.84279825  1
  Li  Li119  1  0.44675975  0.94675975  0.44675975  1
  Li  Li120  1  0.42273542  0.07726458  0.07726458  1
  Li  Li121  1  0.75000000  0.75000000  0.42123725  1
  Li  Li122  1  0.74272175  0.91320925  0.41320925  1
  Li  Li123  1  0.50000000  0.17381825  0.50000000  1
  Li  Li124  1  0.50000000  0.82618175  0.50000000  1
  Li  Li125  1  0.67553775  0.82446225  0.32446225  1
  Li  Li126  1  0.80593758  0.80593758  0.69406242  1
  Li  Li127  1  0.15720175  0.01559325  0.84279825  1
  Li  Li128  1  0.48807775  0.84026475  0.84026475  1
  Li  Li129  1  0.83281008  0.83281008  0.83281008  1
  Li  Li130  1  0.84026475  0.01192225  0.65973525  1
  Li  Li131  1  0.65720175  0.98440675  0.65720175  1
  Li  Li132  1  0.41320925  0.08679075  0.25727825  1
  Li  Li133  1  0.90398925  0.90398925  0.73129475  1
  Li  Li134  1  0.30593758  0.19406242  0.80593758  1
  Li  Li135  1  0.90398925  0.76870525  0.59601075  1
  Li  Li136  1  0.44675975  0.05324025  0.55324025  1
  Li  Li137  1  0.19406242  0.19406242  0.69406242  1
  Li  Li138  1  0.16718992  0.16718992  0.83281008  1
  Li  Li139  1  0.34026475  0.98807775  0.84026475  1
  Li  Li140  1  0.25727825  0.91320925  0.58679075  1
  Li  Li141  1  0.51559325  0.84279825  0.65720175  1
  Li  Li142  1  0.41320925  0.75727825  0.58679075  1
  Li  Li143  1  0.01559325  0.15720175  0.84279825  1
  Li  Li144  1  0.59601075  0.76870525  0.90398925  1
  Li  Li145  1  0.84279825  0.84279825  0.98440675  1
  Li  Li146  1  0.23129475  0.09601075  0.59601075  1
  Li  Li147  1  0.48440675  0.15720175  0.65720175  1
  Li  Li148  1  0.34026475  0.15973525  0.01192225  1
  Li  Li149  1  0.09601075  0.23129475  0.59601075  1
  Li  Li150  1  0.67381825  0.00000000  0.50000000  1
  Li  Li151  1  0.67553775  0.17553775  0.67553775  1
  Li  Li152  1  0.84026475  0.84026475  0.48807775  1
  Li  Li153  1  0.43197725  0.06802275  0.93197725  1
  Li  Li154  1  0.34279825  0.01559325  0.65720175  1
  Li  Li155  1  0.98440675  0.84279825  0.84279825  1
  Li  Li156  1  0.25000000  0.92123725  0.75000000  1
  Li  Li157  1  0.58679075  0.08679075  0.74272175  1
  Li  Li158  1  0.65973525  0.84026475  0.01192225  1
  Li  Li159  1  0.55324025  0.05324025  0.44675975  1
  Li  Li160  1  0.25000000  0.75000000  0.75000000  1
  Li  Li161  1  0.09601075  0.09601075  0.73129475  1
  Li  Li162  1  0.74272175  0.08679075  0.58679075  1
  Li  Li163  1  0.26870525  0.09601075  0.90398925  1
  Li  Li164  1  0.07876275  0.75000000  0.75000000  1
  Li  Li165  1  0.43197725  0.93197725  0.06802275  1
  Li  Li166  1  0.34279825  0.15720175  0.51559325  1
  Li  Li167  1  0.41320925  0.24272175  0.41320925  1
  Li  Li168  1  0.98807775  0.15973525  0.65973525  1
  Li  Li169  1  0.01192225  0.84026475  0.65973525  1
  Li  Li170  1  0.00000000  0.50000000  0.67381825  1
  Li  Li171  1  0.01192225  0.65973525  0.84026475  1
  Li  Li172  1  0.00000000  0.50000000  0.32618175  1
  Li  Li173  1  0.92123725  0.25000000  0.75000000  1
  Li  Li174  1  0.08679075  0.74272175  0.58679075  1
  Li  Li175  1  0.19406242  0.30593758  0.80593758  1
  Li  Li176  1  0.82446225  0.67553775  0.32446225  1
  Li  Li177  1  0.08679075  0.41320925  0.25727825  1
  Li  Li178  1  0.07726458  0.57726458  0.92273542  1
  Li  Li179  1  0.90398925  0.73129475  0.90398925  1
  Li  Li180  1  0.65720175  0.65720175  0.98440675  1
  Li  Li181  1  0.83281008  0.66718992  0.66718992  1
  Li  Li182  1  0.15720175  0.34279825  0.51559325  1
  Li  Li183  1  0.07726458  0.42273542  0.07726458  1
  Li  Li184  1  0.75727825  0.58679075  0.41320925  1
  Li  Li185  1  0.25000000  0.25000000  0.07876275  1
  Li  Li186  1  0.90398925  0.59601075  0.76870525  1
  Li  Li187  1  0.26870525  0.40398925  0.59601075  1
  Li  Li188  1  0.09601075  0.40398925  0.76870525  1
  Li  Li189  1  0.05324025  0.44675975  0.55324025  1
  Li  Li190  1  0.16718992  0.33281008  0.66718992  1
  Li  Li191  1  0.25000000  0.57876275  0.75000000  1
  Li  Li192  1  0.23129475  0.40398925  0.90398925  1
  Li  Li193  1  0.82618175  0.50000000  0.50000000  1
  Li  Li194  1  0.08679075  0.25727825  0.41320925  1
  Li  Li195  1  0.92273542  0.42273542  0.92273542  1
  Li  Li196  1  0.65973525  0.48807775  0.65973525  1
  Li  Li197  1  0.06802275  0.56802275  0.06802275  1
  Li  Li198  1  0.91320925  0.41320925  0.74272175  1
  Li  Li199  1  0.65973525  0.65973525  0.48807775  1
  Li  Li200  1  0.15973525  0.51192225  0.84026475  1
  Li  Li201  1  0.82446225  0.32446225  0.67553775  1
  Li  Li202  1  0.06802275  0.43197725  0.93197725  1
  Li  Li203  1  0.34279825  0.48440675  0.84279825  1
  Li  Li204  1  0.94675975  0.44675975  0.44675975  1
  Li  Li205  1  0.92273542  0.57726458  0.07726458  1
  Li  Li206  1  0.25000000  0.25000000  0.42123725  1
  Li  Li207  1  0.24272175  0.41320925  0.41320925  1
  Li  Li208  1  0.00000000  0.67381825  0.50000000  1
  Li  Li209  1  0.00000000  0.32618175  0.50000000  1
  Li  Li210  1  0.17553775  0.32446225  0.32446225  1
  Li  Li211  1  0.30593758  0.30593758  0.69406242  1
  Li  Li212  1  0.65720175  0.51559325  0.84279825  1
  Li  Li213  1  0.98807775  0.34026475  0.84026475  1
  Li  Li214  1  0.33281008  0.33281008  0.83281008  1
  Li  Li215  1  0.34026475  0.51192225  0.65973525  1
  Li  Li216  1  0.15720175  0.48440675  0.65720175  1
  Li  Li217  1  0.91320925  0.58679075  0.25727825  1
  Li  Li218  1  0.40398925  0.40398925  0.73129475  1
  Li  Li219  1  0.80593758  0.69406242  0.80593758  1
  Li  Li220  1  0.40398925  0.26870525  0.59601075  1
  Li  Li221  1  0.94675975  0.55324025  0.55324025  1
  Li  Li222  1  0.69406242  0.69406242  0.69406242  1
  Li  Li223  1  0.66718992  0.66718992  0.83281008  1
  Li  Li224  1  0.84026475  0.48807775  0.84026475  1
  Li  Li225  1  0.75727825  0.41320925  0.58679075  1
  Li  Li226  1  0.01559325  0.34279825  0.65720175  1
  Li  Li227  1  0.91320925  0.25727825  0.58679075  1
  Li  Li228  1  0.51559325  0.65720175  0.84279825  1
  Li  Li229  1  0.09601075  0.26870525  0.90398925  1
  Li  Li230  1  0.34279825  0.34279825  0.98440675  1
  Li  Li231  1  0.73129475  0.59601075  0.59601075  1
  Li  Li232  1  0.98440675  0.65720175  0.65720175  1
  Li  Li233  1  0.84026475  0.65973525  0.01192225  1
  Li  Li234  1  0.59601075  0.73129475  0.59601075  1
  Li  Li235  1  0.17381825  0.50000000  0.50000000  1
  Li  Li236  1  0.17553775  0.67553775  0.67553775  1
  Li  Li237  1  0.34026475  0.34026475  0.48807775  1
  Li  Li238  1  0.93197725  0.56802275  0.93197725  1
  Li  Li239  1  0.84279825  0.51559325  0.65720175  1
  Li  Li240  1  0.48440675  0.34279825  0.84279825  1
  Li  Li241  1  0.75000000  0.42123725  0.75000000  1
  Li  Li242  1  0.08679075  0.58679075  0.74272175  1
  Li  Li243  1  0.15973525  0.34026475  0.01192225  1
  Li  Li244  1  0.05324025  0.55324025  0.44675975  1
  Li  Li245  1  0.75000000  0.25000000  0.75000000  1
  Li  Li246  1  0.59601075  0.59601075  0.73129475  1
  Li  Li247  1  0.24272175  0.58679075  0.58679075  1
  Li  Li248  1  0.76870525  0.59601075  0.90398925  1
  Li  Li249  1  0.57876275  0.25000000  0.75000000  1
  Li  Li250  1  0.93197725  0.43197725  0.06802275  1
  Li  Li251  1  0.84279825  0.65720175  0.51559325  1
  Li  Li252  1  0.91320925  0.74272175  0.41320925  1
  Li  Li253  1  0.48807775  0.65973525  0.65973525  1
  Li  Li254  1  0.51192225  0.34026475  0.65973525  1
  Li  Li255  1  0.00000000  0.00000000  0.17381825  1
  Li  Li256  1  0.01192225  0.15973525  0.34026475  1
  Li  Li257  1  0.00000000  0.00000000  0.82618175  1
  Li  Li258  1  0.92123725  0.75000000  0.25000000  1
  Li  Li259  1  0.08679075  0.24272175  0.08679075  1
  Li  Li260  1  0.19406242  0.80593758  0.30593758  1
  Li  Li261  1  0.82446225  0.17553775  0.82446225  1
  Li  Li262  1  0.08679075  0.91320925  0.75727825  1
  Li  Li263  1  0.07726458  0.07726458  0.42273542  1
  Li  Li264  1  0.90398925  0.23129475  0.40398925  1
  Li  Li265  1  0.65720175  0.15720175  0.48440675  1
  Li  Li266  1  0.83281008  0.16718992  0.16718992  1
  Li  Li267  1  0.15720175  0.84279825  0.01559325  1
  Li  Li268  1  0.07726458  0.92273542  0.57726458  1
  Li  Li269  1  0.75727825  0.08679075  0.91320925  1
  Li  Li270  1  0.25000000  0.75000000  0.57876275  1
  Li  Li271  1  0.90398925  0.09601075  0.26870525  1
  Li  Li272  1  0.26870525  0.90398925  0.09601075  1
  Li  Li273  1  0.09601075  0.90398925  0.26870525  1
  Li  Li274  1  0.05324025  0.94675975  0.05324025  1
  Li  Li275  1  0.16718992  0.83281008  0.16718992  1
  Li  Li276  1  0.25000000  0.07876275  0.25000000  1
  Li  Li277  1  0.23129475  0.90398925  0.40398925  1
  Li  Li278  1  0.82618175  0.00000000  0.00000000  1
  Li  Li279  1  0.08679075  0.75727825  0.91320925  1
  Li  Li280  1  0.92273542  0.92273542  0.42273542  1
  Li  Li281  1  0.65973525  0.98807775  0.15973525  1
  Li  Li282  1  0.06802275  0.06802275  0.56802275  1
  Li  Li283  1  0.91320925  0.91320925  0.24272175  1
  Li  Li284  1  0.65973525  0.15973525  0.98807775  1
  Li  Li285  1  0.15973525  0.01192225  0.34026475  1
  Li  Li286  1  0.82446225  0.82446225  0.17553775  1
  Li  Li287  1  0.06802275  0.93197725  0.43197725  1
  Li  Li288  1  0.34279825  0.98440675  0.34279825  1
  Li  Li289  1  0.94675975  0.94675975  0.94675975  1
  Li  Li290  1  0.92273542  0.07726458  0.57726458  1
  Li  Li291  1  0.25000000  0.75000000  0.92123725  1
  Li  Li292  1  0.24272175  0.91320925  0.91320925  1
  Li  Li293  1  0.00000000  0.17381825  0.00000000  1
  Li  Li294  1  0.00000000  0.82618175  0.00000000  1
  Li  Li295  1  0.17553775  0.82446225  0.82446225  1
  Li  Li296  1  0.30593758  0.80593758  0.19406242  1
  Li  Li297  1  0.65720175  0.01559325  0.34279825  1
  Li  Li298  1  0.98807775  0.84026475  0.34026475  1
  Li  Li299  1  0.33281008  0.83281008  0.33281008  1
  Li  Li300  1  0.34026475  0.01192225  0.15973525  1
  Li  Li301  1  0.15720175  0.98440675  0.15720175  1
  Li  Li302  1  0.91320925  0.08679075  0.75727825  1
  Li  Li303  1  0.40398925  0.90398925  0.23129475  1
  Li  Li304  1  0.80593758  0.19406242  0.30593758  1
  Li  Li305  1  0.40398925  0.76870525  0.09601075  1
  Li  Li306  1  0.94675975  0.05324025  0.05324025  1
  Li  Li307  1  0.69406242  0.19406242  0.19406242  1
  Li  Li308  1  0.66718992  0.16718992  0.33281008  1
  Li  Li309  1  0.84026475  0.98807775  0.34026475  1
  Li  Li310  1  0.75727825  0.91320925  0.08679075  1
  Li  Li311  1  0.01559325  0.84279825  0.15720175  1
  Li  Li312  1  0.91320925  0.75727825  0.08679075  1
  Li  Li313  1  0.51559325  0.15720175  0.34279825  1
  Li  Li314  1  0.09601075  0.76870525  0.40398925  1
  Li  Li315  1  0.34279825  0.84279825  0.48440675  1
  Li  Li316  1  0.73129475  0.09601075  0.09601075  1
  Li  Li317  1  0.98440675  0.15720175  0.15720175  1
  Li  Li318  1  0.84026475  0.15973525  0.51192225  1
  Li  Li319  1  0.59601075  0.23129475  0.09601075  1
  Li  Li320  1  0.17381825  0.00000000  0.00000000  1
  Li  Li321  1  0.17553775  0.17553775  0.17553775  1
  Li  Li322  1  0.34026475  0.84026475  0.98807775  1
  Li  Li323  1  0.93197725  0.06802275  0.43197725  1
  Li  Li324  1  0.84279825  0.01559325  0.15720175  1
  Li  Li325  1  0.48440675  0.84279825  0.34279825  1
  Li  Li326  1  0.75000000  0.92123725  0.25000000  1
  Li  Li327  1  0.08679075  0.08679075  0.24272175  1
  Li  Li328  1  0.15973525  0.84026475  0.51192225  1
  Li  Li329  1  0.05324025  0.05324025  0.94675975  1
  Li  Li330  1  0.75000000  0.75000000  0.25000000  1
  Li  Li331  1  0.59601075  0.09601075  0.23129475  1
  Li  Li332  1  0.24272175  0.08679075  0.08679075  1
  Li  Li333  1  0.76870525  0.09601075  0.40398925  1
  Li  Li334  1  0.57876275  0.75000000  0.25000000  1
  Li  Li335  1  0.93197725  0.93197725  0.56802275  1
  Li  Li336  1  0.84279825  0.15720175  0.01559325  1
  Li  Li337  1  0.91320925  0.24272175  0.91320925  1
  Li  Li338  1  0.48807775  0.15973525  0.15973525  1
  Li  Li339  1  0.51192225  0.84026475  0.15973525  1
  Sn  Sn340  1  0.58988075  0.41011925  0.91011925  1
  Sn  Sn341  1  0.75000000  0.25000000  0.42918025  1
  Sn  Sn342  1  0.41011925  0.58988075  0.91011925  1
  Sn  Sn343  1  0.66634258  0.66634258  0.33365742  1
  Sn  Sn344  1  0.32022625  0.50000000  0.50000000  1
  Sn  Sn345  1  0.50000000  0.32022625  0.50000000  1
  Sn  Sn346  1  0.57081975  0.25000000  0.25000000  1
  Sn  Sn347  1  0.25000000  0.57081975  0.25000000  1
  Sn  Sn348  1  0.50000000  0.67977375  0.50000000  1
  Sn  Sn349  1  0.75000000  0.25000000  0.07081975  1
  Sn  Sn350  1  0.66634258  0.33365742  0.66634258  1
  Sn  Sn351  1  0.33365742  0.66634258  0.66634258  1
  Sn  Sn352  1  0.41011925  0.41011925  0.08988075  1
  Sn  Sn353  1  0.75000000  0.42918025  0.25000000  1
  Sn  Sn354  1  0.92918025  0.25000000  0.25000000  1
  Sn  Sn355  1  0.58988075  0.58988075  0.08988075  1
  Sn  Sn356  1  0.33365742  0.33365742  0.33365742  1
  Sn  Sn357  1  0.67977375  0.50000000  0.50000000  1
  Sn  Sn358  1  0.50000000  0.50000000  0.67977375  1
  Sn  Sn359  1  0.50000000  0.50000000  0.32022625  1
  Sn  Sn360  1  0.58988075  0.91011925  0.41011925  1
  Sn  Sn361  1  0.75000000  0.75000000  0.92918025  1
  Sn  Sn362  1  0.41011925  0.08988075  0.41011925  1
  Sn  Sn363  1  0.66634258  0.16634258  0.83365742  1
  Sn  Sn364  1  0.32022625  0.00000000  0.00000000  1
  Sn  Sn365  1  0.50000000  0.82022625  0.00000000  1
  Sn  Sn366  1  0.57081975  0.75000000  0.75000000  1
  Sn  Sn367  1  0.25000000  0.07081975  0.75000000  1
  Sn  Sn368  1  0.50000000  0.17977375  0.00000000  1
  Sn  Sn369  1  0.75000000  0.75000000  0.57081975  1
  Sn  Sn370  1  0.66634258  0.83365742  0.16634258  1
  Sn  Sn371  1  0.33365742  0.16634258  0.16634258  1
  Sn  Sn372  1  0.41011925  0.91011925  0.58988075  1
  Sn  Sn373  1  0.75000000  0.92918025  0.75000000  1
  Sn  Sn374  1  0.92918025  0.75000000  0.75000000  1
  Sn  Sn375  1  0.58988075  0.08988075  0.58988075  1
  Sn  Sn376  1  0.33365742  0.83365742  0.83365742  1
  Sn  Sn377  1  0.67977375  0.00000000  0.00000000  1
  Sn  Sn378  1  0.50000000  0.00000000  0.17977375  1
  Sn  Sn379  1  0.50000000  0.00000000  0.82022625  1
  Sn  Sn380  1  0.08988075  0.41011925  0.41011925  1
  Sn  Sn381  1  0.25000000  0.25000000  0.92918025  1
  Sn  Sn382  1  0.91011925  0.58988075  0.41011925  1
  Sn  Sn383  1  0.16634258  0.66634258  0.83365742  1
  Sn  Sn384  1  0.82022625  0.50000000  0.00000000  1
  Sn  Sn385  1  0.00000000  0.32022625  0.00000000  1
  Sn  Sn386  1  0.07081975  0.25000000  0.75000000  1
  Sn  Sn387  1  0.75000000  0.57081975  0.75000000  1
  Sn  Sn388  1  0.00000000  0.67977375  0.00000000  1
  Sn  Sn389  1  0.25000000  0.25000000  0.57081975  1
  Sn  Sn390  1  0.16634258  0.33365742  0.16634258  1
  Sn  Sn391  1  0.83365742  0.66634258  0.16634258  1
  Sn  Sn392  1  0.91011925  0.41011925  0.58988075  1
  Sn  Sn393  1  0.25000000  0.42918025  0.75000000  1
  Sn  Sn394  1  0.42918025  0.25000000  0.75000000  1
  Sn  Sn395  1  0.08988075  0.58988075  0.58988075  1
  Sn  Sn396  1  0.83365742  0.33365742  0.83365742  1
  Sn  Sn397  1  0.17977375  0.50000000  0.00000000  1
  Sn  Sn398  1  0.00000000  0.50000000  0.17977375  1
  Sn  Sn399  1  0.00000000  0.50000000  0.82022625  1
  Sn  Sn400  1  0.08988075  0.91011925  0.91011925  1
  Sn  Sn401  1  0.25000000  0.75000000  0.42918025  1
  Sn  Sn402  1  0.91011925  0.08988075  0.91011925  1
  Sn  Sn403  1  0.16634258  0.16634258  0.33365742  1
  Sn  Sn404  1  0.82022625  0.00000000  0.50000000  1
  Sn  Sn405  1  0.00000000  0.82022625  0.50000000  1
  Sn  Sn406  1  0.07081975  0.75000000  0.25000000  1
  Sn  Sn407  1  0.75000000  0.07081975  0.25000000  1
  Sn  Sn408  1  0.00000000  0.17977375  0.50000000  1
  Sn  Sn409  1  0.25000000  0.75000000  0.07081975  1
  Sn  Sn410  1  0.16634258  0.83365742  0.66634258  1
  Sn  Sn411  1  0.83365742  0.16634258  0.66634258  1
  Sn  Sn412  1  0.91011925  0.91011925  0.08988075  1
  Sn  Sn413  1  0.25000000  0.92918025  0.25000000  1
  Sn  Sn414  1  0.42918025  0.75000000  0.25000000  1
  Sn  Sn415  1  0.08988075  0.08988075  0.08988075  1
  Sn  Sn416  1  0.83365742  0.83365742  0.33365742  1
  Sn  Sn417  1  0.17977375  0.00000000  0.50000000  1
  Sn  Sn418  1  0.00000000  0.00000000  0.67977375  1
  Sn  Sn419  1  0.00000000  0.00000000  0.32022625  1
