# generated using pymatgen
data_SrHg2
_symmetry_space_group_name_H-M   'P 1'
_cell_length_a   5.16126000
_cell_length_b   7.95034200
_cell_length_c   8.71481200
_cell_angle_alpha   90.00000000
_cell_angle_beta   90.00000000
_cell_angle_gamma   90.00000000
_symmetry_Int_Tables_number   1
_chemical_formula_structural   SrHg2
_chemical_formula_sum   'Sr4 Hg8'
_cell_volume   357.60169709
_cell_formula_units_Z   4
loop_
 _symmetry_equiv_pos_site_id
 _symmetry_equiv_pos_as_xyz
  1  'x, y, z'
loop_
 _atom_site_type_symbol
 _atom_site_label
 _atom_site_symmetry_multiplicity
 _atom_site_fract_x
 _atom_site_fract_y
 _atom_site_fract_z
 _atom_site_occupancy
  Sr  Sr0  1  0.00000000  0.25000000  0.54004900  1
  Sr  Sr1  1  0.00000000  0.75000000  0.45995100  1
  Sr  Sr2  1  0.50000000  0.75000000  0.04004900  1
  Sr  Sr3  1  0.50000000  0.25000000  0.95995100  1
  Hg  Hg4  1  0.00000000  0.04589700  0.16594200  1
  Hg  Hg5  1  0.50000000  0.04589700  0.33405800  1
  Hg  Hg6  1  0.50000000  0.95410300  0.66594200  1
  Hg  Hg7  1  0.00000000  0.95410300  0.83405800  1
  Hg  Hg8  1  0.50000000  0.54589700  0.66594200  1
  Hg  Hg9  1  0.00000000  0.54589700  0.83405800  1
  Hg  Hg10  1  0.00000000  0.45410300  0.16594200  1
  Hg  Hg11  1  0.50000000  0.45410300  0.33405800  1
