# generated using pymatgen
data_Ca3CuIrO6
_symmetry_space_group_name_H-M   'P 1'
_cell_length_a   9.15057600
_cell_length_b   9.34259800
_cell_length_c   6.51087754
_cell_angle_alpha   90.00000000
_cell_angle_beta   90.03942404
_cell_angle_gamma   90.00000000
_symmetry_Int_Tables_number   1
_chemical_formula_structural   Ca3CuIrO6
_chemical_formula_sum   'Ca12 Cu4 Ir4 O24'
_cell_volume   556.61578564
_cell_formula_units_Z   4
loop_
 _symmetry_equiv_pos_site_id
 _symmetry_equiv_pos_as_xyz
  1  'x, y, z'
loop_
 _atom_site_type_symbol
 _atom_site_label
 _atom_site_symmetry_multiplicity
 _atom_site_fract_x
 _atom_site_fract_y
 _atom_site_fract_z
 _atom_site_occupancy
  Ca  Ca0  1  0.50000000  0.90342100  0.25000000  1
  Ca  Ca1  1  0.50000000  0.09657900  0.75000000  1
  Ca  Ca2  1  0.18509550  0.07483250  0.38230800  1
  Ca  Ca3  1  0.81490450  0.07483250  0.11769200  1
  Ca  Ca4  1  0.81490450  0.92516750  0.61769200  1
  Ca  Ca5  1  0.18509550  0.92516750  0.88230800  1
  Ca  Ca6  1  0.00000000  0.40342100  0.25000000  1
  Ca  Ca7  1  0.00000000  0.59657900  0.75000000  1
  Ca  Ca8  1  0.68509550  0.57483250  0.38230800  1
  Ca  Ca9  1  0.31490450  0.57483250  0.11769200  1
  Ca  Ca10  1  0.31490450  0.42516750  0.61769200  1
  Ca  Ca11  1  0.68509550  0.42516750  0.88230800  1
  Cu  Cu12  1  0.50000000  0.69173900  0.75000000  1
  Cu  Cu13  1  0.50000000  0.30826100  0.25000000  1
  Cu  Cu14  1  0.00000000  0.19173900  0.75000000  1
  Cu  Cu15  1  0.00000000  0.80826100  0.25000000  1
  Ir  Ir16  1  0.75000000  0.75000000  0.00000000  1
  Ir  Ir17  1  0.75000000  0.25000000  0.50000000  1
  Ir  Ir18  1  0.25000000  0.25000000  0.00000000  1
  Ir  Ir19  1  0.25000000  0.75000000  0.50000000  1
  O  O20  1  0.44480600  0.65135300  0.45599800  1
  O  O21  1  0.55519400  0.65135300  0.04400200  1
  O  O22  1  0.55519400  0.34864700  0.54400200  1
  O  O23  1  0.44480600  0.34864700  0.95599800  1
  O  O24  1  0.78263550  0.18392350  0.79297100  1
  O  O25  1  0.21736450  0.18392350  0.70702900  1
  O  O26  1  0.21736450  0.81607650  0.20702900  1
  O  O27  1  0.78263550  0.81607650  0.29297100  1
  O  O28  1  0.35825450  0.93258450  0.56582300  1
  O  O29  1  0.64174550  0.93258450  0.93417700  1
  O  O30  1  0.64174550  0.06741550  0.43417700  1
  O  O31  1  0.35825450  0.06741550  0.06582300  1
  O  O32  1  0.94480600  0.15135300  0.45599800  1
  O  O33  1  0.05519400  0.15135300  0.04400200  1
  O  O34  1  0.05519400  0.84864700  0.54400200  1
  O  O35  1  0.94480600  0.84864700  0.95599800  1
  O  O36  1  0.28263550  0.68392350  0.79297100  1
  O  O37  1  0.71736450  0.68392350  0.70702900  1
  O  O38  1  0.71736450  0.31607650  0.20702900  1
  O  O39  1  0.28263550  0.31607650  0.29297100  1
  O  O40  1  0.85825450  0.43258450  0.56582300  1
  O  O41  1  0.14174550  0.43258450  0.93417700  1
  O  O42  1  0.14174550  0.56741550  0.43417700  1
  O  O43  1  0.85825450  0.56741550  0.06582300  1
