# generated using pymatgen
data_Mg5Tl2
_symmetry_space_group_name_H-M   'P 1'
_cell_length_a   6.23664200
_cell_length_b   7.45565600
_cell_length_c   14.39508400
_cell_angle_alpha   90.00000000
_cell_angle_beta   90.00000000
_cell_angle_gamma   90.00000000
_symmetry_Int_Tables_number   1
_chemical_formula_structural   Mg5Tl2
_chemical_formula_sum   'Mg20 Tl8'
_cell_volume   669.34632037
_cell_formula_units_Z   4
loop_
 _symmetry_equiv_pos_site_id
 _symmetry_equiv_pos_as_xyz
  1  'x, y, z'
loop_
 _atom_site_type_symbol
 _atom_site_label
 _atom_site_symmetry_multiplicity
 _atom_site_fract_x
 _atom_site_fract_y
 _atom_site_fract_z
 _atom_site_occupancy
  Mg  Mg0  1  0.00000000  0.15943900  0.08451500  1
  Mg  Mg1  1  0.75000000  0.00000000  0.26579400  1
  Mg  Mg2  1  0.25000000  0.50000000  0.00000000  1
  Mg  Mg3  1  0.00000000  0.65943900  0.41548500  1
  Mg  Mg4  1  0.50000000  0.34056100  0.41548500  1
  Mg  Mg5  1  0.75000000  0.50000000  0.23420600  1
  Mg  Mg6  1  0.25000000  0.50000000  0.23420600  1
  Mg  Mg7  1  0.25000000  0.00000000  0.26579400  1
  Mg  Mg8  1  0.50000000  0.84056100  0.08451500  1
  Mg  Mg9  1  0.75000000  0.50000000  0.00000000  1
  Mg  Mg10  1  0.50000000  0.65943900  0.58451500  1
  Mg  Mg11  1  0.25000000  0.50000000  0.76579400  1
  Mg  Mg12  1  0.75000000  0.00000000  0.50000000  1
  Mg  Mg13  1  0.50000000  0.15943900  0.91548500  1
  Mg  Mg14  1  0.00000000  0.84056100  0.91548500  1
  Mg  Mg15  1  0.25000000  0.00000000  0.73420600  1
  Mg  Mg16  1  0.75000000  0.00000000  0.73420600  1
  Mg  Mg17  1  0.75000000  0.50000000  0.76579400  1
  Mg  Mg18  1  0.00000000  0.34056100  0.58451500  1
  Mg  Mg19  1  0.25000000  0.00000000  0.50000000  1
  Tl  Tl20  1  0.50000000  0.73415500  0.37706200  1
  Tl  Tl21  1  0.50000000  0.23415500  0.12293800  1
  Tl  Tl22  1  0.00000000  0.26584500  0.37706200  1
  Tl  Tl23  1  0.00000000  0.76584500  0.12293800  1
  Tl  Tl24  1  0.00000000  0.23415500  0.87706200  1
  Tl  Tl25  1  0.00000000  0.73415500  0.62293800  1
  Tl  Tl26  1  0.50000000  0.76584500  0.87706200  1
  Tl  Tl27  1  0.50000000  0.26584500  0.62293800  1
