# generated using pymatgen
data_GdMoClO4
_symmetry_space_group_name_H-M   'P 1'
_cell_length_a   10.40629800
_cell_length_b   7.42370800
_cell_length_c   6.98552651
_cell_angle_alpha   90.00000000
_cell_angle_beta   107.12883165
_cell_angle_gamma   90.00000000
_symmetry_Int_Tables_number   1
_chemical_formula_structural   GdMoClO4
_chemical_formula_sum   'Gd4 Mo4 Cl4 O16'
_cell_volume   515.71865975
_cell_formula_units_Z   4
loop_
 _symmetry_equiv_pos_site_id
 _symmetry_equiv_pos_as_xyz
  1  'x, y, z'
loop_
 _atom_site_type_symbol
 _atom_site_label
 _atom_site_symmetry_multiplicity
 _atom_site_fract_x
 _atom_site_fract_y
 _atom_site_fract_z
 _atom_site_occupancy
  Gd  Gd0  1  0.22131000  0.00000000  0.11414100  1
  Gd  Gd1  1  0.77869000  0.00000000  0.88585900  1
  Gd  Gd2  1  0.72131000  0.50000000  0.11414100  1
  Gd  Gd3  1  0.27869000  0.50000000  0.88585900  1
  Mo  Mo4  1  0.63768900  0.00000000  0.26822600  1
  Mo  Mo5  1  0.36231100  0.00000000  0.73177400  1
  Mo  Mo6  1  0.13768900  0.50000000  0.26822600  1
  Mo  Mo7  1  0.86231100  0.50000000  0.73177400  1
  Cl  Cl8  1  0.01077700  0.00000000  0.76672000  1
  Cl  Cl9  1  0.98922300  0.00000000  0.23328000  1
  Cl  Cl10  1  0.51077700  0.50000000  0.76672000  1
  Cl  Cl11  1  0.48922300  0.50000000  0.23328000  1
  O  O12  1  0.29380700  0.00000000  0.46764200  1
  O  O13  1  0.69826050  0.81115550  0.15325800  1
  O  O14  1  0.70619300  0.00000000  0.53235800  1
  O  O15  1  0.30173950  0.18884450  0.84674200  1
  O  O16  1  0.30173950  0.81115550  0.84674200  1
  O  O17  1  0.54110700  0.00000000  0.79647000  1
  O  O18  1  0.69826050  0.18884450  0.15325800  1
  O  O19  1  0.45889300  0.00000000  0.20353000  1
  O  O20  1  0.79380700  0.50000000  0.46764200  1
  O  O21  1  0.19826050  0.31115550  0.15325800  1
  O  O22  1  0.20619300  0.50000000  0.53235800  1
  O  O23  1  0.80173950  0.68884450  0.84674200  1
  O  O24  1  0.80173950  0.31115550  0.84674200  1
  O  O25  1  0.04110700  0.50000000  0.79647000  1
  O  O26  1  0.19826050  0.68884450  0.15325800  1
  O  O27  1  0.95889300  0.50000000  0.20353000  1
