# generated using pymatgen
data_Rb2SbBr6
_symmetry_space_group_name_H-M   'P 1'
_cell_length_a   10.98286600
_cell_length_b   10.98286600
_cell_length_c   22.24695600
_cell_angle_alpha   90.00000000
_cell_angle_beta   90.00000000
_cell_angle_gamma   90.00000000
_symmetry_Int_Tables_number   1
_chemical_formula_structural   Rb2SbBr6
_chemical_formula_sum   'Rb16 Sb8 Br48'
_cell_volume   2683.50226156
_cell_formula_units_Z   8
loop_
 _symmetry_equiv_pos_site_id
 _symmetry_equiv_pos_as_xyz
  1  'x, y, z'
loop_
 _atom_site_type_symbol
 _atom_site_label
 _atom_site_symmetry_multiplicity
 _atom_site_fract_x
 _atom_site_fract_y
 _atom_site_fract_z
 _atom_site_occupancy
  Rb  Rb0  1  0.23196450  0.24963550  0.12717150  1
  Rb  Rb1  1  0.25036450  0.73196450  0.37282850  1
  Rb  Rb2  1  0.76803550  0.75036450  0.12717150  1
  Rb  Rb3  1  0.75036450  0.73196450  0.37717150  1
  Rb  Rb4  1  0.76803550  0.25036450  0.12282850  1
  Rb  Rb5  1  0.24963550  0.26803550  0.37717150  1
  Rb  Rb6  1  0.74963550  0.26803550  0.37282850  1
  Rb  Rb7  1  0.23196450  0.74963550  0.12282850  1
  Rb  Rb8  1  0.73196450  0.74963550  0.62717150  1
  Rb  Rb9  1  0.75036450  0.23196450  0.87282850  1
  Rb  Rb10  1  0.26803550  0.25036450  0.62717150  1
  Rb  Rb11  1  0.25036450  0.23196450  0.87717150  1
  Rb  Rb12  1  0.26803550  0.75036450  0.62282850  1
  Rb  Rb13  1  0.74963550  0.76803550  0.87717150  1
  Rb  Rb14  1  0.24963550  0.76803550  0.87282850  1
  Rb  Rb15  1  0.73196450  0.24963550  0.62282850  1
  Sb  Sb16  1  0.50000000  0.00000000  0.25000000  1
  Sb  Sb17  1  0.50000000  0.50000000  0.00000000  1
  Sb  Sb18  1  0.00000000  0.50000000  0.25000000  1
  Sb  Sb19  1  0.00000000  0.00000000  0.00000000  1
  Sb  Sb20  1  0.00000000  0.50000000  0.75000000  1
  Sb  Sb21  1  0.00000000  0.00000000  0.50000000  1
  Sb  Sb22  1  0.50000000  0.00000000  0.75000000  1
  Sb  Sb23  1  0.50000000  0.50000000  0.50000000  1
  Br  Br24  1  0.52575550  0.75765150  0.24990050  1
  Br  Br25  1  0.25038600  0.01280400  0.00317900  1
  Br  Br26  1  0.74234850  0.02575550  0.25009950  1
  Br  Br27  1  0.98719600  0.75038600  0.25317900  1
  Br  Br28  1  0.50000000  0.00000000  0.12987800  1
  Br  Br29  1  0.52575550  0.25765150  0.00009950  1
  Br  Br30  1  0.47424450  0.24234850  0.24990050  1
  Br  Br31  1  0.01280400  0.24961400  0.25317900  1
  Br  Br32  1  0.75765150  0.97424450  0.49990050  1
  Br  Br33  1  0.50000000  0.50000000  0.12012200  1
  Br  Br34  1  0.24234850  0.02575550  0.49990050  1
  Br  Br35  1  0.00000000  0.00000000  0.12416500  1
  Br  Br36  1  0.50000000  0.50000000  0.37583500  1
  Br  Br37  1  0.74961400  0.98719600  0.00317900  1
  Br  Br38  1  0.51280400  0.24961400  0.49682100  1
  Br  Br39  1  0.48719600  0.75038600  0.49682100  1
  Br  Br40  1  0.47424450  0.74234850  0.00009950  1
  Br  Br41  1  0.25765150  0.97424450  0.25009950  1
  Br  Br42  1  0.50000000  0.00000000  0.37012200  1
  Br  Br43  1  0.00000000  0.50000000  0.37416500  1
  Br  Br44  1  0.00000000  0.00000000  0.37987800  1
  Br  Br45  1  0.00000000  0.50000000  0.12583500  1
  Br  Br46  1  0.25038600  0.51280400  0.24682100  1
  Br  Br47  1  0.74961400  0.48719600  0.24682100  1
  Br  Br48  1  0.02575550  0.25765150  0.74990050  1
  Br  Br49  1  0.75038600  0.51280400  0.50317900  1
  Br  Br50  1  0.24234850  0.52575550  0.75009950  1
  Br  Br51  1  0.48719600  0.25038600  0.75317900  1
  Br  Br52  1  0.00000000  0.50000000  0.62987800  1
  Br  Br53  1  0.02575550  0.75765150  0.50009950  1
  Br  Br54  1  0.97424450  0.74234850  0.74990050  1
  Br  Br55  1  0.51280400  0.74961400  0.75317900  1
  Br  Br56  1  0.25765150  0.47424450  0.99990050  1
  Br  Br57  1  0.00000000  0.00000000  0.62012200  1
  Br  Br58  1  0.74234850  0.52575550  0.99990050  1
  Br  Br59  1  0.50000000  0.50000000  0.62416500  1
  Br  Br60  1  0.00000000  0.00000000  0.87583500  1
  Br  Br61  1  0.24961400  0.48719600  0.50317900  1
  Br  Br62  1  0.01280400  0.74961400  0.99682100  1
  Br  Br63  1  0.98719600  0.25038600  0.99682100  1
  Br  Br64  1  0.97424450  0.24234850  0.50009950  1
  Br  Br65  1  0.75765150  0.47424450  0.75009950  1
  Br  Br66  1  0.00000000  0.50000000  0.87012200  1
  Br  Br67  1  0.50000000  0.00000000  0.87416500  1
  Br  Br68  1  0.50000000  0.50000000  0.87987800  1
  Br  Br69  1  0.50000000  0.00000000  0.62583500  1
  Br  Br70  1  0.75038600  0.01280400  0.74682100  1
  Br  Br71  1  0.24961400  0.98719600  0.74682100  1
