# generated using pymatgen
data_CuAu
_symmetry_space_group_name_H-M   'P 1'
_cell_length_a   3.66287600
_cell_length_b   4.04627000
_cell_length_c   40.50448800
_cell_angle_alpha   90.00000000
_cell_angle_beta   90.00000000
_cell_angle_gamma   90.00000000
_symmetry_Int_Tables_number   1
_chemical_formula_structural   CuAu
_chemical_formula_sum   'Cu20 Au20'
_cell_volume   600.31642012
_cell_formula_units_Z   20
loop_
 _symmetry_equiv_pos_site_id
 _symmetry_equiv_pos_as_xyz
  1  'x, y, z'
loop_
 _atom_site_type_symbol
 _atom_site_label
 _atom_site_symmetry_multiplicity
 _atom_site_fract_x
 _atom_site_fract_y
 _atom_site_fract_z
 _atom_site_occupancy
  Cu  Cu0  1  0.50000000  0.75000000  0.72693000  1
  Cu  Cu1  1  0.50000000  0.75000000  0.62483200  1
  Cu  Cu2  1  0.50000000  0.25000000  0.67488500  1
  Cu  Cu3  1  0.00000000  0.25000000  0.92551500  1
  Cu  Cu4  1  0.50000000  0.75000000  0.52509400  1
  Cu  Cu5  1  0.00000000  0.75000000  0.77307000  1
  Cu  Cu6  1  0.00000000  0.75000000  0.87516800  1
  Cu  Cu7  1  0.00000000  0.25000000  0.82511500  1
  Cu  Cu8  1  0.50000000  0.25000000  0.57448500  1
  Cu  Cu9  1  0.00000000  0.75000000  0.97490600  1
  Cu  Cu10  1  0.00000000  0.25000000  0.22693000  1
  Cu  Cu11  1  0.00000000  0.25000000  0.12483200  1
  Cu  Cu12  1  0.00000000  0.75000000  0.17488500  1
  Cu  Cu13  1  0.50000000  0.75000000  0.42551500  1
  Cu  Cu14  1  0.00000000  0.25000000  0.02509400  1
  Cu  Cu15  1  0.50000000  0.25000000  0.27307000  1
  Cu  Cu16  1  0.50000000  0.25000000  0.37516800  1
  Cu  Cu17  1  0.50000000  0.75000000  0.32511500  1
  Cu  Cu18  1  0.00000000  0.75000000  0.07448500  1
  Cu  Cu19  1  0.50000000  0.25000000  0.47490600  1
  Au  Au20  1  0.50000000  0.25000000  0.77668500  1
  Au  Au21  1  0.00000000  0.75000000  0.67456800  1
  Au  Au22  1  0.50000000  0.25000000  0.87586100  1
  Au  Au23  1  0.00000000  0.25000000  0.62413900  1
  Au  Au24  1  0.50000000  0.25000000  0.97539400  1
  Au  Au25  1  0.00000000  0.25000000  0.52460600  1
  Au  Au26  1  0.50000000  0.75000000  0.82543200  1
  Au  Au27  1  0.00000000  0.75000000  0.57479500  1
  Au  Au28  1  0.50000000  0.75000000  0.92520500  1
  Au  Au29  1  0.00000000  0.25000000  0.72331500  1
  Au  Au30  1  0.00000000  0.75000000  0.27668500  1
  Au  Au31  1  0.50000000  0.25000000  0.17456800  1
  Au  Au32  1  0.00000000  0.75000000  0.37586100  1
  Au  Au33  1  0.50000000  0.75000000  0.12413900  1
  Au  Au34  1  0.00000000  0.75000000  0.47539400  1
  Au  Au35  1  0.50000000  0.75000000  0.02460600  1
  Au  Au36  1  0.00000000  0.25000000  0.32543200  1
  Au  Au37  1  0.50000000  0.25000000  0.07479500  1
  Au  Au38  1  0.00000000  0.25000000  0.42520500  1
  Au  Au39  1  0.50000000  0.75000000  0.22331500  1
