# generated using pymatgen
data_Bi4I
_symmetry_space_group_name_H-M   'P 1'
_cell_length_a   26.38610600
_cell_length_b   4.48431600
_cell_length_c   13.52519290
_cell_angle_alpha   90.00000000
_cell_angle_beta   104.74052736
_cell_angle_gamma   90.00000000
_symmetry_Int_Tables_number   1
_chemical_formula_structural   Bi4I
_chemical_formula_sum   'Bi32 I8'
_cell_volume   1547.67932889
_cell_formula_units_Z   8
loop_
 _symmetry_equiv_pos_site_id
 _symmetry_equiv_pos_as_xyz
  1  'x, y, z'
loop_
 _atom_site_type_symbol
 _atom_site_label
 _atom_site_symmetry_multiplicity
 _atom_site_fract_x
 _atom_site_fract_y
 _atom_site_fract_z
 _atom_site_occupancy
  Bi  Bi0  1  0.88636500  0.00000000  0.88127600  1
  Bi  Bi1  1  0.61363500  0.50000000  0.11872400  1
  Bi  Bi2  1  0.65862900  0.00000000  0.87070500  1
  Bi  Bi3  1  0.56424200  0.00000000  0.36936100  1
  Bi  Bi4  1  0.91996600  0.00000000  0.11752500  1
  Bi  Bi5  1  0.51366600  0.50000000  0.61915400  1
  Bi  Bi6  1  0.58003400  0.50000000  0.88247500  1
  Bi  Bi7  1  0.70947400  0.50000000  0.62776900  1
  Bi  Bi8  1  0.53539200  0.00000000  0.13111300  1
  Bi  Bi9  1  0.93575800  0.50000000  0.63063900  1
  Bi  Bi10  1  0.98633400  0.00000000  0.38084600  1
  Bi  Bi11  1  0.96460800  0.50000000  0.86888700  1
  Bi  Bi12  1  0.84137100  0.50000000  0.12929500  1
  Bi  Bi13  1  0.87098300  0.50000000  0.36422400  1
  Bi  Bi14  1  0.62901700  0.00000000  0.63577600  1
  Bi  Bi15  1  0.79052600  0.00000000  0.37223100  1
  Bi  Bi16  1  0.38636500  0.50000000  0.88127600  1
  Bi  Bi17  1  0.11363500  0.00000000  0.11872400  1
  Bi  Bi18  1  0.15862900  0.50000000  0.87070500  1
  Bi  Bi19  1  0.06424200  0.50000000  0.36936100  1
  Bi  Bi20  1  0.41996600  0.50000000  0.11752500  1
  Bi  Bi21  1  0.01366600  0.00000000  0.61915400  1
  Bi  Bi22  1  0.08003400  0.00000000  0.88247500  1
  Bi  Bi23  1  0.20947400  0.00000000  0.62776900  1
  Bi  Bi24  1  0.03539200  0.50000000  0.13111300  1
  Bi  Bi25  1  0.43575800  0.00000000  0.63063900  1
  Bi  Bi26  1  0.48633400  0.50000000  0.38084600  1
  Bi  Bi27  1  0.46460800  0.00000000  0.86888700  1
  Bi  Bi28  1  0.34137100  0.00000000  0.12929500  1
  Bi  Bi29  1  0.37098300  0.00000000  0.36422400  1
  Bi  Bi30  1  0.12901700  0.50000000  0.63577600  1
  Bi  Bi31  1  0.29052600  0.50000000  0.37223100  1
  I  I32  1  0.73107100  0.00000000  0.13683800  1
  I  I33  1  0.76892900  0.50000000  0.86316200  1
  I  I34  1  0.68071000  0.50000000  0.38954100  1
  I  I35  1  0.81929000  0.00000000  0.61045900  1
  I  I36  1  0.23107100  0.50000000  0.13683800  1
  I  I37  1  0.26892900  0.00000000  0.86316200  1
  I  I38  1  0.18071000  0.00000000  0.38954100  1
  I  I39  1  0.31929000  0.50000000  0.61045900  1
