# generated using pymatgen
data_Ba2Bi3
_symmetry_space_group_name_H-M   'P 1'
_cell_length_a   4.97302000
_cell_length_b   7.83312800
_cell_length_c   10.31359800
_cell_angle_alpha   90.00000000
_cell_angle_beta   90.00000000
_cell_angle_gamma   90.00000000
_symmetry_Int_Tables_number   1
_chemical_formula_structural   Ba2Bi3
_chemical_formula_sum   'Ba4 Bi6'
_cell_volume   401.75901333
_cell_formula_units_Z   2
loop_
 _symmetry_equiv_pos_site_id
 _symmetry_equiv_pos_as_xyz
  1  'x, y, z'
loop_
 _atom_site_type_symbol
 _atom_site_label
 _atom_site_symmetry_multiplicity
 _atom_site_fract_x
 _atom_site_fract_y
 _atom_site_fract_z
 _atom_site_occupancy
  Ba  Ba0  1  0.00000000  0.50000000  0.21976800  1
  Ba  Ba1  1  0.00000000  0.50000000  0.78023200  1
  Ba  Ba2  1  0.50000000  0.00000000  0.71976800  1
  Ba  Ba3  1  0.50000000  0.00000000  0.28023200  1
  Bi  Bi4  1  0.50000000  0.29174400  0.00000000  1
  Bi  Bi5  1  0.00000000  0.00000000  0.00000000  1
  Bi  Bi6  1  0.50000000  0.70825600  0.00000000  1
  Bi  Bi7  1  0.00000000  0.79174400  0.50000000  1
  Bi  Bi8  1  0.50000000  0.50000000  0.50000000  1
  Bi  Bi9  1  0.00000000  0.20825600  0.50000000  1
