# generated using pymatgen
data_Tm4Mn4Sn7
_symmetry_space_group_name_H-M   'P 1'
_cell_length_a   14.96215400
_cell_length_b   14.96215400
_cell_length_c   5.81361800
_cell_angle_alpha   90.00000000
_cell_angle_beta   90.00000000
_cell_angle_gamma   90.00000000
_symmetry_Int_Tables_number   1
_chemical_formula_structural   Tm4Mn4Sn7
_chemical_formula_sum   'Tm16 Mn16 Sn28'
_cell_volume   1301.47171135
_cell_formula_units_Z   4
loop_
 _symmetry_equiv_pos_site_id
 _symmetry_equiv_pos_as_xyz
  1  'x, y, z'
loop_
 _atom_site_type_symbol
 _atom_site_label
 _atom_site_symmetry_multiplicity
 _atom_site_fract_x
 _atom_site_fract_y
 _atom_site_fract_z
 _atom_site_occupancy
  Tm  Tm0  1  0.80656100  0.00000000  0.50000000  1
  Tm  Tm1  1  0.86087300  0.13912700  0.00000000  1
  Tm  Tm2  1  0.63912700  0.36087300  0.50000000  1
  Tm  Tm3  1  0.19343900  0.00000000  0.50000000  1
  Tm  Tm4  1  0.50000000  0.69343900  0.00000000  1
  Tm  Tm5  1  0.63912700  0.63912700  0.50000000  1
  Tm  Tm6  1  0.86087300  0.86087300  0.00000000  1
  Tm  Tm7  1  0.50000000  0.30656100  0.00000000  1
  Tm  Tm8  1  0.30656100  0.50000000  0.00000000  1
  Tm  Tm9  1  0.36087300  0.63912700  0.50000000  1
  Tm  Tm10  1  0.13912700  0.86087300  0.00000000  1
  Tm  Tm11  1  0.69343900  0.50000000  0.00000000  1
  Tm  Tm12  1  0.00000000  0.19343900  0.50000000  1
  Tm  Tm13  1  0.13912700  0.13912700  0.00000000  1
  Tm  Tm14  1  0.36087300  0.36087300  0.50000000  1
  Tm  Tm15  1  0.00000000  0.80656100  0.50000000  1
  Mn  Mn16  1  0.64983750  0.14983750  0.25000000  1
  Mn  Mn17  1  0.64983750  0.85016250  0.25000000  1
  Mn  Mn18  1  0.35016250  0.85016250  0.75000000  1
  Mn  Mn19  1  0.64983750  0.14983750  0.75000000  1
  Mn  Mn20  1  0.64983750  0.85016250  0.75000000  1
  Mn  Mn21  1  0.35016250  0.14983750  0.25000000  1
  Mn  Mn22  1  0.35016250  0.14983750  0.75000000  1
  Mn  Mn23  1  0.35016250  0.85016250  0.25000000  1
  Mn  Mn24  1  0.14983750  0.64983750  0.75000000  1
  Mn  Mn25  1  0.14983750  0.35016250  0.75000000  1
  Mn  Mn26  1  0.85016250  0.35016250  0.25000000  1
  Mn  Mn27  1  0.14983750  0.64983750  0.25000000  1
  Mn  Mn28  1  0.14983750  0.35016250  0.25000000  1
  Mn  Mn29  1  0.85016250  0.64983750  0.75000000  1
  Mn  Mn30  1  0.85016250  0.64983750  0.25000000  1
  Mn  Mn31  1  0.85016250  0.35016250  0.75000000  1
  Sn  Sn32  1  0.70357000  0.29643000  0.00000000  1
  Sn  Sn33  1  0.28719700  0.00000000  0.00000000  1
  Sn  Sn34  1  0.00000000  0.00000000  0.75046800  1
  Sn  Sn35  1  0.50000000  0.78719700  0.50000000  1
  Sn  Sn36  1  0.79643000  0.20357000  0.50000000  1
  Sn  Sn37  1  0.79643000  0.79643000  0.50000000  1
  Sn  Sn38  1  0.50000000  0.09705300  0.00000000  1
  Sn  Sn39  1  0.59705300  0.00000000  0.50000000  1
  Sn  Sn40  1  0.50000000  0.21280300  0.50000000  1
  Sn  Sn41  1  0.00000000  0.00000000  0.24953200  1
  Sn  Sn42  1  0.40294700  0.00000000  0.50000000  1
  Sn  Sn43  1  0.71280300  0.00000000  0.00000000  1
  Sn  Sn44  1  0.50000000  0.90294700  0.00000000  1
  Sn  Sn45  1  0.70357000  0.70357000  0.00000000  1
  Sn  Sn46  1  0.20357000  0.79643000  0.50000000  1
  Sn  Sn47  1  0.78719700  0.50000000  0.50000000  1
  Sn  Sn48  1  0.50000000  0.50000000  0.25046800  1
  Sn  Sn49  1  0.00000000  0.28719700  0.00000000  1
  Sn  Sn50  1  0.29643000  0.70357000  0.00000000  1
  Sn  Sn51  1  0.29643000  0.29643000  0.00000000  1
  Sn  Sn52  1  0.00000000  0.59705300  0.50000000  1
  Sn  Sn53  1  0.09705300  0.50000000  0.00000000  1
  Sn  Sn54  1  0.00000000  0.71280300  0.00000000  1
  Sn  Sn55  1  0.50000000  0.50000000  0.74953200  1
  Sn  Sn56  1  0.90294700  0.50000000  0.00000000  1
  Sn  Sn57  1  0.21280300  0.50000000  0.50000000  1
  Sn  Sn58  1  0.00000000  0.40294700  0.50000000  1
  Sn  Sn59  1  0.20357000  0.20357000  0.50000000  1
