# generated using pymatgen
data_Na2YMoPO8
_symmetry_space_group_name_H-M   'P 1'
_cell_length_a   6.96967400
_cell_length_b   12.24391200
_cell_length_c   18.21978800
_cell_angle_alpha   90.00000000
_cell_angle_beta   90.00000000
_cell_angle_gamma   90.00000000
_symmetry_Int_Tables_number   1
_chemical_formula_structural   Na2YMoPO8
_chemical_formula_sum   'Na16 Y8 Mo8 P8 O64'
_cell_volume   1554.80519752
_cell_formula_units_Z   8
loop_
 _symmetry_equiv_pos_site_id
 _symmetry_equiv_pos_as_xyz
  1  'x, y, z'
loop_
 _atom_site_type_symbol
 _atom_site_label
 _atom_site_symmetry_multiplicity
 _atom_site_fract_x
 _atom_site_fract_y
 _atom_site_fract_z
 _atom_site_occupancy
  Na  Na0  1  0.01061550  0.55799650  0.15292350  1
  Na  Na1  1  0.98938450  0.55799650  0.65292350  1
  Na  Na2  1  0.98938450  0.44200350  0.84707650  1
  Na  Na3  1  0.48938450  0.44200350  0.65292350  1
  Na  Na4  1  0.48938450  0.55799650  0.84707650  1
  Na  Na5  1  0.01061550  0.44200350  0.34707650  1
  Na  Na6  1  0.51061550  0.55799650  0.34707650  1
  Na  Na7  1  0.51061550  0.44200350  0.15292350  1
  Na  Na8  1  0.51061550  0.05799650  0.65292350  1
  Na  Na9  1  0.48938450  0.05799650  0.15292350  1
  Na  Na10  1  0.48938450  0.94200350  0.34707650  1
  Na  Na11  1  0.98938450  0.94200350  0.15292350  1
  Na  Na12  1  0.98938450  0.05799650  0.34707650  1
  Na  Na13  1  0.51061550  0.94200350  0.84707650  1
  Na  Na14  1  0.01061550  0.05799650  0.84707650  1
  Na  Na15  1  0.01061550  0.94200350  0.65292350  1
  Y  Y16  1  0.25000000  0.82212700  0.00000000  1
  Y  Y17  1  0.75000000  0.17787300  0.00000000  1
  Y  Y18  1  0.25000000  0.32212700  0.00000000  1
  Y  Y19  1  0.75000000  0.67787300  0.00000000  1
  Y  Y20  1  0.75000000  0.32212700  0.50000000  1
  Y  Y21  1  0.25000000  0.67787300  0.50000000  1
  Y  Y22  1  0.75000000  0.82212700  0.50000000  1
  Y  Y23  1  0.25000000  0.17787300  0.50000000  1
  Mo  Mo24  1  0.00000000  0.75000000  0.82190100  1
  Mo  Mo25  1  0.50000000  0.75000000  0.17809900  1
  Mo  Mo26  1  0.00000000  0.25000000  0.17809900  1
  Mo  Mo27  1  0.50000000  0.25000000  0.82190100  1
  Mo  Mo28  1  0.50000000  0.25000000  0.32190100  1
  Mo  Mo29  1  0.00000000  0.25000000  0.67809900  1
  Mo  Mo30  1  0.50000000  0.75000000  0.67809900  1
  Mo  Mo31  1  0.00000000  0.75000000  0.32190100  1
  P  P32  1  0.25000000  0.06910500  0.00000000  1
  P  P33  1  0.25000000  0.56910500  0.00000000  1
  P  P34  1  0.75000000  0.93089500  0.00000000  1
  P  P35  1  0.75000000  0.43089500  0.00000000  1
  P  P36  1  0.75000000  0.56910500  0.50000000  1
  P  P37  1  0.75000000  0.06910500  0.50000000  1
  P  P38  1  0.25000000  0.43089500  0.50000000  1
  P  P39  1  0.25000000  0.93089500  0.50000000  1
  O  O40  1  0.76314950  0.49367350  0.43201050  1
  O  O41  1  0.20960850  0.77419250  0.87875150  1
  O  O42  1  0.73685050  0.49367350  0.56798950  1
  O  O43  1  0.95944750  0.36942650  0.23212850  1
  O  O44  1  0.76314950  0.50632650  0.06798950  1
  O  O45  1  0.95944750  0.63057350  0.26787150  1
  O  O46  1  0.23685050  0.49367350  0.93201050  1
  O  O47  1  0.07586250  0.14818350  0.99185150  1
  O  O48  1  0.20960850  0.27419250  0.12124850  1
  O  O49  1  0.07586250  0.64818350  0.00814850  1
  O  O50  1  0.23685050  0.50632650  0.56798950  1
  O  O51  1  0.54055250  0.63057350  0.73212850  1
  O  O52  1  0.29039150  0.27419250  0.87875150  1
  O  O53  1  0.92413750  0.85181650  0.00814850  1
  O  O54  1  0.57586250  0.35181650  0.00814850  1
  O  O55  1  0.26314950  0.49367350  0.06798950  1
  O  O56  1  0.57586250  0.85181650  0.99185150  1
  O  O57  1  0.70960850  0.72580750  0.12124850  1
  O  O58  1  0.73685050  0.50632650  0.93201050  1
  O  O59  1  0.04055250  0.36942650  0.73212850  1
  O  O60  1  0.45944750  0.63057350  0.23212850  1
  O  O61  1  0.26314950  0.50632650  0.43201050  1
  O  O62  1  0.79039150  0.22580750  0.12124850  1
  O  O63  1  0.42413750  0.64818350  0.99185150  1
  O  O64  1  0.70960850  0.22580750  0.87875150  1
  O  O65  1  0.79039150  0.72580750  0.87875150  1
  O  O66  1  0.29039150  0.77419250  0.12124850  1
  O  O67  1  0.45944750  0.36942650  0.26787150  1
  O  O68  1  0.54055250  0.36942650  0.76787150  1
  O  O69  1  0.42413750  0.14818350  0.00814850  1
  O  O70  1  0.04055250  0.63057350  0.76787150  1
  O  O71  1  0.92413750  0.35181650  0.99185150  1
  O  O72  1  0.26314950  0.99367350  0.93201050  1
  O  O73  1  0.70960850  0.27419250  0.37875150  1
  O  O74  1  0.23685050  0.99367350  0.06798950  1
  O  O75  1  0.45944750  0.86942650  0.73212850  1
  O  O76  1  0.26314950  0.00632650  0.56798950  1
  O  O77  1  0.45944750  0.13057350  0.76787150  1
  O  O78  1  0.73685050  0.99367350  0.43201050  1
  O  O79  1  0.57586250  0.64818350  0.49185150  1
  O  O80  1  0.70960850  0.77419250  0.62124850  1
  O  O81  1  0.57586250  0.14818350  0.50814850  1
  O  O82  1  0.73685050  0.00632650  0.06798950  1
  O  O83  1  0.04055250  0.13057350  0.23212850  1
  O  O84  1  0.79039150  0.77419250  0.37875150  1
  O  O85  1  0.42413750  0.35181650  0.50814850  1
  O  O86  1  0.07586250  0.85181650  0.50814850  1
  O  O87  1  0.76314950  0.99367350  0.56798950  1
  O  O88  1  0.07586250  0.35181650  0.49185150  1
  O  O89  1  0.20960850  0.22580750  0.62124850  1
  O  O90  1  0.23685050  0.00632650  0.43201050  1
  O  O91  1  0.54055250  0.86942650  0.23212850  1
  O  O92  1  0.95944750  0.13057350  0.73212850  1
  O  O93  1  0.76314950  0.00632650  0.93201050  1
  O  O94  1  0.29039150  0.72580750  0.62124850  1
  O  O95  1  0.92413750  0.14818350  0.49185150  1
  O  O96  1  0.20960850  0.72580750  0.37875150  1
  O  O97  1  0.29039150  0.22580750  0.37875150  1
  O  O98  1  0.79039150  0.27419250  0.62124850  1
  O  O99  1  0.95944750  0.86942650  0.76787150  1
  O  O100  1  0.04055250  0.86942650  0.26787150  1
  O  O101  1  0.92413750  0.64818350  0.50814850  1
  O  O102  1  0.54055250  0.13057350  0.26787150  1
  O  O103  1  0.42413750  0.85181650  0.49185150  1
