# generated using pymatgen
data_CeNbO4
_symmetry_space_group_name_H-M   'P 1'
_cell_length_a   5.39855000
_cell_length_b   5.39855000
_cell_length_c   11.54325600
_cell_angle_alpha   90.00000000
_cell_angle_beta   90.00000000
_cell_angle_gamma   90.00000000
_symmetry_Int_Tables_number   1
_chemical_formula_structural   CeNbO4
_chemical_formula_sum   'Ce4 Nb4 O16'
_cell_volume   336.42060184
_cell_formula_units_Z   4
loop_
 _symmetry_equiv_pos_site_id
 _symmetry_equiv_pos_as_xyz
  1  'x, y, z'
loop_
 _atom_site_type_symbol
 _atom_site_label
 _atom_site_symmetry_multiplicity
 _atom_site_fract_x
 _atom_site_fract_y
 _atom_site_fract_z
 _atom_site_occupancy
  Ce  Ce0  1  0.00000000  0.50000000  0.25000000  1
  Ce  Ce1  1  0.00000000  0.00000000  0.00000000  1
  Ce  Ce2  1  0.50000000  0.00000000  0.75000000  1
  Ce  Ce3  1  0.50000000  0.50000000  0.50000000  1
  Nb  Nb4  1  0.50000000  0.00000000  0.25000000  1
  Nb  Nb5  1  0.50000000  0.50000000  0.00000000  1
  Nb  Nb6  1  0.00000000  0.50000000  0.75000000  1
  Nb  Nb7  1  0.00000000  0.00000000  0.50000000  1
  O  O8  1  0.33417500  0.24903200  0.33681600  1
  O  O9  1  0.74903200  0.66582500  0.08681600  1
  O  O10  1  0.25096800  0.83417500  0.16318400  1
  O  O11  1  0.25096800  0.33417500  0.08681600  1
  O  O12  1  0.74903200  0.16582500  0.16318400  1
  O  O13  1  0.16582500  0.75096800  0.41318400  1
  O  O14  1  0.66582500  0.75096800  0.33681600  1
  O  O15  1  0.83417500  0.24903200  0.41318400  1
  O  O16  1  0.83417500  0.74903200  0.83681600  1
  O  O17  1  0.24903200  0.16582500  0.58681600  1
  O  O18  1  0.75096800  0.33417500  0.66318400  1
  O  O19  1  0.75096800  0.83417500  0.58681600  1
  O  O20  1  0.24903200  0.66582500  0.66318400  1
  O  O21  1  0.66582500  0.25096800  0.91318400  1
  O  O22  1  0.16582500  0.25096800  0.83681600  1
  O  O23  1  0.33417500  0.74903200  0.91318400  1
