# generated using pymatgen
data_Mo15N16
_symmetry_space_group_name_H-M   'P 1'
_cell_length_a   11.28532000
_cell_length_b   11.47492200
_cell_length_c   9.96003616
_cell_angle_alpha   90.00000000
_cell_angle_beta   90.02768711
_cell_angle_gamma   90.00000000
_symmetry_Int_Tables_number   1
_chemical_formula_structural   Mo15N16
_chemical_formula_sum   'Mo60 N64'
_cell_volume   1289.80627322
_cell_formula_units_Z   4
loop_
 _symmetry_equiv_pos_site_id
 _symmetry_equiv_pos_as_xyz
  1  'x, y, z'
loop_
 _atom_site_type_symbol
 _atom_site_label
 _atom_site_symmetry_multiplicity
 _atom_site_fract_x
 _atom_site_fract_y
 _atom_site_fract_z
 _atom_site_occupancy
  Mo  Mo0  1  0.37962050  0.12535850  0.01027800  1
  Mo  Mo1  1  0.38044900  0.12450400  0.50106300  1
  Mo  Mo2  1  0.37906900  0.00757600  0.24432200  1
  Mo  Mo3  1  0.37906900  0.99242400  0.74432200  1
  Mo  Mo4  1  0.12941700  0.87340800  0.49256900  1
  Mo  Mo5  1  0.37962050  0.87464150  0.51027800  1
  Mo  Mo6  1  0.38044900  0.87549600  0.00106300  1
  Mo  Mo7  1  0.13111700  0.87457200  0.99779500  1
  Mo  Mo8  1  0.36697350  0.75586050  0.74615000  1
  Mo  Mo9  1  0.62918050  0.25476850  0.25691200  1
  Mo  Mo10  1  0.39040050  0.74340250  0.24323000  1
  Mo  Mo11  1  0.62884700  0.12599200  0.98755200  1
  Mo  Mo12  1  0.37920950  0.62385050  0.00844100  1
  Mo  Mo13  1  0.38123150  0.62574350  0.50213700  1
  Mo  Mo14  1  0.63123100  0.12593500  0.49863100  1
  Mo  Mo15  1  0.87898950  0.00590350  0.24373900  1
  Mo  Mo16  1  0.62827500  0.00407700  0.75701500  1
  Mo  Mo17  1  0.87898950  0.99409650  0.74373900  1
  Mo  Mo18  1  0.62827500  0.99592300  0.25701500  1
  Mo  Mo19  1  0.37920950  0.37614950  0.50844100  1
  Mo  Mo20  1  0.62884700  0.87400800  0.48755200  1
  Mo  Mo21  1  0.38123150  0.37425650  0.00213700  1
  Mo  Mo22  1  0.63123100  0.87406500  0.99863100  1
  Mo  Mo23  1  0.39040050  0.25659750  0.74323000  1
  Mo  Mo24  1  0.36697350  0.24413950  0.24615000  1
  Mo  Mo25  1  0.62918050  0.74523150  0.75691200  1
  Mo  Mo26  1  0.13111700  0.12542800  0.49779500  1
  Mo  Mo27  1  0.12941700  0.12659200  0.99256900  1
  Mo  Mo28  1  0.12872500  0.00535400  0.75513300  1
  Mo  Mo29  1  0.12872500  0.99464600  0.25513300  1
  Mo  Mo30  1  0.87962050  0.62535850  0.01027800  1
  Mo  Mo31  1  0.88044900  0.62450400  0.50106300  1
  Mo  Mo32  1  0.87906900  0.50757600  0.24432200  1
  Mo  Mo33  1  0.87906900  0.49242400  0.74432200  1
  Mo  Mo34  1  0.62941700  0.37340800  0.49256900  1
  Mo  Mo35  1  0.87962050  0.37464150  0.51027800  1
  Mo  Mo36  1  0.88044900  0.37549600  0.00106300  1
  Mo  Mo37  1  0.63111700  0.37457200  0.99779500  1
  Mo  Mo38  1  0.86697350  0.25586050  0.74615000  1
  Mo  Mo39  1  0.12918050  0.75476850  0.25691200  1
  Mo  Mo40  1  0.89040050  0.24340250  0.24323000  1
  Mo  Mo41  1  0.12884700  0.62599200  0.98755200  1
  Mo  Mo42  1  0.87920950  0.12385050  0.00844100  1
  Mo  Mo43  1  0.88123150  0.12574350  0.50213700  1
  Mo  Mo44  1  0.13123100  0.62593500  0.49863100  1
  Mo  Mo45  1  0.37898950  0.50590350  0.24373900  1
  Mo  Mo46  1  0.12827500  0.50407700  0.75701500  1
  Mo  Mo47  1  0.37898950  0.49409650  0.74373900  1
  Mo  Mo48  1  0.12827500  0.49592300  0.25701500  1
  Mo  Mo49  1  0.87920950  0.87614950  0.50844100  1
  Mo  Mo50  1  0.12884700  0.37400800  0.48755200  1
  Mo  Mo51  1  0.88123150  0.87425650  0.00213700  1
  Mo  Mo52  1  0.13123100  0.37406500  0.99863100  1
  Mo  Mo53  1  0.89040050  0.75659750  0.74323000  1
  Mo  Mo54  1  0.86697350  0.74413950  0.24615000  1
  Mo  Mo55  1  0.12918050  0.24523150  0.75691200  1
  Mo  Mo56  1  0.63111700  0.62542800  0.49779500  1
  Mo  Mo57  1  0.62941700  0.62659200  0.99256900  1
  Mo  Mo58  1  0.62872500  0.50535400  0.75513300  1
  Mo  Mo59  1  0.62872500  0.49464600  0.25513300  1
  N  N60  1  0.50299000  0.24869500  0.91600800  1
  N  N61  1  0.50432050  0.12329750  0.66770800  1
  N  N62  1  0.51017850  0.12614450  0.16603600  1
  N  N63  1  0.50129550  0.00071350  0.91654900  1
  N  N64  1  0.25085000  0.99990500  0.58393900  1
  N  N65  1  0.50129550  0.99928650  0.41654900  1
  N  N66  1  0.51017850  0.87385550  0.66603600  1
  N  N67  1  0.50432050  0.87670250  0.16770800  1
  N  N68  1  0.26172650  0.87506050  0.33389400  1
  N  N69  1  0.25111600  0.87475100  0.83495100  1
  N  N70  1  0.25132050  0.74913350  0.58262900  1
  N  N71  1  0.50299000  0.75130500  0.41600800  1
  N  N72  1  0.50138950  0.75029450  0.91804500  1
  N  N73  1  0.25273750  0.74999450  0.08350400  1
  N  N74  1  0.75607700  0.12609700  0.83212700  1
  N  N75  1  0.51081150  0.62325550  0.16560900  1
  N  N76  1  0.50275900  0.62660900  0.66697300  1
  N  N77  1  0.75527950  0.12537850  0.33397300  1
  N  N78  1  0.00225450  0.99909050  0.91546700  1
  N  N79  1  0.75116000  0.99979000  0.08366900  1
  N  N80  1  0.00225450  0.00090950  0.41546700  1
  N  N81  1  0.75116000  0.00021000  0.58366900  1
  N  N82  1  0.75607700  0.87390300  0.33212700  1
  N  N83  1  0.51081150  0.37674450  0.66560900  1
  N  N84  1  0.50275900  0.37339100  0.16697300  1
  N  N85  1  0.75527950  0.87462150  0.83397300  1
  N  N86  1  0.25273750  0.25000550  0.58350400  1
  N  N87  1  0.50138950  0.24970550  0.41804500  1
  N  N88  1  0.25132050  0.25086650  0.08262900  1
  N  N89  1  0.26172650  0.12493950  0.83389400  1
  N  N90  1  0.25111600  0.12524900  0.33495100  1
  N  N91  1  0.25085000  0.00009500  0.08393900  1
  N  N92  1  0.00299000  0.74869500  0.91600800  1
  N  N93  1  0.00432050  0.62329750  0.66770800  1
  N  N94  1  0.01017850  0.62614450  0.16603600  1
  N  N95  1  0.00129550  0.50071350  0.91654900  1
  N  N96  1  0.75085000  0.49990500  0.58393900  1
  N  N97  1  0.00129550  0.49928650  0.41654900  1
  N  N98  1  0.01017850  0.37385550  0.66603600  1
  N  N99  1  0.00432050  0.37670250  0.16770800  1
  N  N100  1  0.76172650  0.37506050  0.33389400  1
  N  N101  1  0.75111600  0.37475100  0.83495100  1
  N  N102  1  0.75132050  0.24913350  0.58262900  1
  N  N103  1  0.00299000  0.25130500  0.41600800  1
  N  N104  1  0.00138950  0.25029450  0.91804500  1
  N  N105  1  0.75273750  0.24999450  0.08350400  1
  N  N106  1  0.25607700  0.62609700  0.83212700  1
  N  N107  1  0.01081150  0.12325550  0.16560900  1
  N  N108  1  0.00275900  0.12660900  0.66697300  1
  N  N109  1  0.25527950  0.62537850  0.33397300  1
  N  N110  1  0.50225450  0.49909050  0.91546700  1
  N  N111  1  0.25116000  0.49979000  0.08366900  1
  N  N112  1  0.50225450  0.50090950  0.41546700  1
  N  N113  1  0.25116000  0.50021000  0.58366900  1
  N  N114  1  0.25607700  0.37390300  0.33212700  1
  N  N115  1  0.01081150  0.87674450  0.66560900  1
  N  N116  1  0.00275900  0.87339100  0.16697300  1
  N  N117  1  0.25527950  0.37462150  0.83397300  1
  N  N118  1  0.75273750  0.75000550  0.58350400  1
  N  N119  1  0.00138950  0.74970550  0.41804500  1
  N  N120  1  0.75132050  0.75086650  0.08262900  1
  N  N121  1  0.76172650  0.62493950  0.83389400  1
  N  N122  1  0.75111600  0.62524900  0.33495100  1
  N  N123  1  0.75085000  0.50009500  0.08393900  1
