# generated using pymatgen
data_Ba4CeMn3O12
_symmetry_space_group_name_H-M   'P 1'
_cell_length_a   5.88907997
_cell_length_b   5.88907997
_cell_length_c   29.24977271
_cell_angle_alpha   90.00000000
_cell_angle_beta   90.00000000
_cell_angle_gamma   120.00000000
_symmetry_Int_Tables_number   1
_chemical_formula_structural   Ba4CeMn3O12
_chemical_formula_sum   'Ba12 Ce3 Mn9 O36'
_cell_volume   878.51267276
_cell_formula_units_Z   3
loop_
 _symmetry_equiv_pos_site_id
 _symmetry_equiv_pos_as_xyz
  1  'x, y, z'
loop_
 _atom_site_type_symbol
 _atom_site_label
 _atom_site_symmetry_multiplicity
 _atom_site_fract_x
 _atom_site_fract_y
 _atom_site_fract_z
 _atom_site_occupancy
  Ba  Ba0  1  0.00000000  0.00000000  0.28148700  1
  Ba  Ba1  1  0.00000000  0.00000000  0.13083400  1
  Ba  Ba2  1  0.66666667  0.33333333  0.05184633  1
  Ba  Ba3  1  0.66666667  0.33333333  0.20249933  1
  Ba  Ba4  1  0.66666667  0.33333333  0.61482033  1
  Ba  Ba5  1  0.66666667  0.33333333  0.46416733  1
  Ba  Ba6  1  0.33333333  0.66666667  0.38517967  1
  Ba  Ba7  1  0.33333333  0.66666667  0.53583267  1
  Ba  Ba8  1  0.33333333  0.66666667  0.94815367  1
  Ba  Ba9  1  0.33333333  0.66666667  0.79750067  1
  Ba  Ba10  1  0.00000000  0.00000000  0.71851300  1
  Ba  Ba11  1  0.00000000  0.00000000  0.86916600  1
  Ce  Ce12  1  0.00000000  0.00000000  0.00000000  1
  Ce  Ce13  1  0.66666667  0.33333333  0.33333333  1
  Ce  Ce14  1  0.33333333  0.66666667  0.66666667  1
  Mn  Mn15  1  0.33333333  0.66666667  0.07920667  1
  Mn  Mn16  1  0.33333333  0.66666667  0.25412667  1
  Mn  Mn17  1  0.33333333  0.66666667  0.16666667  1
  Mn  Mn18  1  0.00000000  0.00000000  0.41254000  1
  Mn  Mn19  1  0.00000000  0.00000000  0.58746000  1
  Mn  Mn20  1  1.00000000  1.00000000  0.50000000  1
  Mn  Mn21  1  0.66666667  0.33333333  0.74587333  1
  Mn  Mn22  1  0.66666667  0.33333333  0.92079333  1
  Mn  Mn23  1  0.66666667  0.33333333  0.83333333  1
  O  O24  1  0.49059500  0.50940500  0.28888800  1
  O  O25  1  0.17607167  0.82392833  0.04444533  1
  O  O26  1  0.01881000  0.50940500  0.28888800  1
  O  O27  1  0.18682867  0.37365733  0.20880433  1
  O  O28  1  0.64785667  0.82392833  0.04444533  1
  O  O29  1  0.62634267  0.81317133  0.20880433  1
  O  O30  1  0.18682867  0.81317133  0.20880433  1
  O  O31  1  0.04032400  0.52016200  0.12452900  1
  O  O32  1  0.47983800  0.52016200  0.12452900  1
  O  O33  1  0.49059500  0.98119000  0.28888800  1
  O  O34  1  0.47983800  0.95967600  0.12452900  1
  O  O35  1  0.17607167  0.35214333  0.04444533  1
  O  O36  1  0.15726167  0.84273833  0.62222133  1
  O  O37  1  0.84273833  0.15726167  0.37777867  1
  O  O38  1  0.68547667  0.84273833  0.62222133  1
  O  O39  1  0.85349533  0.70699067  0.54213767  1
  O  O40  1  0.31452333  0.15726167  0.37777867  1
  O  O41  1  0.29300933  0.14650467  0.54213767  1
  O  O42  1  0.85349533  0.14650467  0.54213767  1
  O  O43  1  0.70699067  0.85349533  0.45786233  1
  O  O44  1  0.14650467  0.85349533  0.45786233  1
  O  O45  1  0.15726167  0.31452333  0.62222133  1
  O  O46  1  0.14650467  0.29300933  0.45786233  1
  O  O47  1  0.84273833  0.68547667  0.37777867  1
  O  O48  1  0.82392833  0.17607167  0.95555467  1
  O  O49  1  0.50940500  0.49059500  0.71111200  1
  O  O50  1  0.35214333  0.17607167  0.95555467  1
  O  O51  1  0.52016200  0.04032400  0.87547100  1
  O  O52  1  0.98119000  0.49059500  0.71111200  1
  O  O53  1  0.95967600  0.47983800  0.87547100  1
  O  O54  1  0.52016200  0.47983800  0.87547100  1
  O  O55  1  0.37365733  0.18682867  0.79119567  1
  O  O56  1  0.81317133  0.18682867  0.79119567  1
  O  O57  1  0.82392833  0.64785667  0.95555467  1
  O  O58  1  0.81317133  0.62634267  0.79119567  1
  O  O59  1  0.50940500  0.01881000  0.71111200  1
