# generated using pymatgen
data_MoP2PbO8
_symmetry_space_group_name_H-M   'P 1'
_cell_length_a   14.41674400
_cell_length_b   14.52391800
_cell_length_c   6.66840885
_cell_angle_alpha   90.00000000
_cell_angle_beta   101.81951964
_cell_angle_gamma   90.00000000
_symmetry_Int_Tables_number   1
_chemical_formula_structural   MoP2PbO8
_chemical_formula_sum   'Mo8 P16 Pb8 O64'
_cell_volume   1366.67773126
_cell_formula_units_Z   8
loop_
 _symmetry_equiv_pos_site_id
 _symmetry_equiv_pos_as_xyz
  1  'x, y, z'
loop_
 _atom_site_type_symbol
 _atom_site_label
 _atom_site_symmetry_multiplicity
 _atom_site_fract_x
 _atom_site_fract_y
 _atom_site_fract_z
 _atom_site_occupancy
  Mo  Mo0  1  0.63343300  0.35813300  0.31342500  1
  Mo  Mo1  1  0.63343300  0.64186700  0.81342500  1
  Mo  Mo2  1  0.36656700  0.64186700  0.68657500  1
  Mo  Mo3  1  0.36656700  0.35813300  0.18657500  1
  Mo  Mo4  1  0.13343300  0.85813300  0.31342500  1
  Mo  Mo5  1  0.13343300  0.14186700  0.81342500  1
  Mo  Mo6  1  0.86656700  0.14186700  0.68657500  1
  Mo  Mo7  1  0.86656700  0.85813300  0.18657500  1
  P  P8  1  0.88812300  0.90400900  0.69747400  1
  P  P9  1  0.62829200  0.13465500  0.46356100  1
  P  P10  1  0.37170800  0.86534500  0.53643900  1
  P  P11  1  0.11187700  0.90400900  0.80252600  1
  P  P12  1  0.37170800  0.13465500  0.03643900  1
  P  P13  1  0.62829200  0.86534500  0.96356100  1
  P  P14  1  0.11187700  0.09599100  0.30252600  1
  P  P15  1  0.88812300  0.09599100  0.19747400  1
  P  P16  1  0.38812300  0.40400900  0.69747400  1
  P  P17  1  0.12829200  0.63465500  0.46356100  1
  P  P18  1  0.87170800  0.36534500  0.53643900  1
  P  P19  1  0.61187700  0.40400900  0.80252600  1
  P  P20  1  0.87170800  0.63465500  0.03643900  1
  P  P21  1  0.12829200  0.36534500  0.96356100  1
  P  P22  1  0.61187700  0.59599100  0.30252600  1
  P  P23  1  0.38812300  0.59599100  0.19747400  1
  Pb  Pb24  1  0.37625450  0.88564450  0.04204500  1
  Pb  Pb25  1  0.62374550  0.88564450  0.45795500  1
  Pb  Pb26  1  0.37625450  0.11435550  0.54204500  1
  Pb  Pb27  1  0.62374550  0.11435550  0.95795500  1
  Pb  Pb28  1  0.87625450  0.38564450  0.04204500  1
  Pb  Pb29  1  0.12374550  0.38564450  0.45795500  1
  Pb  Pb30  1  0.87625450  0.61435550  0.54204500  1
  Pb  Pb31  1  0.12374550  0.61435550  0.95795500  1
  O  O32  1  0.15592550  0.00058550  0.33023100  1
  O  O33  1  0.50000000  0.63194700  0.75000000  1
  O  O34  1  0.84407450  0.99941450  0.66976900  1
  O  O35  1  0.15592550  0.99941450  0.83023100  1
  O  O36  1  0.63755450  0.34562550  0.99778400  1
  O  O37  1  0.62813850  0.04538250  0.33723100  1
  O  O38  1  0.37186150  0.95461750  0.66276900  1
  O  O39  1  0.62813850  0.95461750  0.83723100  1
  O  O40  1  0.36120350  0.34997450  0.87283900  1
  O  O41  1  0.37186150  0.04538250  0.16276900  1
  O  O42  1  0.63879650  0.34997450  0.62716100  1
  O  O43  1  0.28001050  0.14653550  0.86644300  1
  O  O44  1  0.50000000  0.42157100  0.75000000  1
  O  O45  1  0.50000000  0.36805300  0.25000000  1
  O  O46  1  0.37717450  0.21448450  0.19507500  1
  O  O47  1  0.45369200  0.86445800  0.41764700  1
  O  O48  1  0.71998950  0.85346450  0.13355700  1
  O  O49  1  0.45369200  0.13554200  0.91764700  1
  O  O50  1  0.36244550  0.65437450  0.00221600  1
  O  O51  1  0.54630800  0.13554200  0.58235300  1
  O  O52  1  0.36244550  0.34562550  0.50221600  1
  O  O53  1  0.71998950  0.14653550  0.63355700  1
  O  O54  1  0.62282550  0.21448450  0.30492500  1
  O  O55  1  0.84407450  0.00058550  0.16976900  1
  O  O56  1  0.62282550  0.78551550  0.80492500  1
  O  O57  1  0.37717450  0.78551550  0.69507500  1
  O  O58  1  0.50000000  0.57842900  0.25000000  1
  O  O59  1  0.63879650  0.65002550  0.12716100  1
  O  O60  1  0.28001050  0.85346450  0.36644300  1
  O  O61  1  0.63755450  0.65437450  0.49778400  1
  O  O62  1  0.54630800  0.86445800  0.08235300  1
  O  O63  1  0.36120350  0.65002550  0.37283900  1
  O  O64  1  0.65592550  0.50058550  0.33023100  1
  O  O65  1  0.00000000  0.13194700  0.75000000  1
  O  O66  1  0.34407450  0.49941450  0.66976900  1
  O  O67  1  0.65592550  0.49941450  0.83023100  1
  O  O68  1  0.13755450  0.84562550  0.99778400  1
  O  O69  1  0.12813850  0.54538250  0.33723100  1
  O  O70  1  0.87186150  0.45461750  0.66276900  1
  O  O71  1  0.12813850  0.45461750  0.83723100  1
  O  O72  1  0.86120350  0.84997450  0.87283900  1
  O  O73  1  0.87186150  0.54538250  0.16276900  1
  O  O74  1  0.13879650  0.84997450  0.62716100  1
  O  O75  1  0.78001050  0.64653550  0.86644300  1
  O  O76  1  0.00000000  0.92157100  0.75000000  1
  O  O77  1  0.00000000  0.86805300  0.25000000  1
  O  O78  1  0.87717450  0.71448450  0.19507500  1
  O  O79  1  0.95369200  0.36445800  0.41764700  1
  O  O80  1  0.21998950  0.35346450  0.13355700  1
  O  O81  1  0.95369200  0.63554200  0.91764700  1
  O  O82  1  0.86244550  0.15437450  0.00221600  1
  O  O83  1  0.04630800  0.63554200  0.58235300  1
  O  O84  1  0.86244550  0.84562550  0.50221600  1
  O  O85  1  0.21998950  0.64653550  0.63355700  1
  O  O86  1  0.12282550  0.71448450  0.30492500  1
  O  O87  1  0.34407450  0.50058550  0.16976900  1
  O  O88  1  0.12282550  0.28551550  0.80492500  1
  O  O89  1  0.87717450  0.28551550  0.69507500  1
  O  O90  1  0.00000000  0.07842900  0.25000000  1
  O  O91  1  0.13879650  0.15002550  0.12716100  1
  O  O92  1  0.78001050  0.35346450  0.36644300  1
  O  O93  1  0.13755450  0.15437450  0.49778400  1
  O  O94  1  0.04630800  0.36445800  0.08235300  1
  O  O95  1  0.86120350  0.15002550  0.37283900  1
