# generated using pymatgen
data_Fe2(SO4)3
_symmetry_space_group_name_H-M   'P 1'
_cell_length_a   8.36905756
_cell_length_b   8.36905756
_cell_length_c   22.61562906
_cell_angle_alpha   90.00000000
_cell_angle_beta   90.00000000
_cell_angle_gamma   120.00000000
_symmetry_Int_Tables_number   1
_chemical_formula_structural   Fe2(SO4)3
_chemical_formula_sum   'Fe12 S18 O72'
_cell_volume   1371.80510176
_cell_formula_units_Z   6
loop_
 _symmetry_equiv_pos_site_id
 _symmetry_equiv_pos_as_xyz
  1  'x, y, z'
loop_
 _atom_site_type_symbol
 _atom_site_label
 _atom_site_symmetry_multiplicity
 _atom_site_fract_x
 _atom_site_fract_y
 _atom_site_fract_z
 _atom_site_occupancy
  Fe  Fe0  1  0.66666667  0.33333333  0.47848733  1
  Fe  Fe1  1  0.00000000  0.00000000  0.34969767  1
  Fe  Fe2  1  0.33333333  0.66666667  0.52151267  1
  Fe  Fe3  1  0.00000000  0.00000000  0.65030233  1
  Fe  Fe4  1  0.33333333  0.66666667  0.81182067  1
  Fe  Fe5  1  0.66666667  0.33333333  0.68303100  1
  Fe  Fe6  1  0.00000000  0.00000000  0.85484600  1
  Fe  Fe7  1  0.66666667  0.33333333  0.98363567  1
  Fe  Fe8  1  0.00000000  0.00000000  0.14515400  1
  Fe  Fe9  1  0.33333333  0.66666667  0.01636433  1
  Fe  Fe10  1  0.66666667  0.33333333  0.18817933  1
  Fe  Fe11  1  0.33333333  0.66666667  0.31696900  1
  S  S12  1  0.62135500  0.95685100  0.41607300  1
  S  S13  1  0.33549600  0.37864500  0.41607300  1
  S  S14  1  0.04314900  0.66450400  0.41607300  1
  S  S15  1  0.37864500  0.04314900  0.58392700  1
  S  S16  1  0.66450400  0.62135500  0.58392700  1
  S  S17  1  0.95685100  0.33549600  0.58392700  1
  S  S18  1  0.28802167  0.29018433  0.74940633  1
  S  S19  1  0.00216267  0.71197833  0.74940633  1
  S  S20  1  0.70981567  0.99783733  0.74940633  1
  S  S21  1  0.04531167  0.37648233  0.91726033  1
  S  S22  1  0.33117067  0.95468833  0.91726033  1
  S  S23  1  0.62351767  0.66882933  0.91726033  1
  S  S24  1  0.95468833  0.62351767  0.08273967  1
  S  S25  1  0.66882933  0.04531167  0.08273967  1
  S  S26  1  0.37648233  0.33117067  0.08273967  1
  S  S27  1  0.71197833  0.70981567  0.25059367  1
  S  S28  1  0.99783733  0.28802167  0.25059367  1
  S  S29  1  0.29018433  0.00216267  0.25059367  1
  O  O30  1  0.54010167  0.85801033  0.47222533  1
  O  O31  1  0.31790867  0.45989833  0.47222533  1
  O  O32  1  0.14198967  0.68209133  0.47222533  1
  O  O33  1  0.45989833  0.14198967  0.52777467  1
  O  O34  1  0.68209133  0.54010167  0.52777467  1
  O  O35  1  0.85801033  0.31790867  0.52777467  1
  O  O36  1  0.47983733  0.89078267  0.36841167  1
  O  O37  1  0.41094533  0.52016267  0.36841167  1
  O  O38  1  0.10921733  0.58905467  0.36841167  1
  O  O39  1  0.52016267  0.10921733  0.63158833  1
  O  O40  1  0.58905467  0.47983733  0.63158833  1
  O  O41  1  0.89078267  0.41094533  0.63158833  1
  O  O42  1  0.69225000  0.15659500  0.42394000  1
  O  O43  1  0.46434500  0.30775000  0.42394000  1
  O  O44  1  0.84340500  0.53565500  0.42394000  1
  O  O45  1  0.30775000  0.84340500  0.57606000  1
  O  O46  1  0.53565500  0.69225000  0.57606000  1
  O  O47  1  0.15659500  0.46434500  0.57606000  1
  O  O48  1  0.77490867  0.92460633  0.40038333  1
  O  O49  1  0.14969767  0.22509133  0.40038333  1
  O  O50  1  0.07539367  0.85030233  0.40038333  1
  O  O51  1  0.22509133  0.07539367  0.59961667  1
  O  O52  1  0.85030233  0.77490867  0.59961667  1
  O  O53  1  0.92460633  0.14969767  0.59961667  1
  O  O54  1  0.20676833  0.19134367  0.80555867  1
  O  O55  1  0.98457533  0.79323167  0.80555867  1
  O  O56  1  0.80865633  0.01542467  0.80555867  1
  O  O57  1  0.12656500  0.47532300  0.86110800  1
  O  O58  1  0.34875800  0.87343500  0.86110800  1
  O  O59  1  0.52467700  0.65124200  0.86110800  1
  O  O60  1  0.14650400  0.22411600  0.70174500  1
  O  O61  1  0.07761200  0.85349600  0.70174500  1
  O  O62  1  0.77588400  0.92238800  0.70174500  1
  O  O63  1  0.18682933  0.44255067  0.96492167  1
  O  O64  1  0.25572133  0.81317067  0.96492167  1
  O  O65  1  0.55744933  0.74427867  0.96492167  1
  O  O66  1  0.35891667  0.48992833  0.75727333  1
  O  O67  1  0.13101167  0.64108333  0.75727333  1
  O  O68  1  0.51007167  0.86898833  0.75727333  1
  O  O69  1  0.97441667  0.17673833  0.90939333  1
  O  O70  1  0.20232167  0.02558333  0.90939333  1
  O  O71  1  0.82326167  0.79767833  0.90939333  1
  O  O72  1  0.44157533  0.25793967  0.73371667  1
  O  O73  1  0.81636433  0.55842467  0.73371667  1
  O  O74  1  0.74206033  0.18363567  0.73371667  1
  O  O75  1  0.89175800  0.40872700  0.93295000  1
  O  O76  1  0.51696900  0.10824200  0.93295000  1
  O  O77  1  0.59127300  0.48303100  0.93295000  1
  O  O78  1  0.87343500  0.52467700  0.13889200  1
  O  O79  1  0.65124200  0.12656500  0.13889200  1
  O  O80  1  0.47532300  0.34875800  0.13889200  1
  O  O81  1  0.79323167  0.80865633  0.19444133  1
  O  O82  1  0.01542467  0.20676833  0.19444133  1
  O  O83  1  0.19134367  0.98457533  0.19444133  1
  O  O84  1  0.81317067  0.55744933  0.03507833  1
  O  O85  1  0.74427867  0.18682933  0.03507833  1
  O  O86  1  0.44255067  0.25572133  0.03507833  1
  O  O87  1  0.85349600  0.77588400  0.29825500  1
  O  O88  1  0.92238800  0.14650400  0.29825500  1
  O  O89  1  0.22411600  0.07761200  0.29825500  1
  O  O90  1  0.02558333  0.82326167  0.09060667  1
  O  O91  1  0.79767833  0.97441667  0.09060667  1
  O  O92  1  0.17673833  0.20232167  0.09060667  1
  O  O93  1  0.64108333  0.51007167  0.24272667  1
  O  O94  1  0.86898833  0.35891667  0.24272667  1
  O  O95  1  0.48992833  0.13101167  0.24272667  1
  O  O96  1  0.10824200  0.59127300  0.06705000  1
  O  O97  1  0.48303100  0.89175800  0.06705000  1
  O  O98  1  0.40872700  0.51696900  0.06705000  1
  O  O99  1  0.55842467  0.74206033  0.26628333  1
  O  O100  1  0.18363567  0.44157533  0.26628333  1
  O  O101  1  0.25793967  0.81636433  0.26628333  1
