# generated using pymatgen
data_B
_symmetry_space_group_name_H-M   'P 1'
_cell_length_a   10.43577179
_cell_length_b   10.43577179
_cell_length_c   29.75151282
_cell_angle_alpha   90.00000000
_cell_angle_beta   90.00000000
_cell_angle_gamma   120.00000000
_symmetry_Int_Tables_number   1
_chemical_formula_structural   B
_chemical_formula_sum   B324
_cell_volume   2806.00753287
_cell_formula_units_Z   324
loop_
 _symmetry_equiv_pos_site_id
 _symmetry_equiv_pos_as_xyz
  1  'x, y, z'
loop_
 _atom_site_type_symbol
 _atom_site_label
 _atom_site_symmetry_multiplicity
 _atom_site_fract_x
 _atom_site_fract_y
 _atom_site_fract_z
 _atom_site_occupancy
  B  B0  1  0.84000767  0.83859233  0.13432833  1
  B  B1  1  0.99858467  0.15999233  0.13432833  1
  B  B2  1  0.16140767  0.00141533  0.13432833  1
  B  B3  1  0.50525900  0.17334100  0.19900500  1
  B  B4  1  0.66808200  0.49474100  0.19900500  1
  B  B5  1  0.82665900  0.33191800  0.19900500  1
  B  B6  1  0.82665900  0.49474100  0.19900500  1
  B  B7  1  0.66808200  0.17334100  0.19900500  1
  B  B8  1  0.50525900  0.33191800  0.19900500  1
  B  B9  1  0.16140767  0.15999233  0.13432833  1
  B  B10  1  0.99858467  0.83859233  0.13432833  1
  B  B11  1  0.84000767  0.00141533  0.13432833  1
  B  B12  1  0.62307100  0.54441400  0.01938300  1
  B  B13  1  0.92134300  0.37692900  0.01938300  1
  B  B14  1  0.45558600  0.07865700  0.01938300  1
  B  B15  1  0.21108067  0.95640433  0.31395033  1
  B  B16  1  0.74532367  0.78891933  0.31395033  1
  B  B17  1  0.04359567  0.25467633  0.31395033  1
  B  B18  1  0.04359567  0.78891933  0.31395033  1
  B  B19  1  0.74532367  0.95640433  0.31395033  1
  B  B20  1  0.21108067  0.25467633  0.31395033  1
  B  B21  1  0.45558600  0.37692900  0.01938300  1
  B  B22  1  0.92134300  0.54441400  0.01938300  1
  B  B23  1  0.62307100  0.07865700  0.01938300  1
  B  B24  1  0.73395467  0.73132833  0.05691433  1
  B  B25  1  0.99737367  0.26604533  0.05691433  1
  B  B26  1  0.26867167  0.00262633  0.05691433  1
  B  B27  1  0.39799500  0.06728800  0.27641900  1
  B  B28  1  0.66929300  0.60200500  0.27641900  1
  B  B29  1  0.93271200  0.33070700  0.27641900  1
  B  B30  1  0.93271200  0.60200500  0.27641900  1
  B  B31  1  0.66929300  0.06728800  0.27641900  1
  B  B32  1  0.39799500  0.33070700  0.27641900  1
  B  B33  1  0.26867167  0.26604533  0.05691433  1
  B  B34  1  0.99737367  0.73132833  0.05691433  1
  B  B35  1  0.73395467  0.00262633  0.05691433  1
  B  B36  1  0.55860233  0.67161667  0.13773167  1
  B  B37  1  0.11301433  0.44139767  0.13773167  1
  B  B38  1  0.32838333  0.88698567  0.13773167  1
  B  B39  1  0.33828333  0.89193567  0.19560167  1
  B  B40  1  0.55365233  0.66171667  0.19560167  1
  B  B41  1  0.10806433  0.44634767  0.19560167  1
  B  B42  1  0.10806433  0.66171667  0.19560167  1
  B  B43  1  0.55365233  0.89193567  0.19560167  1
  B  B44  1  0.33828333  0.44634767  0.19560167  1
  B  B45  1  0.32838333  0.44139767  0.13773167  1
  B  B46  1  0.11301433  0.67161667  0.13773167  1
  B  B47  1  0.55860233  0.88698567  0.13773167  1
  B  B48  1  0.80168100  0.60336200  0.24272800  1
  B  B49  1  0.80168100  0.19831900  0.24272800  1
  B  B50  1  0.39663800  0.19831900  0.24272800  1
  B  B51  1  0.27002867  0.13501433  0.09060533  1
  B  B52  1  0.86498567  0.72997133  0.09060533  1
  B  B53  1  0.86498567  0.13501433  0.09060533  1
  B  B54  1  0.18270300  0.36540600  0.05291100  1
  B  B55  1  0.18270300  0.81729700  0.05291100  1
  B  B56  1  0.63459400  0.81729700  0.05291100  1
  B  B57  1  0.03207267  0.51603633  0.28042233  1
  B  B58  1  0.48396367  0.96792733  0.28042233  1
  B  B59  1  0.48396367  0.51603633  0.28042233  1
  B  B60  1  0.38916833  0.77833667  0.27282867  1
  B  B61  1  0.38916833  0.61083167  0.27282867  1
  B  B62  1  0.22166333  0.61083167  0.27282867  1
  B  B63  1  0.44500333  0.72250167  0.06050467  1
  B  B64  1  0.27749833  0.55499667  0.06050467  1
  B  B65  1  0.27749833  0.72250167  0.06050467  1
  B  B66  1  0.23118067  0.46236133  0.23500233  1
  B  B67  1  0.23118067  0.76881933  0.23500233  1
  B  B68  1  0.53763867  0.76881933  0.23500233  1
  B  B69  1  0.12902800  0.56451400  0.09833100  1
  B  B70  1  0.43548600  0.87097200  0.09833100  1
  B  B71  1  0.43548600  0.56451400  0.09833100  1
  B  B72  1  0.09622767  0.19245533  0.02258233  1
  B  B73  1  0.09622767  0.90377233  0.02258233  1
  B  B74  1  0.80754467  0.90377233  0.02258233  1
  B  B75  1  0.85912200  0.42956100  0.31075100  1
  B  B76  1  0.57043900  0.14087800  0.31075100  1
  B  B77  1  0.57043900  0.42956100  0.31075100  1
  B  B78  1  0.15852300  0.31704600  0.16289900  1
  B  B79  1  0.15852300  0.84147700  0.16289900  1
  B  B80  1  0.68295400  0.84147700  0.16289900  1
  B  B81  1  0.98371267  0.49185633  0.17043433  1
  B  B82  1  0.50814367  0.01628733  0.17043433  1
  B  B83  1  0.50814367  0.49185633  0.17043433  1
  B  B84  1  0.80503033  0.61006067  0.04360967  1
  B  B85  1  0.80503033  0.19496967  0.04360967  1
  B  B86  1  0.38993933  0.19496967  0.04360967  1
  B  B87  1  0.27672733  0.13836367  0.28972367  1
  B  B88  1  0.86163633  0.72327267  0.28972367  1
  B  B89  1  0.86163633  0.13836367  0.28972367  1
  B  B90  1  0.15102800  0.30205600  0.10509000  1
  B  B91  1  0.15102800  0.84897200  0.10509000  1
  B  B92  1  0.69794400  0.84897200  0.10509000  1
  B  B93  1  0.96872267  0.48436133  0.22824333  1
  B  B94  1  0.51563867  0.03127733  0.22824333  1
  B  B95  1  0.51563867  0.48436133  0.22824333  1
  B  B96  1  0.20507733  0.41015467  0.29700867  1
  B  B97  1  0.20507733  0.79492267  0.29700867  1
  B  B98  1  0.58984533  0.79492267  0.29700867  1
  B  B99  1  0.07682133  0.53841067  0.03632467  1
  B  B100  1  0.46158933  0.92317867  0.03632467  1
  B  B101  1  0.46158933  0.53841067  0.03632467  1
  B  B102  1  0.90906500  0.81813000  0.03609700  1
  B  B103  1  0.90906500  0.09093500  0.03609700  1
  B  B104  1  0.18187000  0.09093500  0.03609700  1
  B  B105  1  0.48479667  0.24239833  0.29723633  1
  B  B106  1  0.75760167  0.51520333  0.29723633  1
  B  B107  1  0.75760167  0.24239833  0.29723633  1
  B  B108  1  0.50667433  0.17192567  0.46766167  1
  B  B109  1  0.66525133  0.49332567  0.46766167  1
  B  B110  1  0.82807433  0.33474867  0.46766167  1
  B  B111  1  0.17192567  0.50667433  0.53233833  1
  B  B112  1  0.33474867  0.82807433  0.53233833  1
  B  B113  1  0.49332567  0.66525133  0.53233833  1
  B  B114  1  0.49332567  0.82807433  0.53233833  1
  B  B115  1  0.33474867  0.50667433  0.53233833  1
  B  B116  1  0.17192567  0.66525133  0.53233833  1
  B  B117  1  0.82807433  0.49332567  0.46766167  1
  B  B118  1  0.66525133  0.17192567  0.46766167  1
  B  B119  1  0.50667433  0.33474867  0.46766167  1
  B  B120  1  0.28973767  0.87774733  0.35271633  1
  B  B121  1  0.58800967  0.71026233  0.35271633  1
  B  B122  1  0.12225267  0.41199033  0.35271633  1
  B  B123  1  0.87774733  0.28973767  0.64728367  1
  B  B124  1  0.41199033  0.12225267  0.64728367  1
  B  B125  1  0.71026233  0.58800967  0.64728367  1
  B  B126  1  0.71026233  0.12225267  0.64728367  1
  B  B127  1  0.41199033  0.28973767  0.64728367  1
  B  B128  1  0.87774733  0.58800967  0.64728367  1
  B  B129  1  0.12225267  0.71026233  0.35271633  1
  B  B130  1  0.58800967  0.87774733  0.35271633  1
  B  B131  1  0.28973767  0.41199033  0.35271633  1
  B  B132  1  0.40062133  0.06466167  0.39024767  1
  B  B133  1  0.66404033  0.59937867  0.39024767  1
  B  B134  1  0.93533833  0.33595967  0.39024767  1
  B  B135  1  0.06466167  0.40062133  0.60975233  1
  B  B136  1  0.33595967  0.93533833  0.60975233  1
  B  B137  1  0.59937867  0.66404033  0.60975233  1
  B  B138  1  0.59937867  0.93533833  0.60975233  1
  B  B139  1  0.33595967  0.40062133  0.60975233  1
  B  B140  1  0.06466167  0.66404033  0.60975233  1
  B  B141  1  0.93533833  0.59937867  0.39024767  1
  B  B142  1  0.66404033  0.06466167  0.39024767  1
  B  B143  1  0.40062133  0.33595967  0.39024767  1
  B  B144  1  0.22526900  0.00495000  0.47106500  1
  B  B145  1  0.77968100  0.77473100  0.47106500  1
  B  B146  1  0.99505000  0.22031900  0.47106500  1
  B  B147  1  0.00495000  0.22526900  0.52893500  1
  B  B148  1  0.22031900  0.99505000  0.52893500  1
  B  B149  1  0.77473100  0.77968100  0.52893500  1
  B  B150  1  0.77473100  0.99505000  0.52893500  1
  B  B151  1  0.22031900  0.22526900  0.52893500  1
  B  B152  1  0.00495000  0.77968100  0.52893500  1
  B  B153  1  0.99505000  0.77473100  0.47106500  1
  B  B154  1  0.77968100  0.00495000  0.47106500  1
  B  B155  1  0.22526900  0.22031900  0.47106500  1
  B  B156  1  0.46834767  0.93669533  0.57606133  1
  B  B157  1  0.46834767  0.53165233  0.57606133  1
  B  B158  1  0.06330467  0.53165233  0.57606133  1
  B  B159  1  0.93669533  0.46834767  0.42393867  1
  B  B160  1  0.53165233  0.06330467  0.42393867  1
  B  B161  1  0.53165233  0.46834767  0.42393867  1
  B  B162  1  0.84936967  0.69873933  0.38624433  1
  B  B163  1  0.84936967  0.15063033  0.38624433  1
  B  B164  1  0.30126067  0.15063033  0.38624433  1
  B  B165  1  0.69873933  0.84936967  0.61375567  1
  B  B166  1  0.15063033  0.30126067  0.61375567  1
  B  B167  1  0.15063033  0.84936967  0.61375567  1
  B  B168  1  0.05583500  0.11167000  0.60616200  1
  B  B169  1  0.05583500  0.94416500  0.60616200  1
  B  B170  1  0.88833000  0.94416500  0.60616200  1
  B  B171  1  0.11167000  0.05583500  0.39383800  1
  B  B172  1  0.94416500  0.88833000  0.39383800  1
  B  B173  1  0.94416500  0.05583500  0.39383800  1
  B  B174  1  0.89784733  0.79569467  0.56833567  1
  B  B175  1  0.89784733  0.10215267  0.56833567  1
  B  B176  1  0.20430533  0.10215267  0.56833567  1
  B  B177  1  0.79569467  0.89784733  0.43166433  1
  B  B178  1  0.10215267  0.20430533  0.43166433  1
  B  B179  1  0.10215267  0.89784733  0.43166433  1
  B  B180  1  0.76289433  0.52578867  0.35591567  1
  B  B181  1  0.76289433  0.23710567  0.35591567  1
  B  B182  1  0.47421133  0.23710567  0.35591567  1
  B  B183  1  0.52578867  0.76289433  0.64408433  1
  B  B184  1  0.23710567  0.47421133  0.64408433  1
  B  B185  1  0.23710567  0.76289433  0.64408433  1
  B  B186  1  0.82518967  0.65037933  0.49623233  1
  B  B187  1  0.82518967  0.17481033  0.49623233  1
  B  B188  1  0.34962067  0.17481033  0.49623233  1
  B  B189  1  0.65037933  0.82518967  0.50376767  1
  B  B190  1  0.17481033  0.34962067  0.50376767  1
  B  B191  1  0.17481033  0.82518967  0.50376767  1
  B  B192  1  0.47169700  0.94339400  0.37694300  1
  B  B193  1  0.47169700  0.52830300  0.37694300  1
  B  B194  1  0.05660600  0.52830300  0.37694300  1
  B  B195  1  0.94339400  0.47169700  0.62305700  1
  B  B196  1  0.52830300  0.05660600  0.62305700  1
  B  B197  1  0.52830300  0.47169700  0.62305700  1
  B  B198  1  0.81769467  0.63538933  0.43842333  1
  B  B199  1  0.81769467  0.18230533  0.43842333  1
  B  B200  1  0.36461067  0.18230533  0.43842333  1
  B  B201  1  0.63538933  0.81769467  0.56157667  1
  B  B202  1  0.18230533  0.36461067  0.56157667  1
  B  B203  1  0.18230533  0.81769467  0.56157667  1
  B  B204  1  0.87174400  0.74348800  0.63034200  1
  B  B205  1  0.87174400  0.12825600  0.63034200  1
  B  B206  1  0.25651200  0.12825600  0.63034200  1
  B  B207  1  0.74348800  0.87174400  0.36965800  1
  B  B208  1  0.12825600  0.25651200  0.36965800  1
  B  B209  1  0.12825600  0.87174400  0.36965800  1
  B  B210  1  0.57573167  0.15146333  0.36943033  1
  B  B211  1  0.57573167  0.42426833  0.36943033  1
  B  B212  1  0.84853667  0.42426833  0.36943033  1
  B  B213  1  0.15146333  0.57573167  0.63056967  1
  B  B214  1  0.42426833  0.84853667  0.63056967  1
  B  B215  1  0.42426833  0.57573167  0.63056967  1
  B  B216  1  0.17334100  0.50525900  0.80099500  1
  B  B217  1  0.33191800  0.82665900  0.80099500  1
  B  B218  1  0.49474100  0.66808200  0.80099500  1
  B  B219  1  0.83859233  0.84000767  0.86567167  1
  B  B220  1  0.00141533  0.16140767  0.86567167  1
  B  B221  1  0.15999233  0.99858467  0.86567167  1
  B  B222  1  0.15999233  0.16140767  0.86567167  1
  B  B223  1  0.00141533  0.84000767  0.86567167  1
  B  B224  1  0.83859233  0.99858467  0.86567167  1
  B  B225  1  0.49474100  0.82665900  0.80099500  1
  B  B226  1  0.33191800  0.50525900  0.80099500  1
  B  B227  1  0.17334100  0.66808200  0.80099500  1
  B  B228  1  0.95640433  0.21108067  0.68604967  1
  B  B229  1  0.25467633  0.04359567  0.68604967  1
  B  B230  1  0.78891933  0.74532367  0.68604967  1
  B  B231  1  0.54441400  0.62307100  0.98061700  1
  B  B232  1  0.07865700  0.45558600  0.98061700  1
  B  B233  1  0.37692900  0.92134300  0.98061700  1
  B  B234  1  0.37692900  0.45558600  0.98061700  1
  B  B235  1  0.07865700  0.62307100  0.98061700  1
  B  B236  1  0.54441400  0.92134300  0.98061700  1
  B  B237  1  0.78891933  0.04359567  0.68604967  1
  B  B238  1  0.25467633  0.21108067  0.68604967  1
  B  B239  1  0.95640433  0.74532367  0.68604967  1
  B  B240  1  0.06728800  0.39799500  0.72358100  1
  B  B241  1  0.33070700  0.93271200  0.72358100  1
  B  B242  1  0.60200500  0.66929300  0.72358100  1
  B  B243  1  0.73132833  0.73395467  0.94308567  1
  B  B244  1  0.00262633  0.26867167  0.94308567  1
  B  B245  1  0.26604533  0.99737367  0.94308567  1
  B  B246  1  0.26604533  0.26867167  0.94308567  1
  B  B247  1  0.00262633  0.73395467  0.94308567  1
  B  B248  1  0.73132833  0.99737367  0.94308567  1
  B  B249  1  0.60200500  0.93271200  0.72358100  1
  B  B250  1  0.33070700  0.39799500  0.72358100  1
  B  B251  1  0.06728800  0.66929300  0.72358100  1
  B  B252  1  0.89193567  0.33828333  0.80439833  1
  B  B253  1  0.44634767  0.10806433  0.80439833  1
  B  B254  1  0.66171667  0.55365233  0.80439833  1
  B  B255  1  0.67161667  0.55860233  0.86226833  1
  B  B256  1  0.88698567  0.32838333  0.86226833  1
  B  B257  1  0.44139767  0.11301433  0.86226833  1
  B  B258  1  0.44139767  0.32838333  0.86226833  1
  B  B259  1  0.88698567  0.55860233  0.86226833  1
  B  B260  1  0.67161667  0.11301433  0.86226833  1
  B  B261  1  0.66171667  0.10806433  0.80439833  1
  B  B262  1  0.44634767  0.33828333  0.80439833  1
  B  B263  1  0.89193567  0.55365233  0.80439833  1
  B  B264  1  0.13501433  0.27002867  0.90939467  1
  B  B265  1  0.13501433  0.86498567  0.90939467  1
  B  B266  1  0.72997133  0.86498567  0.90939467  1
  B  B267  1  0.60336200  0.80168100  0.75727200  1
  B  B268  1  0.19831900  0.39663800  0.75727200  1
  B  B269  1  0.19831900  0.80168100  0.75727200  1
  B  B270  1  0.51603633  0.03207267  0.71957767  1
  B  B271  1  0.51603633  0.48396367  0.71957767  1
  B  B272  1  0.96792733  0.48396367  0.71957767  1
  B  B273  1  0.36540600  0.18270300  0.94708900  1
  B  B274  1  0.81729700  0.63459400  0.94708900  1
  B  B275  1  0.81729700  0.18270300  0.94708900  1
  B  B276  1  0.72250167  0.44500333  0.93949533  1
  B  B277  1  0.72250167  0.27749833  0.93949533  1
  B  B278  1  0.55499667  0.27749833  0.93949533  1
  B  B279  1  0.77833667  0.38916833  0.72717133  1
  B  B280  1  0.61083167  0.22166333  0.72717133  1
  B  B281  1  0.61083167  0.38916833  0.72717133  1
  B  B282  1  0.56451400  0.12902800  0.90166900  1
  B  B283  1  0.56451400  0.43548600  0.90166900  1
  B  B284  1  0.87097200  0.43548600  0.90166900  1
  B  B285  1  0.46236133  0.23118067  0.76499767  1
  B  B286  1  0.76881933  0.53763867  0.76499767  1
  B  B287  1  0.76881933  0.23118067  0.76499767  1
  B  B288  1  0.42956100  0.85912200  0.68924900  1
  B  B289  1  0.42956100  0.57043900  0.68924900  1
  B  B290  1  0.14087800  0.57043900  0.68924900  1
  B  B291  1  0.19245533  0.09622767  0.97741767  1
  B  B292  1  0.90377233  0.80754467  0.97741767  1
  B  B293  1  0.90377233  0.09622767  0.97741767  1
  B  B294  1  0.49185633  0.98371267  0.82956567  1
  B  B295  1  0.49185633  0.50814367  0.82956567  1
  B  B296  1  0.01628733  0.50814367  0.82956567  1
  B  B297  1  0.31704600  0.15852300  0.83710100  1
  B  B298  1  0.84147700  0.68295400  0.83710100  1
  B  B299  1  0.84147700  0.15852300  0.83710100  1
  B  B300  1  0.13836367  0.27672733  0.71027633  1
  B  B301  1  0.13836367  0.86163633  0.71027633  1
  B  B302  1  0.72327267  0.86163633  0.71027633  1
  B  B303  1  0.61006067  0.80503033  0.95639033  1
  B  B304  1  0.19496967  0.38993933  0.95639033  1
  B  B305  1  0.19496967  0.80503033  0.95639033  1
  B  B306  1  0.48436133  0.96872267  0.77175667  1
  B  B307  1  0.48436133  0.51563867  0.77175667  1
  B  B308  1  0.03127733  0.51563867  0.77175667  1
  B  B309  1  0.30205600  0.15102800  0.89491000  1
  B  B310  1  0.84897200  0.69794400  0.89491000  1
  B  B311  1  0.84897200  0.15102800  0.89491000  1
  B  B312  1  0.53841067  0.07682133  0.96367533  1
  B  B313  1  0.53841067  0.46158933  0.96367533  1
  B  B314  1  0.92317867  0.46158933  0.96367533  1
  B  B315  1  0.41015467  0.20507733  0.70299133  1
  B  B316  1  0.79492267  0.58984533  0.70299133  1
  B  B317  1  0.79492267  0.20507733  0.70299133  1
  B  B318  1  0.24239833  0.48479667  0.70276367  1
  B  B319  1  0.24239833  0.75760167  0.70276367  1
  B  B320  1  0.51520333  0.75760167  0.70276367  1
  B  B321  1  0.81813000  0.90906500  0.96390300  1
  B  B322  1  0.09093500  0.18187000  0.96390300  1
  B  B323  1  0.09093500  0.90906500  0.96390300  1
