# generated using pymatgen
data_Li2Co(WO4)2
_symmetry_space_group_name_H-M   'P 1'
_cell_length_a   5.04299137
_cell_length_b   5.68641602
_cell_length_c   5.93376805
_cell_angle_alpha   109.15898277
_cell_angle_beta   88.73865426
_cell_angle_gamma   115.97646108
_symmetry_Int_Tables_number   1
_chemical_formula_structural   Li2Co(WO4)2
_chemical_formula_sum   'Li2 Co1 W2 O8'
_cell_volume   143.00419225
_cell_formula_units_Z   1
loop_
 _symmetry_equiv_pos_site_id
 _symmetry_equiv_pos_as_xyz
  1  'x, y, z'
loop_
 _atom_site_type_symbol
 _atom_site_label
 _atom_site_symmetry_multiplicity
 _atom_site_fract_x
 _atom_site_fract_y
 _atom_site_fract_z
 _atom_site_occupancy
  Li  Li0  1  0.95840650  0.91889000  0.25090250  1
  Li  Li1  1  0.04159350  0.08111000  0.74909750  1
  Co  Co2  1  0.50000000  0.00000000  0.00000000  1
  W  W3  1  0.26791750  0.52513850  0.33815800  1
  W  W4  1  0.73208250  0.47486150  0.66184200  1
  O  O5  1  0.27326350  0.23866250  0.07715900  1
  O  O6  1  0.72673650  0.76133750  0.92284100  1
  O  O7  1  0.16982500  0.72172300  0.66723200  1
  O  O8  1  0.83017500  0.27827700  0.33276800  1
  O  O9  1  0.68245600  0.71901300  0.45637000  1
  O  O10  1  0.31754400  0.28098700  0.54363000  1
  O  O11  1  0.75387600  0.24583400  0.80580800  1
  O  O12  1  0.24612400  0.75416600  0.19419200  1
