# generated using pymatgen
data_K2HoPWO8
_symmetry_space_group_name_H-M   'P 1'
_cell_length_a   6.95333600
_cell_length_b   12.25494800
_cell_length_c   20.01008800
_cell_angle_alpha   90.00000000
_cell_angle_beta   90.00000000
_cell_angle_gamma   90.00000000
_symmetry_Int_Tables_number   1
_chemical_formula_structural   K2HoPWO8
_chemical_formula_sum   'K16 Ho8 P8 W8 O64'
_cell_volume   1705.11504857
_cell_formula_units_Z   8
loop_
 _symmetry_equiv_pos_site_id
 _symmetry_equiv_pos_as_xyz
  1  'x, y, z'
loop_
 _atom_site_type_symbol
 _atom_site_label
 _atom_site_symmetry_multiplicity
 _atom_site_fract_x
 _atom_site_fract_y
 _atom_site_fract_z
 _atom_site_occupancy
  K  K0  1  0.53023950  0.42111450  0.15645550  1
  K  K1  1  0.96976050  0.57888550  0.65645550  1
  K  K2  1  0.53023950  0.57888550  0.34354450  1
  K  K3  1  0.46976050  0.42111450  0.65645550  1
  K  K4  1  0.46976050  0.57888550  0.84354450  1
  K  K5  1  0.03023950  0.57888550  0.15645550  1
  K  K6  1  0.96976050  0.42111450  0.84354450  1
  K  K7  1  0.03023950  0.42111450  0.34354450  1
  K  K8  1  0.03023950  0.92111450  0.65645550  1
  K  K9  1  0.46976050  0.07888550  0.15645550  1
  K  K10  1  0.03023950  0.07888550  0.84354450  1
  K  K11  1  0.96976050  0.92111450  0.15645550  1
  K  K12  1  0.96976050  0.07888550  0.34354450  1
  K  K13  1  0.53023950  0.07888550  0.65645550  1
  K  K14  1  0.46976050  0.92111450  0.34354450  1
  K  K15  1  0.53023950  0.92111450  0.84354450  1
  Ho  Ho16  1  0.75000000  0.17437300  0.00000000  1
  Ho  Ho17  1  0.25000000  0.82562700  0.00000000  1
  Ho  Ho18  1  0.25000000  0.32562700  0.00000000  1
  Ho  Ho19  1  0.75000000  0.67437300  0.00000000  1
  Ho  Ho20  1  0.25000000  0.67437300  0.50000000  1
  Ho  Ho21  1  0.75000000  0.32562700  0.50000000  1
  Ho  Ho22  1  0.75000000  0.82562700  0.50000000  1
  Ho  Ho23  1  0.25000000  0.17437300  0.50000000  1
  P  P24  1  0.75000000  0.42971600  0.00000000  1
  P  P25  1  0.25000000  0.07028400  0.00000000  1
  P  P26  1  0.25000000  0.57028400  0.00000000  1
  P  P27  1  0.75000000  0.92971600  0.00000000  1
  P  P28  1  0.25000000  0.92971600  0.50000000  1
  P  P29  1  0.75000000  0.57028400  0.50000000  1
  P  P30  1  0.75000000  0.07028400  0.50000000  1
  P  P31  1  0.25000000  0.42971600  0.50000000  1
  W  W32  1  0.50000000  0.75000000  0.16425500  1
  W  W33  1  0.50000000  0.25000000  0.83574500  1
  W  W34  1  0.00000000  0.25000000  0.16425500  1
  W  W35  1  0.00000000  0.75000000  0.83574500  1
  W  W36  1  0.00000000  0.25000000  0.66425500  1
  W  W37  1  0.00000000  0.75000000  0.33574500  1
  W  W38  1  0.50000000  0.75000000  0.66425500  1
  W  W39  1  0.50000000  0.25000000  0.33574500  1
  O  O40  1  0.73259400  0.50586400  0.93878100  1
  O  O41  1  0.26740600  0.49413600  0.06121900  1
  O  O42  1  0.57678900  0.34889300  0.00729100  1
  O  O43  1  0.55819400  0.36654500  0.78437000  1
  O  O44  1  0.28831700  0.28074000  0.88709300  1
  O  O45  1  0.42321100  0.15110700  0.00729100  1
  O  O46  1  0.44180600  0.36654500  0.28437000  1
  O  O47  1  0.73259400  0.49413600  0.56121900  1
  O  O48  1  0.23259400  0.50586400  0.56121900  1
  O  O49  1  0.07678900  0.65110700  0.00729100  1
  O  O50  1  0.05819400  0.63345500  0.78437000  1
  O  O51  1  0.44180600  0.63345500  0.21563000  1
  O  O52  1  0.92321100  0.34889300  0.99270900  1
  O  O53  1  0.55819400  0.63345500  0.71563000  1
  O  O54  1  0.76740600  0.49413600  0.43878100  1
  O  O55  1  0.76740600  0.50586400  0.06121900  1
  O  O56  1  0.71168300  0.71926000  0.11290700  1
  O  O57  1  0.57678900  0.84889300  0.99270900  1
  O  O58  1  0.42321100  0.65110700  0.99270900  1
  O  O59  1  0.28831700  0.78074000  0.11290700  1
  O  O60  1  0.21168300  0.28074000  0.11290700  1
  O  O61  1  0.78831700  0.21926000  0.11290700  1
  O  O62  1  0.21168300  0.78074000  0.88709300  1
  O  O63  1  0.71168300  0.21926000  0.88709300  1
  O  O64  1  0.78831700  0.71926000  0.88709300  1
  O  O65  1  0.26740600  0.50586400  0.43878100  1
  O  O66  1  0.94180600  0.36654500  0.21563000  1
  O  O67  1  0.94180600  0.63345500  0.28437000  1
  O  O68  1  0.07678900  0.15110700  0.99270900  1
  O  O69  1  0.92321100  0.84889300  0.00729100  1
  O  O70  1  0.23259400  0.49413600  0.93878100  1
  O  O71  1  0.05819400  0.36654500  0.71563000  1
  O  O72  1  0.23259400  0.00586400  0.43878100  1
  O  O73  1  0.76740600  0.99413600  0.56121900  1
  O  O74  1  0.07678900  0.84889300  0.50729100  1
  O  O75  1  0.05819400  0.86654500  0.28437000  1
  O  O76  1  0.78831700  0.78074000  0.38709300  1
  O  O77  1  0.92321100  0.65110700  0.50729100  1
  O  O78  1  0.94180600  0.86654500  0.78437000  1
  O  O79  1  0.23259400  0.99413600  0.06121900  1
  O  O80  1  0.73259400  0.00586400  0.06121900  1
  O  O81  1  0.57678900  0.15110700  0.50729100  1
  O  O82  1  0.55819400  0.13345500  0.28437000  1
  O  O83  1  0.94180600  0.13345500  0.71563000  1
  O  O84  1  0.42321100  0.84889300  0.49270900  1
  O  O85  1  0.05819400  0.13345500  0.21563000  1
  O  O86  1  0.26740600  0.99413600  0.93878100  1
  O  O87  1  0.26740600  0.00586400  0.56121900  1
  O  O88  1  0.21168300  0.21926000  0.61290700  1
  O  O89  1  0.07678900  0.34889300  0.49270900  1
  O  O90  1  0.92321100  0.15110700  0.49270900  1
  O  O91  1  0.78831700  0.28074000  0.61290700  1
  O  O92  1  0.71168300  0.78074000  0.61290700  1
  O  O93  1  0.28831700  0.71926000  0.61290700  1
  O  O94  1  0.71168300  0.28074000  0.38709300  1
  O  O95  1  0.21168300  0.71926000  0.38709300  1
  O  O96  1  0.28831700  0.21926000  0.38709300  1
  O  O97  1  0.76740600  0.00586400  0.93878100  1
  O  O98  1  0.44180600  0.86654500  0.71563000  1
  O  O99  1  0.44180600  0.13345500  0.78437000  1
  O  O100  1  0.57678900  0.65110700  0.49270900  1
  O  O101  1  0.42321100  0.34889300  0.50729100  1
  O  O102  1  0.73259400  0.99413600  0.43878100  1
  O  O103  1  0.55819400  0.86654500  0.21563000  1
