# generated using pymatgen
data_Ti3Al2NiC
_symmetry_space_group_name_H-M   'P 1'
_cell_length_a   11.45733000
_cell_length_b   11.45733000
_cell_length_c   11.45733000
_cell_angle_alpha   90.00000000
_cell_angle_beta   90.00000000
_cell_angle_gamma   90.00000000
_symmetry_Int_Tables_number   1
_chemical_formula_structural   Ti3Al2NiC
_chemical_formula_sum   'Ti48 Al32 Ni16 C16'
_cell_volume   1504.00841496
_cell_formula_units_Z   16
loop_
 _symmetry_equiv_pos_site_id
 _symmetry_equiv_pos_as_xyz
  1  'x, y, z'
loop_
 _atom_site_type_symbol
 _atom_site_label
 _atom_site_symmetry_multiplicity
 _atom_site_fract_x
 _atom_site_fract_y
 _atom_site_fract_z
 _atom_site_occupancy
  Ti  Ti0  1  0.25000000  0.25000000  0.43896200  1
  Ti  Ti1  1  0.31103800  0.00000000  0.50000000  1
  Ti  Ti2  1  0.68896200  0.00000000  0.50000000  1
  Ti  Ti3  1  0.00000000  0.00000000  0.18896200  1
  Ti  Ti4  1  0.50000000  0.18896200  0.50000000  1
  Ti  Ti5  1  0.50000000  0.81103800  0.50000000  1
  Ti  Ti6  1  0.25000000  0.06103800  0.25000000  1
  Ti  Ti7  1  0.43896200  0.25000000  0.25000000  1
  Ti  Ti8  1  0.06103800  0.25000000  0.25000000  1
  Ti  Ti9  1  0.25000000  0.43896200  0.25000000  1
  Ti  Ti10  1  0.50000000  0.00000000  0.31103800  1
  Ti  Ti11  1  0.25000000  0.25000000  0.06103800  1
  Ti  Ti12  1  0.25000000  0.75000000  0.93896200  1
  Ti  Ti13  1  0.31103800  0.50000000  0.00000000  1
  Ti  Ti14  1  0.68896200  0.50000000  0.00000000  1
  Ti  Ti15  1  0.00000000  0.50000000  0.68896200  1
  Ti  Ti16  1  0.50000000  0.68896200  0.00000000  1
  Ti  Ti17  1  0.50000000  0.31103800  0.00000000  1
  Ti  Ti18  1  0.25000000  0.56103800  0.75000000  1
  Ti  Ti19  1  0.43896200  0.75000000  0.75000000  1
  Ti  Ti20  1  0.06103800  0.75000000  0.75000000  1
  Ti  Ti21  1  0.25000000  0.93896200  0.75000000  1
  Ti  Ti22  1  0.50000000  0.50000000  0.81103800  1
  Ti  Ti23  1  0.25000000  0.75000000  0.56103800  1
  Ti  Ti24  1  0.75000000  0.25000000  0.93896200  1
  Ti  Ti25  1  0.81103800  0.00000000  0.00000000  1
  Ti  Ti26  1  0.18896200  0.00000000  0.00000000  1
  Ti  Ti27  1  0.50000000  0.00000000  0.68896200  1
  Ti  Ti28  1  0.00000000  0.18896200  0.00000000  1
  Ti  Ti29  1  0.00000000  0.81103800  0.00000000  1
  Ti  Ti30  1  0.75000000  0.06103800  0.75000000  1
  Ti  Ti31  1  0.93896200  0.25000000  0.75000000  1
  Ti  Ti32  1  0.56103800  0.25000000  0.75000000  1
  Ti  Ti33  1  0.75000000  0.43896200  0.75000000  1
  Ti  Ti34  1  0.00000000  0.00000000  0.81103800  1
  Ti  Ti35  1  0.75000000  0.25000000  0.56103800  1
  Ti  Ti36  1  0.75000000  0.75000000  0.43896200  1
  Ti  Ti37  1  0.81103800  0.50000000  0.50000000  1
  Ti  Ti38  1  0.18896200  0.50000000  0.50000000  1
  Ti  Ti39  1  0.50000000  0.50000000  0.18896200  1
  Ti  Ti40  1  0.00000000  0.68896200  0.50000000  1
  Ti  Ti41  1  0.00000000  0.31103800  0.50000000  1
  Ti  Ti42  1  0.75000000  0.56103800  0.25000000  1
  Ti  Ti43  1  0.93896200  0.75000000  0.25000000  1
  Ti  Ti44  1  0.56103800  0.75000000  0.25000000  1
  Ti  Ti45  1  0.75000000  0.93896200  0.25000000  1
  Ti  Ti46  1  0.00000000  0.50000000  0.31103800  1
  Ti  Ti47  1  0.75000000  0.75000000  0.06103800  1
  Al  Al48  1  0.08290233  0.41709767  0.08290233  1
  Al  Al49  1  0.16709767  0.66709767  0.33290233  1
  Al  Al50  1  0.33290233  0.66709767  0.16709767  1
  Al  Al51  1  0.33290233  0.83290233  0.33290233  1
  Al  Al52  1  0.41709767  0.08290233  0.08290233  1
  Al  Al53  1  0.41709767  0.41709767  0.41709767  1
  Al  Al54  1  0.08290233  0.08290233  0.41709767  1
  Al  Al55  1  0.16709767  0.83290233  0.16709767  1
  Al  Al56  1  0.08290233  0.91709767  0.58290233  1
  Al  Al57  1  0.16709767  0.16709767  0.83290233  1
  Al  Al58  1  0.33290233  0.16709767  0.66709767  1
  Al  Al59  1  0.33290233  0.33290233  0.83290233  1
  Al  Al60  1  0.41709767  0.58290233  0.58290233  1
  Al  Al61  1  0.41709767  0.91709767  0.91709767  1
  Al  Al62  1  0.08290233  0.58290233  0.91709767  1
  Al  Al63  1  0.16709767  0.33290233  0.66709767  1
  Al  Al64  1  0.58290233  0.41709767  0.58290233  1
  Al  Al65  1  0.66709767  0.66709767  0.83290233  1
  Al  Al66  1  0.83290233  0.66709767  0.66709767  1
  Al  Al67  1  0.83290233  0.83290233  0.83290233  1
  Al  Al68  1  0.91709767  0.08290233  0.58290233  1
  Al  Al69  1  0.91709767  0.41709767  0.91709767  1
  Al  Al70  1  0.58290233  0.08290233  0.91709767  1
  Al  Al71  1  0.66709767  0.83290233  0.66709767  1
  Al  Al72  1  0.58290233  0.91709767  0.08290233  1
  Al  Al73  1  0.66709767  0.16709767  0.33290233  1
  Al  Al74  1  0.83290233  0.16709767  0.16709767  1
  Al  Al75  1  0.83290233  0.33290233  0.33290233  1
  Al  Al76  1  0.91709767  0.58290233  0.08290233  1
  Al  Al77  1  0.91709767  0.91709767  0.41709767  1
  Al  Al78  1  0.58290233  0.58290233  0.41709767  1
  Al  Al79  1  0.66709767  0.33290233  0.16709767  1
  Ni  Ni80  1  0.37500000  0.62500000  0.37500000  1
  Ni  Ni81  1  0.37500000  0.87500000  0.12500000  1
  Ni  Ni82  1  0.12500000  0.87500000  0.37500000  1
  Ni  Ni83  1  0.12500000  0.62500000  0.12500000  1
  Ni  Ni84  1  0.37500000  0.12500000  0.87500000  1
  Ni  Ni85  1  0.37500000  0.37500000  0.62500000  1
  Ni  Ni86  1  0.12500000  0.37500000  0.87500000  1
  Ni  Ni87  1  0.12500000  0.12500000  0.62500000  1
  Ni  Ni88  1  0.87500000  0.62500000  0.87500000  1
  Ni  Ni89  1  0.87500000  0.87500000  0.62500000  1
  Ni  Ni90  1  0.62500000  0.87500000  0.87500000  1
  Ni  Ni91  1  0.62500000  0.62500000  0.62500000  1
  Ni  Ni92  1  0.87500000  0.12500000  0.37500000  1
  Ni  Ni93  1  0.87500000  0.37500000  0.12500000  1
  Ni  Ni94  1  0.62500000  0.37500000  0.37500000  1
  Ni  Ni95  1  0.62500000  0.12500000  0.12500000  1
  C  C96  1  0.37500000  0.12500000  0.37500000  1
  C  C97  1  0.87500000  0.87500000  0.12500000  1
  C  C98  1  0.62500000  0.87500000  0.37500000  1
  C  C99  1  0.12500000  0.12500000  0.12500000  1
  C  C100  1  0.37500000  0.62500000  0.87500000  1
  C  C101  1  0.87500000  0.37500000  0.62500000  1
  C  C102  1  0.62500000  0.37500000  0.87500000  1
  C  C103  1  0.12500000  0.62500000  0.62500000  1
  C  C104  1  0.87500000  0.12500000  0.87500000  1
  C  C105  1  0.37500000  0.87500000  0.62500000  1
  C  C106  1  0.12500000  0.87500000  0.87500000  1
  C  C107  1  0.62500000  0.12500000  0.62500000  1
  C  C108  1  0.87500000  0.62500000  0.37500000  1
  C  C109  1  0.37500000  0.37500000  0.12500000  1
  C  C110  1  0.12500000  0.37500000  0.37500000  1
  C  C111  1  0.62500000  0.62500000  0.12500000  1
