# generated using pymatgen
data_Ca3CuRhO6
_symmetry_space_group_name_H-M   'P 1'
_cell_length_a   9.11480400
_cell_length_b   9.35802000
_cell_length_c   6.46442559
_cell_angle_alpha   90.00000000
_cell_angle_beta   90.35572857
_cell_angle_gamma   90.00000000
_symmetry_Int_Tables_number   1
_chemical_formula_structural   Ca3CuRhO6
_chemical_formula_sum   'Ca12 Cu4 Rh4 O24'
_cell_volume   551.38236743
_cell_formula_units_Z   4
loop_
 _symmetry_equiv_pos_site_id
 _symmetry_equiv_pos_as_xyz
  1  'x, y, z'
loop_
 _atom_site_type_symbol
 _atom_site_label
 _atom_site_symmetry_multiplicity
 _atom_site_fract_x
 _atom_site_fract_y
 _atom_site_fract_z
 _atom_site_occupancy
  Ca  Ca0  1  0.68919900  0.07485100  0.37606300  1
  Ca  Ca1  1  0.68919900  0.92514900  0.87606300  1
  Ca  Ca2  1  0.50000000  0.40165600  0.25000000  1
  Ca  Ca3  1  0.31080100  0.92514900  0.62393700  1
  Ca  Ca4  1  0.50000000  0.59834400  0.75000000  1
  Ca  Ca5  1  0.31080100  0.07485100  0.12393700  1
  Ca  Ca6  1  0.18919900  0.57485100  0.37606300  1
  Ca  Ca7  1  0.18919900  0.42514900  0.87606300  1
  Ca  Ca8  1  0.00000000  0.90165600  0.25000000  1
  Ca  Ca9  1  0.81080100  0.42514900  0.62393700  1
  Ca  Ca10  1  0.00000000  0.09834400  0.75000000  1
  Ca  Ca11  1  0.81080100  0.57485100  0.12393700  1
  Cu  Cu12  1  0.50000000  0.18982900  0.75000000  1
  Cu  Cu13  1  0.50000000  0.81017100  0.25000000  1
  Cu  Cu14  1  0.00000000  0.68982900  0.75000000  1
  Cu  Cu15  1  0.00000000  0.31017100  0.25000000  1
  Rh  Rh16  1  0.75000000  0.25000000  0.00000000  1
  Rh  Rh17  1  0.75000000  0.75000000  0.50000000  1
  Rh  Rh18  1  0.25000000  0.75000000  0.00000000  1
  Rh  Rh19  1  0.25000000  0.25000000  0.50000000  1
  O  O20  1  0.85568000  0.06431000  0.06558200  1
  O  O21  1  0.28927400  0.81646500  0.29451800  1
  O  O22  1  0.85568000  0.93569000  0.56558200  1
  O  O23  1  0.14432000  0.06431000  0.43441800  1
  O  O24  1  0.55046900  0.84300600  0.54249700  1
  O  O25  1  0.55046900  0.15699400  0.04249700  1
  O  O26  1  0.28927400  0.18353500  0.79451800  1
  O  O27  1  0.14432000  0.93569000  0.93441800  1
  O  O28  1  0.71072600  0.18353500  0.70548200  1
  O  O29  1  0.44953100  0.84300600  0.95750300  1
  O  O30  1  0.44953100  0.15699400  0.45750300  1
  O  O31  1  0.71072600  0.81646500  0.20548200  1
  O  O32  1  0.35568000  0.56431000  0.06558200  1
  O  O33  1  0.78927400  0.31646500  0.29451800  1
  O  O34  1  0.35568000  0.43569000  0.56558200  1
  O  O35  1  0.64432000  0.56431000  0.43441800  1
  O  O36  1  0.05046900  0.34300600  0.54249700  1
  O  O37  1  0.05046900  0.65699400  0.04249700  1
  O  O38  1  0.78927400  0.68353500  0.79451800  1
  O  O39  1  0.64432000  0.43569000  0.93441800  1
  O  O40  1  0.21072600  0.68353500  0.70548200  1
  O  O41  1  0.94953100  0.34300600  0.95750300  1
  O  O42  1  0.94953100  0.65699400  0.45750300  1
  O  O43  1  0.21072600  0.31646500  0.20548200  1
