# generated using pymatgen
data_BaVOF4
_symmetry_space_group_name_H-M   'P 1'
_cell_length_a   7.53406000
_cell_length_b   8.01056000
_cell_length_c   28.19455000
_cell_angle_alpha   90.00000000
_cell_angle_beta   90.00000000
_cell_angle_gamma   90.00000000
_symmetry_Int_Tables_number   1
_chemical_formula_structural   BaVOF4
_chemical_formula_sum   'Ba16 V16 O16 F64'
_cell_volume   1701.59860018
_cell_formula_units_Z   16
loop_
 _symmetry_equiv_pos_site_id
 _symmetry_equiv_pos_as_xyz
  1  'x, y, z'
loop_
 _atom_site_type_symbol
 _atom_site_label
 _atom_site_symmetry_multiplicity
 _atom_site_fract_x
 _atom_site_fract_y
 _atom_site_fract_z
 _atom_site_occupancy
  Ba  Ba0  1  0.50141500  0.73703300  0.94546300  1
  Ba  Ba1  1  0.00141500  0.26296700  0.55453700  1
  Ba  Ba2  1  0.75141500  0.01296700  0.69546300  1
  Ba  Ba3  1  0.25141500  0.98703300  0.80453700  1
  Ba  Ba4  1  0.00141500  0.73703300  0.44546300  1
  Ba  Ba5  1  0.50141500  0.26296700  0.05453700  1
  Ba  Ba6  1  0.25141500  0.01296700  0.19546300  1
  Ba  Ba7  1  0.75141500  0.98703300  0.30453700  1
  Ba  Ba8  1  0.00141500  0.23703300  0.94546300  1
  Ba  Ba9  1  0.50141500  0.76296700  0.55453700  1
  Ba  Ba10  1  0.25141500  0.51296700  0.69546300  1
  Ba  Ba11  1  0.75141500  0.48703300  0.80453700  1
  Ba  Ba12  1  0.50141500  0.23703300  0.44546300  1
  Ba  Ba13  1  0.00141500  0.76296700  0.05453700  1
  Ba  Ba14  1  0.75141500  0.51296700  0.19546300  1
  Ba  Ba15  1  0.25141500  0.48703300  0.30453700  1
  V  V16  1  0.25186600  0.00503000  0.67265100  1
  V  V17  1  0.00186600  0.75503000  0.57734900  1
  V  V18  1  0.75186600  0.99497000  0.82734900  1
  V  V19  1  0.50186600  0.24497000  0.92265100  1
  V  V20  1  0.75186600  0.00503000  0.17265100  1
  V  V21  1  0.50186600  0.75503000  0.07734900  1
  V  V22  1  0.25186600  0.99497000  0.32734900  1
  V  V23  1  0.00186600  0.24497000  0.42265100  1
  V  V24  1  0.75186600  0.50503000  0.67265100  1
  V  V25  1  0.50186600  0.25503000  0.57734900  1
  V  V26  1  0.25186600  0.49497000  0.82734900  1
  V  V27  1  0.00186600  0.74497000  0.92265100  1
  V  V28  1  0.25186600  0.50503000  0.17265100  1
  V  V29  1  0.00186600  0.25503000  0.07734900  1
  V  V30  1  0.75186600  0.49497000  0.32734900  1
  V  V31  1  0.50186600  0.74497000  0.42265100  1
  O  O32  1  0.56481900  0.07952750  0.95310450  1
  O  O33  1  0.06481900  0.92047250  0.54689550  1
  O  O34  1  0.31481900  0.32952750  0.79689550  1
  O  O35  1  0.31481900  0.17047250  0.70310450  1
  O  O36  1  0.06481900  0.07952750  0.45310450  1
  O  O37  1  0.56481900  0.92047250  0.04689550  1
  O  O38  1  0.81481900  0.32952750  0.29689550  1
  O  O39  1  0.81481900  0.17047250  0.20310450  1
  O  O40  1  0.06481900  0.57952750  0.95310450  1
  O  O41  1  0.56481900  0.42047250  0.54689550  1
  O  O42  1  0.81481900  0.82952750  0.79689550  1
  O  O43  1  0.81481900  0.67047250  0.70310450  1
  O  O44  1  0.56481900  0.57952750  0.45310450  1
  O  O45  1  0.06481900  0.42047250  0.04689550  1
  O  O46  1  0.31481900  0.82952750  0.29689550  1
  O  O47  1  0.31481900  0.67047250  0.20310450  1
  F  F48  1  0.08358550  0.91944200  0.71901450  1
  F  F49  1  0.92644550  0.97387550  0.88149400  1
  F  F50  1  0.41777600  0.84638000  0.70111400  1
  F  F51  1  0.33358550  0.33055800  0.96901450  1
  F  F52  1  0.41777600  0.65362000  0.79888600  1
  F  F53  1  0.33358550  0.16944200  0.53098550  1
  F  F54  1  0.16777600  0.90362000  0.95111400  1
  F  F55  1  0.54966700  0.90844950  0.86230850  1
  F  F56  1  0.66777600  0.09638000  0.54888600  1
  F  F57  1  0.04966700  0.09155050  0.63769150  1
  F  F58  1  0.17644550  0.72387550  0.86850600  1
  F  F59  1  0.29966700  0.15844950  0.88769150  1
  F  F60  1  0.17644550  0.77612450  0.63149400  1
  F  F61  1  0.42644550  0.02612450  0.61850600  1
  F  F62  1  0.79966700  0.84155050  0.61230850  1
  F  F63  1  0.58358550  0.08055800  0.78098550  1
  F  F64  1  0.58358550  0.91944200  0.21901450  1
  F  F65  1  0.42644550  0.97387550  0.38149400  1
  F  F66  1  0.91777600  0.84638000  0.20111400  1
  F  F67  1  0.83358550  0.33055800  0.46901450  1
  F  F68  1  0.91777600  0.65362000  0.29888600  1
  F  F69  1  0.83358550  0.16944200  0.03098550  1
  F  F70  1  0.66777600  0.90362000  0.45111400  1
  F  F71  1  0.04966700  0.90844950  0.36230850  1
  F  F72  1  0.16777600  0.09638000  0.04888600  1
  F  F73  1  0.54966700  0.09155050  0.13769150  1
  F  F74  1  0.67644550  0.72387550  0.36850600  1
  F  F75  1  0.79966700  0.15844950  0.38769150  1
  F  F76  1  0.67644550  0.77612450  0.13149400  1
  F  F77  1  0.92644550  0.02612450  0.11850600  1
  F  F78  1  0.29966700  0.84155050  0.11230850  1
  F  F79  1  0.08358550  0.08055800  0.28098550  1
  F  F80  1  0.58358550  0.41944200  0.71901450  1
  F  F81  1  0.42644550  0.47387550  0.88149400  1
  F  F82  1  0.91777600  0.34638000  0.70111400  1
  F  F83  1  0.83358550  0.83055800  0.96901450  1
  F  F84  1  0.91777600  0.15362000  0.79888600  1
  F  F85  1  0.83358550  0.66944200  0.53098550  1
  F  F86  1  0.66777600  0.40362000  0.95111400  1
  F  F87  1  0.04966700  0.40844950  0.86230850  1
  F  F88  1  0.16777600  0.59638000  0.54888600  1
  F  F89  1  0.54966700  0.59155050  0.63769150  1
  F  F90  1  0.67644550  0.22387550  0.86850600  1
  F  F91  1  0.79966700  0.65844950  0.88769150  1
  F  F92  1  0.67644550  0.27612450  0.63149400  1
  F  F93  1  0.92644550  0.52612450  0.61850600  1
  F  F94  1  0.29966700  0.34155050  0.61230850  1
  F  F95  1  0.08358550  0.58055800  0.78098550  1
  F  F96  1  0.08358550  0.41944200  0.21901450  1
  F  F97  1  0.92644550  0.47387550  0.38149400  1
  F  F98  1  0.41777600  0.34638000  0.20111400  1
  F  F99  1  0.33358550  0.83055800  0.46901450  1
  F  F100  1  0.41777600  0.15362000  0.29888600  1
  F  F101  1  0.33358550  0.66944200  0.03098550  1
  F  F102  1  0.16777600  0.40362000  0.45111400  1
  F  F103  1  0.54966700  0.40844950  0.36230850  1
  F  F104  1  0.66777600  0.59638000  0.04888600  1
  F  F105  1  0.04966700  0.59155050  0.13769150  1
  F  F106  1  0.17644550  0.22387550  0.36850600  1
  F  F107  1  0.29966700  0.65844950  0.38769150  1
  F  F108  1  0.17644550  0.27612450  0.13149400  1
  F  F109  1  0.42644550  0.52612450  0.11850600  1
  F  F110  1  0.79966700  0.34155050  0.11230850  1
  F  F111  1  0.58358550  0.58055800  0.28098550  1
