# generated using pymatgen
data_Li8Zn2Ge3
_symmetry_space_group_name_H-M   'P 1'
_cell_length_a   7.56505615
_cell_length_b   7.56505615
_cell_length_c   24.32677704
_cell_angle_alpha   90.00000000
_cell_angle_beta   90.00000000
_cell_angle_gamma   120.00000000
_symmetry_Int_Tables_number   1
_chemical_formula_structural   Li8Zn2Ge3
_chemical_formula_sum   'Li48 Zn12 Ge18'
_cell_volume   1205.70071420
_cell_formula_units_Z   6
loop_
 _symmetry_equiv_pos_site_id
 _symmetry_equiv_pos_as_xyz
  1  'x, y, z'
loop_
 _atom_site_type_symbol
 _atom_site_label
 _atom_site_symmetry_multiplicity
 _atom_site_fract_x
 _atom_site_fract_y
 _atom_site_fract_z
 _atom_site_occupancy
  Li  Li0  1  0.66666667  0.33333333  0.27289333  1
  Li  Li1  1  0.35500667  0.00710233  0.05107133  1
  Li  Li2  1  0.33333333  0.66666667  0.10622667  1
  Li  Li3  1  0.98321967  0.66856333  0.10931733  1
  Li  Li4  1  0.99289767  0.34790433  0.05107133  1
  Li  Li5  1  0.31655300  0.98132300  0.27598400  1
  Li  Li6  1  0.33143667  0.31465633  0.10931733  1
  Li  Li7  1  0.32623100  0.31166000  0.21773800  1
  Li  Li8  1  0.65209567  0.64499333  0.05107133  1
  Li  Li9  1  0.68534367  0.01678033  0.10931733  1
  Li  Li10  1  0.68834000  0.01457100  0.21773800  1
  Li  Li11  1  0.66477000  0.68344700  0.27598400  1
  Li  Li12  1  0.98542900  0.67376900  0.21773800  1
  Li  Li13  1  0.33333333  0.66666667  0.20844167  1
  Li  Li14  1  0.00000000  0.00000000  0.04177500  1
  Li  Li15  1  0.01867700  0.33523000  0.27598400  1
  Li  Li16  1  0.33333333  0.66666667  0.60622667  1
  Li  Li17  1  0.02167333  0.34043567  0.38440467  1
  Li  Li18  1  0.00000000  0.00000000  0.43956000  1
  Li  Li19  1  0.64988633  0.00189667  0.44265067  1
  Li  Li20  1  0.65956433  0.68123767  0.38440467  1
  Li  Li21  1  0.98321967  0.31465633  0.60931733  1
  Li  Li22  1  0.99810333  0.64798967  0.44265067  1
  Li  Li23  1  0.99289767  0.64499333  0.55107133  1
  Li  Li24  1  0.31876233  0.97832667  0.38440467  1
  Li  Li25  1  0.35201033  0.35011367  0.44265067  1
  Li  Li26  1  0.35500667  0.34790433  0.55107133  1
  Li  Li27  1  0.33143667  0.01678033  0.60931733  1
  Li  Li28  1  0.65209567  0.00710233  0.55107133  1
  Li  Li29  1  0.00000000  0.00000000  0.54177500  1
  Li  Li30  1  0.66666667  0.33333333  0.37510833  1
  Li  Li31  1  0.68534367  0.66856333  0.60931733  1
  Li  Li32  1  0.00000000  0.00000000  0.93956000  1
  Li  Li33  1  0.68834000  0.67376900  0.71773800  1
  Li  Li34  1  0.66666667  0.33333333  0.77289333  1
  Li  Li35  1  0.31655300  0.33523000  0.77598400  1
  Li  Li36  1  0.32623100  0.01457100  0.71773800  1
  Li  Li37  1  0.64988633  0.64798967  0.94265067  1
  Li  Li38  1  0.66477000  0.98132300  0.77598400  1
  Li  Li39  1  0.65956433  0.97832667  0.88440467  1
  Li  Li40  1  0.98542900  0.31166000  0.71773800  1
  Li  Li41  1  0.01867700  0.68344700  0.77598400  1
  Li  Li42  1  0.02167333  0.68123767  0.88440467  1
  Li  Li43  1  0.99810333  0.35011367  0.94265067  1
  Li  Li44  1  0.31876233  0.34043567  0.88440467  1
  Li  Li45  1  0.66666667  0.33333333  0.87510833  1
  Li  Li46  1  0.33333333  0.66666667  0.70844167  1
  Li  Li47  1  0.35201033  0.00189667  0.94265067  1
  Zn  Zn48  1  0.00000000  0.00000000  0.32521700  1
  Zn  Zn49  1  0.33333333  0.66666667  0.33085867  1
  Zn  Zn50  1  0.00000000  0.00000000  0.16419200  1
  Zn  Zn51  1  0.66666667  0.33333333  0.15855033  1
  Zn  Zn52  1  0.66666667  0.33333333  0.65855033  1
  Zn  Zn53  1  0.00000000  0.00000000  0.66419200  1
  Zn  Zn54  1  0.66666667  0.33333333  0.49752533  1
  Zn  Zn55  1  0.33333333  0.66666667  0.49188367  1
  Zn  Zn56  1  0.33333333  0.66666667  0.99188367  1
  Zn  Zn57  1  0.66666667  0.33333333  0.99752533  1
  Zn  Zn58  1  0.33333333  0.66666667  0.83085867  1
  Zn  Zn59  1  0.00000000  0.00000000  0.82521700  1
  Ge  Ge60  1  0.33470567  0.99168933  0.16323933  1
  Ge  Ge61  1  0.34164400  0.33196100  0.32990600  1
  Ge  Ge62  1  0.65698367  0.66529433  0.16323933  1
  Ge  Ge63  1  0.66803900  0.00968300  0.32990600  1
  Ge  Ge64  1  0.99031700  0.65835600  0.32990600  1
  Ge  Ge65  1  0.00831067  0.34301633  0.16323933  1
  Ge  Ge66  1  0.00137233  0.32502267  0.49657267  1
  Ge  Ge67  1  0.00831067  0.66529433  0.66323933  1
  Ge  Ge68  1  0.32365033  0.99862767  0.49657267  1
  Ge  Ge69  1  0.33470567  0.34301633  0.66323933  1
  Ge  Ge70  1  0.65698367  0.99168933  0.66323933  1
  Ge  Ge71  1  0.67497733  0.67634967  0.49657267  1
  Ge  Ge72  1  0.66803900  0.65835600  0.82990600  1
  Ge  Ge73  1  0.67497733  0.99862767  0.99657267  1
  Ge  Ge74  1  0.99031700  0.33196100  0.82990600  1
  Ge  Ge75  1  0.00137233  0.67634967  0.99657267  1
  Ge  Ge76  1  0.32365033  0.32502267  0.99657267  1
  Ge  Ge77  1  0.34164400  0.00968300  0.82990600  1
