# generated using pymatgen
data_K2Co(PO3)4
_symmetry_space_group_name_H-M   'P 1'
_cell_length_a   11.27191600
_cell_length_b   12.74551400
_cell_length_c   7.77578349
_cell_angle_alpha   90.00000000
_cell_angle_beta   102.78516635
_cell_angle_gamma   90.00000000
_symmetry_Int_Tables_number   1
_chemical_formula_structural   K2Co(PO3)4
_chemical_formula_sum   'K8 Co4 P16 O48'
_cell_volume   1089.42145737
_cell_formula_units_Z   4
loop_
 _symmetry_equiv_pos_site_id
 _symmetry_equiv_pos_as_xyz
  1  'x, y, z'
loop_
 _atom_site_type_symbol
 _atom_site_label
 _atom_site_symmetry_multiplicity
 _atom_site_fract_x
 _atom_site_fract_y
 _atom_site_fract_z
 _atom_site_occupancy
  K  K0  1  0.36717650  0.87420950  0.92010800  1
  K  K1  1  0.36717650  0.12579050  0.42010800  1
  K  K2  1  0.66344350  0.13378650  0.08427300  1
  K  K3  1  0.66344350  0.86621350  0.58427300  1
  K  K4  1  0.86717650  0.37420950  0.92010800  1
  K  K5  1  0.86717650  0.62579050  0.42010800  1
  K  K6  1  0.16344350  0.63378650  0.08427300  1
  K  K7  1  0.16344350  0.36621350  0.58427300  1
  Co  Co8  1  0.49962350  0.65367750  0.25050000  1
  Co  Co9  1  0.49962350  0.34632250  0.75050000  1
  Co  Co10  1  0.99962350  0.15367750  0.25050000  1
  Co  Co11  1  0.99962350  0.84632250  0.75050000  1
  P  P12  1  0.10624600  0.92385100  0.16508800  1
  P  P13  1  0.10624600  0.07614900  0.66508800  1
  P  P14  1  0.33359500  0.83822300  0.42583900  1
  P  P15  1  0.33359500  0.16177700  0.92583900  1
  P  P16  1  0.68036050  0.18720250  0.58076300  1
  P  P17  1  0.68036050  0.81279750  0.08076300  1
  P  P18  1  0.88766500  0.07695600  0.82027500  1
  P  P19  1  0.88766500  0.92304400  0.32027500  1
  P  P20  1  0.60624600  0.42385100  0.16508800  1
  P  P21  1  0.60624600  0.57614900  0.66508800  1
  P  P22  1  0.83359500  0.33822300  0.42583900  1
  P  P23  1  0.83359500  0.66177700  0.92583900  1
  P  P24  1  0.18036050  0.68720250  0.58076300  1
  P  P25  1  0.18036050  0.31279750  0.08076300  1
  P  P26  1  0.38766500  0.57695600  0.82027500  1
  P  P27  1  0.38766500  0.42304400  0.32027500  1
  O  O28  1  0.42430800  0.91546400  0.52145400  1
  O  O29  1  0.42430800  0.08453600  0.02145400  1
  O  O30  1  0.36620700  0.76354600  0.29333700  1
  O  O31  1  0.36620700  0.23645400  0.79333700  1
  O  O32  1  0.21519250  0.90488650  0.33409900  1
  O  O33  1  0.21519250  0.09511350  0.83409900  1
  O  O34  1  0.28377250  0.77555250  0.57820100  1
  O  O35  1  0.28377250  0.22444750  0.07820100  1
  O  O36  1  0.61022650  0.22256750  0.71513300  1
  O  O37  1  0.61022650  0.77743250  0.21513300  1
  O  O38  1  0.61247750  0.15490850  0.40230700  1
  O  O39  1  0.61247750  0.84509150  0.90230700  1
  O  O40  1  0.76440450  0.08859750  0.66709400  1
  O  O41  1  0.76440450  0.91140250  0.16709400  1
  O  O42  1  0.37908000  0.64778300  0.97230500  1
  O  O43  1  0.37908000  0.35221700  0.47230500  1
  O  O44  1  0.90099650  0.96044250  0.84495800  1
  O  O45  1  0.90099650  0.03955750  0.34495800  1
  O  O46  1  0.49082100  0.62501400  0.72870400  1
  O  O47  1  0.49082100  0.37498600  0.22870400  1
  O  O48  1  0.62560600  0.35664100  0.01421600  1
  O  O49  1  0.62560600  0.64335900  0.51421600  1
  O  O50  1  0.09729850  0.04106450  0.14694600  1
  O  O51  1  0.09729850  0.95893550  0.64694600  1
  O  O52  1  0.92430800  0.41546400  0.52145400  1
  O  O53  1  0.92430800  0.58453600  0.02145400  1
  O  O54  1  0.86620700  0.26354600  0.29333700  1
  O  O55  1  0.86620700  0.73645400  0.79333700  1
  O  O56  1  0.71519250  0.40488650  0.33409900  1
  O  O57  1  0.71519250  0.59511350  0.83409900  1
  O  O58  1  0.78377250  0.27555250  0.57820100  1
  O  O59  1  0.78377250  0.72444750  0.07820100  1
  O  O60  1  0.11022650  0.72256750  0.71513300  1
  O  O61  1  0.11022650  0.27743250  0.21513300  1
  O  O62  1  0.11247750  0.65490850  0.40230700  1
  O  O63  1  0.11247750  0.34509150  0.90230700  1
  O  O64  1  0.26440450  0.58859750  0.66709400  1
  O  O65  1  0.26440450  0.41140250  0.16709400  1
  O  O66  1  0.87908000  0.14778300  0.97230500  1
  O  O67  1  0.87908000  0.85221700  0.47230500  1
  O  O68  1  0.40099650  0.46044250  0.84495800  1
  O  O69  1  0.40099650  0.53955750  0.34495800  1
  O  O70  1  0.99082100  0.12501400  0.72870400  1
  O  O71  1  0.99082100  0.87498600  0.22870400  1
  O  O72  1  0.12560600  0.85664100  0.01421600  1
  O  O73  1  0.12560600  0.14335900  0.51421600  1
  O  O74  1  0.59729850  0.54106450  0.14694600  1
  O  O75  1  0.59729850  0.45893550  0.64694600  1
