# generated using pymatgen
data_Ag5(Sn3S8)2
_symmetry_space_group_name_H-M   'P 1'
_cell_length_a   15.06039800
_cell_length_b   15.31790600
_cell_length_c   10.72235800
_cell_angle_alpha   90.00000000
_cell_angle_beta   90.00000000
_cell_angle_gamma   90.00000000
_symmetry_Int_Tables_number   1
_chemical_formula_structural   Ag5(Sn3S8)2
_chemical_formula_sum   'Ag20 Sn24 S64'
_cell_volume   2473.58109259
_cell_formula_units_Z   4
loop_
 _symmetry_equiv_pos_site_id
 _symmetry_equiv_pos_as_xyz
  1  'x, y, z'
loop_
 _atom_site_type_symbol
 _atom_site_label
 _atom_site_symmetry_multiplicity
 _atom_site_fract_x
 _atom_site_fract_y
 _atom_site_fract_z
 _atom_site_occupancy
  Ag  Ag0  1  0.38814200  0.00000000  0.00000000  1
  Ag  Ag1  1  0.37117300  0.00000000  0.50000000  1
  Ag  Ag2  1  0.62108200  0.74319500  0.49274900  1
  Ag  Ag3  1  0.50000000  0.62291800  0.25000000  1
  Ag  Ag4  1  0.37891800  0.74319500  0.00725100  1
  Ag  Ag5  1  0.50000000  0.37708200  0.75000000  1
  Ag  Ag6  1  0.62108200  0.25680500  0.50725100  1
  Ag  Ag7  1  0.37891800  0.25680500  0.99274900  1
  Ag  Ag8  1  0.62882700  0.00000000  0.00000000  1
  Ag  Ag9  1  0.61185800  0.00000000  0.50000000  1
  Ag  Ag10  1  0.88814200  0.50000000  0.00000000  1
  Ag  Ag11  1  0.87117300  0.50000000  0.50000000  1
  Ag  Ag12  1  0.12108200  0.24319500  0.49274900  1
  Ag  Ag13  1  0.00000000  0.12291800  0.25000000  1
  Ag  Ag14  1  0.87891800  0.24319500  0.00725100  1
  Ag  Ag15  1  0.00000000  0.87708200  0.75000000  1
  Ag  Ag16  1  0.12108200  0.75680500  0.50725100  1
  Ag  Ag17  1  0.87891800  0.75680500  0.99274900  1
  Ag  Ag18  1  0.12882700  0.50000000  0.00000000  1
  Ag  Ag19  1  0.11185800  0.50000000  0.50000000  1
  Sn  Sn20  1  0.25167250  0.12608050  0.24413100  1
  Sn  Sn21  1  0.62939200  0.74437500  0.99288500  1
  Sn  Sn22  1  0.50000000  0.86512600  0.75000000  1
  Sn  Sn23  1  0.12742500  0.00000000  0.00000000  1
  Sn  Sn24  1  0.25167250  0.87391950  0.75586900  1
  Sn  Sn25  1  0.37060800  0.74437500  0.50711500  1
  Sn  Sn26  1  0.62939200  0.25562500  0.00711500  1
  Sn  Sn27  1  0.74832750  0.12608050  0.25586900  1
  Sn  Sn28  1  0.87257500  0.00000000  0.50000000  1
  Sn  Sn29  1  0.50000000  0.13487400  0.25000000  1
  Sn  Sn30  1  0.37060800  0.25562500  0.49288500  1
  Sn  Sn31  1  0.74832750  0.87391950  0.74413100  1
  Sn  Sn32  1  0.75167250  0.62608050  0.24413100  1
  Sn  Sn33  1  0.12939200  0.24437500  0.99288500  1
  Sn  Sn34  1  0.00000000  0.36512600  0.75000000  1
  Sn  Sn35  1  0.62742500  0.50000000  0.00000000  1
  Sn  Sn36  1  0.75167250  0.37391950  0.75586900  1
  Sn  Sn37  1  0.87060800  0.24437500  0.50711500  1
  Sn  Sn38  1  0.12939200  0.75562500  0.00711500  1
  Sn  Sn39  1  0.24832750  0.62608050  0.25586900  1
  Sn  Sn40  1  0.37257500  0.50000000  0.50000000  1
  Sn  Sn41  1  0.00000000  0.63487400  0.25000000  1
  Sn  Sn42  1  0.87060800  0.75562500  0.49288500  1
  Sn  Sn43  1  0.24832750  0.37391950  0.74413100  1
  S  S44  1  0.37938500  0.01530600  0.24118900  1
  S  S45  1  0.25224550  0.13415150  0.48393800  1
  S  S46  1  0.62781150  0.74067250  0.23619300  1
  S  S47  1  0.25312800  0.12478300  0.99688100  1
  S  S48  1  0.62651600  0.74868100  0.74668900  1
  S  S49  1  0.50390900  0.86114300  0.99005600  1
  S  S50  1  0.37938500  0.98469400  0.75881100  1
  S  S51  1  0.49609100  0.86114300  0.50994400  1
  S  S52  1  0.13082150  0.00880050  0.23889000  1
  S  S53  1  0.51196500  0.62382800  0.99843300  1
  S  S54  1  0.13082150  0.99119950  0.76111000  1
  S  S55  1  0.25312800  0.87521700  0.00311900  1
  S  S56  1  0.37348400  0.74868100  0.75331100  1
  S  S57  1  0.25224550  0.86584850  0.51606200  1
  S  S58  1  0.37218850  0.74067250  0.26380700  1
  S  S59  1  0.48803500  0.62382800  0.50156700  1
  S  S60  1  0.51196500  0.37617200  0.00156700  1
  S  S61  1  0.62781150  0.25932750  0.76380700  1
  S  S62  1  0.74775450  0.13415150  0.01606200  1
  S  S63  1  0.62651600  0.25131900  0.25331100  1
  S  S64  1  0.74687200  0.12478300  0.50311900  1
  S  S65  1  0.86917850  0.00880050  0.26111000  1
  S  S66  1  0.48803500  0.37617200  0.49843300  1
  S  S67  1  0.86917850  0.99119950  0.73889000  1
  S  S68  1  0.50390900  0.13885700  0.00994400  1
  S  S69  1  0.62061500  0.01530600  0.25881100  1
  S  S70  1  0.49609100  0.13885700  0.49005600  1
  S  S71  1  0.37348400  0.25131900  0.24668900  1
  S  S72  1  0.74687200  0.87521700  0.49688100  1
  S  S73  1  0.37218850  0.25932750  0.73619300  1
  S  S74  1  0.74775450  0.86584850  0.98393800  1
  S  S75  1  0.62061500  0.98469400  0.74118900  1
  S  S76  1  0.87938500  0.51530600  0.24118900  1
  S  S77  1  0.75224550  0.63415150  0.48393800  1
  S  S78  1  0.12781150  0.24067250  0.23619300  1
  S  S79  1  0.75312800  0.62478300  0.99688100  1
  S  S80  1  0.12651600  0.24868100  0.74668900  1
  S  S81  1  0.00390900  0.36114300  0.99005600  1
  S  S82  1  0.87938500  0.48469400  0.75881100  1
  S  S83  1  0.99609100  0.36114300  0.50994400  1
  S  S84  1  0.63082150  0.50880050  0.23889000  1
  S  S85  1  0.01196500  0.12382800  0.99843300  1
  S  S86  1  0.63082150  0.49119950  0.76111000  1
  S  S87  1  0.75312800  0.37521700  0.00311900  1
  S  S88  1  0.87348400  0.24868100  0.75331100  1
  S  S89  1  0.75224550  0.36584850  0.51606200  1
  S  S90  1  0.87218850  0.24067250  0.26380700  1
  S  S91  1  0.98803500  0.12382800  0.50156700  1
  S  S92  1  0.01196500  0.87617200  0.00156700  1
  S  S93  1  0.12781150  0.75932750  0.76380700  1
  S  S94  1  0.24775450  0.63415150  0.01606200  1
  S  S95  1  0.12651600  0.75131900  0.25331100  1
  S  S96  1  0.24687200  0.62478300  0.50311900  1
  S  S97  1  0.36917850  0.50880050  0.26111000  1
  S  S98  1  0.98803500  0.87617200  0.49843300  1
  S  S99  1  0.36917850  0.49119950  0.73889000  1
  S  S100  1  0.00390900  0.63885700  0.00994400  1
  S  S101  1  0.12061500  0.51530600  0.25881100  1
  S  S102  1  0.99609100  0.63885700  0.49005600  1
  S  S103  1  0.87348400  0.75131900  0.24668900  1
  S  S104  1  0.24687200  0.37521700  0.49688100  1
  S  S105  1  0.87218850  0.75932750  0.73619300  1
  S  S106  1  0.24775450  0.36584850  0.98393800  1
  S  S107  1  0.12061500  0.48469400  0.74118900  1
