# generated using pymatgen
data_Sr3Li3(NiN)4
_symmetry_space_group_name_H-M   'P 1'
_cell_length_a   4.05305800
_cell_length_b   7.05965200
_cell_length_c   16.80507800
_cell_angle_alpha   90.00000000
_cell_angle_beta   90.00000000
_cell_angle_gamma   90.00000000
_symmetry_Int_Tables_number   1
_chemical_formula_structural   Sr3Li3(NiN)4
_chemical_formula_sum   'Sr6 Li6 Ni8 N8'
_cell_volume   480.84670519
_cell_formula_units_Z   2
loop_
 _symmetry_equiv_pos_site_id
 _symmetry_equiv_pos_as_xyz
  1  'x, y, z'
loop_
 _atom_site_type_symbol
 _atom_site_label
 _atom_site_symmetry_multiplicity
 _atom_site_fract_x
 _atom_site_fract_y
 _atom_site_fract_z
 _atom_site_occupancy
  Sr  Sr0  1  0.00000000  0.00000000  0.78185000  1
  Sr  Sr1  1  0.50000000  0.50000000  0.71815000  1
  Sr  Sr2  1  0.00000000  0.00000000  0.00000000  1
  Sr  Sr3  1  0.50000000  0.50000000  0.28185000  1
  Sr  Sr4  1  0.00000000  0.00000000  0.21815000  1
  Sr  Sr5  1  0.50000000  0.50000000  0.50000000  1
  Li  Li6  1  0.50000000  0.00000000  0.61586300  1
  Li  Li7  1  0.00000000  0.50000000  0.88413700  1
  Li  Li8  1  0.50000000  0.50000000  0.00000000  1
  Li  Li9  1  0.00000000  0.50000000  0.11586300  1
  Li  Li10  1  0.50000000  0.00000000  0.38413700  1
  Li  Li11  1  0.00000000  0.00000000  0.50000000  1
  Ni  Ni12  1  0.50000000  0.74996200  0.88027700  1
  Ni  Ni13  1  0.50000000  0.25003800  0.88027700  1
  Ni  Ni14  1  0.00000000  0.75003800  0.61972300  1
  Ni  Ni15  1  0.00000000  0.24996200  0.61972300  1
  Ni  Ni16  1  0.00000000  0.24996200  0.38027700  1
  Ni  Ni17  1  0.00000000  0.75003800  0.38027700  1
  Ni  Ni18  1  0.50000000  0.25003800  0.11972300  1
  Ni  Ni19  1  0.50000000  0.74996200  0.11972300  1
  N  N20  1  0.50000000  0.00000000  0.88360300  1
  N  N21  1  0.00000000  0.50000000  0.61639700  1
  N  N22  1  0.50000000  0.50000000  0.87947900  1
  N  N23  1  0.00000000  0.00000000  0.62052100  1
  N  N24  1  0.00000000  0.50000000  0.38360300  1
  N  N25  1  0.50000000  0.00000000  0.11639700  1
  N  N26  1  0.00000000  0.00000000  0.37947900  1
  N  N27  1  0.50000000  0.50000000  0.12052100  1
