# generated using pymatgen
data_Te3W2Se4(Cl4O)2
_symmetry_space_group_name_H-M   'P 1'
_cell_length_a   12.81673400
_cell_length_b   11.13977400
_cell_length_c   15.47213838
_cell_angle_alpha   90.00000000
_cell_angle_beta   101.41651758
_cell_angle_gamma   90.00000000
_symmetry_Int_Tables_number   1
_chemical_formula_structural   Te3W2Se4(Cl4O)2
_chemical_formula_sum   'Te12 W8 Se16 Cl32 O8'
_cell_volume   2165.33482400
_cell_formula_units_Z   4
loop_
 _symmetry_equiv_pos_site_id
 _symmetry_equiv_pos_as_xyz
  1  'x, y, z'
loop_
 _atom_site_type_symbol
 _atom_site_label
 _atom_site_symmetry_multiplicity
 _atom_site_fract_x
 _atom_site_fract_y
 _atom_site_fract_z
 _atom_site_occupancy
  Te  Te0  1  0.05084450  0.08522150  0.15514500  1
  Te  Te1  1  0.99427850  0.13902450  0.84943100  1
  Te  Te2  1  0.10301800  0.85997700  0.96026000  1
  Te  Te3  1  0.05084450  0.91477850  0.65514500  1
  Te  Te4  1  0.99427850  0.86097550  0.34943100  1
  Te  Te5  1  0.10301800  0.14002300  0.46026000  1
  Te  Te6  1  0.55084450  0.58522150  0.15514500  1
  Te  Te7  1  0.49427850  0.63902450  0.84943100  1
  Te  Te8  1  0.60301800  0.35997700  0.96026000  1
  Te  Te9  1  0.55084450  0.41477850  0.65514500  1
  Te  Te10  1  0.49427850  0.36097550  0.34943100  1
  Te  Te11  1  0.60301800  0.64002300  0.46026000  1
  W  W12  1  0.04621250  0.49038750  0.28471300  1
  W  W13  1  0.05196700  0.49118600  0.03535500  1
  W  W14  1  0.05196700  0.50881400  0.53535500  1
  W  W15  1  0.04621250  0.50961250  0.78471300  1
  W  W16  1  0.54621250  0.99038750  0.28471300  1
  W  W17  1  0.55196700  0.99118600  0.03535500  1
  W  W18  1  0.55196700  0.00881400  0.53535500  1
  W  W19  1  0.54621250  0.00961250  0.78471300  1
  Se  Se20  1  0.67752000  0.45748400  0.38125100  1
  Se  Se21  1  0.42023050  0.45752450  0.92979600  1
  Se  Se22  1  0.41526000  0.56088200  0.68904100  1
  Se  Se23  1  0.42023050  0.54247550  0.42979600  1
  Se  Se24  1  0.67752000  0.54251600  0.88125100  1
  Se  Se25  1  0.68373650  0.56402450  0.62083400  1
  Se  Se26  1  0.41526000  0.43911800  0.18904100  1
  Se  Se27  1  0.68373650  0.43597550  0.12083400  1
  Se  Se28  1  0.17752000  0.95748400  0.38125100  1
  Se  Se29  1  0.92023050  0.95752450  0.92979600  1
  Se  Se30  1  0.91526000  0.06088200  0.68904100  1
  Se  Se31  1  0.92023050  0.04247550  0.42979600  1
  Se  Se32  1  0.17752000  0.04251600  0.88125100  1
  Se  Se33  1  0.18373650  0.06402450  0.62083400  1
  Se  Se34  1  0.91526000  0.93911800  0.18904100  1
  Se  Se35  1  0.18373650  0.93597550  0.12083400  1
  Cl  Cl36  1  0.20609900  0.36827000  0.31216500  1
  Cl  Cl37  1  0.89271250  0.63056250  0.49856200  1
  Cl  Cl38  1  0.89271250  0.36943750  0.99856200  1
  Cl  Cl39  1  0.94066100  0.31212600  0.26747300  1
  Cl  Cl40  1  0.21077650  0.39011750  0.55817700  1
  Cl  Cl41  1  0.88729900  0.60854400  0.25325400  1
  Cl  Cl42  1  0.94768450  0.67533450  0.01858800  1
  Cl  Cl43  1  0.20609900  0.63173000  0.81216500  1
  Cl  Cl44  1  0.15761100  0.31369500  0.04208000  1
  Cl  Cl45  1  0.21077650  0.60988250  0.05817700  1
  Cl  Cl46  1  0.88729900  0.39145600  0.75325400  1
  Cl  Cl47  1  0.94768450  0.32466550  0.51858800  1
  Cl  Cl48  1  0.94066100  0.68787400  0.76747300  1
  Cl  Cl49  1  0.14991250  0.67452550  0.29347600  1
  Cl  Cl50  1  0.14991250  0.32547450  0.79347600  1
  Cl  Cl51  1  0.15761100  0.68630500  0.54208000  1
  Cl  Cl52  1  0.70609900  0.86827000  0.31216500  1
  Cl  Cl53  1  0.39271250  0.13056250  0.49856200  1
  Cl  Cl54  1  0.39271250  0.86943750  0.99856200  1
  Cl  Cl55  1  0.44066100  0.81212600  0.26747300  1
  Cl  Cl56  1  0.71077650  0.89011750  0.55817700  1
  Cl  Cl57  1  0.38729900  0.10854400  0.25325400  1
  Cl  Cl58  1  0.44768450  0.17533450  0.01858800  1
  Cl  Cl59  1  0.70609900  0.13173000  0.81216500  1
  Cl  Cl60  1  0.65761100  0.81369500  0.04208000  1
  Cl  Cl61  1  0.71077650  0.10988250  0.05817700  1
  Cl  Cl62  1  0.38729900  0.89145600  0.75325400  1
  Cl  Cl63  1  0.44768450  0.82466550  0.51858800  1
  Cl  Cl64  1  0.44066100  0.18787400  0.76747300  1
  Cl  Cl65  1  0.64991250  0.17452550  0.29347600  1
  Cl  Cl66  1  0.64991250  0.82547450  0.79347600  1
  Cl  Cl67  1  0.65761100  0.18630500  0.54208000  1
  O  O68  1  0.04941150  0.48647150  0.15729300  1
  O  O69  1  0.04900550  0.49849850  0.40722900  1
  O  O70  1  0.04941150  0.51352850  0.65729300  1
  O  O71  1  0.04900550  0.50150150  0.90722900  1
  O  O72  1  0.54941150  0.98647150  0.15729300  1
  O  O73  1  0.54900550  0.99849850  0.40722900  1
  O  O74  1  0.54941150  0.01352850  0.65729300  1
  O  O75  1  0.54900550  0.00150150  0.90722900  1
