# generated using pymatgen
data_Ag(Bi2S3)3
_symmetry_space_group_name_H-M   'P 1'
_cell_length_a   13.77696200
_cell_length_b   4.09303800
_cell_length_c   15.07777051
_cell_angle_alpha   90.00000000
_cell_angle_beta   99.21083331
_cell_angle_gamma   90.00000000
_symmetry_Int_Tables_number   1
_chemical_formula_structural   Ag(Bi2S3)3
_chemical_formula_sum   'Ag2 Bi12 S18'
_cell_volume   839.26703575
_cell_formula_units_Z   2
loop_
 _symmetry_equiv_pos_site_id
 _symmetry_equiv_pos_as_xyz
  1  'x, y, z'
loop_
 _atom_site_type_symbol
 _atom_site_label
 _atom_site_symmetry_multiplicity
 _atom_site_fract_x
 _atom_site_fract_y
 _atom_site_fract_z
 _atom_site_occupancy
  Ag  Ag0  1  0.00000000  0.50000000  0.50000000  1
  Ag  Ag1  1  0.50000000  0.00000000  0.50000000  1
  Bi  Bi2  1  0.85299500  0.00000000  0.93578000  1
  Bi  Bi3  1  0.55874500  0.00000000  0.80964800  1
  Bi  Bi4  1  0.64700500  0.50000000  0.06422000  1
  Bi  Bi5  1  0.74986100  0.00000000  0.38267900  1
  Bi  Bi6  1  0.75013900  0.50000000  0.61732100  1
  Bi  Bi7  1  0.94125500  0.50000000  0.19035200  1
  Bi  Bi8  1  0.35299500  0.50000000  0.93578000  1
  Bi  Bi9  1  0.05874500  0.50000000  0.80964800  1
  Bi  Bi10  1  0.14700500  0.00000000  0.06422000  1
  Bi  Bi11  1  0.24986100  0.50000000  0.38267900  1
  Bi  Bi12  1  0.25013900  0.00000000  0.61732100  1
  Bi  Bi13  1  0.44125500  0.00000000  0.19035200  1
  S  S14  1  0.70868000  0.50000000  0.88542700  1
  S  S15  1  0.61478200  0.00000000  0.64731700  1
  S  S16  1  0.92147500  0.00000000  0.77398500  1
  S  S17  1  0.88521800  0.50000000  0.35268300  1
  S  S18  1  0.79132000  0.00000000  0.11457300  1
  S  S19  1  0.85656200  0.00000000  0.54227300  1
  S  S20  1  0.57852500  0.50000000  0.22601500  1
  S  S21  1  0.00000000  0.50000000  0.00000000  1
  S  S22  1  0.64343800  0.50000000  0.45772700  1
  S  S23  1  0.20868000  0.00000000  0.88542700  1
  S  S24  1  0.11478200  0.50000000  0.64731700  1
  S  S25  1  0.42147500  0.50000000  0.77398500  1
  S  S26  1  0.38521800  0.00000000  0.35268300  1
  S  S27  1  0.29132000  0.50000000  0.11457300  1
  S  S28  1  0.35656200  0.50000000  0.54227300  1
  S  S29  1  0.07852500  0.00000000  0.22601500  1
  S  S30  1  0.50000000  0.00000000  0.00000000  1
  S  S31  1  0.14343800  0.00000000  0.45772700  1
