# generated using pymatgen
data_Na8Hg3
_symmetry_space_group_name_H-M   'P 1'
_cell_length_a   9.29295023
_cell_length_b   9.29295023
_cell_length_c   52.63600711
_cell_angle_alpha   90.00000000
_cell_angle_beta   90.00000000
_cell_angle_gamma   120.00000000
_symmetry_Int_Tables_number   1
_chemical_formula_structural   Na8Hg3
_chemical_formula_sum   'Na96 Hg36'
_cell_volume   3936.59549430
_cell_formula_units_Z   12
loop_
 _symmetry_equiv_pos_site_id
 _symmetry_equiv_pos_as_xyz
  1  'x, y, z'
loop_
 _atom_site_type_symbol
 _atom_site_label
 _atom_site_symmetry_multiplicity
 _atom_site_fract_x
 _atom_site_fract_y
 _atom_site_fract_z
 _atom_site_occupancy
  Na  Na0  1  0.36512100  0.35817700  0.14850500  1
  Na  Na1  1  0.64182300  0.00694400  0.14850500  1
  Na  Na2  1  0.99305600  0.63487900  0.14850500  1
  Na  Na3  1  0.96821233  0.65972267  0.01816167  1
  Na  Na4  1  0.34027733  0.30848967  0.01816167  1
  Na  Na5  1  0.69151033  0.03178767  0.01816167  1
  Na  Na6  1  0.30154567  0.97515633  0.18482833  1
  Na  Na7  1  0.02484367  0.32638933  0.18482833  1
  Na  Na8  1  0.67361067  0.69845433  0.18482833  1
  Na  Na9  1  0.69845433  0.67361067  0.31517167  1
  Na  Na10  1  0.32638933  0.02484367  0.31517167  1
  Na  Na11  1  0.97515633  0.30154567  0.31517167  1
  Na  Na12  1  0.74226033  0.74838767  0.11447167  1
  Na  Na13  1  0.25161233  0.99387267  0.11447167  1
  Na  Na14  1  0.00612733  0.25773967  0.11447167  1
  Na  Na15  1  0.59107300  0.67279400  0.05219500  1
  Na  Na16  1  0.32720600  0.91827900  0.05219500  1
  Na  Na17  1  0.08172100  0.40892700  0.05219500  1
  Na  Na18  1  0.92440633  0.58494567  0.21886167  1
  Na  Na19  1  0.41505433  0.33946067  0.21886167  1
  Na  Na20  1  0.66053933  0.07559367  0.21886167  1
  Na  Na21  1  0.07559367  0.66053933  0.28113833  1
  Na  Na22  1  0.33946067  0.41505433  0.28113833  1
  Na  Na23  1  0.58494567  0.92440633  0.28113833  1
  Na  Na24  1  0.33333333  0.66666667  0.10526567  1
  Na  Na25  1  0.00000000  0.00000000  0.06140100  1
  Na  Na26  1  0.33333333  0.66666667  0.22806767  1
  Na  Na27  1  0.66666667  0.33333333  0.27193233  1
  Na  Na28  1  0.66666667  0.33333333  0.11360233  1
  Na  Na29  1  0.66666667  0.33333333  0.05306433  1
  Na  Na30  1  0.00000000  0.00000000  0.21973100  1
  Na  Na31  1  0.00000000  0.00000000  0.28026900  1
  Na  Na32  1  0.03178767  0.69151033  0.48183833  1
  Na  Na33  1  0.30848967  0.34027733  0.48183833  1
  Na  Na34  1  0.65972267  0.96821233  0.48183833  1
  Na  Na35  1  0.63487900  0.99305600  0.35149500  1
  Na  Na36  1  0.00694400  0.64182300  0.35149500  1
  Na  Na37  1  0.35817700  0.36512100  0.35149500  1
  Na  Na38  1  0.96821233  0.30848967  0.51816167  1
  Na  Na39  1  0.69151033  0.65972267  0.51816167  1
  Na  Na40  1  0.34027733  0.03178767  0.51816167  1
  Na  Na41  1  0.36512100  0.00694400  0.64850500  1
  Na  Na42  1  0.99305600  0.35817700  0.64850500  1
  Na  Na43  1  0.64182300  0.63487900  0.64850500  1
  Na  Na44  1  0.40892700  0.08172100  0.44780500  1
  Na  Na45  1  0.91827900  0.32720600  0.44780500  1
  Na  Na46  1  0.67279400  0.59107300  0.44780500  1
  Na  Na47  1  0.25773967  0.00612733  0.38552833  1
  Na  Na48  1  0.99387267  0.25161233  0.38552833  1
  Na  Na49  1  0.74838767  0.74226033  0.38552833  1
  Na  Na50  1  0.59107300  0.91827900  0.55219500  1
  Na  Na51  1  0.08172100  0.67279400  0.55219500  1
  Na  Na52  1  0.32720600  0.40892700  0.55219500  1
  Na  Na53  1  0.74226033  0.99387267  0.61447167  1
  Na  Na54  1  0.00612733  0.74838767  0.61447167  1
  Na  Na55  1  0.25161233  0.25773967  0.61447167  1
  Na  Na56  1  0.00000000  0.00000000  0.43859900  1
  Na  Na57  1  0.66666667  0.33333333  0.39473433  1
  Na  Na58  1  0.00000000  0.00000000  0.56140100  1
  Na  Na59  1  0.33333333  0.66666667  0.60526567  1
  Na  Na60  1  0.33333333  0.66666667  0.44693567  1
  Na  Na61  1  0.33333333  0.66666667  0.38639767  1
  Na  Na62  1  0.66666667  0.33333333  0.55306433  1
  Na  Na63  1  0.66666667  0.33333333  0.61360233  1
  Na  Na64  1  0.69845433  0.02484367  0.81517167  1
  Na  Na65  1  0.97515633  0.67361067  0.81517167  1
  Na  Na66  1  0.32638933  0.30154567  0.81517167  1
  Na  Na67  1  0.30154567  0.32638933  0.68482833  1
  Na  Na68  1  0.67361067  0.97515633  0.68482833  1
  Na  Na69  1  0.02484367  0.69845433  0.68482833  1
  Na  Na70  1  0.63487900  0.64182300  0.85149500  1
  Na  Na71  1  0.35817700  0.99305600  0.85149500  1
  Na  Na72  1  0.00694400  0.36512100  0.85149500  1
  Na  Na73  1  0.03178767  0.34027733  0.98183833  1
  Na  Na74  1  0.65972267  0.69151033  0.98183833  1
  Na  Na75  1  0.30848967  0.96821233  0.98183833  1
  Na  Na76  1  0.07559367  0.41505433  0.78113833  1
  Na  Na77  1  0.58494567  0.66053933  0.78113833  1
  Na  Na78  1  0.33946067  0.92440633  0.78113833  1
  Na  Na79  1  0.92440633  0.33946067  0.71886167  1
  Na  Na80  1  0.66053933  0.58494567  0.71886167  1
  Na  Na81  1  0.41505433  0.07559367  0.71886167  1
  Na  Na82  1  0.25773967  0.25161233  0.88552833  1
  Na  Na83  1  0.74838767  0.00612733  0.88552833  1
  Na  Na84  1  0.99387267  0.74226033  0.88552833  1
  Na  Na85  1  0.40892700  0.32720600  0.94780500  1
  Na  Na86  1  0.67279400  0.08172100  0.94780500  1
  Na  Na87  1  0.91827900  0.59107300  0.94780500  1
  Na  Na88  1  0.66666667  0.33333333  0.77193233  1
  Na  Na89  1  0.33333333  0.66666667  0.72806767  1
  Na  Na90  1  0.66666667  0.33333333  0.89473433  1
  Na  Na91  1  0.00000000  0.00000000  0.93859900  1
  Na  Na92  1  0.00000000  0.00000000  0.78026900  1
  Na  Na93  1  0.00000000  1.00000000  0.71973100  1
  Na  Na94  1  0.33333333  0.66666667  0.88639767  1
  Na  Na95  1  0.33333333  0.66666667  0.94693567  1
  Hg  Hg96  1  0.00000000  0.31543200  0.25000000  1
  Hg  Hg97  1  0.68456800  0.68456800  0.25000000  1
  Hg  Hg98  1  0.31543200  0.00000000  0.25000000  1
  Hg  Hg99  1  0.66666667  0.01790133  0.08333333  1
  Hg  Hg100  1  0.98209867  0.64876533  0.08333333  1
  Hg  Hg101  1  0.35123467  0.33333333  0.08333333  1
  Hg  Hg102  1  0.33333333  0.66666667  0.16666667  1
  Hg  Hg103  1  0.00000000  0.00000000  0.00000000  1
  Hg  Hg104  1  0.00000000  0.00000000  0.15806000  1
  Hg  Hg105  1  0.33333333  0.66666667  0.00860667  1
  Hg  Hg106  1  0.66666667  0.33333333  0.17527333  1
  Hg  Hg107  1  0.33333333  0.66666667  0.32472667  1
  Hg  Hg108  1  0.66666667  0.64876533  0.58333333  1
  Hg  Hg109  1  0.35123467  0.01790133  0.58333333  1
  Hg  Hg110  1  0.98209867  0.33333333  0.58333333  1
  Hg  Hg111  1  0.33333333  0.35123467  0.41666667  1
  Hg  Hg112  1  0.64876533  0.98209867  0.41666667  1
  Hg  Hg113  1  0.01790133  0.66666667  0.41666667  1
  Hg  Hg114  1  1.00000000  0.00000000  0.50000000  1
  Hg  Hg115  1  0.66666667  0.33333333  0.33333333  1
  Hg  Hg116  1  0.66666667  0.33333333  0.49139333  1
  Hg  Hg117  1  0.00000000  0.00000000  0.34194000  1
  Hg  Hg118  1  0.33333333  0.66666667  0.50860667  1
  Hg  Hg119  1  0.00000000  0.00000000  0.65806000  1
  Hg  Hg120  1  0.33333333  0.98209867  0.91666667  1
  Hg  Hg121  1  0.01790133  0.35123467  0.91666667  1
  Hg  Hg122  1  0.64876533  0.66666667  0.91666667  1
  Hg  Hg123  1  0.00000000  0.68456800  0.75000000  1
  Hg  Hg124  1  0.31543200  0.31543200  0.75000000  1
  Hg  Hg125  1  0.68456800  0.00000000  0.75000000  1
  Hg  Hg126  1  0.66666667  0.33333333  0.83333333  1
  Hg  Hg127  1  0.33333333  0.66666667  0.66666667  1
  Hg  Hg128  1  0.33333333  0.66666667  0.82472667  1
  Hg  Hg129  1  0.66666667  0.33333333  0.67527333  1
  Hg  Hg130  1  0.00000000  0.00000000  0.84194000  1
  Hg  Hg131  1  0.66666667  0.33333333  0.99139333  1
