# generated using pymatgen
data_DyMoClO4
_symmetry_space_group_name_H-M   'P 1'
_cell_length_a   10.31131600
_cell_length_b   7.32974800
_cell_length_c   6.92707238
_cell_angle_alpha   90.00000000
_cell_angle_beta   107.26171889
_cell_angle_gamma   90.00000000
_symmetry_Int_Tables_number   1
_chemical_formula_structural   DyMoClO4
_chemical_formula_sum   'Dy4 Mo4 Cl4 O16'
_cell_volume   499.96282760
_cell_formula_units_Z   4
loop_
 _symmetry_equiv_pos_site_id
 _symmetry_equiv_pos_as_xyz
  1  'x, y, z'
loop_
 _atom_site_type_symbol
 _atom_site_label
 _atom_site_symmetry_multiplicity
 _atom_site_fract_x
 _atom_site_fract_y
 _atom_site_fract_z
 _atom_site_occupancy
  Dy  Dy0  1  0.22179200  0.00000000  0.11269200  1
  Dy  Dy1  1  0.77820800  0.00000000  0.88730800  1
  Dy  Dy2  1  0.72179200  0.50000000  0.11269200  1
  Dy  Dy3  1  0.27820800  0.50000000  0.88730800  1
  Mo  Mo4  1  0.63783600  0.00000000  0.26900600  1
  Mo  Mo5  1  0.36216400  0.00000000  0.73099400  1
  Mo  Mo6  1  0.13783600  0.50000000  0.26900600  1
  Mo  Mo7  1  0.86216400  0.50000000  0.73099400  1
  Cl  Cl8  1  0.98951300  0.00000000  0.23252100  1
  Cl  Cl9  1  0.01048700  0.00000000  0.76747900  1
  Cl  Cl10  1  0.48951300  0.50000000  0.23252100  1
  Cl  Cl11  1  0.51048700  0.50000000  0.76747900  1
  O  O12  1  0.69946650  0.19064650  0.15287900  1
  O  O13  1  0.69946650  0.80935350  0.15287900  1
  O  O14  1  0.70670400  0.00000000  0.53543200  1
  O  O15  1  0.30053350  0.19064650  0.84712100  1
  O  O16  1  0.29329600  0.00000000  0.46456800  1
  O  O17  1  0.30053350  0.80935350  0.84712100  1
  O  O18  1  0.45717100  0.00000000  0.20242800  1
  O  O19  1  0.54282900  0.00000000  0.79757200  1
  O  O20  1  0.19946650  0.69064650  0.15287900  1
  O  O21  1  0.19946650  0.30935350  0.15287900  1
  O  O22  1  0.20670400  0.50000000  0.53543200  1
  O  O23  1  0.80053350  0.69064650  0.84712100  1
  O  O24  1  0.79329600  0.50000000  0.46456800  1
  O  O25  1  0.80053350  0.30935350  0.84712100  1
  O  O26  1  0.95717100  0.50000000  0.20242800  1
  O  O27  1  0.04282900  0.50000000  0.79757200  1
