# generated using pymatgen
data_Cu7As6Se13
_symmetry_space_group_name_H-M   'P 1'
_cell_length_a   13.66116886
_cell_length_b   13.66116886
_cell_length_c   11.48224024
_cell_angle_alpha   90.00000000
_cell_angle_beta   90.00000000
_cell_angle_gamma   120.00000000
_symmetry_Int_Tables_number   1
_chemical_formula_structural   Cu7As6Se13
_chemical_formula_sum   'Cu21 As18 Se39'
_cell_volume   1855.80773204
_cell_formula_units_Z   3
loop_
 _symmetry_equiv_pos_site_id
 _symmetry_equiv_pos_as_xyz
  1  'x, y, z'
loop_
 _atom_site_type_symbol
 _atom_site_label
 _atom_site_symmetry_multiplicity
 _atom_site_fract_x
 _atom_site_fract_y
 _atom_site_fract_z
 _atom_site_occupancy
  Cu  Cu0  1  0.71524633  0.49276467  0.42867867  1
  Cu  Cu1  1  0.77751833  0.28475367  0.42867867  1
  Cu  Cu2  1  0.50723533  0.22248167  0.42867867  1
  Cu  Cu3  1  0.86541100  0.04036300  0.41227400  1
  Cu  Cu4  1  0.17495200  0.13458900  0.41227400  1
  Cu  Cu5  1  0.95963700  0.82504800  0.41227400  1
  Cu  Cu6  1  0.00000000  0.00000000  0.75389700  1
  Cu  Cu7  1  0.38191300  0.82609800  0.76201200  1
  Cu  Cu8  1  0.44418500  0.61808700  0.76201200  1
  Cu  Cu9  1  0.17390200  0.55581500  0.76201200  1
  Cu  Cu10  1  0.53207767  0.37369633  0.74560733  1
  Cu  Cu11  1  0.84161867  0.46792233  0.74560733  1
  Cu  Cu12  1  0.62630367  0.15838133  0.74560733  1
  Cu  Cu13  1  0.66666667  0.33333333  0.08723033  1
  Cu  Cu14  1  0.04857967  0.15943133  0.09534533  1
  Cu  Cu15  1  0.11085167  0.95142033  0.09534533  1
  Cu  Cu16  1  0.84056867  0.88914833  0.09534533  1
  Cu  Cu17  1  0.19874433  0.70702967  0.07894067  1
  Cu  Cu18  1  0.50828533  0.80125567  0.07894067  1
  Cu  Cu19  1  0.29297033  0.49171467  0.07894067  1
  Cu  Cu20  1  0.33333333  0.66666667  0.42056367  1
  As  As21  1  0.06814367  0.78951133  0.77591333  1
  As  As22  1  0.72136767  0.93185633  0.77591333  1
  As  As23  1  0.21048867  0.27863233  0.77591333  1
  As  As24  1  0.64907833  0.76640767  0.40954267  1
  As  As25  1  0.11732933  0.35092167  0.40954267  1
  As  As26  1  0.23359233  0.88267067  0.40954267  1
  As  As27  1  0.73481033  0.12284467  0.10924667  1
  As  As28  1  0.38803433  0.26518967  0.10924667  1
  As  As29  1  0.87715533  0.61196567  0.10924667  1
  As  As30  1  0.31574500  0.09974100  0.74287600  1
  As  As31  1  0.78399600  0.68425500  0.74287600  1
  As  As32  1  0.90025900  0.21600400  0.74287600  1
  As  As33  1  0.40147700  0.45617800  0.44258000  1
  As  As34  1  0.05470100  0.59852300  0.44258000  1
  As  As35  1  0.54382200  0.94529900  0.44258000  1
  As  As36  1  0.98241167  0.43307433  0.07620933  1
  As  As37  1  0.45066267  0.01758833  0.07620933  1
  As  As38  1  0.56692567  0.54933733  0.07620933  1
  Se  Se39  1  0.72425233  0.09195967  0.37318467  1
  Se  Se40  1  0.36770733  0.27574767  0.37318467  1
  Se  Se41  1  0.90804033  0.63229267  0.37318467  1
  Se  Se42  1  0.63876233  0.73668267  0.68894167  1
  Se  Se43  1  0.09792033  0.36123767  0.68894167  1
  Se  Se44  1  0.26331733  0.90207967  0.68894167  1
  Se  Se45  1  0.03848667  0.16828033  0.31131633  1
  Se  Se46  1  0.12979367  0.96151333  0.31131633  1
  Se  Se47  1  0.83171967  0.87020633  0.31131633  1
  Se  Se48  1  0.88298167  0.05229333  0.62671833  1
  Se  Se49  1  0.16931167  0.11701833  0.62671833  1
  Se  Se50  1  0.94770667  0.83068833  0.62671833  1
  Se  Se51  1  0.00000000  0.00000000  0.96996500  1
  Se  Se52  1  0.39091900  0.42529300  0.70651800  1
  Se  Se53  1  0.03437400  0.60908100  0.70651800  1
  Se  Se54  1  0.57470700  0.96562600  0.70651800  1
  Se  Se55  1  0.30542900  0.07001600  0.02227500  1
  Se  Se56  1  0.76458700  0.69457100  0.02227500  1
  Se  Se57  1  0.92998400  0.23541300  0.02227500  1
  Se  Se58  1  0.70515333  0.50161367  0.64464967  1
  Se  Se59  1  0.79646033  0.29484667  0.64464967  1
  Se  Se60  1  0.49838633  0.20353967  0.64464967  1
  Se  Se61  1  0.54964833  0.38562667  0.96005167  1
  Se  Se62  1  0.83597833  0.45035167  0.96005167  1
  Se  Se63  1  0.61437333  0.16402167  0.96005167  1
  Se  Se64  1  0.66666667  0.33333333  0.30329833  1
  Se  Se65  1  0.05758567  0.75862633  0.03985133  1
  Se  Se66  1  0.70104067  0.94241433  0.03985133  1
  Se  Se67  1  0.24137367  0.29895933  0.03985133  1
  Se  Se68  1  0.97209567  0.40334933  0.35560833  1
  Se  Se69  1  0.43125367  0.02790433  0.35560833  1
  Se  Se70  1  0.59665067  0.56874633  0.35560833  1
  Se  Se71  1  0.37182000  0.83494700  0.97798300  1
  Se  Se72  1  0.46312700  0.62818000  0.97798300  1
  Se  Se73  1  0.16505300  0.53687300  0.97798300  1
  Se  Se74  1  0.21631500  0.71896000  0.29338500  1
  Se  Se75  1  0.50264500  0.78368500  0.29338500  1
  Se  Se76  1  0.28104000  0.49735500  0.29338500  1
  Se  Se77  1  0.33333333  0.66666667  0.63663167  1
