# generated using pymatgen
data_Ba11(OsO6)4
_symmetry_space_group_name_H-M   'P 1'
_cell_length_a   12.42037800
_cell_length_b   12.42037800
_cell_length_c   16.97960400
_cell_angle_alpha   90.00000000
_cell_angle_beta   90.00000000
_cell_angle_gamma   90.00000000
_symmetry_Int_Tables_number   1
_chemical_formula_structural   Ba11(OsO6)4
_chemical_formula_sum   'Ba44 Os16 O96'
_cell_volume   2619.37201922
_cell_formula_units_Z   4
loop_
 _symmetry_equiv_pos_site_id
 _symmetry_equiv_pos_as_xyz
  1  'x, y, z'
loop_
 _atom_site_type_symbol
 _atom_site_label
 _atom_site_symmetry_multiplicity
 _atom_site_fract_x
 _atom_site_fract_y
 _atom_site_fract_z
 _atom_site_occupancy
  Ba  Ba0  1  0.29231450  0.97347250  0.15704250  1
  Ba  Ba1  1  0.29217100  0.73594000  0.48979200  1
  Ba  Ba2  1  0.52652750  0.29231450  0.90704250  1
  Ba  Ba3  1  0.23594000  0.70782900  0.23979200  1
  Ba  Ba4  1  0.20782900  0.26406000  0.26020800  1
  Ba  Ba5  1  0.52652750  0.79231450  0.34295750  1
  Ba  Ba6  1  0.00000000  0.50000000  0.01401400  1
  Ba  Ba7  1  0.00000000  0.50000000  0.48598600  1
  Ba  Ba8  1  0.00000000  0.00000000  0.76401400  1
  Ba  Ba9  1  0.97347250  0.20768550  0.40704250  1
  Ba  Ba10  1  0.26406000  0.29217100  0.51020800  1
  Ba  Ba11  1  0.20768550  0.02652750  0.59295750  1
  Ba  Ba12  1  0.70768550  0.02652750  0.15704250  1
  Ba  Ba13  1  0.79217100  0.73594000  0.26020800  1
  Ba  Ba14  1  0.00000000  0.50000000  0.25000000  1
  Ba  Ba15  1  0.20782900  0.76406000  0.98979200  1
  Ba  Ba16  1  0.47347250  0.20768550  0.34295750  1
  Ba  Ba17  1  0.23594000  0.20782900  0.01020800  1
  Ba  Ba18  1  0.00000000  0.00000000  0.23598600  1
  Ba  Ba19  1  0.00000000  0.00000000  0.00000000  1
  Ba  Ba20  1  0.29231450  0.47347250  0.09295750  1
  Ba  Ba21  1  0.76406000  0.29217100  0.23979200  1
  Ba  Ba22  1  0.79231450  0.47347250  0.65704250  1
  Ba  Ba23  1  0.79217100  0.23594000  0.98979200  1
  Ba  Ba24  1  0.02652750  0.79231450  0.40704250  1
  Ba  Ba25  1  0.73594000  0.20782900  0.73979200  1
  Ba  Ba26  1  0.70782900  0.76406000  0.76020800  1
  Ba  Ba27  1  0.02652750  0.29231450  0.84295750  1
  Ba  Ba28  1  0.50000000  0.00000000  0.51401400  1
  Ba  Ba29  1  0.50000000  0.00000000  0.98598600  1
  Ba  Ba30  1  0.50000000  0.50000000  0.26401400  1
  Ba  Ba31  1  0.47347250  0.70768550  0.90704250  1
  Ba  Ba32  1  0.76406000  0.79217100  0.01020800  1
  Ba  Ba33  1  0.70768550  0.52652750  0.09295750  1
  Ba  Ba34  1  0.20768550  0.52652750  0.65704250  1
  Ba  Ba35  1  0.29217100  0.23594000  0.76020800  1
  Ba  Ba36  1  0.50000000  0.00000000  0.75000000  1
  Ba  Ba37  1  0.70782900  0.26406000  0.48979200  1
  Ba  Ba38  1  0.97347250  0.70768550  0.84295750  1
  Ba  Ba39  1  0.73594000  0.70782900  0.51020800  1
  Ba  Ba40  1  0.50000000  0.50000000  0.73598600  1
  Ba  Ba41  1  0.50000000  0.50000000  0.50000000  1
  Ba  Ba42  1  0.79231450  0.97347250  0.59295750  1
  Ba  Ba43  1  0.26406000  0.79217100  0.73979200  1
  Os  Os44  1  0.25000000  0.50000000  0.87500000  1
  Os  Os45  1  0.50000000  0.25000000  0.12500000  1
  Os  Os46  1  0.25000000  0.50000000  0.37500000  1
  Os  Os47  1  0.25000000  0.00000000  0.37500000  1
  Os  Os48  1  0.00000000  0.25000000  0.62500000  1
  Os  Os49  1  0.00000000  0.75000000  0.12500000  1
  Os  Os50  1  0.00000000  0.25000000  0.12500000  1
  Os  Os51  1  0.75000000  0.50000000  0.37500000  1
  Os  Os52  1  0.75000000  0.00000000  0.37500000  1
  Os  Os53  1  0.00000000  0.75000000  0.62500000  1
  Os  Os54  1  0.75000000  0.00000000  0.87500000  1
  Os  Os55  1  0.75000000  0.50000000  0.87500000  1
  Os  Os56  1  0.50000000  0.75000000  0.12500000  1
  Os  Os57  1  0.50000000  0.25000000  0.62500000  1
  Os  Os58  1  0.50000000  0.75000000  0.62500000  1
  Os  Os59  1  0.25000000  0.00000000  0.87500000  1
  O  O60  1  0.85824350  0.38732550  0.37418350  1
  O  O61  1  0.01049500  0.73649500  0.23849100  1
  O  O62  1  0.18654150  0.90270750  0.29978450  1
  O  O63  1  0.59729250  0.18654150  0.04978450  1
  O  O64  1  0.88732550  0.14175650  0.12418350  1
  O  O65  1  0.13537200  0.88836300  0.86310200  1
  O  O66  1  0.64175650  0.61267450  0.37581650  1
  O  O67  1  0.09559250  0.36823050  0.60576450  1
  O  O68  1  0.67524750  0.92645050  0.29240050  1
  O  O69  1  0.11267450  0.35824350  0.12581650  1
  O  O70  1  0.73649500  0.48950500  0.48849100  1
  O  O71  1  0.31345850  0.59729250  0.79978450  1
  O  O72  1  0.17524750  0.92645050  0.45759950  1
  O  O73  1  0.42645050  0.82475250  0.20759950  1
  O  O74  1  0.14175650  0.61267450  0.37418350  1
  O  O75  1  0.86462800  0.61163700  0.38689800  1
  O  O76  1  0.76350500  0.51049500  0.26150900  1
  O  O77  1  0.42645050  0.32475250  0.04240050  1
  O  O78  1  0.13176950  0.59559250  0.89423550  1
  O  O79  1  0.01049500  0.23649500  0.01150900  1
  O  O80  1  0.88732550  0.64175650  0.12581650  1
  O  O81  1  0.57354950  0.17524750  0.20759950  1
  O  O82  1  0.35824350  0.38732550  0.37581650  1
  O  O83  1  0.98950500  0.26350500  0.23849100  1
  O  O84  1  0.40270750  0.31345850  0.20021550  1
  O  O85  1  0.32475250  0.07354950  0.29240050  1
  O  O86  1  0.09729250  0.18654150  0.70021550  1
  O  O87  1  0.13176950  0.09559250  0.35576450  1
  O  O88  1  0.13537200  0.38836300  0.38689800  1
  O  O89  1  0.26350500  0.51049500  0.48849100  1
  O  O90  1  0.11267450  0.85824350  0.12418350  1
  O  O91  1  0.23649500  0.48950500  0.26150900  1
  O  O92  1  0.38836300  0.36462800  0.63689800  1
  O  O93  1  0.98950500  0.76350500  0.01150900  1
  O  O94  1  0.11163700  0.13537200  0.13689800  1
  O  O95  1  0.11163700  0.63537200  0.11310200  1
  O  O96  1  0.90440750  0.13176950  0.64423550  1
  O  O97  1  0.36462800  0.61163700  0.36310200  1
  O  O98  1  0.36823050  0.40440750  0.85576450  1
  O  O99  1  0.36823050  0.90440750  0.39423550  1
  O  O100  1  0.18654150  0.40270750  0.95021550  1
  O  O101  1  0.31345850  0.09729250  0.45021550  1
  O  O102  1  0.07354950  0.17524750  0.54240050  1
  O  O103  1  0.32475250  0.57354950  0.95759950  1
  O  O104  1  0.88836300  0.36462800  0.11310200  1
  O  O105  1  0.40440750  0.13176950  0.10576450  1
  O  O106  1  0.90270750  0.31345850  0.54978450  1
  O  O107  1  0.59559250  0.36823050  0.14423550  1
  O  O108  1  0.35824350  0.88732550  0.87418350  1
  O  O109  1  0.51049500  0.23649500  0.73849100  1
  O  O110  1  0.68654150  0.40270750  0.79978450  1
  O  O111  1  0.09729250  0.68654150  0.54978450  1
  O  O112  1  0.38732550  0.64175650  0.62418350  1
  O  O113  1  0.63537200  0.38836300  0.36310200  1
  O  O114  1  0.14175650  0.11267450  0.87581650  1
  O  O115  1  0.59559250  0.86823050  0.10576450  1
  O  O116  1  0.17524750  0.42645050  0.79240050  1
  O  O117  1  0.61267450  0.85824350  0.62581650  1
  O  O118  1  0.23649500  0.98950500  0.98849100  1
  O  O119  1  0.81345850  0.09729250  0.29978450  1
  O  O120  1  0.67524750  0.42645050  0.95759950  1
  O  O121  1  0.92645050  0.32475250  0.70759950  1
  O  O122  1  0.64175650  0.11267450  0.87418350  1
  O  O123  1  0.36462800  0.11163700  0.88689800  1
  O  O124  1  0.26350500  0.01049500  0.76150900  1
  O  O125  1  0.92645050  0.82475250  0.54240050  1
  O  O126  1  0.63176950  0.09559250  0.39423550  1
  O  O127  1  0.51049500  0.73649500  0.51150900  1
  O  O128  1  0.38732550  0.14175650  0.62581650  1
  O  O129  1  0.07354950  0.67524750  0.70759950  1
  O  O130  1  0.85824350  0.88732550  0.87581650  1
  O  O131  1  0.48950500  0.76350500  0.73849100  1
  O  O132  1  0.90270750  0.81345850  0.70021550  1
  O  O133  1  0.82475250  0.57354950  0.79240050  1
  O  O134  1  0.59729250  0.68654150  0.20021550  1
  O  O135  1  0.63176950  0.59559250  0.85576450  1
  O  O136  1  0.63537200  0.88836300  0.88689800  1
  O  O137  1  0.76350500  0.01049500  0.98849100  1
  O  O138  1  0.61267450  0.35824350  0.62418350  1
  O  O139  1  0.73649500  0.98950500  0.76150900  1
  O  O140  1  0.88836300  0.86462800  0.13689800  1
  O  O141  1  0.48950500  0.26350500  0.51150900  1
  O  O142  1  0.61163700  0.63537200  0.63689800  1
  O  O143  1  0.61163700  0.13537200  0.61310200  1
  O  O144  1  0.40440750  0.63176950  0.14423550  1
  O  O145  1  0.86462800  0.11163700  0.86310200  1
  O  O146  1  0.86823050  0.90440750  0.35576450  1
  O  O147  1  0.86823050  0.40440750  0.89423550  1
  O  O148  1  0.68654150  0.90270750  0.45021550  1
  O  O149  1  0.81345850  0.59729250  0.95021550  1
  O  O150  1  0.57354950  0.67524750  0.04240050  1
  O  O151  1  0.82475250  0.07354950  0.45759950  1
  O  O152  1  0.38836300  0.86462800  0.61310200  1
  O  O153  1  0.90440750  0.63176950  0.60576450  1
  O  O154  1  0.40270750  0.81345850  0.04978450  1
  O  O155  1  0.09559250  0.86823050  0.64423550  1
