# generated using pymatgen
data_K2Cu3(AsO3)4
_symmetry_space_group_name_H-M   'P 1'
_cell_length_a   10.64215800
_cell_length_b   5.44857600
_cell_length_c   11.64982225
_cell_angle_alpha   90.00000000
_cell_angle_beta   111.68944027
_cell_angle_gamma   90.00000000
_symmetry_Int_Tables_number   1
_chemical_formula_structural   K2Cu3(AsO3)4
_chemical_formula_sum   'K4 Cu6 As8 O24'
_cell_volume   627.68470082
_cell_formula_units_Z   2
loop_
 _symmetry_equiv_pos_site_id
 _symmetry_equiv_pos_as_xyz
  1  'x, y, z'
loop_
 _atom_site_type_symbol
 _atom_site_label
 _atom_site_symmetry_multiplicity
 _atom_site_fract_x
 _atom_site_fract_y
 _atom_site_fract_z
 _atom_site_occupancy
  K  K0  1  0.36171200  0.00000000  0.57571200  1
  K  K1  1  0.63828800  0.00000000  0.42428800  1
  K  K2  1  0.86171200  0.50000000  0.57571200  1
  K  K3  1  0.13828800  0.50000000  0.42428800  1
  Cu  Cu4  1  0.23635500  0.00000000  0.24045600  1
  Cu  Cu5  1  0.00000000  0.00000000  0.00000000  1
  Cu  Cu6  1  0.76364500  0.00000000  0.75954400  1
  Cu  Cu7  1  0.73635500  0.50000000  0.24045600  1
  Cu  Cu8  1  0.50000000  0.50000000  0.00000000  1
  Cu  Cu9  1  0.26364500  0.50000000  0.75954400  1
  As  As10  1  0.58280700  0.50000000  0.69305800  1
  As  As11  1  0.41719300  0.50000000  0.30694200  1
  As  As12  1  0.82839500  0.50000000  0.95512300  1
  As  As13  1  0.17160500  0.50000000  0.04487700  1
  As  As14  1  0.08280700  0.00000000  0.69305800  1
  As  As15  1  0.91719300  0.00000000  0.30694200  1
  As  As16  1  0.32839500  0.00000000  0.95512300  1
  As  As17  1  0.67160500  0.00000000  0.04487700  1
  O  O18  1  0.64664750  0.75598750  0.64697600  1
  O  O19  1  0.12219550  0.23977650  0.11567800  1
  O  O20  1  0.64664750  0.24401250  0.64697600  1
  O  O21  1  0.64513200  0.50000000  0.85891400  1
  O  O22  1  0.35335250  0.24401250  0.35302400  1
  O  O23  1  0.41219200  0.50000000  0.64264200  1
  O  O24  1  0.35335250  0.75598750  0.35302400  1
  O  O25  1  0.87780450  0.23977650  0.88432200  1
  O  O26  1  0.87780450  0.76022350  0.88432200  1
  O  O27  1  0.12219550  0.76022350  0.11567800  1
  O  O28  1  0.58780800  0.50000000  0.35735800  1
  O  O29  1  0.35486800  0.50000000  0.14108600  1
  O  O30  1  0.14664750  0.25598750  0.64697600  1
  O  O31  1  0.62219550  0.73977650  0.11567800  1
  O  O32  1  0.14664750  0.74401250  0.64697600  1
  O  O33  1  0.14513200  0.00000000  0.85891400  1
  O  O34  1  0.85335250  0.74401250  0.35302400  1
  O  O35  1  0.91219200  0.00000000  0.64264200  1
  O  O36  1  0.85335250  0.25598750  0.35302400  1
  O  O37  1  0.37780450  0.73977650  0.88432200  1
  O  O38  1  0.37780450  0.26022350  0.88432200  1
  O  O39  1  0.62219550  0.26022350  0.11567800  1
  O  O40  1  0.08780800  0.00000000  0.35735800  1
  O  O41  1  0.85486800  0.00000000  0.14108600  1
