# generated using pymatgen
data_Sr5Cd3
_symmetry_space_group_name_H-M   'P 1'
_cell_length_a   8.66345600
_cell_length_b   8.66345600
_cell_length_c   16.86418000
_cell_angle_alpha   90.00000000
_cell_angle_beta   90.00000000
_cell_angle_gamma   90.00000000
_symmetry_Int_Tables_number   1
_chemical_formula_structural   Sr5Cd3
_chemical_formula_sum   'Sr20 Cd12'
_cell_volume   1265.74895377
_cell_formula_units_Z   4
loop_
 _symmetry_equiv_pos_site_id
 _symmetry_equiv_pos_as_xyz
  1  'x, y, z'
loop_
 _atom_site_type_symbol
 _atom_site_label
 _atom_site_symmetry_multiplicity
 _atom_site_fract_x
 _atom_site_fract_y
 _atom_site_fract_z
 _atom_site_occupancy
  Sr  Sr0  1  0.33150850  0.83150850  0.14734550  1
  Sr  Sr1  1  0.16849150  0.33150850  0.14734550  1
  Sr  Sr2  1  0.83150850  0.33150850  0.35265450  1
  Sr  Sr3  1  0.00000000  0.00000000  0.00000000  1
  Sr  Sr4  1  0.66849150  0.83150850  0.35265450  1
  Sr  Sr5  1  0.83150850  0.66849150  0.14734550  1
  Sr  Sr6  1  0.66849150  0.16849150  0.14734550  1
  Sr  Sr7  1  0.33150850  0.16849150  0.35265450  1
  Sr  Sr8  1  0.50000000  0.50000000  0.00000000  1
  Sr  Sr9  1  0.16849150  0.66849150  0.35265450  1
  Sr  Sr10  1  0.83150850  0.33150850  0.64734550  1
  Sr  Sr11  1  0.66849150  0.83150850  0.64734550  1
  Sr  Sr12  1  0.33150850  0.83150850  0.85265450  1
  Sr  Sr13  1  0.50000000  0.50000000  0.50000000  1
  Sr  Sr14  1  0.16849150  0.33150850  0.85265450  1
  Sr  Sr15  1  0.33150850  0.16849150  0.64734550  1
  Sr  Sr16  1  0.16849150  0.66849150  0.64734550  1
  Sr  Sr17  1  0.83150850  0.66849150  0.85265450  1
  Sr  Sr18  1  0.00000000  0.00000000  0.50000000  1
  Sr  Sr19  1  0.66849150  0.16849150  0.85265450  1
  Cd  Cd20  1  0.37752700  0.12247300  0.00000000  1
  Cd  Cd21  1  0.87752700  0.37752700  0.00000000  1
  Cd  Cd22  1  0.12247300  0.62247300  0.00000000  1
  Cd  Cd23  1  0.50000000  0.50000000  0.25000000  1
  Cd  Cd24  1  0.62247300  0.87752700  0.00000000  1
  Cd  Cd25  1  0.00000000  0.00000000  0.25000000  1
  Cd  Cd26  1  0.87752700  0.62247300  0.50000000  1
  Cd  Cd27  1  0.37752700  0.87752700  0.50000000  1
  Cd  Cd28  1  0.62247300  0.12247300  0.50000000  1
  Cd  Cd29  1  0.00000000  0.00000000  0.75000000  1
  Cd  Cd30  1  0.12247300  0.37752700  0.50000000  1
  Cd  Cd31  1  0.50000000  0.50000000  0.75000000  1
