# generated using pymatgen
data_Ba3Ho2Cu2PtO10
_symmetry_space_group_name_H-M   'P 1'
_cell_length_a   12.58657400
_cell_length_b   5.85804400
_cell_length_c   7.48554518
_cell_angle_alpha   90.00000000
_cell_angle_beta   105.59803340
_cell_angle_gamma   90.00000000
_symmetry_Int_Tables_number   1
_chemical_formula_structural   Ba3Ho2Cu2PtO10
_chemical_formula_sum   'Ba6 Ho4 Cu4 Pt2 O20'
_cell_volume   531.60291783
_cell_formula_units_Z   2
loop_
 _symmetry_equiv_pos_site_id
 _symmetry_equiv_pos_as_xyz
  1  'x, y, z'
loop_
 _atom_site_type_symbol
 _atom_site_label
 _atom_site_symmetry_multiplicity
 _atom_site_fract_x
 _atom_site_fract_y
 _atom_site_fract_z
 _atom_site_occupancy
  Ba  Ba0  1  0.65275800  0.50000000  0.53804700  1
  Ba  Ba1  1  0.00000000  0.00000000  0.00000000  1
  Ba  Ba2  1  0.84724200  0.00000000  0.46195300  1
  Ba  Ba3  1  0.15275800  0.00000000  0.53804700  1
  Ba  Ba4  1  0.50000000  0.50000000  0.00000000  1
  Ba  Ba5  1  0.34724200  0.50000000  0.46195300  1
  Ho  Ho6  1  0.68882700  0.00000000  0.87427800  1
  Ho  Ho7  1  0.81117300  0.50000000  0.12572200  1
  Ho  Ho8  1  0.18882700  0.50000000  0.87427800  1
  Ho  Ho9  1  0.31117300  0.00000000  0.12572200  1
  Cu  Cu10  1  0.90987000  0.50000000  0.80047300  1
  Cu  Cu11  1  0.59013000  0.00000000  0.19952700  1
  Cu  Cu12  1  0.40987000  0.00000000  0.80047300  1
  Cu  Cu13  1  0.09013000  0.50000000  0.19952700  1
  Pt  Pt14  1  0.00000000  0.50000000  0.50000000  1
  Pt  Pt15  1  0.50000000  0.00000000  0.50000000  1
  O  O16  1  0.51815700  0.77991900  0.71946700  1
  O  O17  1  0.68410450  0.77068050  0.12503500  1
  O  O18  1  0.66731500  0.00000000  0.55191300  1
  O  O19  1  0.68410450  0.22931950  0.12503500  1
  O  O20  1  0.81589550  0.27068050  0.87496500  1
  O  O21  1  0.81589550  0.72931950  0.87496500  1
  O  O22  1  0.98184300  0.72008100  0.28053300  1
  O  O23  1  0.83268500  0.50000000  0.44808700  1
  O  O24  1  0.98184300  0.27991900  0.28053300  1
  O  O25  1  0.51815700  0.22008100  0.71946700  1
  O  O26  1  0.01815700  0.27991900  0.71946700  1
  O  O27  1  0.18410450  0.27068050  0.12503500  1
  O  O28  1  0.16731500  0.50000000  0.55191300  1
  O  O29  1  0.18410450  0.72931950  0.12503500  1
  O  O30  1  0.31589550  0.77068050  0.87496500  1
  O  O31  1  0.31589550  0.22931950  0.87496500  1
  O  O32  1  0.48184300  0.22008100  0.28053300  1
  O  O33  1  0.33268500  0.00000000  0.44808700  1
  O  O34  1  0.48184300  0.77991900  0.28053300  1
  O  O35  1  0.01815700  0.72008100  0.71946700  1
