# generated using pymatgen
data_PrI2
_symmetry_space_group_name_H-M   'P 1'
_cell_length_a   12.61908200
_cell_length_b   12.61908200
_cell_length_c   12.61908200
_cell_angle_alpha   90.00000000
_cell_angle_beta   90.00000000
_cell_angle_gamma   90.00000000
_symmetry_Int_Tables_number   1
_chemical_formula_structural   PrI2
_chemical_formula_sum   'Pr16 I32'
_cell_volume   2009.47814575
_cell_formula_units_Z   16
loop_
 _symmetry_equiv_pos_site_id
 _symmetry_equiv_pos_as_xyz
  1  'x, y, z'
loop_
 _atom_site_type_symbol
 _atom_site_label
 _atom_site_symmetry_multiplicity
 _atom_site_fract_x
 _atom_site_fract_y
 _atom_site_fract_z
 _atom_site_occupancy
  Pr  Pr0  1  0.36122100  0.13877900  0.36122100  1
  Pr  Pr1  1  0.13877900  0.13877900  0.13877900  1
  Pr  Pr2  1  0.36122100  0.36122100  0.13877900  1
  Pr  Pr3  1  0.13877900  0.36122100  0.36122100  1
  Pr  Pr4  1  0.36122100  0.63877900  0.86122100  1
  Pr  Pr5  1  0.13877900  0.63877900  0.63877900  1
  Pr  Pr6  1  0.36122100  0.86122100  0.63877900  1
  Pr  Pr7  1  0.13877900  0.86122100  0.86122100  1
  Pr  Pr8  1  0.86122100  0.13877900  0.86122100  1
  Pr  Pr9  1  0.63877900  0.13877900  0.63877900  1
  Pr  Pr10  1  0.86122100  0.36122100  0.63877900  1
  Pr  Pr11  1  0.63877900  0.36122100  0.86122100  1
  Pr  Pr12  1  0.86122100  0.63877900  0.36122100  1
  Pr  Pr13  1  0.63877900  0.63877900  0.13877900  1
  Pr  Pr14  1  0.86122100  0.86122100  0.13877900  1
  Pr  Pr15  1  0.63877900  0.86122100  0.36122100  1
  I  I16  1  0.12369900  0.37630100  0.62369900  1
  I  I17  1  0.88777867  0.38777867  0.88777867  1
  I  I18  1  0.37630100  0.37630100  0.87630100  1
  I  I19  1  0.37630100  0.12369900  0.62369900  1
  I  I20  1  0.38777867  0.11222133  0.11222133  1
  I  I21  1  0.11222133  0.38777867  0.11222133  1
  I  I22  1  0.12369900  0.12369900  0.87630100  1
  I  I23  1  0.61222133  0.11222133  0.88777867  1
  I  I24  1  0.12369900  0.87630100  0.12369900  1
  I  I25  1  0.88777867  0.88777867  0.38777867  1
  I  I26  1  0.37630100  0.87630100  0.37630100  1
  I  I27  1  0.37630100  0.62369900  0.12369900  1
  I  I28  1  0.38777867  0.61222133  0.61222133  1
  I  I29  1  0.11222133  0.88777867  0.61222133  1
  I  I30  1  0.12369900  0.62369900  0.37630100  1
  I  I31  1  0.61222133  0.61222133  0.38777867  1
  I  I32  1  0.62369900  0.37630100  0.12369900  1
  I  I33  1  0.38777867  0.38777867  0.38777867  1
  I  I34  1  0.87630100  0.37630100  0.37630100  1
  I  I35  1  0.87630100  0.12369900  0.12369900  1
  I  I36  1  0.88777867  0.11222133  0.61222133  1
  I  I37  1  0.61222133  0.38777867  0.61222133  1
  I  I38  1  0.62369900  0.12369900  0.37630100  1
  I  I39  1  0.11222133  0.11222133  0.38777867  1
  I  I40  1  0.62369900  0.87630100  0.62369900  1
  I  I41  1  0.38777867  0.88777867  0.88777867  1
  I  I42  1  0.87630100  0.87630100  0.87630100  1
  I  I43  1  0.87630100  0.62369900  0.62369900  1
  I  I44  1  0.88777867  0.61222133  0.11222133  1
  I  I45  1  0.61222133  0.88777867  0.11222133  1
  I  I46  1  0.62369900  0.62369900  0.87630100  1
  I  I47  1  0.11222133  0.61222133  0.88777867  1
