# generated using pymatgen
data_BaTbMn2O6
_symmetry_space_group_name_H-M   'P 1'
_cell_length_a   7.80605000
_cell_length_b   7.94972600
_cell_length_c   7.80752800
_cell_angle_alpha   90.00000000
_cell_angle_beta   90.00000000
_cell_angle_gamma   90.00000000
_symmetry_Int_Tables_number   1
_chemical_formula_structural   BaTbMn2O6
_chemical_formula_sum   'Ba4 Tb4 Mn8 O24'
_cell_volume   484.50363467
_cell_formula_units_Z   4
loop_
 _symmetry_equiv_pos_site_id
 _symmetry_equiv_pos_as_xyz
  1  'x, y, z'
loop_
 _atom_site_type_symbol
 _atom_site_label
 _atom_site_symmetry_multiplicity
 _atom_site_fract_x
 _atom_site_fract_y
 _atom_site_fract_z
 _atom_site_occupancy
  Ba  Ba0  1  0.50000000  0.74573700  0.00000000  1
  Ba  Ba1  1  0.50000000  0.25426300  0.00000000  1
  Ba  Ba2  1  0.00000000  0.24573700  0.00000000  1
  Ba  Ba3  1  0.00000000  0.75426300  0.00000000  1
  Tb  Tb4  1  0.50000000  0.73468000  0.50000000  1
  Tb  Tb5  1  0.50000000  0.26532000  0.50000000  1
  Tb  Tb6  1  0.00000000  0.23468000  0.50000000  1
  Tb  Tb7  1  0.00000000  0.76532000  0.50000000  1
  Mn  Mn8  1  0.74860000  0.00000000  0.25830600  1
  Mn  Mn9  1  0.25140000  0.00000000  0.25830600  1
  Mn  Mn10  1  0.25140000  0.00000000  0.74169400  1
  Mn  Mn11  1  0.74860000  0.00000000  0.74169400  1
  Mn  Mn12  1  0.24860000  0.50000000  0.25830600  1
  Mn  Mn13  1  0.75140000  0.50000000  0.25830600  1
  Mn  Mn14  1  0.75140000  0.50000000  0.74169400  1
  Mn  Mn15  1  0.24860000  0.50000000  0.74169400  1
  O  O16  1  0.25000000  0.25000000  0.28681400  1
  O  O17  1  0.27174500  0.00000000  0.00000000  1
  O  O18  1  0.19001500  0.00000000  0.50000000  1
  O  O19  1  0.50000000  0.00000000  0.31311800  1
  O  O20  1  0.80998500  0.00000000  0.50000000  1
  O  O21  1  0.25000000  0.75000000  0.28681400  1
  O  O22  1  0.50000000  0.00000000  0.68688200  1
  O  O23  1  0.00000000  0.00000000  0.76140200  1
  O  O24  1  0.25000000  0.25000000  0.71318600  1
  O  O25  1  0.72825500  0.00000000  0.00000000  1
  O  O26  1  0.00000000  0.00000000  0.23859800  1
  O  O27  1  0.25000000  0.75000000  0.71318600  1
  O  O28  1  0.75000000  0.75000000  0.28681400  1
  O  O29  1  0.77174500  0.50000000  0.00000000  1
  O  O30  1  0.69001500  0.50000000  0.50000000  1
  O  O31  1  0.00000000  0.50000000  0.31311800  1
  O  O32  1  0.30998500  0.50000000  0.50000000  1
  O  O33  1  0.75000000  0.25000000  0.28681400  1
  O  O34  1  0.00000000  0.50000000  0.68688200  1
  O  O35  1  0.50000000  0.50000000  0.76140200  1
  O  O36  1  0.75000000  0.75000000  0.71318600  1
  O  O37  1  0.22825500  0.50000000  0.00000000  1
  O  O38  1  0.50000000  0.50000000  0.23859800  1
  O  O39  1  0.75000000  0.25000000  0.71318600  1
