# generated using pymatgen
data_Ba3LaIr2O9
_symmetry_space_group_name_H-M   'P 1'
_cell_length_a   6.02492000
_cell_length_b   10.42754400
_cell_length_c   15.16986281
_cell_angle_alpha   90.00000000
_cell_angle_beta   90.73135026
_cell_angle_gamma   90.00000000
_symmetry_Int_Tables_number   1
_chemical_formula_structural   Ba3LaIr2O9
_chemical_formula_sum   'Ba12 La4 Ir8 O36'
_cell_volume   952.97078719
_cell_formula_units_Z   4
loop_
 _symmetry_equiv_pos_site_id
 _symmetry_equiv_pos_as_xyz
  1  'x, y, z'
loop_
 _atom_site_type_symbol
 _atom_site_label
 _atom_site_symmetry_multiplicity
 _atom_site_fract_x
 _atom_site_fract_y
 _atom_site_fract_z
 _atom_site_occupancy
  Ba  Ba0  1  0.50289500  0.83321200  0.10222700  1
  Ba  Ba1  1  0.49710500  0.83321200  0.39777300  1
  Ba  Ba2  1  0.50289500  0.16678800  0.60222700  1
  Ba  Ba3  1  0.50000000  0.49912200  0.25000000  1
  Ba  Ba4  1  0.50000000  0.50087800  0.75000000  1
  Ba  Ba5  1  0.49710500  0.16678800  0.89777300  1
  Ba  Ba6  1  0.00289500  0.33321200  0.10222700  1
  Ba  Ba7  1  0.99710500  0.33321200  0.39777300  1
  Ba  Ba8  1  0.00289500  0.66678800  0.60222700  1
  Ba  Ba9  1  0.00000000  0.99912200  0.25000000  1
  Ba  Ba10  1  0.00000000  0.00087800  0.75000000  1
  Ba  Ba11  1  0.99710500  0.66678800  0.89777300  1
  La  La12  1  0.00000000  0.00000000  0.50000000  1
  La  La13  1  0.00000000  0.00000000  0.00000000  1
  La  La14  1  0.50000000  0.50000000  0.50000000  1
  La  La15  1  0.50000000  0.50000000  0.00000000  1
  Ir  Ir16  1  0.49337150  0.16701150  0.33296400  1
  Ir  Ir17  1  0.50662850  0.16701150  0.16703600  1
  Ir  Ir18  1  0.50662850  0.83298850  0.66703600  1
  Ir  Ir19  1  0.49337150  0.83298850  0.83296400  1
  Ir  Ir20  1  0.99337150  0.66701150  0.33296400  1
  Ir  Ir21  1  0.00662850  0.66701150  0.16703600  1
  Ir  Ir22  1  0.00662850  0.33298850  0.66703600  1
  Ir  Ir23  1  0.99337150  0.33298850  0.83296400  1
  O  O24  1  0.48558950  0.32291350  0.40612900  1
  O  O25  1  0.51441050  0.32291350  0.09387100  1
  O  O26  1  0.26256450  0.24452650  0.24575500  1
  O  O27  1  0.26256450  0.75547350  0.74575500  1
  O  O28  1  0.51441050  0.67708650  0.59387100  1
  O  O29  1  0.71802650  0.90813350  0.91299900  1
  O  O30  1  0.71802650  0.09186650  0.41299900  1
  O  O31  1  0.25473400  0.09017600  0.40317800  1
  O  O32  1  0.28197350  0.90813350  0.58700100  1
  O  O33  1  0.74526600  0.09017600  0.09682200  1
  O  O34  1  0.73743550  0.24452650  0.25424500  1
  O  O35  1  0.50000000  0.99102500  0.75000000  1
  O  O36  1  0.74526600  0.90982400  0.59682200  1
  O  O37  1  0.25473400  0.90982400  0.90317800  1
  O  O38  1  0.48558950  0.67708650  0.90612900  1
  O  O39  1  0.50000000  0.00897500  0.25000000  1
  O  O40  1  0.73743550  0.75547350  0.75424500  1
  O  O41  1  0.28197350  0.09186650  0.08700100  1
  O  O42  1  0.98558950  0.82291350  0.40612900  1
  O  O43  1  0.01441050  0.82291350  0.09387100  1
  O  O44  1  0.76256450  0.74452650  0.24575500  1
  O  O45  1  0.76256450  0.25547350  0.74575500  1
  O  O46  1  0.01441050  0.17708650  0.59387100  1
  O  O47  1  0.21802650  0.40813350  0.91299900  1
  O  O48  1  0.21802650  0.59186650  0.41299900  1
  O  O49  1  0.75473400  0.59017600  0.40317800  1
  O  O50  1  0.78197350  0.40813350  0.58700100  1
  O  O51  1  0.24526600  0.59017600  0.09682200  1
  O  O52  1  0.23743550  0.74452650  0.25424500  1
  O  O53  1  0.00000000  0.49102500  0.75000000  1
  O  O54  1  0.24526600  0.40982400  0.59682200  1
  O  O55  1  0.75473400  0.40982400  0.90317800  1
  O  O56  1  0.98558950  0.17708650  0.90612900  1
  O  O57  1  0.00000000  0.50897500  0.25000000  1
  O  O58  1  0.23743550  0.25547350  0.75424500  1
  O  O59  1  0.78197350  0.59186650  0.08700100  1
