# generated using pymatgen
data_BaCuTe2O7
_symmetry_space_group_name_H-M   'P 1'
_cell_length_a   7.29755200
_cell_length_b   15.90453400
_cell_length_c   5.56078000
_cell_angle_alpha   90.00000000
_cell_angle_beta   90.00000000
_cell_angle_gamma   90.00000000
_symmetry_Int_Tables_number   1
_chemical_formula_structural   BaCuTe2O7
_chemical_formula_sum   'Ba4 Cu4 Te8 O28'
_cell_volume   645.40728134
_cell_formula_units_Z   4
loop_
 _symmetry_equiv_pos_site_id
 _symmetry_equiv_pos_as_xyz
  1  'x, y, z'
loop_
 _atom_site_type_symbol
 _atom_site_label
 _atom_site_symmetry_multiplicity
 _atom_site_fract_x
 _atom_site_fract_y
 _atom_site_fract_z
 _atom_site_occupancy
  Ba  Ba0  1  0.99274700  0.20952200  0.75000000  1
  Ba  Ba1  1  0.49274700  0.29047800  0.25000000  1
  Ba  Ba2  1  0.49274700  0.70952200  0.75000000  1
  Ba  Ba3  1  0.99274700  0.79047800  0.25000000  1
  Cu  Cu4  1  0.50218850  0.13102850  0.75000000  1
  Cu  Cu5  1  0.00218850  0.36897150  0.25000000  1
  Cu  Cu6  1  0.00218850  0.63102850  0.75000000  1
  Cu  Cu7  1  0.50218850  0.86897150  0.25000000  1
  Te  Te8  1  0.75190450  0.07739050  0.25000000  1
  Te  Te9  1  0.24896250  0.07108750  0.25000000  1
  Te  Te10  1  0.74896250  0.42891250  0.75000000  1
  Te  Te11  1  0.25190450  0.42260950  0.75000000  1
  Te  Te12  1  0.25190450  0.57739050  0.25000000  1
  Te  Te13  1  0.74896250  0.57108750  0.25000000  1
  Te  Te14  1  0.24896250  0.92891250  0.75000000  1
  Te  Te15  1  0.75190450  0.92260950  0.75000000  1
  O  O16  1  0.01777450  0.48121050  0.75000000  1
  O  O17  1  0.68144500  0.15674000  0.00231000  1
  O  O18  1  0.68144500  0.15674000  0.49769000  1
  O  O19  1  0.51777450  0.01878950  0.25000000  1
  O  O20  1  0.86211600  0.00000000  0.50000000  1
  O  O21  1  0.18144500  0.34326000  0.99769000  1
  O  O22  1  0.30393750  0.14477950  0.50836700  1
  O  O23  1  0.30393750  0.14477950  0.99163300  1
  O  O24  1  0.99384150  0.13352450  0.25000000  1
  O  O25  1  0.80393750  0.35522050  0.49163300  1
  O  O26  1  0.80393750  0.35522050  0.00836700  1
  O  O27  1  0.18144500  0.34326000  0.50231000  1
  O  O28  1  0.49384150  0.36647550  0.75000000  1
  O  O29  1  0.86211600  0.00000000  0.00000000  1
  O  O30  1  0.51777450  0.98121050  0.75000000  1
  O  O31  1  0.18144500  0.65674000  0.00231000  1
  O  O32  1  0.18144500  0.65674000  0.49769000  1
  O  O33  1  0.01777450  0.51878950  0.25000000  1
  O  O34  1  0.36211600  0.50000000  0.50000000  1
  O  O35  1  0.68144500  0.84326000  0.99769000  1
  O  O36  1  0.80393750  0.64477950  0.50836700  1
  O  O37  1  0.80393750  0.64477950  0.99163300  1
  O  O38  1  0.49384150  0.63352450  0.25000000  1
  O  O39  1  0.30393750  0.85522050  0.49163300  1
  O  O40  1  0.30393750  0.85522050  0.00836700  1
  O  O41  1  0.68144500  0.84326000  0.50231000  1
  O  O42  1  0.99384150  0.86647550  0.75000000  1
  O  O43  1  0.36211600  0.50000000  0.00000000  1
