# generated using pymatgen
data_EuCd11
_symmetry_space_group_name_H-M   'P 1'
_cell_length_a   12.14642400
_cell_length_b   12.14642400
_cell_length_c   7.82189600
_cell_angle_alpha   90.00000000
_cell_angle_beta   90.00000000
_cell_angle_gamma   90.00000000
_symmetry_Int_Tables_number   1
_chemical_formula_structural   EuCd11
_chemical_formula_sum   'Eu4 Cd44'
_cell_volume   1154.00824455
_cell_formula_units_Z   4
loop_
 _symmetry_equiv_pos_site_id
 _symmetry_equiv_pos_as_xyz
  1  'x, y, z'
loop_
 _atom_site_type_symbol
 _atom_site_label
 _atom_site_symmetry_multiplicity
 _atom_site_fract_x
 _atom_site_fract_y
 _atom_site_fract_z
 _atom_site_occupancy
  Eu  Eu0  1  0.50000000  0.00000000  0.75000000  1
  Eu  Eu1  1  0.00000000  0.00000000  0.50000000  1
  Eu  Eu2  1  0.00000000  0.50000000  0.25000000  1
  Eu  Eu3  1  0.50000000  0.50000000  0.00000000  1
  Cd  Cd4  1  0.29506400  0.11999400  0.45052200  1
  Cd  Cd5  1  0.00000000  0.25000000  0.87500000  1
  Cd  Cd6  1  0.11999400  0.20493600  0.20052200  1
  Cd  Cd7  1  0.29506400  0.88000600  0.45052200  1
  Cd  Cd8  1  0.11999400  0.79506400  0.20052200  1
  Cd  Cd9  1  0.11999400  0.29506400  0.54947800  1
  Cd  Cd10  1  0.11999400  0.70493600  0.54947800  1
  Cd  Cd11  1  0.79506400  0.88000600  0.79947800  1
  Cd  Cd12  1  0.20493600  0.11999400  0.79947800  1
  Cd  Cd13  1  0.00000000  0.00000000  0.00000000  1
  Cd  Cd14  1  0.88000600  0.70493600  0.54947800  1
  Cd  Cd15  1  0.50000000  0.00000000  0.25000000  1
  Cd  Cd16  1  0.25000000  0.00000000  0.12500000  1
  Cd  Cd17  1  0.88000600  0.29506400  0.54947800  1
  Cd  Cd18  1  0.70493600  0.88000600  0.45052200  1
  Cd  Cd19  1  0.20493600  0.88000600  0.79947800  1
  Cd  Cd20  1  0.88000600  0.79506400  0.20052200  1
  Cd  Cd21  1  0.88000600  0.20493600  0.20052200  1
  Cd  Cd22  1  0.79506400  0.11999400  0.79947800  1
  Cd  Cd23  1  0.70493600  0.11999400  0.45052200  1
  Cd  Cd24  1  0.75000000  0.00000000  0.12500000  1
  Cd  Cd25  1  0.00000000  0.75000000  0.87500000  1
  Cd  Cd26  1  0.79506400  0.61999400  0.95052200  1
  Cd  Cd27  1  0.50000000  0.75000000  0.37500000  1
  Cd  Cd28  1  0.61999400  0.70493600  0.70052200  1
  Cd  Cd29  1  0.79506400  0.38000600  0.95052200  1
  Cd  Cd30  1  0.61999400  0.29506400  0.70052200  1
  Cd  Cd31  1  0.61999400  0.79506400  0.04947800  1
  Cd  Cd32  1  0.61999400  0.20493600  0.04947800  1
  Cd  Cd33  1  0.29506400  0.38000600  0.29947800  1
  Cd  Cd34  1  0.70493600  0.61999400  0.29947800  1
  Cd  Cd35  1  0.50000000  0.50000000  0.50000000  1
  Cd  Cd36  1  0.38000600  0.20493600  0.04947800  1
  Cd  Cd37  1  0.00000000  0.50000000  0.75000000  1
  Cd  Cd38  1  0.75000000  0.50000000  0.62500000  1
  Cd  Cd39  1  0.38000600  0.79506400  0.04947800  1
  Cd  Cd40  1  0.20493600  0.38000600  0.95052200  1
  Cd  Cd41  1  0.70493600  0.38000600  0.29947800  1
  Cd  Cd42  1  0.38000600  0.29506400  0.70052200  1
  Cd  Cd43  1  0.38000600  0.70493600  0.70052200  1
  Cd  Cd44  1  0.29506400  0.61999400  0.29947800  1
  Cd  Cd45  1  0.20493600  0.61999400  0.95052200  1
  Cd  Cd46  1  0.25000000  0.50000000  0.62500000  1
  Cd  Cd47  1  0.50000000  0.25000000  0.37500000  1
