# generated using pymatgen
data_MgCrO4
_symmetry_space_group_name_H-M   'P 1'
_cell_length_a   10.06510800
_cell_length_b   9.27676600
_cell_length_c   6.84151131
_cell_angle_alpha   90.00000000
_cell_angle_beta   103.78152587
_cell_angle_gamma   90.00000000
_symmetry_Int_Tables_number   1
_chemical_formula_structural   MgCrO4
_chemical_formula_sum   'Mg8 Cr8 O32'
_cell_volume   620.41279492
_cell_formula_units_Z   8
loop_
 _symmetry_equiv_pos_site_id
 _symmetry_equiv_pos_as_xyz
  1  'x, y, z'
loop_
 _atom_site_type_symbol
 _atom_site_label
 _atom_site_symmetry_multiplicity
 _atom_site_fract_x
 _atom_site_fract_y
 _atom_site_fract_z
 _atom_site_occupancy
  Mg  Mg0  1  0.00000000  0.18189500  0.50000000  1
  Mg  Mg1  1  0.00000000  0.81810500  0.50000000  1
  Mg  Mg2  1  0.29670100  0.50000000  0.13394000  1
  Mg  Mg3  1  0.70329900  0.50000000  0.86606000  1
  Mg  Mg4  1  0.50000000  0.68189500  0.50000000  1
  Mg  Mg5  1  0.50000000  0.31810500  0.50000000  1
  Mg  Mg6  1  0.79670100  0.00000000  0.13394000  1
  Mg  Mg7  1  0.20329900  0.00000000  0.86606000  1
  Cr  Cr8  1  0.00000000  0.25615500  0.00000000  1
  Cr  Cr9  1  0.00000000  0.74384500  0.00000000  1
  Cr  Cr10  1  0.77447300  0.50000000  0.41175400  1
  Cr  Cr11  1  0.22552700  0.50000000  0.58824600  1
  Cr  Cr12  1  0.50000000  0.75615500  0.00000000  1
  Cr  Cr13  1  0.50000000  0.24384500  0.00000000  1
  Cr  Cr14  1  0.27447300  0.00000000  0.41175400  1
  Cr  Cr15  1  0.72552700  0.00000000  0.58824600  1
  O  O16  1  0.35767500  0.50000000  0.46045300  1
  O  O17  1  0.64232500  0.50000000  0.53954700  1
  O  O18  1  0.71186100  0.50000000  0.16755800  1
  O  O19  1  0.28813900  0.50000000  0.83244200  1
  O  O20  1  0.13315450  0.35463150  0.10287400  1
  O  O21  1  0.86684550  0.35463150  0.89712600  1
  O  O22  1  0.86684550  0.64536850  0.89712600  1
  O  O23  1  0.13315450  0.64536850  0.10287400  1
  O  O24  1  0.95557500  0.84322000  0.18370000  1
  O  O25  1  0.04442500  0.84322000  0.81630000  1
  O  O26  1  0.04442500  0.15678000  0.81630000  1
  O  O27  1  0.95557500  0.15678000  0.18370000  1
  O  O28  1  0.86366500  0.64743000  0.47656800  1
  O  O29  1  0.13633500  0.64743000  0.52343200  1
  O  O30  1  0.13633500  0.35257000  0.52343200  1
  O  O31  1  0.86366500  0.35257000  0.47656800  1
  O  O32  1  0.85767500  0.00000000  0.46045300  1
  O  O33  1  0.14232500  0.00000000  0.53954700  1
  O  O34  1  0.21186100  0.00000000  0.16755800  1
  O  O35  1  0.78813900  0.00000000  0.83244200  1
  O  O36  1  0.63315450  0.85463150  0.10287400  1
  O  O37  1  0.36684550  0.85463150  0.89712600  1
  O  O38  1  0.36684550  0.14536850  0.89712600  1
  O  O39  1  0.63315450  0.14536850  0.10287400  1
  O  O40  1  0.45557500  0.34322000  0.18370000  1
  O  O41  1  0.54442500  0.34322000  0.81630000  1
  O  O42  1  0.54442500  0.65678000  0.81630000  1
  O  O43  1  0.45557500  0.65678000  0.18370000  1
  O  O44  1  0.36366500  0.14743000  0.47656800  1
  O  O45  1  0.63633500  0.14743000  0.52343200  1
  O  O46  1  0.63633500  0.85257000  0.52343200  1
  O  O47  1  0.36366500  0.85257000  0.47656800  1
