# generated using pymatgen
data_U6Mn
_symmetry_space_group_name_H-M   'P 1'
_cell_length_a   10.12848000
_cell_length_b   10.12848000
_cell_length_c   5.30088600
_cell_angle_alpha   90.00000000
_cell_angle_beta   90.00000000
_cell_angle_gamma   90.00000000
_symmetry_Int_Tables_number   1
_chemical_formula_structural   U6Mn
_chemical_formula_sum   'U24 Mn4'
_cell_volume   543.79725898
_cell_formula_units_Z   4
loop_
 _symmetry_equiv_pos_site_id
 _symmetry_equiv_pos_as_xyz
  1  'x, y, z'
loop_
 _atom_site_type_symbol
 _atom_site_label
 _atom_site_symmetry_multiplicity
 _atom_site_fract_x
 _atom_site_fract_y
 _atom_site_fract_z
 _atom_site_occupancy
  U  U0  1  0.40687650  0.90687650  0.00000000  1
  U  U1  1  0.59312350  0.09312350  0.00000000  1
  U  U2  1  0.59312350  0.90687650  0.50000000  1
  U  U3  1  0.40687650  0.09312350  0.50000000  1
  U  U4  1  0.59785300  0.71872800  0.00000000  1
  U  U5  1  0.40214700  0.28127200  0.00000000  1
  U  U6  1  0.40214700  0.71872800  0.50000000  1
  U  U7  1  0.59785300  0.28127200  0.50000000  1
  U  U8  1  0.21872800  0.90214700  0.50000000  1
  U  U9  1  0.78127200  0.09785300  0.50000000  1
  U  U10  1  0.21872800  0.09785300  0.00000000  1
  U  U11  1  0.78127200  0.90214700  0.00000000  1
  U  U12  1  0.90687650  0.40687650  0.50000000  1
  U  U13  1  0.09312350  0.59312350  0.50000000  1
  U  U14  1  0.09312350  0.40687650  0.00000000  1
  U  U15  1  0.90687650  0.59312350  0.00000000  1
  U  U16  1  0.09785300  0.21872800  0.50000000  1
  U  U17  1  0.90214700  0.78127200  0.50000000  1
  U  U18  1  0.90214700  0.21872800  0.00000000  1
  U  U19  1  0.09785300  0.78127200  0.00000000  1
  U  U20  1  0.71872800  0.40214700  0.00000000  1
  U  U21  1  0.28127200  0.59785300  0.00000000  1
  U  U22  1  0.71872800  0.59785300  0.50000000  1
  U  U23  1  0.28127200  0.40214700  0.50000000  1
  Mn  Mn24  1  0.00000000  0.00000000  0.25000000  1
  Mn  Mn25  1  0.00000000  0.00000000  0.75000000  1
  Mn  Mn26  1  0.50000000  0.50000000  0.75000000  1
  Mn  Mn27  1  0.50000000  0.50000000  0.25000000  1
