# generated using pymatgen
data_CaV2(PO5)2
_symmetry_space_group_name_H-M   'P 1'
_cell_length_a   7.30700200
_cell_length_b   11.77612400
_cell_length_c   16.06820800
_cell_angle_alpha   90.00000000
_cell_angle_beta   90.00000000
_cell_angle_gamma   90.00000000
_symmetry_Int_Tables_number   1
_chemical_formula_structural   CaV2(PO5)2
_chemical_formula_sum   'Ca8 V16 P16 O80'
_cell_volume   1382.63975893
_cell_formula_units_Z   8
loop_
 _symmetry_equiv_pos_site_id
 _symmetry_equiv_pos_as_xyz
  1  'x, y, z'
loop_
 _atom_site_type_symbol
 _atom_site_label
 _atom_site_symmetry_multiplicity
 _atom_site_fract_x
 _atom_site_fract_y
 _atom_site_fract_z
 _atom_site_occupancy
  Ca  Ca0  1  0.49924200  0.25000000  0.75000000  1
  Ca  Ca1  1  0.24924200  0.00000000  0.50000000  1
  Ca  Ca2  1  0.99924200  0.25000000  0.25000000  1
  Ca  Ca3  1  0.74924200  0.00000000  0.00000000  1
  Ca  Ca4  1  0.99924200  0.75000000  0.75000000  1
  Ca  Ca5  1  0.74924200  0.50000000  0.50000000  1
  Ca  Ca6  1  0.49924200  0.75000000  0.25000000  1
  Ca  Ca7  1  0.24924200  0.50000000  0.00000000  1
  V  V8  1  0.88946200  0.13589300  0.63011700  1
  V  V9  1  0.38946200  0.86410700  0.86988300  1
  V  V10  1  0.13946200  0.38589300  0.61988300  1
  V  V11  1  0.13946200  0.11410700  0.88011700  1
  V  V12  1  0.38946200  0.13589300  0.13011700  1
  V  V13  1  0.88946200  0.86410700  0.36988300  1
  V  V14  1  0.63946200  0.38589300  0.11988300  1
  V  V15  1  0.63946200  0.11410700  0.38011700  1
  V  V16  1  0.38946200  0.63589300  0.63011700  1
  V  V17  1  0.88946200  0.36410700  0.86988300  1
  V  V18  1  0.63946200  0.88589300  0.61988300  1
  V  V19  1  0.63946200  0.61410700  0.88011700  1
  V  V20  1  0.88946200  0.63589300  0.13011700  1
  V  V21  1  0.38946200  0.36410700  0.36988300  1
  V  V22  1  0.13946200  0.88589300  0.11988300  1
  V  V23  1  0.13946200  0.61410700  0.38011700  1
  P  P24  1  0.75401300  0.00039700  0.79221400  1
  P  P25  1  0.50401300  0.25039700  0.95778600  1
  P  P26  1  0.25401300  0.99960300  0.70778600  1
  P  P27  1  0.00401300  0.74960300  0.54221400  1
  P  P28  1  0.25401300  0.00039700  0.29221400  1
  P  P29  1  0.00401300  0.25039700  0.45778600  1
  P  P30  1  0.75401300  0.99960300  0.20778600  1
  P  P31  1  0.50401300  0.74960300  0.04221400  1
  P  P32  1  0.25401300  0.50039700  0.79221400  1
  P  P33  1  0.00401300  0.75039700  0.95778600  1
  P  P34  1  0.75401300  0.49960300  0.70778600  1
  P  P35  1  0.50401300  0.24960300  0.54221400  1
  P  P36  1  0.75401300  0.50039700  0.29221400  1
  P  P37  1  0.50401300  0.75039700  0.45778600  1
  P  P38  1  0.25401300  0.49960300  0.20778600  1
  P  P39  1  0.00401300  0.24960300  0.04221400  1
  O  O40  1  0.08469650  0.01404300  0.65081650  1
  O  O41  1  0.25620650  0.99904500  0.91543450  1
  O  O42  1  0.52305250  0.85487100  0.98425850  1
  O  O43  1  0.33469650  0.23595700  0.90081650  1
  O  O44  1  0.41904500  0.98767500  0.64826100  1
  O  O45  1  0.23600350  0.89207700  0.76373950  1
  O  O46  1  0.50620650  0.74904500  0.83456550  1
  O  O47  1  0.75620650  0.00095500  0.58456550  1
  O  O48  1  0.00620650  0.25095500  0.66543450  1
  O  O49  1  0.16904500  0.73767500  0.60173900  1
  O  O50  1  0.58469650  0.98595700  0.84918350  1
  O  O51  1  0.16904500  0.76232500  0.89826100  1
  O  O52  1  0.91904500  0.01232500  0.85173900  1
  O  O53  1  0.48600350  0.64207700  0.98626050  1
  O  O54  1  0.23600350  0.60792300  0.73626050  1
  O  O55  1  0.98600350  0.35792300  0.51373950  1
  O  O56  1  0.27305250  0.39512900  0.73425850  1
  O  O57  1  0.02305250  0.14512900  0.51574150  1
  O  O58  1  0.33469650  0.26404300  0.59918350  1
  O  O59  1  0.27305250  0.10487100  0.76574150  1
  O  O60  1  0.58469650  0.01404300  0.15081650  1
  O  O61  1  0.75620650  0.99904500  0.41543450  1
  O  O62  1  0.02305250  0.85487100  0.48425850  1
  O  O63  1  0.83469650  0.23595700  0.40081650  1
  O  O64  1  0.91904500  0.98767500  0.14826100  1
  O  O65  1  0.73600350  0.89207700  0.26373950  1
  O  O66  1  0.00620650  0.74904500  0.33456550  1
  O  O67  1  0.25620650  0.00095500  0.08456550  1
  O  O68  1  0.50620650  0.25095500  0.16543450  1
  O  O69  1  0.66904500  0.73767500  0.10173900  1
  O  O70  1  0.08469650  0.98595700  0.34918350  1
  O  O71  1  0.66904500  0.76232500  0.39826100  1
  O  O72  1  0.41904500  0.01232500  0.35173900  1
  O  O73  1  0.98600350  0.64207700  0.48626050  1
  O  O74  1  0.73600350  0.60792300  0.23626050  1
  O  O75  1  0.48600350  0.35792300  0.01373950  1
  O  O76  1  0.77305250  0.39512900  0.23425850  1
  O  O77  1  0.52305250  0.14512900  0.01574150  1
  O  O78  1  0.83469650  0.26404300  0.09918350  1
  O  O79  1  0.77305250  0.10487100  0.26574150  1
  O  O80  1  0.58469650  0.51404300  0.65081650  1
  O  O81  1  0.75620650  0.49904500  0.91543450  1
  O  O82  1  0.02305250  0.35487100  0.98425850  1
  O  O83  1  0.83469650  0.73595700  0.90081650  1
  O  O84  1  0.91904500  0.48767500  0.64826100  1
  O  O85  1  0.73600350  0.39207700  0.76373950  1
  O  O86  1  0.00620650  0.24904500  0.83456550  1
  O  O87  1  0.25620650  0.50095500  0.58456550  1
  O  O88  1  0.50620650  0.75095500  0.66543450  1
  O  O89  1  0.66904500  0.23767500  0.60173900  1
  O  O90  1  0.08469650  0.48595700  0.84918350  1
  O  O91  1  0.66904500  0.26232500  0.89826100  1
  O  O92  1  0.41904500  0.51232500  0.85173900  1
  O  O93  1  0.98600350  0.14207700  0.98626050  1
  O  O94  1  0.73600350  0.10792300  0.73626050  1
  O  O95  1  0.48600350  0.85792300  0.51373950  1
  O  O96  1  0.77305250  0.89512900  0.73425850  1
  O  O97  1  0.52305250  0.64512900  0.51574150  1
  O  O98  1  0.83469650  0.76404300  0.59918350  1
  O  O99  1  0.77305250  0.60487100  0.76574150  1
  O  O100  1  0.08469650  0.51404300  0.15081650  1
  O  O101  1  0.25620650  0.49904500  0.41543450  1
  O  O102  1  0.52305250  0.35487100  0.48425850  1
  O  O103  1  0.33469650  0.73595700  0.40081650  1
  O  O104  1  0.41904500  0.48767500  0.14826100  1
  O  O105  1  0.23600350  0.39207700  0.26373950  1
  O  O106  1  0.50620650  0.24904500  0.33456550  1
  O  O107  1  0.75620650  0.50095500  0.08456550  1
  O  O108  1  0.00620650  0.75095500  0.16543450  1
  O  O109  1  0.16904500  0.23767500  0.10173900  1
  O  O110  1  0.58469650  0.48595700  0.34918350  1
  O  O111  1  0.16904500  0.26232500  0.39826100  1
  O  O112  1  0.91904500  0.51232500  0.35173900  1
  O  O113  1  0.48600350  0.14207700  0.48626050  1
  O  O114  1  0.23600350  0.10792300  0.23626050  1
  O  O115  1  0.98600350  0.85792300  0.01373950  1
  O  O116  1  0.27305250  0.89512900  0.23425850  1
  O  O117  1  0.02305250  0.64512900  0.01574150  1
  O  O118  1  0.33469650  0.76404300  0.09918350  1
  O  O119  1  0.27305250  0.60487100  0.26574150  1
