# generated using pymatgen
data_La2C2Cl
_symmetry_space_group_name_H-M   'P 1'
_cell_length_a   15.05691800
_cell_length_b   4.23726200
_cell_length_c   6.77877636
_cell_angle_alpha   90.00000000
_cell_angle_beta   101.44064080
_cell_angle_gamma   90.00000000
_symmetry_Int_Tables_number   1
_chemical_formula_structural   La2C2Cl
_chemical_formula_sum   'La8 C8 Cl4'
_cell_volume   423.89345805
_cell_formula_units_Z   4
loop_
 _symmetry_equiv_pos_site_id
 _symmetry_equiv_pos_as_xyz
  1  'x, y, z'
loop_
 _atom_site_type_symbol
 _atom_site_label
 _atom_site_symmetry_multiplicity
 _atom_site_fract_x
 _atom_site_fract_y
 _atom_site_fract_z
 _atom_site_occupancy
  La  La0  1  0.64929450  0.80158550  0.15140300  1
  La  La1  1  0.64929450  0.19841450  0.65140300  1
  La  La2  1  0.85070550  0.69841450  0.84859700  1
  La  La3  1  0.85070550  0.30158550  0.34859700  1
  La  La4  1  0.14929450  0.30158550  0.15140300  1
  La  La5  1  0.14929450  0.69841450  0.65140300  1
  La  La6  1  0.35070550  0.19841450  0.84859700  1
  La  La7  1  0.35070550  0.80158550  0.34859700  1
  C  C8  1  0.77728850  0.86408250  0.47332000  1
  C  C9  1  0.72271150  0.36408250  0.02668000  1
  C  C10  1  0.72271150  0.63591750  0.52668000  1
  C  C11  1  0.77728850  0.13591750  0.97332000  1
  C  C12  1  0.27728850  0.36408250  0.47332000  1
  C  C13  1  0.22271150  0.86408250  0.02668000  1
  C  C14  1  0.22271150  0.13591750  0.52668000  1
  C  C15  1  0.27728850  0.63591750  0.97332000  1
  Cl  Cl16  1  0.00000000  0.21324500  0.75000000  1
  Cl  Cl17  1  0.00000000  0.78675500  0.25000000  1
  Cl  Cl18  1  0.50000000  0.71324500  0.75000000  1
  Cl  Cl19  1  0.50000000  0.28675500  0.25000000  1
