# generated using pymatgen
data_Sc7BCl12
_symmetry_space_group_name_H-M   'P 1'
_cell_length_a   13.18543594
_cell_length_b   13.18543594
_cell_length_c   8.95499695
_cell_angle_alpha   90.00000000
_cell_angle_beta   90.00000000
_cell_angle_gamma   120.00000000
_symmetry_Int_Tables_number   1
_chemical_formula_structural   Sc7BCl12
_chemical_formula_sum   'Sc21 B3 Cl36'
_cell_volume   1348.29542204
_cell_formula_units_Z   3
loop_
 _symmetry_equiv_pos_site_id
 _symmetry_equiv_pos_as_xyz
  1  'x, y, z'
loop_
 _atom_site_type_symbol
 _atom_site_label
 _atom_site_symmetry_multiplicity
 _atom_site_fract_x
 _atom_site_fract_y
 _atom_site_fract_z
 _atom_site_occupancy
  Sc  Sc0  1  0.00000000  0.00000000  0.50000000  1
  Sc  Sc1  1  0.16312900  0.11864100  0.14806800  1
  Sc  Sc2  1  0.95551200  0.83687100  0.14806800  1
  Sc  Sc3  1  0.88135900  0.04448800  0.14806800  1
  Sc  Sc4  1  0.83687100  0.88135900  0.85193200  1
  Sc  Sc5  1  0.04448800  0.16312900  0.85193200  1
  Sc  Sc6  1  0.11864100  0.95551200  0.85193200  1
  Sc  Sc7  1  0.66666667  0.33333333  0.83333333  1
  Sc  Sc8  1  0.82979567  0.45197433  0.48140133  1
  Sc  Sc9  1  0.62217867  0.17020433  0.48140133  1
  Sc  Sc10  1  0.54802567  0.37782133  0.48140133  1
  Sc  Sc11  1  0.50353767  0.21469233  0.18526533  1
  Sc  Sc12  1  0.71115467  0.49646233  0.18526533  1
  Sc  Sc13  1  0.78530767  0.28884533  0.18526533  1
  Sc  Sc14  1  0.33333333  0.66666667  0.16666667  1
  Sc  Sc15  1  0.49646233  0.78530767  0.81473467  1
  Sc  Sc16  1  0.28884533  0.50353767  0.81473467  1
  Sc  Sc17  1  0.21469233  0.71115467  0.81473467  1
  Sc  Sc18  1  0.17020433  0.54802567  0.51859867  1
  Sc  Sc19  1  0.37782133  0.82979567  0.51859867  1
  Sc  Sc20  1  0.45197433  0.62217867  0.51859867  1
  B  B21  1  0.00000000  0.00000000  0.00000000  1
  B  B22  1  0.66666667  0.33333333  0.33333333  1
  B  B23  1  0.33333333  0.66666667  0.66666667  1
  Cl  Cl24  1  0.64196567  0.74711133  0.67200233  1
  Cl  Cl25  1  0.10514567  0.35803433  0.67200233  1
  Cl  Cl26  1  0.25288867  0.89485433  0.67200233  1
  Cl  Cl27  1  0.35803433  0.25288867  0.32799767  1
  Cl  Cl28  1  0.89485433  0.64196567  0.32799767  1
  Cl  Cl29  1  0.74711133  0.10514567  0.32799767  1
  Cl  Cl30  1  0.12757700  0.95081300  0.33428300  1
  Cl  Cl31  1  0.82323600  0.87242300  0.33428300  1
  Cl  Cl32  1  0.04918700  0.17676400  0.33428300  1
  Cl  Cl33  1  0.87242300  0.04918700  0.66571700  1
  Cl  Cl34  1  0.17676400  0.12757700  0.66571700  1
  Cl  Cl35  1  0.95081300  0.82323600  0.66571700  1
  Cl  Cl36  1  0.30863233  0.08044467  0.00533567  1
  Cl  Cl37  1  0.77181233  0.69136767  0.00533567  1
  Cl  Cl38  1  0.91955533  0.22818767  0.00533567  1
  Cl  Cl39  1  0.02470100  0.58622200  0.66133100  1
  Cl  Cl40  1  0.56152100  0.97529900  0.66133100  1
  Cl  Cl41  1  0.41377800  0.43847900  0.66133100  1
  Cl  Cl42  1  0.79424367  0.28414633  0.66761633  1
  Cl  Cl43  1  0.48990267  0.20575633  0.66761633  1
  Cl  Cl44  1  0.71585367  0.51009733  0.66761633  1
  Cl  Cl45  1  0.53908967  0.38252033  0.99905033  1
  Cl  Cl46  1  0.84343067  0.46091033  0.99905033  1
  Cl  Cl47  1  0.61747967  0.15656933  0.99905033  1
  Cl  Cl48  1  0.97529900  0.41377800  0.33866900  1
  Cl  Cl49  1  0.43847900  0.02470100  0.33866900  1
  Cl  Cl50  1  0.58622200  0.56152100  0.33866900  1
  Cl  Cl51  1  0.69136767  0.91955533  0.99466433  1
  Cl  Cl52  1  0.22818767  0.30863233  0.99466433  1
  Cl  Cl53  1  0.08044467  0.77181233  0.99466433  1
  Cl  Cl54  1  0.46091033  0.61747967  0.00094967  1
  Cl  Cl55  1  0.15656933  0.53908967  0.00094967  1
  Cl  Cl56  1  0.38252033  0.84343067  0.00094967  1
  Cl  Cl57  1  0.20575633  0.71585367  0.33238367  1
  Cl  Cl58  1  0.51009733  0.79424367  0.33238367  1
  Cl  Cl59  1  0.28414633  0.48990267  0.33238367  1
