# generated using pymatgen
data_BaMo2(PO4)3
_symmetry_space_group_name_H-M   'P 1'
_cell_length_a   8.76173634
_cell_length_b   8.76173634
_cell_length_c   24.23501141
_cell_angle_alpha   90.00000000
_cell_angle_beta   90.00000000
_cell_angle_gamma   120.00000000
_symmetry_Int_Tables_number   1
_chemical_formula_structural   BaMo2(PO4)3
_chemical_formula_sum   'Ba6 Mo12 P18 O72'
_cell_volume   1611.21768554
_cell_formula_units_Z   6
loop_
 _symmetry_equiv_pos_site_id
 _symmetry_equiv_pos_as_xyz
  1  'x, y, z'
loop_
 _atom_site_type_symbol
 _atom_site_label
 _atom_site_symmetry_multiplicity
 _atom_site_fract_x
 _atom_site_fract_y
 _atom_site_fract_z
 _atom_site_occupancy
  Ba  Ba0  1  0.33333333  0.66666667  0.16666667  1
  Ba  Ba1  1  0.00000000  0.00000000  0.00000000  1
  Ba  Ba2  1  1.00000000  0.00000000  0.50000000  1
  Ba  Ba3  1  0.66666667  0.33333333  0.33333333  1
  Ba  Ba4  1  0.66666667  0.33333333  0.83333333  1
  Ba  Ba5  1  0.33333333  0.66666667  0.66666667  1
  Mo  Mo6  1  0.33333333  0.66666667  0.01591567  1
  Mo  Mo7  1  0.00000000  0.00000000  0.15075100  1
  Mo  Mo8  1  0.33333333  0.66666667  0.31741767  1
  Mo  Mo9  1  0.66666667  0.33333333  0.18258233  1
  Mo  Mo10  1  0.00000000  0.00000000  0.34924900  1
  Mo  Mo11  1  0.66666667  0.33333333  0.48408433  1
  Mo  Mo12  1  0.00000000  0.00000000  0.65075100  1
  Mo  Mo13  1  0.33333333  0.66666667  0.51591567  1
  Mo  Mo14  1  0.66666667  0.33333333  0.68258233  1
  Mo  Mo15  1  0.33333333  0.66666667  0.81741767  1
  Mo  Mo16  1  0.66666667  0.33333333  0.98408433  1
  Mo  Mo17  1  0.00000000  0.00000000  0.84924900  1
  P  P18  1  0.71247900  0.00000000  0.25000000  1
  P  P19  1  0.00000000  0.71247900  0.25000000  1
  P  P20  1  0.28752100  0.28752100  0.25000000  1
  P  P21  1  0.95418767  0.33333333  0.08333333  1
  P  P22  1  0.66666667  0.62085433  0.08333333  1
  P  P23  1  0.37914567  0.04581233  0.08333333  1
  P  P24  1  0.37914567  0.33333333  0.58333333  1
  P  P25  1  0.66666667  0.04581233  0.58333333  1
  P  P26  1  0.95418767  0.62085433  0.58333333  1
  P  P27  1  0.62085433  0.66666667  0.41666667  1
  P  P28  1  0.33333333  0.95418767  0.41666667  1
  P  P29  1  0.04581233  0.37914567  0.41666667  1
  P  P30  1  0.04581233  0.66666667  0.91666667  1
  P  P31  1  0.33333333  0.37914567  0.91666667  1
  P  P32  1  0.62085433  0.95418767  0.91666667  1
  P  P33  1  0.28752100  0.00000000  0.75000000  1
  P  P34  1  0.00000000  0.28752100  0.75000000  1
  P  P35  1  0.71247900  0.71247900  0.75000000  1
  O  O36  1  0.95404600  0.78272000  0.30189500  1
  O  O37  1  0.21728000  0.17132600  0.30189500  1
  O  O38  1  0.82867400  0.04595400  0.30189500  1
  O  O39  1  0.17132600  0.21728000  0.19810500  1
  O  O40  1  0.78272000  0.95404600  0.19810500  1
  O  O41  1  0.04595400  0.82867400  0.19810500  1
  O  O42  1  0.71262067  0.55061333  0.03143833  1
  O  O43  1  0.44938667  0.16200733  0.03143833  1
  O  O44  1  0.83799267  0.28737933  0.03143833  1
  O  O45  1  0.49534067  0.11605333  0.13522833  1
  O  O46  1  0.88394667  0.37928733  0.13522833  1
  O  O47  1  0.62071267  0.50465933  0.13522833  1
  O  O48  1  0.13840433  0.49611167  0.07272867  1
  O  O49  1  0.50388833  0.64229267  0.07272867  1
  O  O50  1  0.35770733  0.86159567  0.07272867  1
  O  O51  1  0.97562600  0.17055500  0.09393800  1
  O  O52  1  0.82944500  0.80507100  0.09393800  1
  O  O53  1  0.19492900  0.02437400  0.09393800  1
  O  O54  1  0.52826233  0.83722167  0.26060467  1
  O  O55  1  0.16277833  0.69104067  0.26060467  1
  O  O56  1  0.30895933  0.47173767  0.26060467  1
  O  O57  1  0.69104067  0.16277833  0.23939533  1
  O  O58  1  0.83722167  0.52826233  0.23939533  1
  O  O59  1  0.47173767  0.30895933  0.23939533  1
  O  O60  1  0.62071267  0.11605333  0.63522833  1
  O  O61  1  0.88394667  0.50465933  0.63522833  1
  O  O62  1  0.49534067  0.37928733  0.63522833  1
  O  O63  1  0.83799267  0.55061333  0.53143833  1
  O  O64  1  0.44938667  0.28737933  0.53143833  1
  O  O65  1  0.71262067  0.16200733  0.53143833  1
  O  O66  1  0.37928733  0.88394667  0.36477167  1
  O  O67  1  0.11605333  0.49534067  0.36477167  1
  O  O68  1  0.50465933  0.62071267  0.36477167  1
  O  O69  1  0.16200733  0.44938667  0.46856167  1
  O  O70  1  0.55061333  0.71262067  0.46856167  1
  O  O71  1  0.28737933  0.83799267  0.46856167  1
  O  O72  1  0.80507100  0.82944500  0.40606200  1
  O  O73  1  0.17055500  0.97562600  0.40606200  1
  O  O74  1  0.02437400  0.19492900  0.40606200  1
  O  O75  1  0.64229267  0.50388833  0.42727133  1
  O  O76  1  0.49611167  0.13840433  0.42727133  1
  O  O77  1  0.86159567  0.35770733  0.42727133  1
  O  O78  1  0.19492900  0.17055500  0.59393800  1
  O  O79  1  0.82944500  0.02437400  0.59393800  1
  O  O80  1  0.97562600  0.80507100  0.59393800  1
  O  O81  1  0.35770733  0.49611167  0.57272867  1
  O  O82  1  0.50388833  0.86159567  0.57272867  1
  O  O83  1  0.13840433  0.64229267  0.57272867  1
  O  O84  1  0.28737933  0.44938667  0.96856167  1
  O  O85  1  0.55061333  0.83799267  0.96856167  1
  O  O86  1  0.16200733  0.71262067  0.96856167  1
  O  O87  1  0.50465933  0.88394667  0.86477167  1
  O  O88  1  0.11605333  0.62071267  0.86477167  1
  O  O89  1  0.37928733  0.49534067  0.86477167  1
  O  O90  1  0.04595400  0.21728000  0.69810500  1
  O  O91  1  0.78272000  0.82867400  0.69810500  1
  O  O92  1  0.17132600  0.95404600  0.69810500  1
  O  O93  1  0.82867400  0.78272000  0.80189500  1
  O  O94  1  0.21728000  0.04595400  0.80189500  1
  O  O95  1  0.95404600  0.17132600  0.80189500  1
  O  O96  1  0.47173767  0.16277833  0.73939533  1
  O  O97  1  0.83722167  0.30895933  0.73939533  1
  O  O98  1  0.69104067  0.52826233  0.73939533  1
  O  O99  1  0.30895933  0.83722167  0.76060467  1
  O  O100  1  0.16277833  0.47173767  0.76060467  1
  O  O101  1  0.52826233  0.69104067  0.76060467  1
  O  O102  1  0.86159567  0.50388833  0.92727133  1
  O  O103  1  0.49611167  0.35770733  0.92727133  1
  O  O104  1  0.64229267  0.13840433  0.92727133  1
  O  O105  1  0.02437400  0.82944500  0.90606200  1
  O  O106  1  0.17055500  0.19492900  0.90606200  1
  O  O107  1  0.80507100  0.97562600  0.90606200  1
