# generated using pymatgen
data_SiAg6SO8
_symmetry_space_group_name_H-M   'P 1'
_cell_length_a   7.05278600
_cell_length_b   7.05278600
_cell_length_c   18.31363000
_cell_angle_alpha   90.00000000
_cell_angle_beta   90.00000000
_cell_angle_gamma   90.00000000
_symmetry_Int_Tables_number   1
_chemical_formula_structural   SiAg6SO8
_chemical_formula_sum   'Si4 Ag24 S4 O32'
_cell_volume   910.95274422
_cell_formula_units_Z   4
loop_
 _symmetry_equiv_pos_site_id
 _symmetry_equiv_pos_as_xyz
  1  'x, y, z'
loop_
 _atom_site_type_symbol
 _atom_site_label
 _atom_site_symmetry_multiplicity
 _atom_site_fract_x
 _atom_site_fract_y
 _atom_site_fract_z
 _atom_site_occupancy
  Si  Si0  1  0.00000000  0.00000000  0.00000000  1
  Si  Si1  1  0.00000000  0.50000000  0.25000000  1
  Si  Si2  1  0.50000000  0.50000000  0.50000000  1
  Si  Si3  1  0.50000000  0.00000000  0.75000000  1
  Ag  Ag4  1  0.75000000  0.70545900  0.37500000  1
  Ag  Ag5  1  0.75000000  0.29454100  0.37500000  1
  Ag  Ag6  1  0.79454100  0.25000000  0.12500000  1
  Ag  Ag7  1  0.00000000  0.00000000  0.23611100  1
  Ag  Ag8  1  0.25000000  0.29454100  0.37500000  1
  Ag  Ag9  1  0.00000000  0.50000000  0.48611100  1
  Ag  Ag10  1  0.00000000  0.50000000  0.01388900  1
  Ag  Ag11  1  0.20545900  0.25000000  0.12500000  1
  Ag  Ag12  1  0.50000000  0.50000000  0.26388900  1
  Ag  Ag13  1  0.79454100  0.75000000  0.12500000  1
  Ag  Ag14  1  0.20545900  0.75000000  0.12500000  1
  Ag  Ag15  1  0.25000000  0.70545900  0.37500000  1
  Ag  Ag16  1  0.25000000  0.20545900  0.87500000  1
  Ag  Ag17  1  0.25000000  0.79454100  0.87500000  1
  Ag  Ag18  1  0.29454100  0.75000000  0.62500000  1
  Ag  Ag19  1  0.50000000  0.50000000  0.73611100  1
  Ag  Ag20  1  0.75000000  0.79454100  0.87500000  1
  Ag  Ag21  1  0.50000000  0.00000000  0.98611100  1
  Ag  Ag22  1  0.50000000  0.00000000  0.51388900  1
  Ag  Ag23  1  0.70545900  0.75000000  0.62500000  1
  Ag  Ag24  1  0.00000000  0.00000000  0.76388900  1
  Ag  Ag25  1  0.29454100  0.25000000  0.62500000  1
  Ag  Ag26  1  0.70545900  0.25000000  0.62500000  1
  Ag  Ag27  1  0.75000000  0.20545900  0.87500000  1
  S  S28  1  0.50000000  0.00000000  0.25000000  1
  S  S29  1  0.50000000  0.50000000  0.00000000  1
  S  S30  1  0.00000000  0.50000000  0.75000000  1
  S  S31  1  0.00000000  0.00000000  0.50000000  1
  O  O32  1  0.32649600  0.00000000  0.29728900  1
  O  O33  1  0.67350400  0.00000000  0.29728900  1
  O  O34  1  0.17350400  0.00000000  0.45271100  1
  O  O35  1  0.80529100  0.50000000  0.19874400  1
  O  O36  1  0.00000000  0.69470900  0.30125600  1
  O  O37  1  0.50000000  0.69470900  0.44874400  1
  O  O38  1  0.50000000  0.30529100  0.44874400  1
  O  O39  1  0.00000000  0.30529100  0.30125600  1
  O  O40  1  0.80529100  0.00000000  0.05125600  1
  O  O41  1  0.50000000  0.67350400  0.04728900  1
  O  O42  1  0.19470900  0.50000000  0.19874400  1
  O  O43  1  0.50000000  0.17350400  0.20271100  1
  O  O44  1  0.19470900  0.00000000  0.05125600  1
  O  O45  1  0.50000000  0.82649600  0.20271100  1
  O  O46  1  0.50000000  0.32649600  0.04728900  1
  O  O47  1  0.82649600  0.00000000  0.45271100  1
  O  O48  1  0.82649600  0.50000000  0.79728900  1
  O  O49  1  0.17350400  0.50000000  0.79728900  1
  O  O50  1  0.67350400  0.50000000  0.95271100  1
  O  O51  1  0.30529100  0.00000000  0.69874400  1
  O  O52  1  0.50000000  0.19470900  0.80125600  1
  O  O53  1  0.00000000  0.19470900  0.94874400  1
  O  O54  1  0.00000000  0.80529100  0.94874400  1
  O  O55  1  0.50000000  0.80529100  0.80125600  1
  O  O56  1  0.30529100  0.50000000  0.55125600  1
  O  O57  1  0.00000000  0.17350400  0.54728900  1
  O  O58  1  0.69470900  0.00000000  0.69874400  1
  O  O59  1  0.00000000  0.67350400  0.70271100  1
  O  O60  1  0.69470900  0.50000000  0.55125600  1
  O  O61  1  0.00000000  0.32649600  0.70271100  1
  O  O62  1  0.00000000  0.82649600  0.54728900  1
  O  O63  1  0.32649600  0.50000000  0.95271100  1
