# generated using pymatgen
data_FeSnF6
_symmetry_space_group_name_H-M   'P 1'
_cell_length_a   5.48392023
_cell_length_b   5.48392023
_cell_length_c   13.96987537
_cell_angle_alpha   90.00000000
_cell_angle_beta   90.00000000
_cell_angle_gamma   120.00000000
_symmetry_Int_Tables_number   1
_chemical_formula_structural   FeSnF6
_chemical_formula_sum   'Fe3 Sn3 F18'
_cell_volume   363.83579294
_cell_formula_units_Z   3
loop_
 _symmetry_equiv_pos_site_id
 _symmetry_equiv_pos_as_xyz
  1  'x, y, z'
loop_
 _atom_site_type_symbol
 _atom_site_label
 _atom_site_symmetry_multiplicity
 _atom_site_fract_x
 _atom_site_fract_y
 _atom_site_fract_z
 _atom_site_occupancy
  Fe  Fe0  1  0.33333333  0.66666667  0.16666667  1
  Fe  Fe1  1  1.00000000  0.00000000  0.50000000  1
  Fe  Fe2  1  0.66666667  0.33333333  0.83333333  1
  Sn  Sn3  1  0.00000000  0.00000000  0.00000000  1
  Sn  Sn4  1  0.66666667  0.33333333  0.33333333  1
  Sn  Sn5  1  0.33333333  0.66666667  0.66666667  1
  F  F6  1  0.61235733  0.60065567  0.25053367  1
  F  F7  1  0.39934433  0.01170167  0.25053367  1
  F  F8  1  0.98829833  0.38764267  0.25053367  1
  F  F9  1  0.26732233  0.32163167  0.08279967  1
  F  F10  1  0.05430933  0.73267767  0.08279967  1
  F  F11  1  0.67836833  0.94569067  0.08279967  1
  F  F12  1  0.27902400  0.93398900  0.58386700  1
  F  F13  1  0.06601100  0.34503500  0.58386700  1
  F  F14  1  0.65496500  0.72097600  0.58386700  1
  F  F15  1  0.93398900  0.65496500  0.41613300  1
  F  F16  1  0.72097600  0.06601100  0.41613300  1
  F  F17  1  0.34503500  0.27902400  0.41613300  1
  F  F18  1  0.94569067  0.26732233  0.91720033  1
  F  F19  1  0.73267767  0.67836833  0.91720033  1
  F  F20  1  0.32163167  0.05430933  0.91720033  1
  F  F21  1  0.60065567  0.98829833  0.74946633  1
  F  F22  1  0.38764267  0.39934433  0.74946633  1
  F  F23  1  0.01170167  0.61235733  0.74946633  1
