# generated using pymatgen
data_Ba3Nb16O23
_symmetry_space_group_name_H-M   'P 1'
_cell_length_a   12.63485400
_cell_length_b   21.21423200
_cell_length_c   4.21703000
_cell_angle_alpha   90.00000000
_cell_angle_beta   90.00000000
_cell_angle_gamma   90.00000000
_symmetry_Int_Tables_number   1
_chemical_formula_structural   Ba3Nb16O23
_chemical_formula_sum   'Ba6 Nb32 O46'
_cell_volume   1130.32734045
_cell_formula_units_Z   2
loop_
 _symmetry_equiv_pos_site_id
 _symmetry_equiv_pos_as_xyz
  1  'x, y, z'
loop_
 _atom_site_type_symbol
 _atom_site_label
 _atom_site_symmetry_multiplicity
 _atom_site_fract_x
 _atom_site_fract_y
 _atom_site_fract_z
 _atom_site_occupancy
  Ba  Ba0  1  0.50000000  0.29900400  0.00000000  1
  Ba  Ba1  1  0.50000000  0.70099600  0.00000000  1
  Ba  Ba2  1  0.00000000  0.00000000  0.00000000  1
  Ba  Ba3  1  0.00000000  0.79900400  0.00000000  1
  Ba  Ba4  1  0.00000000  0.20099600  0.00000000  1
  Ba  Ba5  1  0.50000000  0.50000000  0.00000000  1
  Nb  Nb6  1  0.66697150  0.19496450  0.50000000  1
  Nb  Nb7  1  0.33302850  0.80503550  0.50000000  1
  Nb  Nb8  1  0.66697150  0.80503550  0.50000000  1
  Nb  Nb9  1  0.33302850  0.19496450  0.50000000  1
  Nb  Nb10  1  0.83069500  0.10098600  0.50000000  1
  Nb  Nb11  1  0.16930500  0.89901400  0.50000000  1
  Nb  Nb12  1  0.83069500  0.89901400  0.50000000  1
  Nb  Nb13  1  0.16930500  0.10098600  0.50000000  1
  Nb  Nb14  1  0.50000000  0.89867900  0.50000000  1
  Nb  Nb15  1  0.50000000  0.10132100  0.50000000  1
  Nb  Nb16  1  0.67076700  0.10148800  0.00000000  1
  Nb  Nb17  1  0.32923300  0.89851200  0.00000000  1
  Nb  Nb18  1  0.67076700  0.89851200  0.00000000  1
  Nb  Nb19  1  0.32923300  0.10148800  0.00000000  1
  Nb  Nb20  1  0.67243800  0.00000000  0.50000000  1
  Nb  Nb21  1  0.32756200  0.00000000  0.50000000  1
  Nb  Nb22  1  0.16697150  0.69496450  0.50000000  1
  Nb  Nb23  1  0.83302850  0.30503550  0.50000000  1
  Nb  Nb24  1  0.16697150  0.30503550  0.50000000  1
  Nb  Nb25  1  0.83302850  0.69496450  0.50000000  1
  Nb  Nb26  1  0.33069500  0.60098600  0.50000000  1
  Nb  Nb27  1  0.66930500  0.39901400  0.50000000  1
  Nb  Nb28  1  0.33069500  0.39901400  0.50000000  1
  Nb  Nb29  1  0.66930500  0.60098600  0.50000000  1
  Nb  Nb30  1  0.00000000  0.39867900  0.50000000  1
  Nb  Nb31  1  0.00000000  0.60132100  0.50000000  1
  Nb  Nb32  1  0.17076700  0.60148800  0.00000000  1
  Nb  Nb33  1  0.82923300  0.39851200  0.00000000  1
  Nb  Nb34  1  0.17076700  0.39851200  0.00000000  1
  Nb  Nb35  1  0.82923300  0.60148800  0.00000000  1
  Nb  Nb36  1  0.17243800  0.50000000  0.50000000  1
  Nb  Nb37  1  0.82756200  0.50000000  0.50000000  1
  O  O38  1  0.50000000  0.39698700  0.50000000  1
  O  O39  1  0.50000000  0.60301300  0.50000000  1
  O  O40  1  0.50000000  0.79878600  0.50000000  1
  O  O41  1  0.50000000  0.20121400  0.50000000  1
  O  O42  1  0.34008250  0.80081850  0.00000000  1
  O  O43  1  0.65991750  0.19918150  0.00000000  1
  O  O44  1  0.34008250  0.19918150  0.00000000  1
  O  O45  1  0.65991750  0.80081850  0.00000000  1
  O  O46  1  0.33365000  0.69956000  0.50000000  1
  O  O47  1  0.66635000  0.30044000  0.50000000  1
  O  O48  1  0.33365000  0.30044000  0.50000000  1
  O  O49  1  0.66635000  0.69956000  0.50000000  1
  O  O50  1  0.83804250  0.09916050  0.00000000  1
  O  O51  1  0.16195750  0.90083950  0.00000000  1
  O  O52  1  0.83804250  0.90083950  0.00000000  1
  O  O53  1  0.16195750  0.09916050  0.00000000  1
  O  O54  1  0.83995900  0.00000000  0.50000000  1
  O  O55  1  0.16004100  0.00000000  0.50000000  1
  O  O56  1  0.50000000  0.90362100  0.00000000  1
  O  O57  1  0.50000000  0.00000000  0.50000000  1
  O  O58  1  0.33408800  0.00000000  0.00000000  1
  O  O59  1  0.66591200  0.00000000  0.00000000  1
  O  O60  1  0.50000000  0.09637900  0.00000000  1
  O  O61  1  0.00000000  0.89698700  0.50000000  1
  O  O62  1  0.00000000  0.10301300  0.50000000  1
  O  O63  1  0.00000000  0.29878600  0.50000000  1
  O  O64  1  0.00000000  0.70121400  0.50000000  1
  O  O65  1  0.84008250  0.30081850  0.00000000  1
  O  O66  1  0.15991750  0.69918150  0.00000000  1
  O  O67  1  0.84008250  0.69918150  0.00000000  1
  O  O68  1  0.15991750  0.30081850  0.00000000  1
  O  O69  1  0.83365000  0.19956000  0.50000000  1
  O  O70  1  0.16635000  0.80044000  0.50000000  1
  O  O71  1  0.83365000  0.80044000  0.50000000  1
  O  O72  1  0.16635000  0.19956000  0.50000000  1
  O  O73  1  0.33804250  0.59916050  0.00000000  1
  O  O74  1  0.66195750  0.40083950  0.00000000  1
  O  O75  1  0.33804250  0.40083950  0.00000000  1
  O  O76  1  0.66195750  0.59916050  0.00000000  1
  O  O77  1  0.33995900  0.50000000  0.50000000  1
  O  O78  1  0.66004100  0.50000000  0.50000000  1
  O  O79  1  0.00000000  0.40362100  0.00000000  1
  O  O80  1  0.00000000  0.50000000  0.50000000  1
  O  O81  1  0.83408800  0.50000000  0.00000000  1
  O  O82  1  0.16591200  0.50000000  0.00000000  1
  O  O83  1  0.00000000  0.59637900  0.00000000  1
