# generated using pymatgen
data_Nd2Fe12P7
_symmetry_space_group_name_H-M   'P 1'
_cell_length_a   9.04562608
_cell_length_b   9.04562608
_cell_length_c   3.67660400
_cell_angle_alpha   90.00000000
_cell_angle_beta   90.00000000
_cell_angle_gamma   120.00000000
_symmetry_Int_Tables_number   1
_chemical_formula_structural   Nd2Fe12P7
_chemical_formula_sum   'Nd2 Fe12 P7'
_cell_volume   260.52820636
_cell_formula_units_Z   1
loop_
 _symmetry_equiv_pos_site_id
 _symmetry_equiv_pos_as_xyz
  1  'x, y, z'
loop_
 _atom_site_type_symbol
 _atom_site_label
 _atom_site_symmetry_multiplicity
 _atom_site_fract_x
 _atom_site_fract_y
 _atom_site_fract_z
 _atom_site_occupancy
  Nd  Nd0  1  0.66666667  0.33333333  0.00000000  1
  Nd  Nd1  1  0.33333333  0.66666667  0.50000000  1
  Fe  Fe2  1  0.05465467  0.62918033  0.00000000  1
  Fe  Fe3  1  0.57452567  0.94534533  0.00000000  1
  Fe  Fe4  1  0.37081967  0.42547433  0.00000000  1
  Fe  Fe5  1  0.27301767  0.12019233  0.00000000  1
  Fe  Fe6  1  0.84717467  0.72698233  0.00000000  1
  Fe  Fe7  1  0.87980767  0.15282533  0.00000000  1
  Fe  Fe8  1  0.43075267  0.04786033  0.50000000  1
  Fe  Fe9  1  0.61710767  0.56924733  0.50000000  1
  Fe  Fe10  1  0.95213967  0.38289233  0.50000000  1
  Fe  Fe11  1  0.09710267  0.88139933  0.50000000  1
  Fe  Fe12  1  0.78429667  0.90289733  0.50000000  1
  Fe  Fe13  1  0.11860067  0.21570333  0.50000000  1
  P  P14  1  0.29680667  0.89123333  0.00000000  1
  P  P15  1  0.59442667  0.70319333  0.00000000  1
  P  P16  1  0.10876667  0.40557333  0.00000000  1
  P  P17  1  0.39657167  0.28912033  0.50000000  1
  P  P18  1  0.89254867  0.60342833  0.50000000  1
  P  P19  1  0.71087967  0.10745133  0.50000000  1
  P  P20  1  0.00000000  0.00000000  0.00000000  1
