# generated using pymatgen
data_Zr2Cu
_symmetry_space_group_name_H-M   'P 1'
_cell_length_a   12.30909800
_cell_length_b   12.30909800
_cell_length_c   12.30909800
_cell_angle_alpha   90.00000000
_cell_angle_beta   90.00000000
_cell_angle_gamma   90.00000000
_symmetry_Int_Tables_number   1
_chemical_formula_structural   Zr2Cu
_chemical_formula_sum   'Zr64 Cu32'
_cell_volume   1864.99936436
_cell_formula_units_Z   32
loop_
 _symmetry_equiv_pos_site_id
 _symmetry_equiv_pos_as_xyz
  1  'x, y, z'
loop_
 _atom_site_type_symbol
 _atom_site_label
 _atom_site_symmetry_multiplicity
 _atom_site_fract_x
 _atom_site_fract_y
 _atom_site_fract_z
 _atom_site_occupancy
  Zr  Zr0  1  0.06487150  0.25000000  0.25000000  1
  Zr  Zr1  1  0.25000000  0.43512850  0.25000000  1
  Zr  Zr2  1  0.31487150  0.00000000  0.50000000  1
  Zr  Zr3  1  0.50000000  0.00000000  0.31487150  1
  Zr  Zr4  1  0.68512850  0.00000000  0.50000000  1
  Zr  Zr5  1  0.25000000  0.25000000  0.06487150  1
  Zr  Zr6  1  0.43512850  0.25000000  0.25000000  1
  Zr  Zr7  1  0.12500000  0.62500000  0.12500000  1
  Zr  Zr8  1  0.25000000  0.25000000  0.43512850  1
  Zr  Zr9  1  0.50000000  0.81487150  0.50000000  1
  Zr  Zr10  1  0.25000000  0.06487150  0.25000000  1
  Zr  Zr11  1  0.50000000  0.18512850  0.50000000  1
  Zr  Zr12  1  0.00000000  0.00000000  0.18512850  1
  Zr  Zr13  1  0.37500000  0.62500000  0.37500000  1
  Zr  Zr14  1  0.37500000  0.87500000  0.12500000  1
  Zr  Zr15  1  0.12500000  0.87500000  0.37500000  1
  Zr  Zr16  1  0.06487150  0.75000000  0.75000000  1
  Zr  Zr17  1  0.25000000  0.93512850  0.75000000  1
  Zr  Zr18  1  0.31487150  0.50000000  0.00000000  1
  Zr  Zr19  1  0.50000000  0.50000000  0.81487150  1
  Zr  Zr20  1  0.68512850  0.50000000  0.00000000  1
  Zr  Zr21  1  0.25000000  0.75000000  0.56487150  1
  Zr  Zr22  1  0.43512850  0.75000000  0.75000000  1
  Zr  Zr23  1  0.12500000  0.12500000  0.62500000  1
  Zr  Zr24  1  0.25000000  0.75000000  0.93512850  1
  Zr  Zr25  1  0.50000000  0.31487150  0.00000000  1
  Zr  Zr26  1  0.25000000  0.56487150  0.75000000  1
  Zr  Zr27  1  0.50000000  0.68512850  0.00000000  1
  Zr  Zr28  1  0.00000000  0.50000000  0.68512850  1
  Zr  Zr29  1  0.37500000  0.12500000  0.87500000  1
  Zr  Zr30  1  0.37500000  0.37500000  0.62500000  1
  Zr  Zr31  1  0.12500000  0.37500000  0.87500000  1
  Zr  Zr32  1  0.56487150  0.25000000  0.75000000  1
  Zr  Zr33  1  0.75000000  0.43512850  0.75000000  1
  Zr  Zr34  1  0.81487150  0.00000000  0.00000000  1
  Zr  Zr35  1  0.00000000  0.00000000  0.81487150  1
  Zr  Zr36  1  0.18512850  0.00000000  0.00000000  1
  Zr  Zr37  1  0.75000000  0.25000000  0.56487150  1
  Zr  Zr38  1  0.93512850  0.25000000  0.75000000  1
  Zr  Zr39  1  0.62500000  0.62500000  0.62500000  1
  Zr  Zr40  1  0.75000000  0.25000000  0.93512850  1
  Zr  Zr41  1  0.00000000  0.81487150  0.00000000  1
  Zr  Zr42  1  0.75000000  0.06487150  0.75000000  1
  Zr  Zr43  1  0.00000000  0.18512850  0.00000000  1
  Zr  Zr44  1  0.50000000  0.00000000  0.68512850  1
  Zr  Zr45  1  0.87500000  0.62500000  0.87500000  1
  Zr  Zr46  1  0.87500000  0.87500000  0.62500000  1
  Zr  Zr47  1  0.62500000  0.87500000  0.87500000  1
  Zr  Zr48  1  0.56487150  0.75000000  0.25000000  1
  Zr  Zr49  1  0.75000000  0.93512850  0.25000000  1
  Zr  Zr50  1  0.81487150  0.50000000  0.50000000  1
  Zr  Zr51  1  0.00000000  0.50000000  0.31487150  1
  Zr  Zr52  1  0.18512850  0.50000000  0.50000000  1
  Zr  Zr53  1  0.75000000  0.75000000  0.06487150  1
  Zr  Zr54  1  0.93512850  0.75000000  0.25000000  1
  Zr  Zr55  1  0.62500000  0.12500000  0.12500000  1
  Zr  Zr56  1  0.75000000  0.75000000  0.43512850  1
  Zr  Zr57  1  0.00000000  0.31487150  0.50000000  1
  Zr  Zr58  1  0.75000000  0.56487150  0.25000000  1
  Zr  Zr59  1  0.00000000  0.68512850  0.50000000  1
  Zr  Zr60  1  0.50000000  0.50000000  0.18512850  1
  Zr  Zr61  1  0.87500000  0.12500000  0.37500000  1
  Zr  Zr62  1  0.87500000  0.37500000  0.12500000  1
  Zr  Zr63  1  0.62500000  0.37500000  0.37500000  1
  Cu  Cu64  1  0.83376867  0.16623133  0.16623133  1
  Cu  Cu65  1  0.16623133  0.83376867  0.16623133  1
  Cu  Cu66  1  0.41623133  0.41623133  0.41623133  1
  Cu  Cu67  1  0.41623133  0.08376867  0.08376867  1
  Cu  Cu68  1  0.08376867  0.41623133  0.08376867  1
  Cu  Cu69  1  0.08376867  0.08376867  0.41623133  1
  Cu  Cu70  1  0.66623133  0.16623133  0.33376867  1
  Cu  Cu71  1  0.33376867  0.83376867  0.33376867  1
  Cu  Cu72  1  0.83376867  0.66623133  0.66623133  1
  Cu  Cu73  1  0.16623133  0.33376867  0.66623133  1
  Cu  Cu74  1  0.41623133  0.91623133  0.91623133  1
  Cu  Cu75  1  0.41623133  0.58376867  0.58376867  1
  Cu  Cu76  1  0.08376867  0.91623133  0.58376867  1
  Cu  Cu77  1  0.08376867  0.58376867  0.91623133  1
  Cu  Cu78  1  0.66623133  0.66623133  0.83376867  1
  Cu  Cu79  1  0.33376867  0.33376867  0.83376867  1
  Cu  Cu80  1  0.33376867  0.16623133  0.66623133  1
  Cu  Cu81  1  0.66623133  0.83376867  0.66623133  1
  Cu  Cu82  1  0.91623133  0.41623133  0.91623133  1
  Cu  Cu83  1  0.91623133  0.08376867  0.58376867  1
  Cu  Cu84  1  0.58376867  0.41623133  0.58376867  1
  Cu  Cu85  1  0.58376867  0.08376867  0.91623133  1
  Cu  Cu86  1  0.16623133  0.16623133  0.83376867  1
  Cu  Cu87  1  0.83376867  0.83376867  0.83376867  1
  Cu  Cu88  1  0.33376867  0.66623133  0.16623133  1
  Cu  Cu89  1  0.66623133  0.33376867  0.16623133  1
  Cu  Cu90  1  0.91623133  0.91623133  0.41623133  1
  Cu  Cu91  1  0.91623133  0.58376867  0.08376867  1
  Cu  Cu92  1  0.58376867  0.91623133  0.08376867  1
  Cu  Cu93  1  0.58376867  0.58376867  0.41623133  1
  Cu  Cu94  1  0.16623133  0.66623133  0.33376867  1
  Cu  Cu95  1  0.83376867  0.33376867  0.33376867  1
