# generated using pymatgen
data_Al45V7
_symmetry_space_group_name_H-M   'P 1'
_cell_length_a   20.87100200
_cell_length_b   7.60321600
_cell_length_c   11.08407510
_cell_angle_alpha   90.00000000
_cell_angle_beta   106.97501293
_cell_angle_gamma   90.00000000
_symmetry_Int_Tables_number   1
_chemical_formula_structural   Al45V7
_chemical_formula_sum   'Al90 V14'
_cell_volume   1682.26443396
_cell_formula_units_Z   2
loop_
 _symmetry_equiv_pos_site_id
 _symmetry_equiv_pos_as_xyz
  1  'x, y, z'
loop_
 _atom_site_type_symbol
 _atom_site_label
 _atom_site_symmetry_multiplicity
 _atom_site_fract_x
 _atom_site_fract_y
 _atom_site_fract_z
 _atom_site_occupancy
  Al  Al0  1  0.06874250  0.31780150  0.98963900  1
  Al  Al1  1  0.43125750  0.18219850  0.01036100  1
  Al  Al2  1  0.43125750  0.81780150  0.01036100  1
  Al  Al3  1  0.45464100  0.69475900  0.37683300  1
  Al  Al4  1  0.20717400  0.50000000  0.48964000  1
  Al  Al5  1  0.18047650  0.18492550  0.35164800  1
  Al  Al6  1  0.04535900  0.19475900  0.62316700  1
  Al  Al7  1  0.46412500  0.31354800  0.79440000  1
  Al  Al8  1  0.33497200  0.80655200  0.14373100  1
  Al  Al9  1  0.20558650  0.31447050  0.13276100  1
  Al  Al10  1  0.33497200  0.19344800  0.14373100  1
  Al  Al11  1  0.16502800  0.30655200  0.85626900  1
  Al  Al12  1  0.12501200  0.50000000  0.63827200  1
  Al  Al13  1  0.31002450  0.31572650  0.37814600  1
  Al  Al14  1  0.20558650  0.68552950  0.13276100  1
  Al  Al15  1  0.37127600  0.50000000  0.88716500  1
  Al  Al16  1  0.12872400  0.00000000  0.11283500  1
  Al  Al17  1  0.47928000  0.00000000  0.24319900  1
  Al  Al18  1  0.27536500  0.50000000  0.00777500  1
  Al  Al19  1  0.18997550  0.81572650  0.62185400  1
  Al  Al20  1  0.16502800  0.69344800  0.85626900  1
  Al  Al21  1  0.31952350  0.31507450  0.64835200  1
  Al  Al22  1  0.38443000  0.00000000  0.77205900  1
  Al  Al23  1  0.31002450  0.68427350  0.37814600  1
  Al  Al24  1  0.09046400  0.00000000  0.84547700  1
  Al  Al25  1  0.03587500  0.18645200  0.20560000  1
  Al  Al26  1  0.37498800  0.00000000  0.36172800  1
  Al  Al27  1  0.02072000  0.50000000  0.75680100  1
  Al  Al28  1  0.08257700  0.00000000  0.44203000  1
  Al  Al29  1  0.11557000  0.50000000  0.22794100  1
  Al  Al30  1  0.00000000  0.50000000  0.50000000  1
  Al  Al31  1  0.04535900  0.80524100  0.62316700  1
  Al  Al32  1  0.22463500  0.00000000  0.99222500  1
  Al  Al33  1  0.18997550  0.18427350  0.62185400  1
  Al  Al34  1  0.06874250  0.68219850  0.98963900  1
  Al  Al35  1  0.18047650  0.81507450  0.35164800  1
  Al  Al36  1  0.46412500  0.68645200  0.79440000  1
  Al  Al37  1  0.45464100  0.30524100  0.37683300  1
  Al  Al38  1  0.41742300  0.50000000  0.55797000  1
  Al  Al39  1  0.40953600  0.50000000  0.15452300  1
  Al  Al40  1  0.29441350  0.81447050  0.86723900  1
  Al  Al41  1  0.29282600  0.00000000  0.51036000  1
  Al  Al42  1  0.03587500  0.81354800  0.20560000  1
  Al  Al43  1  0.31952350  0.68492550  0.64835200  1
  Al  Al44  1  0.29441350  0.18552950  0.86723900  1
  Al  Al45  1  0.56874250  0.81780150  0.98963900  1
  Al  Al46  1  0.93125750  0.68219850  0.01036100  1
  Al  Al47  1  0.93125750  0.31780150  0.01036100  1
  Al  Al48  1  0.95464100  0.19475900  0.37683300  1
  Al  Al49  1  0.70717400  0.00000000  0.48964000  1
  Al  Al50  1  0.68047650  0.68492550  0.35164800  1
  Al  Al51  1  0.54535900  0.69475900  0.62316700  1
  Al  Al52  1  0.96412500  0.81354800  0.79440000  1
  Al  Al53  1  0.83497200  0.30655200  0.14373100  1
  Al  Al54  1  0.70558650  0.81447050  0.13276100  1
  Al  Al55  1  0.83497200  0.69344800  0.14373100  1
  Al  Al56  1  0.66502800  0.80655200  0.85626900  1
  Al  Al57  1  0.62501200  0.00000000  0.63827200  1
  Al  Al58  1  0.81002450  0.81572650  0.37814600  1
  Al  Al59  1  0.70558650  0.18552950  0.13276100  1
  Al  Al60  1  0.87127600  0.00000000  0.88716500  1
  Al  Al61  1  0.62872400  0.50000000  0.11283500  1
  Al  Al62  1  0.97928000  0.50000000  0.24319900  1
  Al  Al63  1  0.77536500  0.00000000  0.00777500  1
  Al  Al64  1  0.68997550  0.31572650  0.62185400  1
  Al  Al65  1  0.66502800  0.19344800  0.85626900  1
  Al  Al66  1  0.81952350  0.81507450  0.64835200  1
  Al  Al67  1  0.88443000  0.50000000  0.77205900  1
  Al  Al68  1  0.81002450  0.18427350  0.37814600  1
  Al  Al69  1  0.59046400  0.50000000  0.84547700  1
  Al  Al70  1  0.53587500  0.68645200  0.20560000  1
  Al  Al71  1  0.87498800  0.50000000  0.36172800  1
  Al  Al72  1  0.52072000  0.00000000  0.75680100  1
  Al  Al73  1  0.58257700  0.50000000  0.44203000  1
  Al  Al74  1  0.61557000  0.00000000  0.22794100  1
  Al  Al75  1  0.50000000  0.00000000  0.50000000  1
  Al  Al76  1  0.54535900  0.30524100  0.62316700  1
  Al  Al77  1  0.72463500  0.50000000  0.99222500  1
  Al  Al78  1  0.68997550  0.68427350  0.62185400  1
  Al  Al79  1  0.56874250  0.18219850  0.98963900  1
  Al  Al80  1  0.68047650  0.31507450  0.35164800  1
  Al  Al81  1  0.96412500  0.18645200  0.79440000  1
  Al  Al82  1  0.95464100  0.80524100  0.37683300  1
  Al  Al83  1  0.91742300  0.00000000  0.55797000  1
  Al  Al84  1  0.90953600  0.00000000  0.15452300  1
  Al  Al85  1  0.79441350  0.31447050  0.86723900  1
  Al  Al86  1  0.79282600  0.50000000  0.51036000  1
  Al  Al87  1  0.53587500  0.31354800  0.20560000  1
  Al  Al88  1  0.81952350  0.18492550  0.64835200  1
  Al  Al89  1  0.79441350  0.68552950  0.86723900  1
  V  V90  1  0.24899500  0.50000000  0.76054300  1
  V  V91  1  0.08580100  0.66998100  0.41906100  1
  V  V92  1  0.41419900  0.83001900  0.58093900  1
  V  V93  1  0.25100500  0.00000000  0.23945700  1
  V  V94  1  0.08580100  0.33001900  0.41906100  1
  V  V95  1  0.00000000  0.00000000  0.00000000  1
  V  V96  1  0.41419900  0.16998100  0.58093900  1
  V  V97  1  0.74899500  0.00000000  0.76054300  1
  V  V98  1  0.58580100  0.16998100  0.41906100  1
  V  V99  1  0.91419900  0.33001900  0.58093900  1
  V  V100  1  0.75100500  0.50000000  0.23945700  1
  V  V101  1  0.58580100  0.83001900  0.41906100  1
  V  V102  1  0.50000000  0.50000000  0.00000000  1
  V  V103  1  0.91419900  0.66998100  0.58093900  1
