# generated using pymatgen
data_Ca6Cu2Sn7
_symmetry_space_group_name_H-M   'P 1'
_cell_length_a   14.36069200
_cell_length_b   4.57777000
_cell_length_c   12.42500261
_cell_angle_alpha   90.00000000
_cell_angle_beta   93.94528252
_cell_angle_gamma   90.00000000
_symmetry_Int_Tables_number   1
_chemical_formula_structural   Ca6Cu2Sn7
_chemical_formula_sum   'Ca12 Cu4 Sn14'
_cell_volume   814.88330137
_cell_formula_units_Z   2
loop_
 _symmetry_equiv_pos_site_id
 _symmetry_equiv_pos_as_xyz
  1  'x, y, z'
loop_
 _atom_site_type_symbol
 _atom_site_label
 _atom_site_symmetry_multiplicity
 _atom_site_fract_x
 _atom_site_fract_y
 _atom_site_fract_z
 _atom_site_occupancy
  Ca  Ca0  1  0.96200500  0.50000000  0.29931800  1
  Ca  Ca1  1  0.80489000  0.00000000  0.70653200  1
  Ca  Ca2  1  0.69511000  0.50000000  0.29346800  1
  Ca  Ca3  1  0.86295800  0.50000000  0.99702500  1
  Ca  Ca4  1  0.53799500  0.00000000  0.70068200  1
  Ca  Ca5  1  0.63704200  0.00000000  0.00297500  1
  Ca  Ca6  1  0.46200500  0.00000000  0.29931800  1
  Ca  Ca7  1  0.30489000  0.50000000  0.70653200  1
  Ca  Ca8  1  0.19511000  0.00000000  0.29346800  1
  Ca  Ca9  1  0.36295800  0.00000000  0.99702500  1
  Ca  Ca10  1  0.03799500  0.50000000  0.70068200  1
  Ca  Ca11  1  0.13704200  0.50000000  0.00297500  1
  Cu  Cu12  1  0.66970500  0.50000000  0.61118500  1
  Cu  Cu13  1  0.83029500  0.00000000  0.38881500  1
  Cu  Cu14  1  0.16970500  0.00000000  0.61118500  1
  Cu  Cu15  1  0.33029500  0.50000000  0.38881500  1
  Sn  Sn16  1  0.84039400  0.50000000  0.51857300  1
  Sn  Sn17  1  0.68257100  0.50000000  0.82449400  1
  Sn  Sn18  1  0.98898000  0.00000000  0.88144900  1
  Sn  Sn19  1  0.81742900  0.00000000  0.17550600  1
  Sn  Sn20  1  0.00000000  0.00000000  0.50000000  1
  Sn  Sn21  1  0.51102000  0.50000000  0.11855100  1
  Sn  Sn22  1  0.65960600  0.00000000  0.48142700  1
  Sn  Sn23  1  0.34039400  0.00000000  0.51857300  1
  Sn  Sn24  1  0.18257100  0.00000000  0.82449400  1
  Sn  Sn25  1  0.48898000  0.50000000  0.88144900  1
  Sn  Sn26  1  0.31742900  0.50000000  0.17550600  1
  Sn  Sn27  1  0.50000000  0.50000000  0.50000000  1
  Sn  Sn28  1  0.01102000  0.00000000  0.11855100  1
  Sn  Sn29  1  0.15960600  0.50000000  0.48142700  1
