# generated using pymatgen
data_Sr2YCoCu2O7
_symmetry_space_group_name_H-M   'P 1'
_cell_length_a   5.42658200
_cell_length_b   5.48892000
_cell_length_c   23.15487000
_cell_angle_alpha   90.00000000
_cell_angle_beta   90.00000000
_cell_angle_gamma   90.00000000
_symmetry_Int_Tables_number   1
_chemical_formula_structural   Sr2YCoCu2O7
_chemical_formula_sum   'Sr8 Y4 Co4 Cu8 O28'
_cell_volume   689.69268220
_cell_formula_units_Z   4
loop_
 _symmetry_equiv_pos_site_id
 _symmetry_equiv_pos_as_xyz
  1  'x, y, z'
loop_
 _atom_site_type_symbol
 _atom_site_label
 _atom_site_symmetry_multiplicity
 _atom_site_fract_x
 _atom_site_fract_y
 _atom_site_fract_z
 _atom_site_occupancy
  Sr  Sr0  1  0.01332000  0.98811800  0.65244700  1
  Sr  Sr1  1  0.51332000  0.51188200  0.84755300  1
  Sr  Sr2  1  0.51332000  0.51188200  0.65244700  1
  Sr  Sr3  1  0.01332000  0.98811800  0.84755300  1
  Sr  Sr4  1  0.51332000  0.48811800  0.15244700  1
  Sr  Sr5  1  0.01332000  0.01188200  0.34755300  1
  Sr  Sr6  1  0.01332000  0.01188200  0.15244700  1
  Sr  Sr7  1  0.51332000  0.48811800  0.34755300  1
  Y  Y8  1  0.01333900  0.00000000  0.00000000  1
  Y  Y9  1  0.51333900  0.50000000  0.00000000  1
  Y  Y10  1  0.51333900  0.50000000  0.50000000  1
  Y  Y11  1  0.01333900  0.00000000  0.50000000  1
  Co  Co12  1  0.98019200  0.43554600  0.75000000  1
  Co  Co13  1  0.48019200  0.06445400  0.75000000  1
  Co  Co14  1  0.48019200  0.93554600  0.25000000  1
  Co  Co15  1  0.98019200  0.56445400  0.25000000  1
  Cu  Cu16  1  0.51530450  0.00107650  0.57203250  1
  Cu  Cu17  1  0.01530450  0.49892350  0.92796750  1
  Cu  Cu18  1  0.01530450  0.49892350  0.57203250  1
  Cu  Cu19  1  0.51530450  0.00107650  0.92796750  1
  Cu  Cu20  1  0.01530450  0.50107650  0.07203250  1
  Cu  Cu21  1  0.51530450  0.99892350  0.42796750  1
  Cu  Cu22  1  0.51530450  0.99892350  0.07203250  1
  Cu  Cu23  1  0.01530450  0.50107650  0.42796750  1
  O  O24  1  0.12099750  0.11236950  0.75000000  1
  O  O25  1  0.62099750  0.38763050  0.75000000  1
  O  O26  1  0.26008400  0.75538500  0.56203200  1
  O  O27  1  0.76008400  0.74461500  0.93796800  1
  O  O28  1  0.76008400  0.74461500  0.56203200  1
  O  O29  1  0.26008400  0.75538500  0.93796800  1
  O  O30  1  0.76783400  0.24552500  0.56459200  1
  O  O31  1  0.26783400  0.25447500  0.93540800  1
  O  O32  1  0.26783400  0.25447500  0.56459200  1
  O  O33  1  0.76783400  0.24552500  0.93540800  1
  O  O34  1  0.03501850  0.53524250  0.67611350  1
  O  O35  1  0.53501850  0.96475750  0.82388650  1
  O  O36  1  0.53501850  0.96475750  0.67611350  1
  O  O37  1  0.03501850  0.53524250  0.82388650  1
  O  O38  1  0.62099750  0.61236950  0.25000000  1
  O  O39  1  0.12099750  0.88763050  0.25000000  1
  O  O40  1  0.76008400  0.25538500  0.06203200  1
  O  O41  1  0.26008400  0.24461500  0.43796800  1
  O  O42  1  0.26008400  0.24461500  0.06203200  1
  O  O43  1  0.76008400  0.25538500  0.43796800  1
  O  O44  1  0.26783400  0.74552500  0.06459200  1
  O  O45  1  0.76783400  0.75447500  0.43540800  1
  O  O46  1  0.76783400  0.75447500  0.06459200  1
  O  O47  1  0.26783400  0.74552500  0.43540800  1
  O  O48  1  0.53501850  0.03524250  0.17611350  1
  O  O49  1  0.03501850  0.46475750  0.32388650  1
  O  O50  1  0.03501850  0.46475750  0.17611350  1
  O  O51  1  0.53501850  0.03524250  0.32388650  1
