# generated using pymatgen
data_K2MnO4
_symmetry_space_group_name_H-M   'P 1'
_cell_length_a   5.97670032
_cell_length_b   7.78183521
_cell_length_c   10.57736959
_cell_angle_alpha   90.00000000
_cell_angle_beta   90.00000000
_cell_angle_gamma   90.00000000
_symmetry_Int_Tables_number   1
_chemical_formula_structural   K2MnO4
_chemical_formula_sum   'K8 Mn4 O16'
_cell_volume   491.95025486
_cell_formula_units_Z   4
loop_
 _symmetry_equiv_pos_site_id
 _symmetry_equiv_pos_as_xyz
  1  'x, y, z'
loop_
 _atom_site_type_symbol
 _atom_site_label
 _atom_site_symmetry_multiplicity
 _atom_site_fract_x
 _atom_site_fract_y
 _atom_site_fract_z
 _atom_site_occupancy
  K  K0  1  0.25000000  0.83459850  0.91577250  1
  K  K1  1  0.75000000  0.16540150  0.08422750  1
  K  K2  1  0.25000000  0.33459850  0.58422750  1
  K  K3  1  0.75000000  0.66540150  0.41577250  1
  K  K4  1  0.25000000  0.01165150  0.30236350  1
  K  K5  1  0.75000000  0.98834850  0.69763650  1
  K  K6  1  0.25000000  0.51165150  0.19763650  1
  K  K7  1  0.75000000  0.48834850  0.80236350  1
  Mn  Mn8  1  0.25000000  0.77111950  0.57906550  1
  Mn  Mn9  1  0.75000000  0.22888050  0.42093450  1
  Mn  Mn10  1  0.25000000  0.27111950  0.92093450  1
  Mn  Mn11  1  0.75000000  0.72888050  0.07906550  1
  O  O12  1  0.25000000  0.98391850  0.57995750  1
  O  O13  1  0.75000000  0.01608150  0.42004250  1
  O  O14  1  0.25000000  0.48391850  0.92004250  1
  O  O15  1  0.75000000  0.51608150  0.07995750  1
  O  O16  1  0.25000000  0.70222450  0.42945150  1
  O  O17  1  0.75000000  0.29777550  0.57054850  1
  O  O18  1  0.25000000  0.20222450  0.07054850  1
  O  O19  1  0.75000000  0.79777550  0.92945150  1
  O  O20  1  0.02411750  0.69446450  0.65185450  1
  O  O21  1  0.52411750  0.30553550  0.34814550  1
  O  O22  1  0.47588250  0.19446450  0.84814550  1
  O  O23  1  0.97588250  0.80553550  0.15185450  1
  O  O24  1  0.97588250  0.30553550  0.34814550  1
  O  O25  1  0.47588250  0.69446450  0.65185450  1
  O  O26  1  0.52411750  0.80553550  0.15185450  1
  O  O27  1  0.02411750  0.19446450  0.84814550  1
