# generated using pymatgen
data_La(FeP3)4
_symmetry_space_group_name_H-M   'P 1'
_cell_length_a   7.81949600
_cell_length_b   7.81949600
_cell_length_c   7.81949600
_cell_angle_alpha   90.00000000
_cell_angle_beta   90.00000000
_cell_angle_gamma   90.00000000
_symmetry_Int_Tables_number   1
_chemical_formula_structural   La(FeP3)4
_chemical_formula_sum   'La2 Fe8 P24'
_cell_volume   478.11931153
_cell_formula_units_Z   2
loop_
 _symmetry_equiv_pos_site_id
 _symmetry_equiv_pos_as_xyz
  1  'x, y, z'
loop_
 _atom_site_type_symbol
 _atom_site_label
 _atom_site_symmetry_multiplicity
 _atom_site_fract_x
 _atom_site_fract_y
 _atom_site_fract_z
 _atom_site_occupancy
  La  La0  1  0.00000000  0.00000000  0.00000000  1
  La  La1  1  0.50000000  0.50000000  0.50000000  1
  Fe  Fe2  1  0.25000000  0.25000000  0.75000000  1
  Fe  Fe3  1  0.25000000  0.25000000  0.25000000  1
  Fe  Fe4  1  0.25000000  0.75000000  0.25000000  1
  Fe  Fe5  1  0.75000000  0.25000000  0.25000000  1
  Fe  Fe6  1  0.75000000  0.75000000  0.25000000  1
  Fe  Fe7  1  0.75000000  0.75000000  0.75000000  1
  Fe  Fe8  1  0.75000000  0.25000000  0.75000000  1
  Fe  Fe9  1  0.25000000  0.75000000  0.75000000  1
  P  P10  1  0.34791750  0.50000000  0.14657150  1
  P  P11  1  0.64657150  0.15208250  0.00000000  1
  P  P12  1  0.15208250  0.00000000  0.64657150  1
  P  P13  1  0.35342850  0.15208250  0.00000000  1
  P  P14  1  0.14657150  0.34791750  0.50000000  1
  P  P15  1  0.85342850  0.34791750  0.50000000  1
  P  P16  1  0.50000000  0.85342850  0.34791750  1
  P  P17  1  0.00000000  0.64657150  0.15208250  1
  P  P18  1  0.15208250  0.00000000  0.35342850  1
  P  P19  1  0.00000000  0.35342850  0.15208250  1
  P  P20  1  0.50000000  0.14657150  0.34791750  1
  P  P21  1  0.34791750  0.50000000  0.85342850  1
  P  P22  1  0.84791750  0.00000000  0.64657150  1
  P  P23  1  0.14657150  0.65208250  0.50000000  1
  P  P24  1  0.65208250  0.50000000  0.14657150  1
  P  P25  1  0.85342850  0.65208250  0.50000000  1
  P  P26  1  0.64657150  0.84791750  0.00000000  1
  P  P27  1  0.35342850  0.84791750  0.00000000  1
  P  P28  1  0.00000000  0.35342850  0.84791750  1
  P  P29  1  0.50000000  0.14657150  0.65208250  1
  P  P30  1  0.65208250  0.50000000  0.85342850  1
  P  P31  1  0.50000000  0.85342850  0.65208250  1
  P  P32  1  0.00000000  0.64657150  0.84791750  1
  P  P33  1  0.84791750  0.00000000  0.35342850  1
