# generated using pymatgen
data_KCa10V7O28
_symmetry_space_group_name_H-M   'P 1'
_cell_length_a   11.02542557
_cell_length_b   11.02542557
_cell_length_c   38.21243097
_cell_angle_alpha   90.00000000
_cell_angle_beta   90.00000000
_cell_angle_gamma   120.00000000
_symmetry_Int_Tables_number   1
_chemical_formula_structural   KCa10V7O28
_chemical_formula_sum   'K6 Ca60 V42 O168'
_cell_volume   4022.77759590
_cell_formula_units_Z   6
loop_
 _symmetry_equiv_pos_site_id
 _symmetry_equiv_pos_as_xyz
  1  'x, y, z'
loop_
 _atom_site_type_symbol
 _atom_site_label
 _atom_site_symmetry_multiplicity
 _atom_site_fract_x
 _atom_site_fract_y
 _atom_site_fract_z
 _atom_site_occupancy
  K  K0  1  0.00000000  0.00000000  0.29688600  1
  K  K1  1  0.66666667  0.33333333  0.13021933  1
  K  K2  1  0.66666667  0.33333333  0.63021933  1
  K  K3  1  0.33333333  0.66666667  0.46355267  1
  K  K4  1  0.33333333  0.66666667  0.96355267  1
  K  K5  1  0.00000000  0.00000000  0.79688600  1
  Ca  Ca6  1  0.33333333  0.66666667  0.14694367  1
  Ca  Ca7  1  0.39068433  0.21908767  0.24637467  1
  Ca  Ca8  1  0.86118600  0.13553600  0.05005700  1
  Ca  Ca9  1  0.78091233  0.17159667  0.24637467  1
  Ca  Ca10  1  0.86446400  0.72565000  0.05005700  1
  Ca  Ca11  1  0.26379967  0.11065933  0.15539833  1
  Ca  Ca12  1  0.60768333  0.80220267  0.21672367  1
  Ca  Ca13  1  0.19451933  0.39231667  0.21672367  1
  Ca  Ca14  1  0.82840333  0.60931567  0.24637467  1
  Ca  Ca15  1  0.27435000  0.13881400  0.05005700  1
  Ca  Ca16  1  0.66666667  0.33333333  0.31361033  1
  Ca  Ca17  1  0.49507000  0.55242100  0.07970800  1
  Ca  Ca18  1  0.44757900  0.94264900  0.07970800  1
  Ca  Ca19  1  0.05735100  0.50493000  0.07970800  1
  Ca  Ca20  1  0.59713300  0.81980700  0.32206500  1
  Ca  Ca21  1  0.84685967  0.73620033  0.15539833  1
  Ca  Ca22  1  0.18019300  0.77732600  0.32206500  1
  Ca  Ca23  1  0.19779733  0.80548067  0.21672367  1
  Ca  Ca24  1  0.88934067  0.15314033  0.15539833  1
  Ca  Ca25  1  0.22267400  0.40286700  0.32206500  1
  Ca  Ca26  1  0.00000000  0.00000000  0.48027700  1
  Ca  Ca27  1  0.05735100  0.55242100  0.57970800  1
  Ca  Ca28  1  0.52785267  0.46886933  0.38339033  1
  Ca  Ca29  1  0.44757900  0.50493000  0.57970800  1
  Ca  Ca30  1  0.53113067  0.05898333  0.38339033  1
  Ca  Ca31  1  0.93046633  0.44399267  0.48873167  1
  Ca  Ca32  1  0.27435000  0.13553600  0.55005700  1
  Ca  Ca33  1  0.86118600  0.72565000  0.55005700  1
  Ca  Ca34  1  0.49507000  0.94264900  0.57970800  1
  Ca  Ca35  1  0.94101667  0.47214733  0.38339033  1
  Ca  Ca36  1  0.33333333  0.66666667  0.64694367  1
  Ca  Ca37  1  0.16173667  0.88575433  0.41304133  1
  Ca  Ca38  1  0.11424567  0.27598233  0.41304133  1
  Ca  Ca39  1  0.72401767  0.83826333  0.41304133  1
  Ca  Ca40  1  0.26379967  0.15314033  0.65539833  1
  Ca  Ca41  1  0.51352633  0.06953367  0.48873167  1
  Ca  Ca42  1  0.84685967  0.11065933  0.65539833  1
  Ca  Ca43  1  0.86446400  0.13881400  0.55005700  1
  Ca  Ca44  1  0.55600733  0.48647367  0.48873167  1
  Ca  Ca45  1  0.88934067  0.73620033  0.65539833  1
  Ca  Ca46  1  0.66666667  0.33333333  0.81361033  1
  Ca  Ca47  1  0.72401767  0.88575433  0.91304133  1
  Ca  Ca48  1  0.19451933  0.80220267  0.71672367  1
  Ca  Ca49  1  0.11424567  0.83826333  0.91304133  1
  Ca  Ca50  1  0.19779733  0.39231667  0.71672367  1
  Ca  Ca51  1  0.59713300  0.77732600  0.82206500  1
  Ca  Ca52  1  0.94101667  0.46886933  0.88339033  1
  Ca  Ca53  1  0.52785267  0.05898333  0.88339033  1
  Ca  Ca54  1  0.16173667  0.27598233  0.91304133  1
  Ca  Ca55  1  0.60768333  0.80548067  0.71672367  1
  Ca  Ca56  1  0.00000000  0.00000000  0.98027700  1
  Ca  Ca57  1  0.82840333  0.21908767  0.74637467  1
  Ca  Ca58  1  0.78091233  0.60931567  0.74637467  1
  Ca  Ca59  1  0.39068433  0.17159667  0.74637467  1
  Ca  Ca60  1  0.93046633  0.48647367  0.98873167  1
  Ca  Ca61  1  0.18019300  0.40286700  0.82206500  1
  Ca  Ca62  1  0.51352633  0.44399267  0.98873167  1
  Ca  Ca63  1  0.53113067  0.47214733  0.88339033  1
  Ca  Ca64  1  0.22267400  0.81980700  0.82206500  1
  Ca  Ca65  1  0.55600733  0.06953367  0.98873167  1
  V  V66  1  0.49014500  0.02189000  0.17941900  1
  V  V67  1  0.19841167  0.35522333  0.01275233  1
  V  V68  1  0.18650000  0.31864700  0.11547500  1
  V  V69  1  0.97811000  0.46825500  0.17941900  1
  V  V70  1  0.46548033  0.98531367  0.28214167  1
  V  V71  1  0.51983333  0.53451967  0.28214167  1
  V  V72  1  0.68135300  0.86785300  0.11547500  1
  V  V73  1  0.66666667  0.33333333  0.04518200  1
  V  V74  1  0.13214700  0.81350000  0.11547500  1
  V  V75  1  0.64477667  0.84318833  0.01275233  1
  V  V76  1  0.15681167  0.80158833  0.01275233  1
  V  V77  1  0.01468633  0.48016667  0.28214167  1
  V  V78  1  0.53174500  0.50985500  0.17941900  1
  V  V79  1  0.00000000  0.00000000  0.21184867  1
  V  V80  1  0.15681167  0.35522333  0.51275233  1
  V  V81  1  0.86507833  0.68855667  0.34608567  1
  V  V82  1  0.85316667  0.65198033  0.44880833  1
  V  V83  1  0.64477667  0.80158833  0.51275233  1
  V  V84  1  0.13214700  0.31864700  0.61547500  1
  V  V85  1  0.18650000  0.86785300  0.61547500  1
  V  V86  1  0.34801967  0.20118633  0.44880833  1
  V  V87  1  0.33333333  0.66666667  0.37851533  1
  V  V88  1  0.79881367  0.14683333  0.44880833  1
  V  V89  1  0.31144333  0.17652167  0.34608567  1
  V  V90  1  0.82347833  0.13492167  0.34608567  1
  V  V91  1  0.68135300  0.81350000  0.61547500  1
  V  V92  1  0.19841167  0.84318833  0.51275233  1
  V  V93  1  0.66666667  0.33333333  0.54518200  1
  V  V94  1  0.82347833  0.68855667  0.84608567  1
  V  V95  1  0.53174500  0.02189000  0.67941900  1
  V  V96  1  0.51983333  0.98531367  0.78214167  1
  V  V97  1  0.31144333  0.13492167  0.84608567  1
  V  V98  1  0.79881367  0.65198033  0.94880833  1
  V  V99  1  0.85316667  0.20118633  0.94880833  1
  V  V100  1  0.01468633  0.53451967  0.78214167  1
  V  V101  1  0.00000000  0.00000000  0.71184867  1
  V  V102  1  0.46548033  0.48016667  0.78214167  1
  V  V103  1  0.97811000  0.50985500  0.67941900  1
  V  V104  1  0.49014500  0.46825500  0.67941900  1
  V  V105  1  0.34801967  0.14683333  0.94880833  1
  V  V106  1  0.86507833  0.17652167  0.84608567  1
  V  V107  1  0.33333333  0.66666667  0.87851533  1
  O  O108  1  0.35957033  0.45810267  0.26132367  1
  O  O109  1  0.88171833  0.54797267  0.19033167  1
  O  O110  1  0.94674633  0.41100967  0.13638667  1
  O  O111  1  0.08280267  0.17782433  0.02106233  1
  O  O112  1  0.95640300  0.70115300  0.10552100  1
  O  O113  1  0.82297533  0.34342667  0.05886267  1
  O  O114  1  0.00000000  0.00000000  0.16619800  1
  O  O115  1  0.83778067  0.39967633  0.27048633  1
  O  O116  1  0.79759667  0.07767633  0.30305333  1
  O  O117  1  0.28007967  0.20240333  0.30305333  1
  O  O118  1  0.82217567  0.90497833  0.02106233  1
  O  O119  1  0.33292100  0.88130600  0.02366500  1
  O  O120  1  0.45202733  0.33374567  0.19033167  1
  O  O121  1  0.41613600  0.57164500  0.18772900  1
  O  O122  1  0.04077333  0.51446567  0.32656767  1
  O  O123  1  0.22856233  0.73300967  0.10381967  1
  O  O124  1  0.61150833  0.95994067  0.03670867  1
  O  O125  1  0.34843233  0.38849167  0.03670867  1
  O  O126  1  0.76519900  0.79143600  0.09465700  1
  O  O127  1  0.33333333  0.66666667  0.33286467  1
  O  O128  1  0.46426333  0.05325367  0.13638667  1
  O  O129  1  0.26699033  0.49555267  0.10381967  1
  O  O130  1  0.65657333  0.47954867  0.05886267  1
  O  O131  1  0.09853233  0.64042967  0.26132367  1
  O  O132  1  0.74475000  0.04359700  0.10552100  1
  O  O133  1  0.58899033  0.53573667  0.13638667  1
  O  O134  1  0.02623700  0.23480100  0.09465700  1
  O  O135  1  0.54189733  0.90146767  0.26132367  1
  O  O136  1  0.52045133  0.17702467  0.05886267  1
  O  O137  1  0.07808333  0.36781967  0.27218767  1
  O  O138  1  0.15630867  0.14621533  0.22552933  1
  O  O139  1  0.56189567  0.16221933  0.27048633  1
  O  O140  1  0.47369233  0.95922667  0.32656767  1
  O  O141  1  0.50444733  0.77143767  0.10381967  1
  O  O142  1  0.70744000  0.85964100  0.15990100  1
  O  O143  1  0.48553433  0.52630767  0.32656767  1
  O  O144  1  0.11869400  0.45161500  0.02366500  1
  O  O145  1  0.15550900  0.58386400  0.18772900  1
  O  O146  1  0.29884700  0.25525000  0.10552100  1
  O  O147  1  0.94484167  0.31823433  0.20337533  1
  O  O148  1  0.42835500  0.84449100  0.18772900  1
  O  O149  1  0.68176567  0.62660733  0.20337533  1
  O  O150  1  0.66625433  0.11828167  0.19033167  1
  O  O151  1  0.28973633  0.92191667  0.27218767  1
  O  O152  1  0.37339267  0.05515833  0.20337533  1
  O  O153  1  0.98990667  0.84369133  0.22552933  1
  O  O154  1  0.20856400  0.97376300  0.09465700  1
  O  O155  1  0.14035900  0.84779900  0.15990100  1
  O  O156  1  0.92232367  0.71992033  0.30305333  1
  O  O157  1  0.60032367  0.43810433  0.27048633  1
  O  O158  1  0.15220100  0.29256000  0.15990100  1
  O  O159  1  0.85378467  0.01009333  0.22552933  1
  O  O160  1  0.04005933  0.65156767  0.03670867  1
  O  O161  1  0.09502167  0.91719733  0.02106233  1
  O  O162  1  0.54838500  0.66707900  0.02366500  1
  O  O163  1  0.63218033  0.71026367  0.27218767  1
  O  O164  1  0.02623700  0.79143600  0.59465700  1
  O  O165  1  0.54838500  0.88130600  0.52366500  1
  O  O166  1  0.61341300  0.74434300  0.46972000  1
  O  O167  1  0.74946933  0.51115767  0.35439567  1
  O  O168  1  0.62306967  0.03448633  0.43885433  1
  O  O169  1  0.48964200  0.67676000  0.39219600  1
  O  O170  1  0.66666667  0.33333333  0.49953133  1
  O  O171  1  0.50444733  0.73300967  0.60381967  1
  O  O172  1  0.46426333  0.41100967  0.63638667  1
  O  O173  1  0.94674633  0.53573667  0.63638667  1
  O  O174  1  0.48884233  0.23831167  0.35439567  1
  O  O175  1  0.99958767  0.21463933  0.35699833  1
  O  O176  1  0.11869400  0.66707900  0.52366500  1
  O  O177  1  0.08280267  0.90497833  0.52106233  1
  O  O178  1  0.70744000  0.84779900  0.65990100  1
  O  O179  1  0.89522900  0.06634300  0.43715300  1
  O  O180  1  0.27817500  0.29327400  0.37004200  1
  O  O181  1  0.01509900  0.72182500  0.37004200  1
  O  O182  1  0.43186567  0.12476933  0.42799033  1
  O  O183  1  0.00000000  0.00000000  0.66619800  1
  O  O184  1  0.13093000  0.38658700  0.46972000  1
  O  O185  1  0.93365700  0.82888600  0.43715300  1
  O  O186  1  0.32324000  0.81288200  0.39219600  1
  O  O187  1  0.76519900  0.97376300  0.59465700  1
  O  O188  1  0.41141667  0.37693033  0.43885433  1
  O  O189  1  0.25565700  0.86907000  0.46972000  1
  O  O190  1  0.69290367  0.56813433  0.42799033  1
  O  O191  1  0.20856400  0.23480100  0.59465700  1
  O  O192  1  0.18711800  0.51035800  0.39219600  1
  O  O193  1  0.74475000  0.70115300  0.60552100  1
  O  O194  1  0.82297533  0.47954867  0.55886267  1
  O  O195  1  0.22856233  0.49555267  0.60381967  1
  O  O196  1  0.14035900  0.29256000  0.65990100  1
  O  O197  1  0.17111400  0.10477100  0.43715300  1
  O  O198  1  0.37410667  0.19297433  0.49323433  1
  O  O199  1  0.15220100  0.85964100  0.65990100  1
  O  O200  1  0.78536067  0.78494833  0.35699833  1
  O  O201  1  0.82217567  0.91719733  0.52106233  1
  O  O202  1  0.96551367  0.58858333  0.43885433  1
  O  O203  1  0.61150833  0.65156767  0.53670867  1
  O  O204  1  0.09502167  0.17782433  0.52106233  1
  O  O205  1  0.34843233  0.95994067  0.53670867  1
  O  O206  1  0.33292100  0.45161500  0.52366500  1
  O  O207  1  0.95640300  0.25525000  0.60552100  1
  O  O208  1  0.04005933  0.38849167  0.53670867  1
  O  O209  1  0.65657333  0.17702467  0.55886267  1
  O  O210  1  0.87523067  0.30709633  0.42799033  1
  O  O211  1  0.80702567  0.18113233  0.49323433  1
  O  O212  1  0.58899033  0.05325367  0.63638667  1
  O  O213  1  0.26699033  0.77143767  0.60381967  1
  O  O214  1  0.81886767  0.62589333  0.49323433  1
  O  O215  1  0.52045133  0.34342667  0.55886267  1
  O  O216  1  0.70672600  0.98490100  0.37004200  1
  O  O217  1  0.76168833  0.25053067  0.35439567  1
  O  O218  1  0.21505167  0.00041233  0.35699833  1
  O  O219  1  0.29884700  0.04359700  0.60552100  1
  O  O220  1  0.69290367  0.12476933  0.92799033  1
  O  O221  1  0.21505167  0.21463933  0.85699833  1
  O  O222  1  0.28007967  0.07767633  0.80305333  1
  O  O223  1  0.41613600  0.84449100  0.68772900  1
  O  O224  1  0.28973633  0.36781967  0.77218767  1
  O  O225  1  0.15630867  0.01009333  0.72552933  1
  O  O226  1  0.33333333  0.66666667  0.83286467  1
  O  O227  1  0.17111400  0.06634300  0.93715300  1
  O  O228  1  0.13093000  0.74434300  0.96972000  1
  O  O229  1  0.61341300  0.86907000  0.96972000  1
  O  O230  1  0.15550900  0.57164500  0.68772900  1
  O  O231  1  0.66625433  0.54797267  0.69033167  1
  O  O232  1  0.78536067  0.00041233  0.85699833  1
  O  O233  1  0.74946933  0.23831167  0.85439567  1
  O  O234  1  0.37410667  0.18113233  0.99323433  1
  O  O235  1  0.56189567  0.39967633  0.77048633  1
  O  O236  1  0.94484167  0.62660733  0.70337533  1
  O  O237  1  0.68176567  0.05515833  0.70337533  1
  O  O238  1  0.09853233  0.45810267  0.76132367  1
  O  O239  1  0.66666667  0.33333333  0.99953133  1
  O  O240  1  0.79759667  0.71992033  0.80305333  1
  O  O241  1  0.60032367  0.16221933  0.77048633  1
  O  O242  1  0.98990667  0.14621533  0.72552933  1
  O  O243  1  0.43186567  0.30709633  0.92799033  1
  O  O244  1  0.07808333  0.71026367  0.77218767  1
  O  O245  1  0.92232367  0.20240333  0.80305333  1
  O  O246  1  0.35957033  0.90146767  0.76132367  1
  O  O247  1  0.87523067  0.56813433  0.92799033  1
  O  O248  1  0.85378467  0.84369133  0.72552933  1
  O  O249  1  0.41141667  0.03448633  0.93885433  1
  O  O250  1  0.48964200  0.81288200  0.89219600  1
  O  O251  1  0.89522900  0.82888600  0.93715300  1
  O  O252  1  0.80702567  0.62589333  0.99323433  1
  O  O253  1  0.83778067  0.43810433  0.77048633  1
  O  O254  1  0.04077333  0.52630767  0.82656767  1
  O  O255  1  0.81886767  0.19297433  0.99323433  1
  O  O256  1  0.45202733  0.11828167  0.69033167  1
  O  O257  1  0.48884233  0.25053067  0.85439567  1
  O  O258  1  0.63218033  0.92191667  0.77218767  1
  O  O259  1  0.27817500  0.98490100  0.87004200  1
  O  O260  1  0.76168833  0.51115767  0.85439567  1
  O  O261  1  0.01509900  0.29327400  0.87004200  1
  O  O262  1  0.99958767  0.78494833  0.85699833  1
  O  O263  1  0.62306967  0.58858333  0.93885433  1
  O  O264  1  0.70672600  0.72182500  0.87004200  1
  O  O265  1  0.32324000  0.51035800  0.89219600  1
  O  O266  1  0.54189733  0.64042967  0.76132367  1
  O  O267  1  0.47369233  0.51446567  0.82656767  1
  O  O268  1  0.25565700  0.38658700  0.96972000  1
  O  O269  1  0.93365700  0.10477100  0.93715300  1
  O  O270  1  0.48553433  0.95922667  0.82656767  1
  O  O271  1  0.18711800  0.67676000  0.89219600  1
  O  O272  1  0.37339267  0.31823433  0.70337533  1
  O  O273  1  0.42835500  0.58386400  0.68772900  1
  O  O274  1  0.88171833  0.33374567  0.69033167  1
  O  O275  1  0.96551367  0.37693033  0.93885433  1
