# generated using pymatgen
data_Bi(PO3)4
_symmetry_space_group_name_H-M   'P 1'
_cell_length_a   16.42565200
_cell_length_b   7.18592200
_cell_length_c   9.60030271
_cell_angle_alpha   90.00000000
_cell_angle_beta   125.41265574
_cell_angle_gamma   90.00000000
_symmetry_Int_Tables_number   1
_chemical_formula_structural   Bi(PO3)4
_chemical_formula_sum   'Bi4 P16 O48'
_cell_volume   923.52266285
_cell_formula_units_Z   4
loop_
 _symmetry_equiv_pos_site_id
 _symmetry_equiv_pos_as_xyz
  1  'x, y, z'
loop_
 _atom_site_type_symbol
 _atom_site_label
 _atom_site_symmetry_multiplicity
 _atom_site_fract_x
 _atom_site_fract_y
 _atom_site_fract_z
 _atom_site_occupancy
  Bi  Bi0  1  0.00000000  0.20654800  0.75000000  1
  Bi  Bi1  1  0.00000000  0.79345200  0.25000000  1
  Bi  Bi2  1  0.50000000  0.70654800  0.75000000  1
  Bi  Bi3  1  0.50000000  0.29345200  0.25000000  1
  P  P4  1  0.85368000  0.13771500  0.30553000  1
  P  P5  1  0.86132100  0.53282600  0.38073600  1
  P  P6  1  0.64632000  0.63771500  0.19447000  1
  P  P7  1  0.36132100  0.96717400  0.88073600  1
  P  P8  1  0.63867900  0.03282600  0.11926400  1
  P  P9  1  0.35368000  0.36228500  0.80553000  1
  P  P10  1  0.13867900  0.46717400  0.61926400  1
  P  P11  1  0.14632000  0.86228500  0.69447000  1
  P  P12  1  0.35368000  0.63771500  0.30553000  1
  P  P13  1  0.36132100  0.03282600  0.38073600  1
  P  P14  1  0.14632000  0.13771500  0.19447000  1
  P  P15  1  0.86132100  0.46717400  0.88073600  1
  P  P16  1  0.13867900  0.53282600  0.11926400  1
  P  P17  1  0.85368000  0.86228500  0.80553000  1
  P  P18  1  0.63867900  0.96717400  0.61926400  1
  P  P19  1  0.64632000  0.36228500  0.69447000  1
  O  O20  1  0.84205400  0.35735900  0.26110700  1
  O  O21  1  0.75378300  0.56198300  0.34760700  1
  O  O22  1  0.06865100  0.06527500  0.21553400  1
  O  O23  1  0.93134900  0.06527500  0.28446600  1
  O  O24  1  0.63334000  0.60898100  0.02633600  1
  O  O25  1  0.88121350  0.70012850  0.30908800  1
  O  O26  1  0.38121350  0.79987150  0.80908800  1
  O  O27  1  0.65794600  0.85735900  0.23889300  1
  O  O28  1  0.13334000  0.89101900  0.52633600  1
  O  O29  1  0.25378300  0.93801700  0.84760700  1
  O  O30  1  0.06601000  0.51183000  0.43302900  1
  O  O31  1  0.93399000  0.51183000  0.06697100  1
  O  O32  1  0.06601000  0.48817000  0.93302900  1
  O  O33  1  0.93399000  0.48817000  0.56697100  1
  O  O34  1  0.74621700  0.06198300  0.15239300  1
  O  O35  1  0.86666000  0.10898100  0.47366400  1
  O  O36  1  0.34205400  0.14264100  0.76110700  1
  O  O37  1  0.61878650  0.20012850  0.19091200  1
  O  O38  1  0.11878650  0.29987150  0.69091200  1
  O  O39  1  0.36666000  0.39101900  0.97366400  1
  O  O40  1  0.06865100  0.93472500  0.71553400  1
  O  O41  1  0.93134900  0.93472500  0.78446600  1
  O  O42  1  0.24621700  0.43801700  0.65239300  1
  O  O43  1  0.15794600  0.64264100  0.73889300  1
  O  O44  1  0.34205400  0.85735900  0.26110700  1
  O  O45  1  0.25378300  0.06198300  0.34760700  1
  O  O46  1  0.56865100  0.56527500  0.21553400  1
  O  O47  1  0.43134900  0.56527500  0.28446600  1
  O  O48  1  0.13334000  0.10898100  0.02633600  1
  O  O49  1  0.38121350  0.20012850  0.30908800  1
  O  O50  1  0.88121350  0.29987150  0.80908800  1
  O  O51  1  0.15794600  0.35735900  0.23889300  1
  O  O52  1  0.63334000  0.39101900  0.52633600  1
  O  O53  1  0.75378300  0.43801700  0.84760700  1
  O  O54  1  0.56601000  0.01183000  0.43302900  1
  O  O55  1  0.43399000  0.01183000  0.06697100  1
  O  O56  1  0.56601000  0.98817000  0.93302900  1
  O  O57  1  0.43399000  0.98817000  0.56697100  1
  O  O58  1  0.24621700  0.56198300  0.15239300  1
  O  O59  1  0.36666000  0.60898100  0.47366400  1
  O  O60  1  0.84205400  0.64264100  0.76110700  1
  O  O61  1  0.11878650  0.70012850  0.19091200  1
  O  O62  1  0.61878650  0.79987150  0.69091200  1
  O  O63  1  0.86666000  0.89101900  0.97366400  1
  O  O64  1  0.56865100  0.43472500  0.71553400  1
  O  O65  1  0.43134900  0.43472500  0.78446600  1
  O  O66  1  0.74621700  0.93801700  0.65239300  1
  O  O67  1  0.65794600  0.14264100  0.73889300  1
