# generated using pymatgen
data_YCl
_symmetry_space_group_name_H-M   'P 1'
_cell_length_a   3.76489187
_cell_length_b   3.76489187
_cell_length_c   28.29695071
_cell_angle_alpha   90.00000000
_cell_angle_beta   90.00000000
_cell_angle_gamma   120.00000000
_symmetry_Int_Tables_number   1
_chemical_formula_structural   YCl
_chemical_formula_sum   'Y6 Cl6'
_cell_volume   347.35638366
_cell_formula_units_Z   6
loop_
 _symmetry_equiv_pos_site_id
 _symmetry_equiv_pos_as_xyz
  1  'x, y, z'
loop_
 _atom_site_type_symbol
 _atom_site_label
 _atom_site_symmetry_multiplicity
 _atom_site_fract_x
 _atom_site_fract_y
 _atom_site_fract_z
 _atom_site_occupancy
  Y  Y0  1  0.00000000  0.00000000  0.21640500  1
  Y  Y1  1  0.66666667  0.33333333  0.11692833  1
  Y  Y2  1  0.66666667  0.33333333  0.54973833  1
  Y  Y3  1  0.33333333  0.66666667  0.45026167  1
  Y  Y4  1  0.33333333  0.66666667  0.88307167  1
  Y  Y5  1  0.00000000  0.00000000  0.78359500  1
  Cl  Cl6  1  0.33333333  0.66666667  0.05586267  1
  Cl  Cl7  1  0.33333333  0.66666667  0.27747067  1
  Cl  Cl8  1  0.00000000  0.00000000  0.38919600  1
  Cl  Cl9  1  0.00000000  0.00000000  0.61080400  1
  Cl  Cl10  1  0.66666667  0.33333333  0.72252933  1
  Cl  Cl11  1  0.66666667  0.33333333  0.94413733  1
