# generated using pymatgen
data_SmCo9Si4
_symmetry_space_group_name_H-M   'P 1'
_cell_length_a   7.72917200
_cell_length_b   7.72917200
_cell_length_c   11.42866600
_cell_angle_alpha   90.00000000
_cell_angle_beta   90.00000000
_cell_angle_gamma   90.00000000
_symmetry_Int_Tables_number   1
_chemical_formula_structural   SmCo9Si4
_chemical_formula_sum   'Sm4 Co36 Si16'
_cell_volume   682.74964748
_cell_formula_units_Z   4
loop_
 _symmetry_equiv_pos_site_id
 _symmetry_equiv_pos_as_xyz
  1  'x, y, z'
loop_
 _atom_site_type_symbol
 _atom_site_label
 _atom_site_symmetry_multiplicity
 _atom_site_fract_x
 _atom_site_fract_y
 _atom_site_fract_z
 _atom_site_occupancy
  Sm  Sm0  1  0.00000000  0.00000000  0.25000000  1
  Sm  Sm1  1  0.50000000  0.50000000  0.25000000  1
  Sm  Sm2  1  0.50000000  0.50000000  0.75000000  1
  Sm  Sm3  1  0.00000000  0.00000000  0.75000000  1
  Co  Co4  1  0.36971050  0.86971050  0.18043050  1
  Co  Co5  1  0.86971050  0.36971050  0.31956950  1
  Co  Co6  1  0.50000000  0.00000000  0.00000000  1
  Co  Co7  1  0.19935800  0.92951000  0.00000000  1
  Co  Co8  1  0.42951000  0.30064200  0.50000000  1
  Co  Co9  1  0.36971050  0.13028950  0.31956950  1
  Co  Co10  1  0.80064200  0.07049000  0.00000000  1
  Co  Co11  1  0.86971050  0.63028950  0.18043050  1
  Co  Co12  1  0.13028950  0.36971050  0.18043050  1
  Co  Co13  1  0.13028950  0.63028950  0.31956950  1
  Co  Co14  1  0.63028950  0.86971050  0.31956950  1
  Co  Co15  1  0.57049000  0.30064200  0.00000000  1
  Co  Co16  1  0.69935800  0.57049000  0.00000000  1
  Co  Co17  1  0.80064200  0.92951000  0.50000000  1
  Co  Co18  1  0.07049000  0.19935800  0.00000000  1
  Co  Co19  1  0.42951000  0.69935800  0.00000000  1
  Co  Co20  1  0.00000000  0.50000000  0.00000000  1
  Co  Co21  1  0.63028950  0.13028950  0.18043050  1
  Co  Co22  1  0.86971050  0.36971050  0.68043050  1
  Co  Co23  1  0.36971050  0.86971050  0.81956950  1
  Co  Co24  1  0.00000000  0.50000000  0.50000000  1
  Co  Co25  1  0.69935800  0.42951000  0.50000000  1
  Co  Co26  1  0.92951000  0.80064200  0.00000000  1
  Co  Co27  1  0.86971050  0.63028950  0.81956950  1
  Co  Co28  1  0.30064200  0.57049000  0.50000000  1
  Co  Co29  1  0.36971050  0.13028950  0.68043050  1
  Co  Co30  1  0.63028950  0.86971050  0.68043050  1
  Co  Co31  1  0.63028950  0.13028950  0.81956950  1
  Co  Co32  1  0.13028950  0.36971050  0.81956950  1
  Co  Co33  1  0.07049000  0.80064200  0.50000000  1
  Co  Co34  1  0.19935800  0.07049000  0.50000000  1
  Co  Co35  1  0.30064200  0.42951000  0.00000000  1
  Co  Co36  1  0.57049000  0.69935800  0.50000000  1
  Co  Co37  1  0.92951000  0.19935800  0.50000000  1
  Co  Co38  1  0.50000000  0.00000000  0.50000000  1
  Co  Co39  1  0.13028950  0.63028950  0.68043050  1
  Si  Si40  1  0.83121050  0.66878950  0.37861450  1
  Si  Si41  1  0.33121050  0.83121050  0.37861450  1
  Si  Si42  1  0.16878950  0.66878950  0.12138550  1
  Si  Si43  1  0.83121050  0.33121050  0.12138550  1
  Si  Si44  1  0.66878950  0.16878950  0.37861450  1
  Si  Si45  1  0.66878950  0.83121050  0.12138550  1
  Si  Si46  1  0.33121050  0.16878950  0.12138550  1
  Si  Si47  1  0.16878950  0.33121050  0.37861450  1
  Si  Si48  1  0.33121050  0.16878950  0.87861450  1
  Si  Si49  1  0.83121050  0.33121050  0.87861450  1
  Si  Si50  1  0.66878950  0.16878950  0.62138550  1
  Si  Si51  1  0.33121050  0.83121050  0.62138550  1
  Si  Si52  1  0.16878950  0.66878950  0.87861450  1
  Si  Si53  1  0.16878950  0.33121050  0.62138550  1
  Si  Si54  1  0.83121050  0.66878950  0.62138550  1
  Si  Si55  1  0.66878950  0.83121050  0.87861450  1
