# generated using pymatgen
data_Tl4Ag18Te11
_symmetry_space_group_name_H-M   'P 1'
_cell_length_a   13.39428800
_cell_length_b   13.39428800
_cell_length_c   18.98141000
_cell_angle_alpha   90.00000000
_cell_angle_beta   90.00000000
_cell_angle_gamma   90.00000000
_symmetry_Int_Tables_number   1
_chemical_formula_structural   Tl4Ag18Te11
_chemical_formula_sum   'Tl16 Ag72 Te44'
_cell_volume   3405.39689429
_cell_formula_units_Z   4
loop_
 _symmetry_equiv_pos_site_id
 _symmetry_equiv_pos_as_xyz
  1  'x, y, z'
loop_
 _atom_site_type_symbol
 _atom_site_label
 _atom_site_symmetry_multiplicity
 _atom_site_fract_x
 _atom_site_fract_y
 _atom_site_fract_z
 _atom_site_occupancy
  Tl  Tl0  1  0.50000000  0.50000000  0.49916800  1
  Tl  Tl1  1  0.50000000  0.50000000  0.26437100  1
  Tl  Tl2  1  0.76524650  0.23475350  0.00050150  1
  Tl  Tl3  1  0.23475350  0.23475350  0.00050150  1
  Tl  Tl4  1  0.76524650  0.76524650  0.00050150  1
  Tl  Tl5  1  0.00000000  0.00000000  0.44029900  1
  Tl  Tl6  1  0.23475350  0.76524650  0.00050150  1
  Tl  Tl7  1  0.00000000  0.00000000  0.22734200  1
  Tl  Tl8  1  0.00000000  0.00000000  0.99916800  1
  Tl  Tl9  1  0.00000000  0.00000000  0.76437100  1
  Tl  Tl10  1  0.26524650  0.73475350  0.50050150  1
  Tl  Tl11  1  0.73475350  0.73475350  0.50050150  1
  Tl  Tl12  1  0.26524650  0.26524650  0.50050150  1
  Tl  Tl13  1  0.50000000  0.50000000  0.94029900  1
  Tl  Tl14  1  0.73475350  0.26524650  0.50050150  1
  Tl  Tl15  1  0.50000000  0.50000000  0.72734200  1
  Ag  Ag16  1  0.11038800  0.37469500  0.36832600  1
  Ag  Ag17  1  0.88961200  0.37469500  0.36832600  1
  Ag  Ag18  1  0.00000000  0.26537900  0.25659100  1
  Ag  Ag19  1  0.23490000  0.50000000  0.24268000  1
  Ag  Ag20  1  0.11038800  0.62530500  0.36832600  1
  Ag  Ag21  1  0.88961200  0.62530500  0.36832600  1
  Ag  Ag22  1  0.12564450  0.38954250  0.13186750  1
  Ag  Ag23  1  0.00000000  0.73462100  0.25659100  1
  Ag  Ag24  1  0.12564450  0.61045750  0.13186750  1
  Ag  Ag25  1  0.76510000  0.50000000  0.24268000  1
  Ag  Ag26  1  0.87435550  0.38954250  0.13186750  1
  Ag  Ag27  1  0.50000000  0.23490000  0.24268000  1
  Ag  Ag28  1  0.61045750  0.12564450  0.13186750  1
  Ag  Ag29  1  0.87435550  0.61045750  0.13186750  1
  Ag  Ag30  1  0.38954250  0.12564450  0.13186750  1
  Ag  Ag31  1  0.50000000  0.76510000  0.24268000  1
  Ag  Ag32  1  0.37469500  0.88961200  0.36832600  1
  Ag  Ag33  1  0.37469500  0.11038800  0.36832600  1
  Ag  Ag34  1  0.61045750  0.87435550  0.13186750  1
  Ag  Ag35  1  0.38954250  0.87435550  0.13186750  1
  Ag  Ag36  1  0.26537900  0.00000000  0.25659100  1
  Ag  Ag37  1  0.00000000  0.38661900  0.00003000  1
  Ag  Ag38  1  0.69107550  0.69107550  0.30663850  1
  Ag  Ag39  1  0.62530500  0.88961200  0.36832600  1
  Ag  Ag40  1  0.00000000  0.61338100  0.00003000  1
  Ag  Ag41  1  0.80660450  0.80660450  0.19209650  1
  Ag  Ag42  1  0.73462100  0.00000000  0.25659100  1
  Ag  Ag43  1  0.62530500  0.11038800  0.36832600  1
  Ag  Ag44  1  0.30892450  0.69107550  0.30663850  1
  Ag  Ag45  1  0.69107550  0.30892450  0.30663850  1
  Ag  Ag46  1  0.80660450  0.19339550  0.19209650  1
  Ag  Ag47  1  0.19339550  0.80660450  0.19209650  1
  Ag  Ag48  1  0.30892450  0.30892450  0.30663850  1
  Ag  Ag49  1  0.61338100  0.00000000  0.00003000  1
  Ag  Ag50  1  0.19339550  0.19339550  0.19209650  1
  Ag  Ag51  1  0.38661900  0.00000000  0.00003000  1
  Ag  Ag52  1  0.61038800  0.87469500  0.86832600  1
  Ag  Ag53  1  0.38961200  0.87469500  0.86832600  1
  Ag  Ag54  1  0.50000000  0.76537900  0.75659100  1
  Ag  Ag55  1  0.73490000  0.00000000  0.74268000  1
  Ag  Ag56  1  0.61038800  0.12530500  0.86832600  1
  Ag  Ag57  1  0.38961200  0.12530500  0.86832600  1
  Ag  Ag58  1  0.62564450  0.88954250  0.63186750  1
  Ag  Ag59  1  0.50000000  0.23462100  0.75659100  1
  Ag  Ag60  1  0.62564450  0.11045750  0.63186750  1
  Ag  Ag61  1  0.26510000  0.00000000  0.74268000  1
  Ag  Ag62  1  0.37435550  0.88954250  0.63186750  1
  Ag  Ag63  1  0.00000000  0.73490000  0.74268000  1
  Ag  Ag64  1  0.11045750  0.62564450  0.63186750  1
  Ag  Ag65  1  0.37435550  0.11045750  0.63186750  1
  Ag  Ag66  1  0.88954250  0.62564450  0.63186750  1
  Ag  Ag67  1  0.00000000  0.26510000  0.74268000  1
  Ag  Ag68  1  0.87469500  0.38961200  0.86832600  1
  Ag  Ag69  1  0.87469500  0.61038800  0.86832600  1
  Ag  Ag70  1  0.11045750  0.37435550  0.63186750  1
  Ag  Ag71  1  0.88954250  0.37435550  0.63186750  1
  Ag  Ag72  1  0.76537900  0.50000000  0.75659100  1
  Ag  Ag73  1  0.50000000  0.88661900  0.50003000  1
  Ag  Ag74  1  0.19107550  0.19107550  0.80663850  1
  Ag  Ag75  1  0.12530500  0.38961200  0.86832600  1
  Ag  Ag76  1  0.50000000  0.11338100  0.50003000  1
  Ag  Ag77  1  0.30660450  0.30660450  0.69209650  1
  Ag  Ag78  1  0.23462100  0.50000000  0.75659100  1
  Ag  Ag79  1  0.12530500  0.61038800  0.86832600  1
  Ag  Ag80  1  0.80892450  0.19107550  0.80663850  1
  Ag  Ag81  1  0.19107550  0.80892450  0.80663850  1
  Ag  Ag82  1  0.30660450  0.69339550  0.69209650  1
  Ag  Ag83  1  0.69339550  0.30660450  0.69209650  1
  Ag  Ag84  1  0.80892450  0.80892450  0.80663850  1
  Ag  Ag85  1  0.11338100  0.50000000  0.50003000  1
  Ag  Ag86  1  0.69339550  0.69339550  0.69209650  1
  Ag  Ag87  1  0.88661900  0.50000000  0.50003000  1
  Te  Te88  1  0.28166400  0.50000000  0.39099900  1
  Te  Te89  1  0.71833600  0.50000000  0.39099900  1
  Te  Te90  1  0.00000000  0.21818800  0.10825100  1
  Te  Te91  1  0.00000000  0.50000000  0.24952500  1
  Te  Te92  1  0.65776900  0.34223100  0.15793500  1
  Te  Te93  1  0.00000000  0.78181200  0.10825100  1
  Te  Te94  1  0.81463800  0.50000000  0.00050600  1
  Te  Te95  1  0.65776900  0.65776900  0.15793500  1
  Te  Te96  1  0.34223100  0.34223100  0.15793500  1
  Te  Te97  1  0.50000000  0.18536200  0.00050600  1
  Te  Te98  1  0.34223100  0.65776900  0.15793500  1
  Te  Te99  1  0.15792400  0.84207600  0.34114900  1
  Te  Te100  1  0.18536200  0.50000000  0.00050600  1
  Te  Te101  1  0.84207600  0.84207600  0.34114900  1
  Te  Te102  1  0.15792400  0.15792400  0.34114900  1
  Te  Te103  1  0.50000000  0.81463800  0.00050600  1
  Te  Te104  1  0.50000000  0.71833600  0.39099900  1
  Te  Te105  1  0.84207600  0.15792400  0.34114900  1
  Te  Te106  1  0.50000000  0.28166400  0.39099900  1
  Te  Te107  1  0.78181200  0.00000000  0.10825100  1
  Te  Te108  1  0.50000000  0.00000000  0.24952500  1
  Te  Te109  1  0.21818800  0.00000000  0.10825100  1
  Te  Te110  1  0.78166400  0.00000000  0.89099900  1
  Te  Te111  1  0.21833600  0.00000000  0.89099900  1
  Te  Te112  1  0.50000000  0.71818800  0.60825100  1
  Te  Te113  1  0.50000000  0.00000000  0.74952500  1
  Te  Te114  1  0.15776900  0.84223100  0.65793500  1
  Te  Te115  1  0.50000000  0.28181200  0.60825100  1
  Te  Te116  1  0.31463800  0.00000000  0.50050600  1
  Te  Te117  1  0.15776900  0.15776900  0.65793500  1
  Te  Te118  1  0.84223100  0.84223100  0.65793500  1
  Te  Te119  1  0.00000000  0.68536200  0.50050600  1
  Te  Te120  1  0.84223100  0.15776900  0.65793500  1
  Te  Te121  1  0.65792400  0.34207600  0.84114900  1
  Te  Te122  1  0.68536200  0.00000000  0.50050600  1
  Te  Te123  1  0.34207600  0.34207600  0.84114900  1
  Te  Te124  1  0.65792400  0.65792400  0.84114900  1
  Te  Te125  1  0.00000000  0.31463800  0.50050600  1
  Te  Te126  1  0.00000000  0.21833600  0.89099900  1
  Te  Te127  1  0.34207600  0.65792400  0.84114900  1
  Te  Te128  1  0.00000000  0.78166400  0.89099900  1
  Te  Te129  1  0.28181200  0.50000000  0.60825100  1
  Te  Te130  1  0.00000000  0.50000000  0.74952500  1
  Te  Te131  1  0.71818800  0.50000000  0.60825100  1
