# generated using pymatgen
data_Na2TbMoPO8
_symmetry_space_group_name_H-M   'P 1'
_cell_length_a   7.01251400
_cell_length_b   12.26656600
_cell_length_c   18.11302400
_cell_angle_alpha   90.00000000
_cell_angle_beta   90.00000000
_cell_angle_gamma   90.00000000
_symmetry_Int_Tables_number   1
_chemical_formula_structural   Na2TbMoPO8
_chemical_formula_sum   'Na16 Tb8 Mo8 P8 O64'
_cell_volume   1558.07264863
_cell_formula_units_Z   8
loop_
 _symmetry_equiv_pos_site_id
 _symmetry_equiv_pos_as_xyz
  1  'x, y, z'
loop_
 _atom_site_type_symbol
 _atom_site_label
 _atom_site_symmetry_multiplicity
 _atom_site_fract_x
 _atom_site_fract_y
 _atom_site_fract_z
 _atom_site_occupancy
  Na  Na0  1  0.48953200  0.45691200  0.34520200  1
  Na  Na1  1  0.01046800  0.54308800  0.84520200  1
  Na  Na2  1  0.51046800  0.54308800  0.65479800  1
  Na  Na3  1  0.48953200  0.54308800  0.15479800  1
  Na  Na4  1  0.98953200  0.45691200  0.15479800  1
  Na  Na5  1  0.98953200  0.54308800  0.34520200  1
  Na  Na6  1  0.01046800  0.45691200  0.65479800  1
  Na  Na7  1  0.51046800  0.45691200  0.84520200  1
  Na  Na8  1  0.98953200  0.95691200  0.84520200  1
  Na  Na9  1  0.51046800  0.04308800  0.34520200  1
  Na  Na10  1  0.01046800  0.04308800  0.15479800  1
  Na  Na11  1  0.98953200  0.04308800  0.65479800  1
  Na  Na12  1  0.48953200  0.95691200  0.65479800  1
  Na  Na13  1  0.48953200  0.04308800  0.84520200  1
  Na  Na14  1  0.51046800  0.95691200  0.15479800  1
  Na  Na15  1  0.01046800  0.95691200  0.34520200  1
  Tb  Tb16  1  0.25000000  0.82173200  0.00000000  1
  Tb  Tb17  1  0.75000000  0.17826800  0.00000000  1
  Tb  Tb18  1  0.75000000  0.67826800  0.00000000  1
  Tb  Tb19  1  0.25000000  0.32173200  0.00000000  1
  Tb  Tb20  1  0.75000000  0.32173200  0.50000000  1
  Tb  Tb21  1  0.25000000  0.67826800  0.50000000  1
  Tb  Tb22  1  0.25000000  0.17826800  0.50000000  1
  Tb  Tb23  1  0.75000000  0.82173200  0.50000000  1
  Mo  Mo24  1  0.50000000  0.25000000  0.17986900  1
  Mo  Mo25  1  0.00000000  0.75000000  0.17986900  1
  Mo  Mo26  1  0.50000000  0.75000000  0.82013100  1
  Mo  Mo27  1  0.00000000  0.25000000  0.82013100  1
  Mo  Mo28  1  0.00000000  0.75000000  0.67986900  1
  Mo  Mo29  1  0.50000000  0.25000000  0.67986900  1
  Mo  Mo30  1  0.00000000  0.25000000  0.32013100  1
  Mo  Mo31  1  0.50000000  0.75000000  0.32013100  1
  P  P32  1  0.75000000  0.93071900  0.00000000  1
  P  P33  1  0.25000000  0.06928100  0.00000000  1
  P  P34  1  0.25000000  0.56928100  0.00000000  1
  P  P35  1  0.75000000  0.43071900  0.00000000  1
  P  P36  1  0.25000000  0.43071900  0.50000000  1
  P  P37  1  0.75000000  0.56928100  0.50000000  1
  P  P38  1  0.75000000  0.06928100  0.50000000  1
  P  P39  1  0.25000000  0.93071900  0.50000000  1
  O  O40  1  0.96277550  0.62928150  0.73333450  1
  O  O41  1  0.42373250  0.64777350  0.00754150  1
  O  O42  1  0.20648750  0.27322550  0.87790750  1
  O  O43  1  0.07626750  0.14777350  0.00754150  1
  O  O44  1  0.92373250  0.85222650  0.99245850  1
  O  O45  1  0.42373250  0.14777350  0.99245850  1
  O  O46  1  0.53722450  0.62928150  0.26666550  1
  O  O47  1  0.79351250  0.22677450  0.87790750  1
  O  O48  1  0.46277550  0.37071850  0.73333450  1
  O  O49  1  0.96277550  0.37071850  0.76666550  1
  O  O50  1  0.57626750  0.85222650  0.00754150  1
  O  O51  1  0.03722450  0.37071850  0.26666550  1
  O  O52  1  0.26211250  0.50653950  0.56837950  1
  O  O53  1  0.07626750  0.64777350  0.99245850  1
  O  O54  1  0.53722450  0.37071850  0.23333450  1
  O  O55  1  0.79351250  0.72677450  0.12209250  1
  O  O56  1  0.23788750  0.49346050  0.06837950  1
  O  O57  1  0.26211250  0.49346050  0.93162050  1
  O  O58  1  0.73788750  0.49346050  0.43162050  1
  O  O59  1  0.76211250  0.49346050  0.56837950  1
  O  O60  1  0.76211250  0.50653950  0.93162050  1
  O  O61  1  0.29351250  0.77322550  0.87790750  1
  O  O62  1  0.57626750  0.35222650  0.99245850  1
  O  O63  1  0.92373250  0.35222650  0.00754150  1
  O  O64  1  0.23788750  0.50653950  0.43162050  1
  O  O65  1  0.29351250  0.27322550  0.12209250  1
  O  O66  1  0.73788750  0.50653950  0.06837950  1
  O  O67  1  0.70648750  0.72677450  0.87790750  1
  O  O68  1  0.70648750  0.22677450  0.12209250  1
  O  O69  1  0.46277550  0.62928150  0.76666550  1
  O  O70  1  0.03722450  0.62928150  0.23333450  1
  O  O71  1  0.20648750  0.77322550  0.12209250  1
  O  O72  1  0.46277550  0.12928150  0.23333450  1
  O  O73  1  0.92373250  0.14777350  0.50754150  1
  O  O74  1  0.70648750  0.77322550  0.37790750  1
  O  O75  1  0.57626750  0.64777350  0.50754150  1
  O  O76  1  0.42373250  0.35222650  0.49245850  1
  O  O77  1  0.92373250  0.64777350  0.49245850  1
  O  O78  1  0.03722450  0.12928150  0.76666550  1
  O  O79  1  0.29351250  0.72677450  0.37790750  1
  O  O80  1  0.96277550  0.87071850  0.23333450  1
  O  O81  1  0.46277550  0.87071850  0.26666550  1
  O  O82  1  0.07626750  0.35222650  0.50754150  1
  O  O83  1  0.53722450  0.87071850  0.76666550  1
  O  O84  1  0.76211250  0.00653950  0.06837950  1
  O  O85  1  0.57626750  0.14777350  0.49245850  1
  O  O86  1  0.03722450  0.87071850  0.73333450  1
  O  O87  1  0.29351250  0.22677450  0.62209250  1
  O  O88  1  0.73788750  0.99346050  0.56837950  1
  O  O89  1  0.76211250  0.99346050  0.43162050  1
  O  O90  1  0.23788750  0.99346050  0.93162050  1
  O  O91  1  0.26211250  0.99346050  0.06837950  1
  O  O92  1  0.26211250  0.00653950  0.43162050  1
  O  O93  1  0.79351250  0.27322550  0.37790750  1
  O  O94  1  0.07626750  0.85222650  0.49245850  1
  O  O95  1  0.42373250  0.85222650  0.50754150  1
  O  O96  1  0.73788750  0.00653950  0.93162050  1
  O  O97  1  0.79351250  0.77322550  0.62209250  1
  O  O98  1  0.23788750  0.00653950  0.56837950  1
  O  O99  1  0.20648750  0.22677450  0.37790750  1
  O  O100  1  0.20648750  0.72677450  0.62209250  1
  O  O101  1  0.96277550  0.12928150  0.26666550  1
  O  O102  1  0.53722450  0.12928150  0.73333450  1
  O  O103  1  0.70648750  0.27322550  0.62209250  1
