# generated using pymatgen
data_Li2V(PO4)2
_symmetry_space_group_name_H-M   'P 1'
_cell_length_a   5.85266730
_cell_length_b   4.83637101
_cell_length_c   10.03580376
_cell_angle_alpha   90.00000000
_cell_angle_beta   90.58077227
_cell_angle_gamma   90.00000000
_symmetry_Int_Tables_number   1
_chemical_formula_structural   Li2V(PO4)2
_chemical_formula_sum   'Li4 V2 P4 O16'
_cell_volume   284.05556049
_cell_formula_units_Z   2
loop_
 _symmetry_equiv_pos_site_id
 _symmetry_equiv_pos_as_xyz
  1  'x, y, z'
loop_
 _atom_site_type_symbol
 _atom_site_label
 _atom_site_symmetry_multiplicity
 _atom_site_fract_x
 _atom_site_fract_y
 _atom_site_fract_z
 _atom_site_occupancy
  Li  Li0  1  0.56611100  0.24572250  0.01325400  1
  Li  Li1  1  0.56611100  0.75427750  0.51325400  1
  Li  Li2  1  0.75538400  0.78266350  0.21958600  1
  Li  Li3  1  0.75538400  0.21733650  0.71958600  1
  V  V4  1  0.23790100  0.28084750  0.27513600  1
  V  V5  1  0.23790100  0.71915250  0.77513600  1
  P  P6  1  0.24687200  0.85041950  0.09740400  1
  P  P7  1  0.24687200  0.14958050  0.59740400  1
  P  P8  1  0.74181900  0.29935350  0.40340500  1
  P  P9  1  0.74181900  0.70064650  0.90340500  1
  O  O10  1  0.73520100  0.98924950  0.39213600  1
  O  O11  1  0.73520100  0.01075050  0.89213600  1
  O  O12  1  0.95061100  0.42907350  0.32194500  1
  O  O13  1  0.95061100  0.57092650  0.82194500  1
  O  O14  1  0.45107800  0.98826650  0.66450300  1
  O  O15  1  0.45107800  0.01173350  0.16450300  1
  O  O16  1  0.52285200  0.44060750  0.32968900  1
  O  O17  1  0.52285200  0.55939250  0.82968900  1
  O  O18  1  0.74404700  0.41825950  0.54307600  1
  O  O19  1  0.74404700  0.58174050  0.04307600  1
  O  O20  1  0.04937300  0.99495350  0.17492900  1
  O  O21  1  0.04937300  0.00504650  0.67492900  1
  O  O22  1  0.24423300  0.92437150  0.94715800  1
  O  O23  1  0.24423300  0.07562850  0.44715800  1
  O  O24  1  0.25465700  0.53486350  0.11748900  1
  O  O25  1  0.25465700  0.46513650  0.61748900  1
