# generated using pymatgen
data_HoMoClO4
_symmetry_space_group_name_H-M   'P 1'
_cell_length_a   10.27810400
_cell_length_b   7.29697000
_cell_length_c   6.91213226
_cell_angle_alpha   90.00000000
_cell_angle_beta   107.34810015
_cell_angle_gamma   90.00000000
_symmetry_Int_Tables_number   1
_chemical_formula_structural   HoMoClO4
_chemical_formula_sum   'Ho4 Mo4 Cl4 O16'
_cell_volume   494.82138645
_cell_formula_units_Z   4
loop_
 _symmetry_equiv_pos_site_id
 _symmetry_equiv_pos_as_xyz
  1  'x, y, z'
loop_
 _atom_site_type_symbol
 _atom_site_label
 _atom_site_symmetry_multiplicity
 _atom_site_fract_x
 _atom_site_fract_y
 _atom_site_fract_z
 _atom_site_occupancy
  Ho  Ho0  1  0.22174600  0.00000000  0.11267500  1
  Ho  Ho1  1  0.77825400  0.00000000  0.88732500  1
  Ho  Ho2  1  0.72174600  0.50000000  0.11267500  1
  Ho  Ho3  1  0.27825400  0.50000000  0.88732500  1
  Mo  Mo4  1  0.63776400  0.00000000  0.26912500  1
  Mo  Mo5  1  0.36223600  0.00000000  0.73087500  1
  Mo  Mo6  1  0.13776400  0.50000000  0.26912500  1
  Mo  Mo7  1  0.86223600  0.50000000  0.73087500  1
  Cl  Cl8  1  0.01029300  0.00000000  0.76766500  1
  Cl  Cl9  1  0.98970700  0.00000000  0.23233500  1
  Cl  Cl10  1  0.51029300  0.50000000  0.76766500  1
  Cl  Cl11  1  0.48970700  0.50000000  0.23233500  1
  O  O12  1  0.54361000  0.00000000  0.79864200  1
  O  O13  1  0.70647500  0.00000000  0.53641400  1
  O  O14  1  0.70003050  0.80855050  0.15341300  1
  O  O15  1  0.70003050  0.19144950  0.15341300  1
  O  O16  1  0.29352500  0.00000000  0.46358600  1
  O  O17  1  0.29996950  0.19144950  0.84658700  1
  O  O18  1  0.29996950  0.80855050  0.84658700  1
  O  O19  1  0.45639000  0.00000000  0.20135800  1
  O  O20  1  0.04361000  0.50000000  0.79864200  1
  O  O21  1  0.20647500  0.50000000  0.53641400  1
  O  O22  1  0.20003050  0.30855050  0.15341300  1
  O  O23  1  0.20003050  0.69144950  0.15341300  1
  O  O24  1  0.79352500  0.50000000  0.46358600  1
  O  O25  1  0.79996950  0.69144950  0.84658700  1
  O  O26  1  0.79996950  0.30855050  0.84658700  1
  O  O27  1  0.95639000  0.50000000  0.20135800  1
