# generated using pymatgen
data_VCu2BiO6
_symmetry_space_group_name_H-M   'P 1'
_cell_length_a   16.66638200
_cell_length_b   7.85239400
_cell_length_c   13.75184951
_cell_angle_alpha   90.00000000
_cell_angle_beta   117.74543435
_cell_angle_gamma   90.00000000
_symmetry_Int_Tables_number   1
_chemical_formula_structural   VCu2BiO6
_chemical_formula_sum   'V12 Cu24 Bi12 O72'
_cell_volume   1592.79518910
_cell_formula_units_Z   12
loop_
 _symmetry_equiv_pos_site_id
 _symmetry_equiv_pos_as_xyz
  1  'x, y, z'
loop_
 _atom_site_type_symbol
 _atom_site_label
 _atom_site_symmetry_multiplicity
 _atom_site_fract_x
 _atom_site_fract_y
 _atom_site_fract_z
 _atom_site_occupancy
  V  V0  1  0.15351600  0.50000000  0.46157900  1
  V  V1  1  0.95747500  0.00000000  0.76714100  1
  V  V2  1  0.04252500  0.00000000  0.23285900  1
  V  V3  1  0.84648400  0.50000000  0.53842100  1
  V  V4  1  0.81541000  0.50000000  0.12305200  1
  V  V5  1  0.18459000  0.50000000  0.87694800  1
  V  V6  1  0.65351600  0.00000000  0.46157900  1
  V  V7  1  0.45747500  0.50000000  0.76714100  1
  V  V8  1  0.54252500  0.50000000  0.23285900  1
  V  V9  1  0.34648400  0.00000000  0.53842100  1
  V  V10  1  0.31541000  0.00000000  0.12305200  1
  V  V11  1  0.68459000  0.00000000  0.87694800  1
  Cu  Cu12  1  0.05389900  0.31489200  0.63582600  1
  Cu  Cu13  1  0.39828300  0.31983900  0.97903600  1
  Cu  Cu14  1  0.73782050  0.29870850  0.29787100  1
  Cu  Cu15  1  0.05389900  0.68510800  0.63582600  1
  Cu  Cu16  1  0.60171700  0.31983900  0.02096400  1
  Cu  Cu17  1  0.73782050  0.70129150  0.29787100  1
  Cu  Cu18  1  0.26217950  0.70129150  0.70212900  1
  Cu  Cu19  1  0.94610100  0.31489200  0.36417400  1
  Cu  Cu20  1  0.60171700  0.68016100  0.02096400  1
  Cu  Cu21  1  0.26217950  0.29870850  0.70212900  1
  Cu  Cu22  1  0.94610100  0.68510800  0.36417400  1
  Cu  Cu23  1  0.39828300  0.68016100  0.97903600  1
  Cu  Cu24  1  0.55389900  0.81489200  0.63582600  1
  Cu  Cu25  1  0.89828300  0.81983900  0.97903600  1
  Cu  Cu26  1  0.23782050  0.79870850  0.29787100  1
  Cu  Cu27  1  0.55389900  0.18510800  0.63582600  1
  Cu  Cu28  1  0.10171700  0.81983900  0.02096400  1
  Cu  Cu29  1  0.23782050  0.20129150  0.29787100  1
  Cu  Cu30  1  0.76217950  0.20129150  0.70212900  1
  Cu  Cu31  1  0.44610100  0.81489200  0.36417400  1
  Cu  Cu32  1  0.10171700  0.18016100  0.02096400  1
  Cu  Cu33  1  0.76217950  0.79870850  0.70212900  1
  Cu  Cu34  1  0.44610100  0.18510800  0.36417400  1
  Cu  Cu35  1  0.89828300  0.18016100  0.97903600  1
  Bi  Bi36  1  0.06358600  0.50000000  0.15657700  1
  Bi  Bi37  1  0.21541400  0.00000000  0.83807200  1
  Bi  Bi38  1  0.78458600  0.00000000  0.16192800  1
  Bi  Bi39  1  0.87927300  0.00000000  0.46773200  1
  Bi  Bi40  1  0.93641400  0.50000000  0.84342300  1
  Bi  Bi41  1  0.12072700  0.00000000  0.53226800  1
  Bi  Bi42  1  0.56358600  0.00000000  0.15657700  1
  Bi  Bi43  1  0.71541400  0.50000000  0.83807200  1
  Bi  Bi44  1  0.28458600  0.50000000  0.16192800  1
  Bi  Bi45  1  0.37927300  0.50000000  0.46773200  1
  Bi  Bi46  1  0.43641400  0.00000000  0.84342300  1
  Bi  Bi47  1  0.62072700  0.50000000  0.53226800  1
  O  O48  1  0.30639500  0.50000000  0.93701000  1
  O  O49  1  0.32894300  0.82077200  0.84408500  1
  O  O50  1  0.19676950  0.67724350  0.54400900  1
  O  O51  1  0.84753550  0.67883250  0.08025500  1
  O  O52  1  0.15246450  0.67883250  0.91974500  1
  O  O53  1  0.86617800  0.50000000  0.27075700  1
  O  O54  1  0.00000000  0.67349600  0.00000000  1
  O  O55  1  0.68342100  0.00000000  0.35444300  1
  O  O56  1  0.67105700  0.17922800  0.15591500  1
  O  O57  1  0.31657900  0.00000000  0.64555700  1
  O  O58  1  0.00000000  0.82760200  0.50000000  1
  O  O59  1  0.96628500  0.50000000  0.58978200  1
  O  O60  1  0.84200650  0.83774250  0.31378600  1
  O  O61  1  0.00000000  0.32650400  0.00000000  1
  O  O62  1  0.02784500  0.00000000  0.91351700  1
  O  O63  1  0.00000000  0.17239800  0.50000000  1
  O  O64  1  0.19676950  0.32275650  0.54400900  1
  O  O65  1  0.67105700  0.82077200  0.15591500  1
  O  O66  1  0.33677400  0.50000000  0.72865200  1
  O  O67  1  0.32894300  0.17922800  0.84408500  1
  O  O68  1  0.13382200  0.50000000  0.72924300  1
  O  O69  1  0.97215500  0.00000000  0.08648300  1
  O  O70  1  0.02108150  0.17747150  0.28694500  1
  O  O71  1  0.84200650  0.16225750  0.31378600  1
  O  O72  1  0.80323050  0.32275650  0.45599100  1
  O  O73  1  0.80323050  0.67724350  0.45599100  1
  O  O74  1  0.69360500  0.50000000  0.06299000  1
  O  O75  1  0.97891850  0.17747150  0.71305500  1
  O  O76  1  0.66322600  0.50000000  0.27134800  1
  O  O77  1  0.84753550  0.32116750  0.08025500  1
  O  O78  1  0.15799350  0.83774250  0.68621400  1
  O  O79  1  0.97891850  0.82252850  0.71305500  1
  O  O80  1  0.03371500  0.50000000  0.41021800  1
  O  O81  1  0.15799350  0.16225750  0.68621400  1
  O  O82  1  0.02108150  0.82252850  0.28694500  1
  O  O83  1  0.15246450  0.32116750  0.91974500  1
  O  O84  1  0.80639500  0.00000000  0.93701000  1
  O  O85  1  0.82894300  0.32077200  0.84408500  1
  O  O86  1  0.69676950  0.17724350  0.54400900  1
  O  O87  1  0.34753550  0.17883250  0.08025500  1
  O  O88  1  0.65246450  0.17883250  0.91974500  1
  O  O89  1  0.36617800  0.00000000  0.27075700  1
  O  O90  1  0.50000000  0.17349600  0.00000000  1
  O  O91  1  0.18342100  0.50000000  0.35444300  1
  O  O92  1  0.17105700  0.67922800  0.15591500  1
  O  O93  1  0.81657900  0.50000000  0.64555700  1
  O  O94  1  0.50000000  0.32760200  0.50000000  1
  O  O95  1  0.46628500  0.00000000  0.58978200  1
  O  O96  1  0.34200650  0.33774250  0.31378600  1
  O  O97  1  0.50000000  0.82650400  0.00000000  1
  O  O98  1  0.52784500  0.50000000  0.91351700  1
  O  O99  1  0.50000000  0.67239800  0.50000000  1
  O  O100  1  0.69676950  0.82275650  0.54400900  1
  O  O101  1  0.17105700  0.32077200  0.15591500  1
  O  O102  1  0.83677400  0.00000000  0.72865200  1
  O  O103  1  0.82894300  0.67922800  0.84408500  1
  O  O104  1  0.63382200  0.00000000  0.72924300  1
  O  O105  1  0.47215500  0.50000000  0.08648300  1
  O  O106  1  0.52108150  0.67747150  0.28694500  1
  O  O107  1  0.34200650  0.66225750  0.31378600  1
  O  O108  1  0.30323050  0.82275650  0.45599100  1
  O  O109  1  0.30323050  0.17724350  0.45599100  1
  O  O110  1  0.19360500  0.00000000  0.06299000  1
  O  O111  1  0.47891850  0.67747150  0.71305500  1
  O  O112  1  0.16322600  0.00000000  0.27134800  1
  O  O113  1  0.34753550  0.82116750  0.08025500  1
  O  O114  1  0.65799350  0.33774250  0.68621400  1
  O  O115  1  0.47891850  0.32252850  0.71305500  1
  O  O116  1  0.53371500  0.00000000  0.41021800  1
  O  O117  1  0.65799350  0.66225750  0.68621400  1
  O  O118  1  0.52108150  0.32252850  0.28694500  1
  O  O119  1  0.65246450  0.82116750  0.91974500  1
