# generated using pymatgen
data_Ho8Mg12Zn61
_symmetry_space_group_name_H-M   'P 1'
_cell_length_a   14.08474800
_cell_length_b   14.08474800
_cell_length_c   14.08474800
_cell_angle_alpha   90.00000000
_cell_angle_beta   90.00000000
_cell_angle_gamma   90.00000000
_symmetry_Int_Tables_number   1
_chemical_formula_structural   Ho8Mg12Zn61
_chemical_formula_sum   'Ho16 Mg24 Zn122'
_cell_volume   2794.13408607
_cell_formula_units_Z   2
loop_
 _symmetry_equiv_pos_site_id
 _symmetry_equiv_pos_as_xyz
  1  'x, y, z'
loop_
 _atom_site_type_symbol
 _atom_site_label
 _atom_site_symmetry_multiplicity
 _atom_site_fract_x
 _atom_site_fract_y
 _atom_site_fract_z
 _atom_site_occupancy
  Ho  Ho0  1  0.31334200  0.31334200  0.68665800  1
  Ho  Ho1  1  0.18665800  0.81334200  0.18665800  1
  Ho  Ho2  1  0.18665800  0.18665800  0.81334200  1
  Ho  Ho3  1  0.31334200  0.68665800  0.31334200  1
  Ho  Ho4  1  0.18665800  0.18665800  0.18665800  1
  Ho  Ho5  1  0.31334200  0.31334200  0.31334200  1
  Ho  Ho6  1  0.81334200  0.18665800  0.18665800  1
  Ho  Ho7  1  0.68665800  0.31334200  0.31334200  1
  Ho  Ho8  1  0.81334200  0.81334200  0.18665800  1
  Ho  Ho9  1  0.68665800  0.31334200  0.68665800  1
  Ho  Ho10  1  0.68665800  0.68665800  0.31334200  1
  Ho  Ho11  1  0.81334200  0.18665800  0.81334200  1
  Ho  Ho12  1  0.68665800  0.68665800  0.68665800  1
  Ho  Ho13  1  0.81334200  0.81334200  0.81334200  1
  Ho  Ho14  1  0.31334200  0.68665800  0.68665800  1
  Ho  Ho15  1  0.18665800  0.81334200  0.81334200  1
  Mg  Mg16  1  0.31892000  0.11670400  0.00000000  1
  Mg  Mg17  1  0.38329600  0.50000000  0.81892000  1
  Mg  Mg18  1  0.50000000  0.18108000  0.38329600  1
  Mg  Mg19  1  0.68108000  0.11670400  0.00000000  1
  Mg  Mg20  1  0.11670400  0.00000000  0.31892000  1
  Mg  Mg21  1  0.18108000  0.38329600  0.50000000  1
  Mg  Mg22  1  0.00000000  0.31892000  0.11670400  1
  Mg  Mg23  1  0.38329600  0.50000000  0.18108000  1
  Mg  Mg24  1  0.00000000  0.68108000  0.11670400  1
  Mg  Mg25  1  0.11670400  0.00000000  0.68108000  1
  Mg  Mg26  1  0.50000000  0.81892000  0.38329600  1
  Mg  Mg27  1  0.81892000  0.38329600  0.50000000  1
  Mg  Mg28  1  0.81892000  0.61670400  0.50000000  1
  Mg  Mg29  1  0.88329600  0.00000000  0.31892000  1
  Mg  Mg30  1  0.00000000  0.68108000  0.88329600  1
  Mg  Mg31  1  0.18108000  0.61670400  0.50000000  1
  Mg  Mg32  1  0.61670400  0.50000000  0.81892000  1
  Mg  Mg33  1  0.68108000  0.88329600  0.00000000  1
  Mg  Mg34  1  0.50000000  0.81892000  0.61670400  1
  Mg  Mg35  1  0.88329600  0.00000000  0.68108000  1
  Mg  Mg36  1  0.50000000  0.18108000  0.61670400  1
  Mg  Mg37  1  0.61670400  0.50000000  0.18108000  1
  Mg  Mg38  1  0.00000000  0.31892000  0.88329600  1
  Mg  Mg39  1  0.31892000  0.88329600  0.00000000  1
  Zn  Zn40  1  0.09927250  0.15433550  0.00000000  1
  Zn  Zn41  1  0.81490750  0.50000000  0.32579950  1
  Zn  Zn42  1  0.65896450  0.31693250  0.90699850  1
  Zn  Zn43  1  0.00000000  0.17420050  0.31490750  1
  Zn  Zn44  1  0.31693250  0.09300150  0.65896450  1
  Zn  Zn45  1  0.18306750  0.59300150  0.84103550  1
  Zn  Zn46  1  0.40699850  0.15896450  0.18306750  1
  Zn  Zn47  1  0.34103550  0.31693250  0.90699850  1
  Zn  Zn48  1  0.84103550  0.18306750  0.40699850  1
  Zn  Zn49  1  0.50000000  0.40072750  0.65433550  1
  Zn  Zn50  1  0.18306750  0.40699850  0.84103550  1
  Zn  Zn51  1  0.00000000  0.09012000  0.50000000  1
  Zn  Zn52  1  0.09927250  0.84566450  0.00000000  1
  Zn  Zn53  1  0.59300150  0.84103550  0.18306750  1
  Zn  Zn54  1  0.90699850  0.65896450  0.31693250  1
  Zn  Zn55  1  0.32579950  0.18509250  0.50000000  1
  Zn  Zn56  1  0.34103550  0.31693250  0.09300150  1
  Zn  Zn57  1  0.18306750  0.40699850  0.15896450  1
  Zn  Zn58  1  0.00000000  0.09927250  0.84566450  1
  Zn  Zn59  1  0.65896450  0.31693250  0.09300150  1
  Zn  Zn60  1  0.90699850  0.34103550  0.31693250  1
  Zn  Zn61  1  0.50000000  0.00000000  0.28269900  1
  Zn  Zn62  1  0.00000000  0.28269900  0.50000000  1
  Zn  Zn63  1  0.17420050  0.31490750  0.00000000  1
  Zn  Zn64  1  0.00000000  0.09927250  0.15433550  1
  Zn  Zn65  1  0.00000000  0.50000000  0.21730100  1
  Zn  Zn66  1  0.15433550  0.00000000  0.09927250  1
  Zn  Zn67  1  0.09300150  0.34103550  0.31693250  1
  Zn  Zn68  1  0.50000000  0.40072750  0.34566450  1
  Zn  Zn69  1  0.18509250  0.50000000  0.32579950  1
  Zn  Zn70  1  0.00000000  0.50000000  0.40988000  1
  Zn  Zn71  1  0.84103550  0.18306750  0.59300150  1
  Zn  Zn72  1  0.32579950  0.81490750  0.50000000  1
  Zn  Zn73  1  0.50000000  0.32579950  0.81490750  1
  Zn  Zn74  1  0.21730100  0.00000000  0.50000000  1
  Zn  Zn75  1  0.17420050  0.68509250  0.00000000  1
  Zn  Zn76  1  0.40072750  0.65433550  0.50000000  1
  Zn  Zn77  1  0.09300150  0.65896450  0.31693250  1
  Zn  Zn78  1  0.68509250  0.00000000  0.17420050  1
  Zn  Zn79  1  0.40699850  0.84103550  0.18306750  1
  Zn  Zn80  1  0.40072750  0.34566450  0.50000000  1
  Zn  Zn81  1  0.31693250  0.90699850  0.65896450  1
  Zn  Zn82  1  0.00000000  0.00000000  0.00000000  1
  Zn  Zn83  1  0.00000000  0.17420050  0.68509250  1
  Zn  Zn84  1  0.50000000  0.40988000  0.00000000  1
  Zn  Zn85  1  0.40988000  0.00000000  0.50000000  1
  Zn  Zn86  1  0.31490750  0.00000000  0.17420050  1
  Zn  Zn87  1  0.84566450  0.00000000  0.09927250  1
  Zn  Zn88  1  0.34566450  0.50000000  0.40072750  1
  Zn  Zn89  1  0.15896450  0.18306750  0.40699850  1
  Zn  Zn90  1  0.31693250  0.90699850  0.34103550  1
  Zn  Zn91  1  0.50000000  0.32579950  0.18509250  1
  Zn  Zn92  1  0.59300150  0.15896450  0.18306750  1
  Zn  Zn93  1  0.31693250  0.09300150  0.34103550  1
  Zn  Zn94  1  0.50000000  0.00000000  0.09012000  1
  Zn  Zn95  1  0.15896450  0.18306750  0.59300150  1
  Zn  Zn96  1  0.18306750  0.59300150  0.15896450  1
  Zn  Zn97  1  0.50000000  0.21730100  0.00000000  1
  Zn  Zn98  1  0.65433550  0.50000000  0.40072750  1
  Zn  Zn99  1  0.28269900  0.50000000  0.00000000  1
  Zn  Zn100  1  0.09012000  0.50000000  0.00000000  1
  Zn  Zn101  1  0.59927250  0.65433550  0.50000000  1
  Zn  Zn102  1  0.31490750  0.00000000  0.82579950  1
  Zn  Zn103  1  0.15896450  0.81693250  0.40699850  1
  Zn  Zn104  1  0.50000000  0.67420050  0.81490750  1
  Zn  Zn105  1  0.81693250  0.59300150  0.15896450  1
  Zn  Zn106  1  0.68306750  0.09300150  0.34103550  1
  Zn  Zn107  1  0.90699850  0.65896450  0.68306750  1
  Zn  Zn108  1  0.84103550  0.81693250  0.40699850  1
  Zn  Zn109  1  0.34103550  0.68306750  0.90699850  1
  Zn  Zn110  1  0.00000000  0.90072750  0.15433550  1
  Zn  Zn111  1  0.68306750  0.90699850  0.34103550  1
  Zn  Zn112  1  0.50000000  0.59012000  0.00000000  1
  Zn  Zn113  1  0.59927250  0.34566450  0.50000000  1
  Zn  Zn114  1  0.09300150  0.34103550  0.68306750  1
  Zn  Zn115  1  0.40699850  0.15896450  0.81693250  1
  Zn  Zn116  1  0.82579950  0.68509250  0.00000000  1
  Zn  Zn117  1  0.84103550  0.81693250  0.59300150  1
  Zn  Zn118  1  0.68306750  0.90699850  0.65896450  1
  Zn  Zn119  1  0.50000000  0.59927250  0.34566450  1
  Zn  Zn120  1  0.15896450  0.81693250  0.59300150  1
  Zn  Zn121  1  0.40699850  0.84103550  0.81693250  1
  Zn  Zn122  1  0.00000000  0.50000000  0.78269900  1
  Zn  Zn123  1  0.50000000  0.78269900  0.00000000  1
  Zn  Zn124  1  0.67420050  0.81490750  0.50000000  1
  Zn  Zn125  1  0.50000000  0.59927250  0.65433550  1
  Zn  Zn126  1  0.50000000  0.00000000  0.71730100  1
  Zn  Zn127  1  0.65433550  0.50000000  0.59927250  1
  Zn  Zn128  1  0.59300150  0.84103550  0.81693250  1
  Zn  Zn129  1  0.00000000  0.90072750  0.84566450  1
  Zn  Zn130  1  0.68509250  0.00000000  0.82579950  1
  Zn  Zn131  1  0.50000000  0.00000000  0.90988000  1
  Zn  Zn132  1  0.34103550  0.68306750  0.09300150  1
  Zn  Zn133  1  0.82579950  0.31490750  0.00000000  1
  Zn  Zn134  1  0.00000000  0.82579950  0.31490750  1
  Zn  Zn135  1  0.71730100  0.50000000  0.00000000  1
  Zn  Zn136  1  0.67420050  0.18509250  0.50000000  1
  Zn  Zn137  1  0.90072750  0.15433550  0.00000000  1
  Zn  Zn138  1  0.59300150  0.15896450  0.81693250  1
  Zn  Zn139  1  0.18509250  0.50000000  0.67420050  1
  Zn  Zn140  1  0.90699850  0.34103550  0.68306750  1
  Zn  Zn141  1  0.90072750  0.84566450  0.00000000  1
  Zn  Zn142  1  0.81693250  0.40699850  0.15896450  1
  Zn  Zn143  1  0.50000000  0.50000000  0.50000000  1
  Zn  Zn144  1  0.50000000  0.67420050  0.18509250  1
  Zn  Zn145  1  0.00000000  0.90988000  0.50000000  1
  Zn  Zn146  1  0.90988000  0.50000000  0.00000000  1
  Zn  Zn147  1  0.81490750  0.50000000  0.67420050  1
  Zn  Zn148  1  0.34566450  0.50000000  0.59927250  1
  Zn  Zn149  1  0.84566450  0.00000000  0.90072750  1
  Zn  Zn150  1  0.65896450  0.68306750  0.90699850  1
  Zn  Zn151  1  0.81693250  0.40699850  0.84103550  1
  Zn  Zn152  1  0.00000000  0.82579950  0.68509250  1
  Zn  Zn153  1  0.09300150  0.65896450  0.68306750  1
  Zn  Zn154  1  0.81693250  0.59300150  0.84103550  1
  Zn  Zn155  1  0.00000000  0.50000000  0.59012000  1
  Zn  Zn156  1  0.65896450  0.68306750  0.09300150  1
  Zn  Zn157  1  0.68306750  0.09300150  0.65896450  1
  Zn  Zn158  1  0.00000000  0.71730100  0.50000000  1
  Zn  Zn159  1  0.15433550  0.00000000  0.90072750  1
  Zn  Zn160  1  0.78269900  0.00000000  0.50000000  1
  Zn  Zn161  1  0.59012000  0.00000000  0.50000000  1
