# generated using pymatgen
data_MgVO3
_symmetry_space_group_name_H-M   'P 1'
_cell_length_a   5.33631923
_cell_length_b   10.26024494
_cell_length_c   5.30729800
_cell_angle_alpha   90.00000000
_cell_angle_beta   90.00000000
_cell_angle_gamma   90.00000000
_symmetry_Int_Tables_number   1
_chemical_formula_structural   MgVO3
_chemical_formula_sum   'Mg4 V4 O12'
_cell_volume   290.58487407
_cell_formula_units_Z   4
loop_
 _symmetry_equiv_pos_site_id
 _symmetry_equiv_pos_as_xyz
  1  'x, y, z'
loop_
 _atom_site_type_symbol
 _atom_site_label
 _atom_site_symmetry_multiplicity
 _atom_site_fract_x
 _atom_site_fract_y
 _atom_site_fract_z
 _atom_site_occupancy
  Mg  Mg0  1  0.50000000  0.57460675  0.75000000  1
  Mg  Mg1  1  0.00000000  0.92539325  0.25000000  1
  Mg  Mg2  1  0.00000000  0.07460675  0.75000000  1
  Mg  Mg3  1  0.50000000  0.42539325  0.25000000  1
  V  V4  1  0.50000000  0.92968450  0.75000000  1
  V  V5  1  0.00000000  0.57031550  0.25000000  1
  V  V6  1  0.00000000  0.42968450  0.75000000  1
  V  V7  1  0.50000000  0.07031550  0.25000000  1
  O  O8  1  0.50000000  0.76511575  0.75000000  1
  O  O9  1  0.00000000  0.73488425  0.25000000  1
  O  O10  1  0.23903025  0.50000000  0.00000000  1
  O  O11  1  0.76096975  0.50000000  0.00000000  1
  O  O12  1  0.26096975  0.00000000  0.50000000  1
  O  O13  1  0.73903025  0.00000000  0.50000000  1
  O  O14  1  0.00000000  0.26511575  0.75000000  1
  O  O15  1  0.50000000  0.23488425  0.25000000  1
  O  O16  1  0.73903025  0.00000000  0.00000000  1
  O  O17  1  0.26096975  0.00000000  0.00000000  1
  O  O18  1  0.76096975  0.50000000  0.50000000  1
  O  O19  1  0.23903025  0.50000000  0.50000000  1
