# generated using pymatgen
data_Li3Mo2(PO4)3
_symmetry_space_group_name_H-M   'P 1'
_cell_length_a   8.39354000
_cell_length_b   5.47995800
_cell_length_c   19.36280497
_cell_angle_alpha   90.00000000
_cell_angle_beta   90.13776232
_cell_angle_gamma   90.00000000
_symmetry_Int_Tables_number   1
_chemical_formula_structural   Li3Mo2(PO4)3
_chemical_formula_sum   'Li12 Mo8 P12 O48'
_cell_volume   890.61377924
_cell_formula_units_Z   4
loop_
 _symmetry_equiv_pos_site_id
 _symmetry_equiv_pos_as_xyz
  1  'x, y, z'
loop_
 _atom_site_type_symbol
 _atom_site_label
 _atom_site_symmetry_multiplicity
 _atom_site_fract_x
 _atom_site_fract_y
 _atom_site_fract_z
 _atom_site_occupancy
  Li  Li0  1  0.99984500  0.00000000  0.16406500  1
  Li  Li1  1  0.66810900  0.00000000  0.08917100  1
  Li  Li2  1  0.66581100  0.00000000  0.76105900  1
  Li  Li3  1  0.33418900  0.00000000  0.23894100  1
  Li  Li4  1  0.33189100  0.00000000  0.91082900  1
  Li  Li5  1  0.00015500  0.00000000  0.83593500  1
  Li  Li6  1  0.49984500  0.50000000  0.16406500  1
  Li  Li7  1  0.16810900  0.50000000  0.08917100  1
  Li  Li8  1  0.16581100  0.50000000  0.76105900  1
  Li  Li9  1  0.83418900  0.50000000  0.23894100  1
  Li  Li10  1  0.83189100  0.50000000  0.91082900  1
  Li  Li11  1  0.50015500  0.50000000  0.83593500  1
  Mo  Mo12  1  0.00000000  0.00000000  0.50000000  1
  Mo  Mo13  1  0.00000000  0.00000000  0.00000000  1
  Mo  Mo14  1  0.99653800  0.00000000  0.67110200  1
  Mo  Mo15  1  0.00346200  0.00000000  0.32889800  1
  Mo  Mo16  1  0.50000000  0.50000000  0.50000000  1
  Mo  Mo17  1  0.50000000  0.50000000  0.00000000  1
  Mo  Mo18  1  0.49653800  0.50000000  0.67110200  1
  Mo  Mo19  1  0.50346200  0.50000000  0.32889800  1
  P  P20  1  0.34686800  0.00000000  0.75211800  1
  P  P21  1  0.35205300  0.00000000  0.08020400  1
  P  P22  1  0.35216100  0.00000000  0.41230100  1
  P  P23  1  0.64794700  0.00000000  0.91979600  1
  P  P24  1  0.64783900  0.00000000  0.58769900  1
  P  P25  1  0.65313200  0.00000000  0.24788200  1
  P  P26  1  0.84686800  0.50000000  0.75211800  1
  P  P27  1  0.85205300  0.50000000  0.08020400  1
  P  P28  1  0.85216100  0.50000000  0.41230100  1
  P  P29  1  0.14794700  0.50000000  0.91979600  1
  P  P30  1  0.14783900  0.50000000  0.58769900  1
  P  P31  1  0.15313200  0.50000000  0.24788200  1
  O  O32  1  0.53590050  0.22718850  0.24975700  1
  O  O33  1  0.46288750  0.76473350  0.41495400  1
  O  O34  1  0.46789550  0.77309450  0.07985000  1
  O  O35  1  0.53210450  0.77309450  0.92015000  1
  O  O36  1  0.53711250  0.23526650  0.58504600  1
  O  O37  1  0.46288750  0.23526650  0.41495400  1
  O  O38  1  0.46789550  0.22690550  0.07985000  1
  O  O39  1  0.53210450  0.22690550  0.92015000  1
  O  O40  1  0.53711250  0.76473350  0.58504600  1
  O  O41  1  0.46409950  0.22718850  0.75024300  1
  O  O42  1  0.75594300  0.00000000  0.31347300  1
  O  O43  1  0.75442200  0.00000000  0.52453400  1
  O  O44  1  0.74593600  0.00000000  0.98806800  1
  O  O45  1  0.75284700  0.00000000  0.85635800  1
  O  O46  1  0.46409950  0.77281150  0.75024300  1
  O  O47  1  0.73801200  0.00000000  0.65703800  1
  O  O48  1  0.26198800  0.00000000  0.34296200  1
  O  O49  1  0.24853400  0.00000000  0.81760900  1
  O  O50  1  0.24715300  0.00000000  0.14364200  1
  O  O51  1  0.25406400  0.00000000  0.01193200  1
  O  O52  1  0.24557800  0.00000000  0.47546600  1
  O  O53  1  0.24405700  0.00000000  0.68652700  1
  O  O54  1  0.53590050  0.77281150  0.24975700  1
  O  O55  1  0.75146600  0.00000000  0.18239100  1
  O  O56  1  0.03590050  0.72718850  0.24975700  1
  O  O57  1  0.96288750  0.26473350  0.41495400  1
  O  O58  1  0.96789550  0.27309450  0.07985000  1
  O  O59  1  0.03210450  0.27309450  0.92015000  1
  O  O60  1  0.03711250  0.73526650  0.58504600  1
  O  O61  1  0.96288750  0.73526650  0.41495400  1
  O  O62  1  0.96789550  0.72690550  0.07985000  1
  O  O63  1  0.03210450  0.72690550  0.92015000  1
  O  O64  1  0.03711250  0.26473350  0.58504600  1
  O  O65  1  0.96409950  0.72718850  0.75024300  1
  O  O66  1  0.25594300  0.50000000  0.31347300  1
  O  O67  1  0.25442200  0.50000000  0.52453400  1
  O  O68  1  0.24593600  0.50000000  0.98806800  1
  O  O69  1  0.25284700  0.50000000  0.85635800  1
  O  O70  1  0.96409950  0.27281150  0.75024300  1
  O  O71  1  0.23801200  0.50000000  0.65703800  1
  O  O72  1  0.76198800  0.50000000  0.34296200  1
  O  O73  1  0.74853400  0.50000000  0.81760900  1
  O  O74  1  0.74715300  0.50000000  0.14364200  1
  O  O75  1  0.75406400  0.50000000  0.01193200  1
  O  O76  1  0.74557800  0.50000000  0.47546600  1
  O  O77  1  0.74405700  0.50000000  0.68652700  1
  O  O78  1  0.03590050  0.27281150  0.24975700  1
  O  O79  1  0.25146600  0.50000000  0.18239100  1
