# generated using pymatgen
data_Cs3Yb(SO4)3
_symmetry_space_group_name_H-M   'P 1'
_cell_length_a   16.48373521
_cell_length_b   16.48373521
_cell_length_c   9.82844966
_cell_angle_alpha   90.00000000
_cell_angle_beta   90.00000000
_cell_angle_gamma   120.00000000
_symmetry_Int_Tables_number   1
_chemical_formula_structural   Cs3Yb(SO4)3
_chemical_formula_sum   'Cs18 Yb6 S18 O72'
_cell_volume   2312.74051431
_cell_formula_units_Z   6
loop_
 _symmetry_equiv_pos_site_id
 _symmetry_equiv_pos_as_xyz
  1  'x, y, z'
loop_
 _atom_site_type_symbol
 _atom_site_label
 _atom_site_symmetry_multiplicity
 _atom_site_fract_x
 _atom_site_fract_y
 _atom_site_fract_z
 _atom_site_occupancy
  Cs  Cs0  1  0.11581433  0.36659767  0.54608367  1
  Cs  Cs1  1  0.63340233  0.88418567  0.04608367  1
  Cs  Cs2  1  0.96673567  0.41588333  0.21275033  1
  Cs  Cs3  1  0.91745000  0.21751900  0.87941700  1
  Cs  Cs4  1  0.78248100  0.08255000  0.37941700  1
  Cs  Cs5  1  0.58411667  0.03326433  0.71275033  1
  Cs  Cs6  1  0.78248100  0.69993100  0.87941700  1
  Cs  Cs7  1  0.30006900  0.21751900  0.37941700  1
  Cs  Cs8  1  0.63340233  0.74921667  0.54608367  1
  Cs  Cs9  1  0.58411667  0.55085233  0.21275033  1
  Cs  Cs10  1  0.44914767  0.41588333  0.71275033  1
  Cs  Cs11  1  0.25078333  0.36659767  0.04608367  1
  Cs  Cs12  1  0.44914767  0.03326433  0.21275033  1
  Cs  Cs13  1  0.96673567  0.55085233  0.71275033  1
  Cs  Cs14  1  0.30006900  0.08255000  0.87941700  1
  Cs  Cs15  1  0.25078333  0.88418567  0.54608367  1
  Cs  Cs16  1  0.11581433  0.74921667  0.04608367  1
  Cs  Cs17  1  0.91745000  0.69993100  0.37941700  1
  Yb  Yb18  1  0.00000000  0.00000000  0.49147900  1
  Yb  Yb19  1  0.00000000  0.00000000  0.99147900  1
  Yb  Yb20  1  0.66666667  0.33333333  0.82481233  1
  Yb  Yb21  1  0.66666667  0.33333333  0.32481233  1
  Yb  Yb22  1  0.33333333  0.66666667  0.15814567  1
  Yb  Yb23  1  0.33333333  0.66666667  0.65814567  1
  S  S24  1  0.82413933  0.97143267  0.74742967  1
  S  S25  1  0.81396000  0.30476600  0.58076300  1
  S  S26  1  0.02856733  0.17586067  0.24742967  1
  S  S27  1  0.48062667  0.84252733  0.41409633  1
  S  S28  1  0.15747267  0.51937333  0.91409633  1
  S  S29  1  0.69523400  0.18604000  0.08076300  1
  S  S30  1  0.49080600  0.30476600  0.08076300  1
  S  S31  1  0.48062667  0.63809933  0.91409633  1
  S  S32  1  0.69523400  0.50919400  0.58076300  1
  S  S33  1  0.14729333  0.17586067  0.74742967  1
  S  S34  1  0.82413933  0.85270667  0.24742967  1
  S  S35  1  0.36190067  0.51937333  0.41409633  1
  S  S36  1  0.15747267  0.63809933  0.41409633  1
  S  S37  1  0.14729333  0.97143267  0.24742967  1
  S  S38  1  0.36190067  0.84252733  0.91409633  1
  S  S39  1  0.81396000  0.50919400  0.08076300  1
  S  S40  1  0.49080600  0.18604000  0.58076300  1
  S  S41  1  0.02856733  0.85270667  0.74742967  1
  O  O42  1  0.58439600  0.90148600  0.40354300  1
  O  O43  1  0.98375667  0.23481933  0.23687633  1
  O  O44  1  0.64867833  0.21015167  0.19092767  1
  O  O45  1  0.76518067  0.01624333  0.73687633  1
  O  O46  1  0.09851400  0.41560400  0.90354300  1
  O  O47  1  0.77434533  0.20354167  0.61176867  1
  O  O48  1  0.20612600  0.55752900  0.78175400  1
  O  O49  1  0.09586300  0.53687500  0.44510200  1
  O  O50  1  0.87279267  0.98193033  0.61508733  1
  O  O51  1  0.01806967  0.12720733  0.11508733  1
  O  O52  1  0.98201167  0.10519333  0.35759433  1
  O  O53  1  0.10767867  0.23747033  0.77843533  1
  O  O54  1  0.44247100  0.79387400  0.28175400  1
  O  O55  1  0.65042333  0.08227067  0.07020967  1
  O  O56  1  0.91772933  0.34957667  0.57020967  1
  O  O57  1  0.79645833  0.22565467  0.11176867  1
  O  O58  1  0.46312500  0.90413700  0.94510200  1
  O  O59  1  0.77580433  0.31526367  0.44842067  1
  O  O60  1  0.22814000  0.54348500  0.02426100  1
  O  O61  1  0.78984833  0.35132167  0.69092767  1
  O  O62  1  0.68473633  0.22419567  0.94842067  1
  O  O63  1  0.45651500  0.77186000  0.52426100  1
  O  O64  1  0.89480667  0.01798833  0.85759433  1
  O  O65  1  0.76252967  0.89232133  0.27843533  1
  O  O66  1  0.25106267  0.23481933  0.73687633  1
  O  O67  1  0.65042333  0.56815267  0.57020967  1
  O  O68  1  0.31534500  0.54348500  0.52426100  1
  O  O69  1  0.43184733  0.34957667  0.07020967  1
  O  O70  1  0.76518067  0.74893733  0.23687633  1
  O  O71  1  0.44101200  0.53687500  0.94510200  1
  O  O72  1  0.87279267  0.89086233  0.11508733  1
  O  O73  1  0.76252967  0.87020833  0.77843533  1
  O  O74  1  0.53945933  0.31526367  0.94842067  1
  O  O75  1  0.68473633  0.46054067  0.44842067  1
  O  O76  1  0.64867833  0.43852667  0.69092767  1
  O  O77  1  0.77434533  0.57080367  0.11176867  1
  O  O78  1  0.10913767  0.12720733  0.61508733  1
  O  O79  1  0.31709000  0.41560400  0.40354300  1
  O  O80  1  0.58439600  0.68291000  0.90354300  1
  O  O81  1  0.46312500  0.55898800  0.44510200  1
  O  O82  1  0.12979167  0.23747033  0.27843533  1
  O  O83  1  0.44247100  0.64859700  0.78175400  1
  O  O84  1  0.89480667  0.87681833  0.35759433  1
  O  O85  1  0.45651500  0.68465500  0.02426100  1
  O  O86  1  0.35140300  0.55752900  0.28175400  1
  O  O87  1  0.12318167  0.10519333  0.85759433  1
  O  O88  1  0.56147333  0.35132167  0.19092767  1
  O  O89  1  0.42919633  0.22565467  0.61176867  1
  O  O90  1  0.91772933  0.56815267  0.07020967  1
  O  O91  1  0.31709000  0.90148600  0.90354300  1
  O  O92  1  0.98201167  0.87681833  0.85759433  1
  O  O93  1  0.09851400  0.68291000  0.40354300  1
  O  O94  1  0.43184733  0.08227067  0.57020967  1
  O  O95  1  0.10767867  0.87020833  0.27843533  1
  O  O96  1  0.53945933  0.22419567  0.44842067  1
  O  O97  1  0.42919633  0.20354167  0.11176867  1
  O  O98  1  0.20612600  0.64859700  0.28175400  1
  O  O99  1  0.35140300  0.79387400  0.78175400  1
  O  O100  1  0.31534500  0.77186000  0.02426100  1
  O  O101  1  0.44101200  0.90413700  0.44510200  1
  O  O102  1  0.77580433  0.46054067  0.94842067  1
  O  O103  1  0.98375667  0.74893733  0.73687633  1
  O  O104  1  0.25106267  0.01624333  0.23687633  1
  O  O105  1  0.12979167  0.89232133  0.77843533  1
  O  O106  1  0.79645833  0.57080367  0.61176867  1
  O  O107  1  0.10913767  0.98193033  0.11508733  1
  O  O108  1  0.56147333  0.21015167  0.69092767  1
  O  O109  1  0.12318167  0.01798833  0.35759433  1
  O  O110  1  0.01806967  0.89086233  0.61508733  1
  O  O111  1  0.78984833  0.43852667  0.19092767  1
  O  O112  1  0.22814000  0.68465500  0.52426100  1
  O  O113  1  0.09586300  0.55898800  0.94510200  1
