# generated using pymatgen
data_NdPt
_symmetry_space_group_name_H-M   'P 1'
_cell_length_a   3.90503400
_cell_length_b   10.90046600
_cell_length_c   4.59936200
_cell_angle_alpha   90.00000000
_cell_angle_beta   90.00000000
_cell_angle_gamma   90.00000000
_symmetry_Int_Tables_number   1
_chemical_formula_structural   NdPt
_chemical_formula_sum   'Nd4 Pt4'
_cell_volume   195.77961804
_cell_formula_units_Z   4
loop_
 _symmetry_equiv_pos_site_id
 _symmetry_equiv_pos_as_xyz
  1  'x, y, z'
loop_
 _atom_site_type_symbol
 _atom_site_label
 _atom_site_symmetry_multiplicity
 _atom_site_fract_x
 _atom_site_fract_y
 _atom_site_fract_z
 _atom_site_occupancy
  Nd  Nd0  1  0.00000000  0.86256900  0.75000000  1
  Nd  Nd1  1  0.50000000  0.63743100  0.25000000  1
  Nd  Nd2  1  0.50000000  0.36256900  0.75000000  1
  Nd  Nd3  1  0.00000000  0.13743100  0.25000000  1
  Pt  Pt4  1  0.50000000  0.91256700  0.25000000  1
  Pt  Pt5  1  0.00000000  0.58743300  0.75000000  1
  Pt  Pt6  1  0.00000000  0.41256700  0.25000000  1
  Pt  Pt7  1  0.50000000  0.08743300  0.75000000  1
