# generated using pymatgen
data_Nb4Co2PdSe12
_symmetry_space_group_name_H-M   'P 1'
_cell_length_a   13.39979800
_cell_length_b   3.43618000
_cell_length_c   19.37395128
_cell_angle_alpha   90.00000000
_cell_angle_beta   108.15710828
_cell_angle_gamma   90.00000000
_symmetry_Int_Tables_number   1
_chemical_formula_structural   Nb4Co2PdSe12
_chemical_formula_sum   'Nb8 Co4 Pd2 Se24'
_cell_volume   847.63707872
_cell_formula_units_Z   2
loop_
 _symmetry_equiv_pos_site_id
 _symmetry_equiv_pos_as_xyz
  1  'x, y, z'
loop_
 _atom_site_type_symbol
 _atom_site_label
 _atom_site_symmetry_multiplicity
 _atom_site_fract_x
 _atom_site_fract_y
 _atom_site_fract_z
 _atom_site_occupancy
  Nb  Nb0  1  0.74341100  0.00000000  0.40471700  1
  Nb  Nb1  1  0.25658900  0.00000000  0.59528300  1
  Nb  Nb2  1  0.62043100  0.00000000  0.14892600  1
  Nb  Nb3  1  0.37956900  0.00000000  0.85107400  1
  Nb  Nb4  1  0.24341100  0.50000000  0.40471700  1
  Nb  Nb5  1  0.75658900  0.50000000  0.59528300  1
  Nb  Nb6  1  0.12043100  0.50000000  0.14892600  1
  Nb  Nb7  1  0.87956900  0.50000000  0.85107400  1
  Co  Co8  1  0.27236200  0.50000000  0.71692600  1
  Co  Co9  1  0.72763800  0.50000000  0.28307400  1
  Co  Co10  1  0.77236200  0.00000000  0.71692600  1
  Co  Co11  1  0.22763800  0.00000000  0.28307400  1
  Pd  Pd12  1  0.00000000  0.00000000  0.00000000  1
  Pd  Pd13  1  0.50000000  0.50000000  0.00000000  1
  Se  Se14  1  0.86966600  0.00000000  0.54583000  1
  Se  Se15  1  0.03478700  0.00000000  0.88164500  1
  Se  Se16  1  0.80947900  0.00000000  0.23320400  1
  Se  Se17  1  0.90016100  0.50000000  0.71892900  1
  Se  Se18  1  0.69024200  0.50000000  0.07250600  1
  Se  Se19  1  0.09983900  0.50000000  0.28107100  1
  Se  Se20  1  0.13033400  0.00000000  0.45417000  1
  Se  Se21  1  0.30975800  0.50000000  0.92749400  1
  Se  Se22  1  0.87679800  0.50000000  0.38744300  1
  Se  Se23  1  0.96521300  0.00000000  0.11835500  1
  Se  Se24  1  0.19052100  0.00000000  0.76679600  1
  Se  Se25  1  0.12320200  0.50000000  0.61255700  1
  Se  Se26  1  0.36966600  0.50000000  0.54583000  1
  Se  Se27  1  0.53478700  0.50000000  0.88164500  1
  Se  Se28  1  0.30947900  0.50000000  0.23320400  1
  Se  Se29  1  0.40016100  0.00000000  0.71892900  1
  Se  Se30  1  0.19024200  0.00000000  0.07250600  1
  Se  Se31  1  0.59983900  0.00000000  0.28107100  1
  Se  Se32  1  0.63033400  0.50000000  0.45417000  1
  Se  Se33  1  0.80975800  0.00000000  0.92749400  1
  Se  Se34  1  0.37679800  0.00000000  0.38744300  1
  Se  Se35  1  0.46521300  0.50000000  0.11835500  1
  Se  Se36  1  0.69052100  0.50000000  0.76679600  1
  Se  Se37  1  0.62320200  0.00000000  0.61255700  1
