# generated using pymatgen
data_Yb2MnS4
_symmetry_space_group_name_H-M   'P 1'
_cell_length_a   7.82721400
_cell_length_b   7.82721400
_cell_length_c   9.20499400
_cell_angle_alpha   90.00000000
_cell_angle_beta   90.00000000
_cell_angle_gamma   90.00000000
_symmetry_Int_Tables_number   1
_chemical_formula_structural   Yb2MnS4
_chemical_formula_sum   'Yb8 Mn4 S16'
_cell_volume   563.94652562
_cell_formula_units_Z   4
loop_
 _symmetry_equiv_pos_site_id
 _symmetry_equiv_pos_as_xyz
  1  'x, y, z'
loop_
 _atom_site_type_symbol
 _atom_site_label
 _atom_site_symmetry_multiplicity
 _atom_site_fract_x
 _atom_site_fract_y
 _atom_site_fract_z
 _atom_site_occupancy
  Yb  Yb0  1  0.75000000  0.12669500  0.87500000  1
  Yb  Yb1  1  0.37330500  0.25000000  0.62500000  1
  Yb  Yb2  1  0.75000000  0.37330500  0.37500000  1
  Yb  Yb3  1  0.12669500  0.25000000  0.12500000  1
  Yb  Yb4  1  0.25000000  0.62669500  0.37500000  1
  Yb  Yb5  1  0.87330500  0.75000000  0.12500000  1
  Yb  Yb6  1  0.25000000  0.87330500  0.87500000  1
  Yb  Yb7  1  0.62669500  0.75000000  0.62500000  1
  Mn  Mn8  1  0.00000000  0.00000000  0.50000000  1
  Mn  Mn9  1  0.50000000  0.00000000  0.25000000  1
  Mn  Mn10  1  0.50000000  0.50000000  0.00000000  1
  Mn  Mn11  1  0.00000000  0.50000000  0.75000000  1
  S  S12  1  0.22259350  0.92388050  0.18498350  1
  S  S13  1  0.42388050  0.22259350  0.93498350  1
  S  S14  1  0.57611950  0.72259350  0.31501650  1
  S  S15  1  0.42388050  0.27740650  0.31501650  1
  S  S16  1  0.07611950  0.27740650  0.43498350  1
  S  S17  1  0.27740650  0.92388050  0.56501650  1
  S  S18  1  0.22259350  0.57611950  0.06501650  1
  S  S19  1  0.77740650  0.07611950  0.18498350  1
  S  S20  1  0.72259350  0.42388050  0.68498350  1
  S  S21  1  0.92388050  0.72259350  0.43498350  1
  S  S22  1  0.07611950  0.22259350  0.81501650  1
  S  S23  1  0.92388050  0.77740650  0.81501650  1
  S  S24  1  0.57611950  0.77740650  0.93498350  1
  S  S25  1  0.77740650  0.42388050  0.06501650  1
  S  S26  1  0.72259350  0.07611950  0.56501650  1
  S  S27  1  0.27740650  0.57611950  0.68498350  1
