# generated using pymatgen
data_Na5Co2O5
_symmetry_space_group_name_H-M   'P 1'
_cell_length_a   15.03346000
_cell_length_b   8.17064200
_cell_length_c   11.50046418
_cell_angle_alpha   90.00000000
_cell_angle_beta   104.71777992
_cell_angle_gamma   90.00000000
_symmetry_Int_Tables_number   1
_chemical_formula_structural   Na5Co2O5
_chemical_formula_sum   'Na40 Co16 O40'
_cell_volume   1366.28666354
_cell_formula_units_Z   8
loop_
 _symmetry_equiv_pos_site_id
 _symmetry_equiv_pos_as_xyz
  1  'x, y, z'
loop_
 _atom_site_type_symbol
 _atom_site_label
 _atom_site_symmetry_multiplicity
 _atom_site_fract_x
 _atom_site_fract_y
 _atom_site_fract_z
 _atom_site_occupancy
  Na  Na0  1  0.66407750  0.33546050  0.03988700  1
  Na  Na1  1  0.51217850  0.89084250  0.62326100  1
  Na  Na2  1  0.66407750  0.66453950  0.53988700  1
  Na  Na3  1  0.98782150  0.39084250  0.87673900  1
  Na  Na4  1  0.51217850  0.10915750  0.12326100  1
  Na  Na5  1  0.89348500  0.90477200  0.18999400  1
  Na  Na6  1  0.98782150  0.60915750  0.37673900  1
  Na  Na7  1  0.89348500  0.09522800  0.68999400  1
  Na  Na8  1  0.69843250  0.09521350  0.51689400  1
  Na  Na9  1  0.83592250  0.16453950  0.96011300  1
  Na  Na10  1  0.60596050  0.17186750  0.78813900  1
  Na  Na11  1  0.80156750  0.40478650  0.48310600  1
  Na  Na12  1  0.60651500  0.40477200  0.31000600  1
  Na  Na13  1  0.80156750  0.59521350  0.98310600  1
  Na  Na14  1  0.89403950  0.67186750  0.71186100  1
  Na  Na15  1  0.69843250  0.90478650  0.01689400  1
  Na  Na16  1  0.83592250  0.83546050  0.46011300  1
  Na  Na17  1  0.89403950  0.32813250  0.21186100  1
  Na  Na18  1  0.60651500  0.59522800  0.81000600  1
  Na  Na19  1  0.60596050  0.82813250  0.28813900  1
  Na  Na20  1  0.16407750  0.83546050  0.03988700  1
  Na  Na21  1  0.01217850  0.39084250  0.62326100  1
  Na  Na22  1  0.16407750  0.16453950  0.53988700  1
  Na  Na23  1  0.48782150  0.89084250  0.87673900  1
  Na  Na24  1  0.01217850  0.60915750  0.12326100  1
  Na  Na25  1  0.39348500  0.40477200  0.18999400  1
  Na  Na26  1  0.48782150  0.10915750  0.37673900  1
  Na  Na27  1  0.39348500  0.59522800  0.68999400  1
  Na  Na28  1  0.19843250  0.59521350  0.51689400  1
  Na  Na29  1  0.33592250  0.66453950  0.96011300  1
  Na  Na30  1  0.10596050  0.67186750  0.78813900  1
  Na  Na31  1  0.30156750  0.90478650  0.48310600  1
  Na  Na32  1  0.10651500  0.90477200  0.31000600  1
  Na  Na33  1  0.30156750  0.09521350  0.98310600  1
  Na  Na34  1  0.39403950  0.17186750  0.71186100  1
  Na  Na35  1  0.19843250  0.40478650  0.01689400  1
  Na  Na36  1  0.33592250  0.33546050  0.46011300  1
  Na  Na37  1  0.39403950  0.82813250  0.21186100  1
  Na  Na38  1  0.10651500  0.09522800  0.81000600  1
  Na  Na39  1  0.10596050  0.32813250  0.28813900  1
  Co  Co40  1  0.54965200  0.36579800  0.55691900  1
  Co  Co41  1  0.76522550  0.37921450  0.73192600  1
  Co  Co42  1  0.95034800  0.86579800  0.94308100  1
  Co  Co43  1  0.73477450  0.87921450  0.76807400  1
  Co  Co44  1  0.95034800  0.13420200  0.44308100  1
  Co  Co45  1  0.54965200  0.63420200  0.05691900  1
  Co  Co46  1  0.76522550  0.62078550  0.23192600  1
  Co  Co47  1  0.73477450  0.12078550  0.26807400  1
  Co  Co48  1  0.04965200  0.86579800  0.55691900  1
  Co  Co49  1  0.26522550  0.87921450  0.73192600  1
  Co  Co50  1  0.45034800  0.36579800  0.94308100  1
  Co  Co51  1  0.23477450  0.37921450  0.76807400  1
  Co  Co52  1  0.45034800  0.63420200  0.44308100  1
  Co  Co53  1  0.04965200  0.13420200  0.05691900  1
  Co  Co54  1  0.26522550  0.12078550  0.23192600  1
  Co  Co55  1  0.23477450  0.62078550  0.26807400  1
  O  O56  1  0.50349050  0.18073950  0.91005700  1
  O  O57  1  0.67498650  0.36786950  0.57117000  1
  O  O58  1  0.99650950  0.68073950  0.58994300  1
  O  O59  1  0.77684650  0.87143550  0.63381100  1
  O  O60  1  0.72315350  0.62856450  0.36618900  1
  O  O61  1  0.77684650  0.12856450  0.13381100  1
  O  O62  1  0.87460850  0.61068750  0.19254200  1
  O  O63  1  0.67498650  0.63213050  0.07117000  1
  O  O64  1  0.62539150  0.88931250  0.80745800  1
  O  O65  1  0.87460850  0.38931250  0.69254200  1
  O  O66  1  0.52112750  0.41852550  0.10769000  1
  O  O67  1  0.82501350  0.86786950  0.92883000  1
  O  O68  1  0.62539150  0.11068750  0.30745800  1
  O  O69  1  0.97887250  0.08147450  0.89231000  1
  O  O70  1  0.50349050  0.81926050  0.41005700  1
  O  O71  1  0.97887250  0.91852550  0.39231000  1
  O  O72  1  0.72315350  0.37143550  0.86618900  1
  O  O73  1  0.52112750  0.58147450  0.60769000  1
  O  O74  1  0.99650950  0.31926050  0.08994300  1
  O  O75  1  0.82501350  0.13213050  0.42883000  1
  O  O76  1  0.00349050  0.68073950  0.91005700  1
  O  O77  1  0.17498650  0.86786950  0.57117000  1
  O  O78  1  0.49650950  0.18073950  0.58994300  1
  O  O79  1  0.27684650  0.37143550  0.63381100  1
  O  O80  1  0.22315350  0.12856450  0.36618900  1
  O  O81  1  0.27684650  0.62856450  0.13381100  1
  O  O82  1  0.37460850  0.11068750  0.19254200  1
  O  O83  1  0.17498650  0.13213050  0.07117000  1
  O  O84  1  0.12539150  0.38931250  0.80745800  1
  O  O85  1  0.37460850  0.88931250  0.69254200  1
  O  O86  1  0.02112750  0.91852550  0.10769000  1
  O  O87  1  0.32501350  0.36786950  0.92883000  1
  O  O88  1  0.12539150  0.61068750  0.30745800  1
  O  O89  1  0.47887250  0.58147450  0.89231000  1
  O  O90  1  0.00349050  0.31926050  0.41005700  1
  O  O91  1  0.47887250  0.41852550  0.39231000  1
  O  O92  1  0.22315350  0.87143550  0.86618900  1
  O  O93  1  0.02112750  0.08147450  0.60769000  1
  O  O94  1  0.49650950  0.81926050  0.08994300  1
  O  O95  1  0.32501350  0.63213050  0.42883000  1
