# generated using pymatgen
data_Mn3SiNi2
_symmetry_space_group_name_H-M   'P 1'
_cell_length_a   10.68812600
_cell_length_b   10.68812600
_cell_length_c   10.68812600
_cell_angle_alpha   90.00000000
_cell_angle_beta   90.00000000
_cell_angle_gamma   90.00000000
_symmetry_Int_Tables_number   1
_chemical_formula_structural   Mn3SiNi2
_chemical_formula_sum   'Mn48 Si16 Ni32'
_cell_volume   1220.96916139
_cell_formula_units_Z   16
loop_
 _symmetry_equiv_pos_site_id
 _symmetry_equiv_pos_as_xyz
  1  'x, y, z'
loop_
 _atom_site_type_symbol
 _atom_site_label
 _atom_site_symmetry_multiplicity
 _atom_site_fract_x
 _atom_site_fract_y
 _atom_site_fract_z
 _atom_site_occupancy
  Mn  Mn0  1  0.05946500  0.25000000  0.25000000  1
  Mn  Mn1  1  0.30946500  0.00000000  0.50000000  1
  Mn  Mn2  1  0.00000000  0.00000000  0.19053500  1
  Mn  Mn3  1  0.50000000  0.19053500  0.50000000  1
  Mn  Mn4  1  0.25000000  0.05946500  0.25000000  1
  Mn  Mn5  1  0.44053500  0.25000000  0.25000000  1
  Mn  Mn6  1  0.50000000  0.80946500  0.50000000  1
  Mn  Mn7  1  0.69053500  0.00000000  0.50000000  1
  Mn  Mn8  1  0.25000000  0.25000000  0.44053500  1
  Mn  Mn9  1  0.25000000  0.44053500  0.25000000  1
  Mn  Mn10  1  0.25000000  0.25000000  0.05946500  1
  Mn  Mn11  1  0.50000000  0.00000000  0.30946500  1
  Mn  Mn12  1  0.05946500  0.75000000  0.75000000  1
  Mn  Mn13  1  0.30946500  0.50000000  0.00000000  1
  Mn  Mn14  1  0.00000000  0.50000000  0.69053500  1
  Mn  Mn15  1  0.50000000  0.69053500  0.00000000  1
  Mn  Mn16  1  0.25000000  0.55946500  0.75000000  1
  Mn  Mn17  1  0.44053500  0.75000000  0.75000000  1
  Mn  Mn18  1  0.50000000  0.30946500  0.00000000  1
  Mn  Mn19  1  0.69053500  0.50000000  0.00000000  1
  Mn  Mn20  1  0.25000000  0.75000000  0.94053500  1
  Mn  Mn21  1  0.25000000  0.94053500  0.75000000  1
  Mn  Mn22  1  0.25000000  0.75000000  0.55946500  1
  Mn  Mn23  1  0.50000000  0.50000000  0.80946500  1
  Mn  Mn24  1  0.55946500  0.25000000  0.75000000  1
  Mn  Mn25  1  0.80946500  0.00000000  0.00000000  1
  Mn  Mn26  1  0.50000000  0.00000000  0.69053500  1
  Mn  Mn27  1  0.00000000  0.19053500  0.00000000  1
  Mn  Mn28  1  0.75000000  0.05946500  0.75000000  1
  Mn  Mn29  1  0.94053500  0.25000000  0.75000000  1
  Mn  Mn30  1  0.00000000  0.80946500  0.00000000  1
  Mn  Mn31  1  0.19053500  0.00000000  0.00000000  1
  Mn  Mn32  1  0.75000000  0.25000000  0.94053500  1
  Mn  Mn33  1  0.75000000  0.44053500  0.75000000  1
  Mn  Mn34  1  0.75000000  0.25000000  0.55946500  1
  Mn  Mn35  1  0.00000000  0.00000000  0.80946500  1
  Mn  Mn36  1  0.55946500  0.75000000  0.25000000  1
  Mn  Mn37  1  0.80946500  0.50000000  0.50000000  1
  Mn  Mn38  1  0.50000000  0.50000000  0.19053500  1
  Mn  Mn39  1  0.00000000  0.69053500  0.50000000  1
  Mn  Mn40  1  0.75000000  0.55946500  0.25000000  1
  Mn  Mn41  1  0.94053500  0.75000000  0.25000000  1
  Mn  Mn42  1  0.00000000  0.30946500  0.50000000  1
  Mn  Mn43  1  0.19053500  0.50000000  0.50000000  1
  Mn  Mn44  1  0.75000000  0.75000000  0.44053500  1
  Mn  Mn45  1  0.75000000  0.94053500  0.25000000  1
  Mn  Mn46  1  0.75000000  0.75000000  0.05946500  1
  Mn  Mn47  1  0.00000000  0.50000000  0.30946500  1
  Si  Si48  1  0.12500000  0.62500000  0.12500000  1
  Si  Si49  1  0.37500000  0.87500000  0.12500000  1
  Si  Si50  1  0.37500000  0.62500000  0.37500000  1
  Si  Si51  1  0.12500000  0.87500000  0.37500000  1
  Si  Si52  1  0.12500000  0.12500000  0.62500000  1
  Si  Si53  1  0.37500000  0.37500000  0.62500000  1
  Si  Si54  1  0.37500000  0.12500000  0.87500000  1
  Si  Si55  1  0.12500000  0.37500000  0.87500000  1
  Si  Si56  1  0.62500000  0.62500000  0.62500000  1
  Si  Si57  1  0.87500000  0.87500000  0.62500000  1
  Si  Si58  1  0.87500000  0.62500000  0.87500000  1
  Si  Si59  1  0.62500000  0.87500000  0.87500000  1
  Si  Si60  1  0.62500000  0.12500000  0.12500000  1
  Si  Si61  1  0.87500000  0.37500000  0.12500000  1
  Si  Si62  1  0.87500000  0.12500000  0.37500000  1
  Si  Si63  1  0.62500000  0.37500000  0.37500000  1
  Ni  Ni64  1  0.16392933  0.83607067  0.16392933  1
  Ni  Ni65  1  0.66392933  0.16392933  0.33607067  1
  Ni  Ni66  1  0.08607067  0.41392933  0.08607067  1
  Ni  Ni67  1  0.08607067  0.08607067  0.41392933  1
  Ni  Ni68  1  0.83607067  0.16392933  0.16392933  1
  Ni  Ni69  1  0.41392933  0.41392933  0.41392933  1
  Ni  Ni70  1  0.41392933  0.08607067  0.08607067  1
  Ni  Ni71  1  0.33607067  0.83607067  0.33607067  1
  Ni  Ni72  1  0.16392933  0.33607067  0.66392933  1
  Ni  Ni73  1  0.66392933  0.66392933  0.83607067  1
  Ni  Ni74  1  0.08607067  0.91392933  0.58607067  1
  Ni  Ni75  1  0.08607067  0.58607067  0.91392933  1
  Ni  Ni76  1  0.83607067  0.66392933  0.66392933  1
  Ni  Ni77  1  0.41392933  0.91392933  0.91392933  1
  Ni  Ni78  1  0.41392933  0.58607067  0.58607067  1
  Ni  Ni79  1  0.33607067  0.33607067  0.83607067  1
  Ni  Ni80  1  0.66392933  0.83607067  0.66392933  1
  Ni  Ni81  1  0.16392933  0.16392933  0.83607067  1
  Ni  Ni82  1  0.58607067  0.41392933  0.58607067  1
  Ni  Ni83  1  0.58607067  0.08607067  0.91392933  1
  Ni  Ni84  1  0.33607067  0.16392933  0.66392933  1
  Ni  Ni85  1  0.91392933  0.41392933  0.91392933  1
  Ni  Ni86  1  0.91392933  0.08607067  0.58607067  1
  Ni  Ni87  1  0.83607067  0.83607067  0.83607067  1
  Ni  Ni88  1  0.66392933  0.33607067  0.16392933  1
  Ni  Ni89  1  0.16392933  0.66392933  0.33607067  1
  Ni  Ni90  1  0.58607067  0.91392933  0.08607067  1
  Ni  Ni91  1  0.58607067  0.58607067  0.41392933  1
  Ni  Ni92  1  0.33607067  0.66392933  0.16392933  1
  Ni  Ni93  1  0.91392933  0.91392933  0.41392933  1
  Ni  Ni94  1  0.91392933  0.58607067  0.08607067  1
  Ni  Ni95  1  0.83607067  0.33607067  0.33607067  1
