# generated using pymatgen
data_Nd4V5(Si2O11)2
_symmetry_space_group_name_H-M   'P 1'
_cell_length_a   13.50737600
_cell_length_b   5.70030800
_cell_length_c   11.15346992
_cell_angle_alpha   90.00000000
_cell_angle_beta   100.41574801
_cell_angle_gamma   90.00000000
_symmetry_Int_Tables_number   1
_chemical_formula_structural   Nd4V5(Si2O11)2
_chemical_formula_sum   'Nd8 V10 Si8 O44'
_cell_volume   844.62379030
_cell_formula_units_Z   2
loop_
 _symmetry_equiv_pos_site_id
 _symmetry_equiv_pos_as_xyz
  1  'x, y, z'
loop_
 _atom_site_type_symbol
 _atom_site_label
 _atom_site_symmetry_multiplicity
 _atom_site_fract_x
 _atom_site_fract_y
 _atom_site_fract_z
 _atom_site_occupancy
  Nd  Nd0  1  0.57324700  0.50000000  0.24906100  1
  Nd  Nd1  1  0.92675300  0.00000000  0.75093900  1
  Nd  Nd2  1  0.85641100  0.50000000  0.24425100  1
  Nd  Nd3  1  0.64358900  0.00000000  0.75574900  1
  Nd  Nd4  1  0.07324700  0.00000000  0.24906100  1
  Nd  Nd5  1  0.42675300  0.50000000  0.75093900  1
  Nd  Nd6  1  0.35641100  0.00000000  0.24425100  1
  Nd  Nd7  1  0.14358900  0.50000000  0.75574900  1
  V  V8  1  0.00000000  0.50000000  0.00000000  1
  V  V9  1  0.75000000  0.75000000  0.50000000  1
  V  V10  1  0.75000000  0.25000000  0.50000000  1
  V  V11  1  0.00000000  0.00000000  0.50000000  1
  V  V12  1  0.00000000  0.50000000  0.50000000  1
  V  V13  1  0.50000000  0.00000000  0.00000000  1
  V  V14  1  0.25000000  0.25000000  0.50000000  1
  V  V15  1  0.25000000  0.75000000  0.50000000  1
  V  V16  1  0.50000000  0.50000000  0.50000000  1
  V  V17  1  0.50000000  0.00000000  0.50000000  1
  Si  Si18  1  0.63877000  0.50000000  0.95842600  1
  Si  Si19  1  0.86123000  0.00000000  0.04157400  1
  Si  Si20  1  0.79695000  0.50000000  0.77159100  1
  Si  Si21  1  0.70305000  0.00000000  0.22840900  1
  Si  Si22  1  0.13877000  0.00000000  0.95842600  1
  Si  Si23  1  0.36123000  0.50000000  0.04157400  1
  Si  Si24  1  0.29695000  0.00000000  0.77159100  1
  Si  Si25  1  0.20305000  0.50000000  0.22840900  1
  O  O26  1  0.72539000  0.50000000  0.87373300  1
  O  O27  1  0.77461000  0.00000000  0.12626700  1
  O  O28  1  0.92930900  0.76420300  0.08868700  1
  O  O29  1  0.57069100  0.26420300  0.91131300  1
  O  O30  1  0.57069100  0.73579700  0.91131300  1
  O  O31  1  0.92930900  0.23579700  0.08868700  1
  O  O32  1  0.68504300  0.50000000  0.10143300  1
  O  O33  1  0.81495700  0.00000000  0.89856700  1
  O  O34  1  0.91376700  0.50000000  0.83534300  1
  O  O35  1  0.58623300  0.00000000  0.16465700  1
  O  O36  1  0.72772450  0.76159250  0.31066500  1
  O  O37  1  0.77227550  0.26159250  0.68933500  1
  O  O38  1  0.77227550  0.73840750  0.68933500  1
  O  O39  1  0.65017200  0.00000000  0.51479900  1
  O  O40  1  0.84982800  0.50000000  0.48520100  1
  O  O41  1  0.85786100  0.00000000  0.52738000  1
  O  O42  1  0.64213900  0.50000000  0.47262000  1
  O  O43  1  0.97649850  0.24089750  0.36889400  1
  O  O44  1  0.52350150  0.74089750  0.63110600  1
  O  O45  1  0.52350150  0.25910250  0.63110600  1
  O  O46  1  0.97649850  0.75910250  0.36889400  1
  O  O47  1  0.72772450  0.23840750  0.31066500  1
  O  O48  1  0.22539000  0.00000000  0.87373300  1
  O  O49  1  0.27461000  0.50000000  0.12626700  1
  O  O50  1  0.42930900  0.26420300  0.08868700  1
  O  O51  1  0.07069100  0.76420300  0.91131300  1
  O  O52  1  0.07069100  0.23579700  0.91131300  1
  O  O53  1  0.42930900  0.73579700  0.08868700  1
  O  O54  1  0.18504300  0.00000000  0.10143300  1
  O  O55  1  0.31495700  0.50000000  0.89856700  1
  O  O56  1  0.41376700  0.00000000  0.83534300  1
  O  O57  1  0.08623300  0.50000000  0.16465700  1
  O  O58  1  0.22772450  0.26159250  0.31066500  1
  O  O59  1  0.27227550  0.76159250  0.68933500  1
  O  O60  1  0.27227550  0.23840750  0.68933500  1
  O  O61  1  0.15017200  0.50000000  0.51479900  1
  O  O62  1  0.34982800  0.00000000  0.48520100  1
  O  O63  1  0.35786100  0.50000000  0.52738000  1
  O  O64  1  0.14213900  0.00000000  0.47262000  1
  O  O65  1  0.47649850  0.74089750  0.36889400  1
  O  O66  1  0.02350150  0.24089750  0.63110600  1
  O  O67  1  0.02350150  0.75910250  0.63110600  1
  O  O68  1  0.47649850  0.25910250  0.36889400  1
  O  O69  1  0.22772450  0.73840750  0.31066500  1
