# generated using pymatgen
data_Be2HgTe
_symmetry_space_group_name_H-M   'P 1'
_cell_length_a   6.67886800
_cell_length_b   6.67886800
_cell_length_c   6.67886800
_cell_angle_alpha   90.00000000
_cell_angle_beta   90.00000000
_cell_angle_gamma   90.00000000
_symmetry_Int_Tables_number   1
_chemical_formula_structural   Be2HgTe
_chemical_formula_sum   'Be8 Hg4 Te4'
_cell_volume   297.92612001
_cell_formula_units_Z   4
loop_
 _symmetry_equiv_pos_site_id
 _symmetry_equiv_pos_as_xyz
  1  'x, y, z'
loop_
 _atom_site_type_symbol
 _atom_site_label
 _atom_site_symmetry_multiplicity
 _atom_site_fract_x
 _atom_site_fract_y
 _atom_site_fract_z
 _atom_site_occupancy
  Be  Be0  1  0.25000000  0.25000000  0.75000000  1
  Be  Be1  1  0.25000000  0.75000000  0.75000000  1
  Be  Be2  1  0.25000000  0.75000000  0.25000000  1
  Be  Be3  1  0.25000000  0.25000000  0.25000000  1
  Be  Be4  1  0.75000000  0.25000000  0.25000000  1
  Be  Be5  1  0.75000000  0.75000000  0.25000000  1
  Be  Be6  1  0.75000000  0.75000000  0.75000000  1
  Be  Be7  1  0.75000000  0.25000000  0.75000000  1
  Hg  Hg8  1  0.00000000  0.00000000  0.00000000  1
  Hg  Hg9  1  0.00000000  0.50000000  0.50000000  1
  Hg  Hg10  1  0.50000000  0.00000000  0.50000000  1
  Hg  Hg11  1  0.50000000  0.50000000  0.00000000  1
  Te  Te12  1  0.50000000  0.00000000  0.00000000  1
  Te  Te13  1  0.50000000  0.50000000  0.50000000  1
  Te  Te14  1  0.00000000  0.00000000  0.50000000  1
  Te  Te15  1  0.00000000  0.50000000  0.00000000  1
