# generated using pymatgen
data_CuSb(MoO4)2
_symmetry_space_group_name_H-M   'P 1'
_cell_length_a   22.18334000
_cell_length_b   4.96146800
_cell_length_c   5.63526603
_cell_angle_alpha   90.00000000
_cell_angle_beta   101.00108289
_cell_angle_gamma   90.00000000
_symmetry_Int_Tables_number   1
_chemical_formula_structural   CuSb(MoO4)2
_chemical_formula_sum   'Cu4 Sb4 Mo8 O32'
_cell_volume   608.83068734
_cell_formula_units_Z   4
loop_
 _symmetry_equiv_pos_site_id
 _symmetry_equiv_pos_as_xyz
  1  'x, y, z'
loop_
 _atom_site_type_symbol
 _atom_site_label
 _atom_site_symmetry_multiplicity
 _atom_site_fract_x
 _atom_site_fract_y
 _atom_site_fract_z
 _atom_site_occupancy
  Cu  Cu0  1  0.25000000  0.75000000  0.50000000  1
  Cu  Cu1  1  0.25000000  0.25000000  0.00000000  1
  Cu  Cu2  1  0.75000000  0.25000000  0.50000000  1
  Cu  Cu3  1  0.75000000  0.75000000  0.00000000  1
  Sb  Sb4  1  0.00000000  0.19136800  0.75000000  1
  Sb  Sb5  1  0.00000000  0.80863200  0.25000000  1
  Sb  Sb6  1  0.50000000  0.69136800  0.75000000  1
  Sb  Sb7  1  0.50000000  0.30863200  0.25000000  1
  Mo  Mo8  1  0.36269050  0.24207450  0.72345100  1
  Mo  Mo9  1  0.13730950  0.74207450  0.77654900  1
  Mo  Mo10  1  0.13730950  0.25792550  0.27654900  1
  Mo  Mo11  1  0.36269050  0.75792550  0.22345100  1
  Mo  Mo12  1  0.86269050  0.74207450  0.72345100  1
  Mo  Mo13  1  0.63730950  0.24207450  0.77654900  1
  Mo  Mo14  1  0.63730950  0.75792550  0.27654900  1
  Mo  Mo15  1  0.86269050  0.25792550  0.22345100  1
  O  O16  1  0.16135600  0.03995900  0.96176600  1
  O  O17  1  0.39615700  0.96461600  0.01358500  1
  O  O18  1  0.21075250  0.57852450  0.78893500  1
  O  O19  1  0.05204450  0.09064950  0.11926500  1
  O  O20  1  0.44795550  0.59064950  0.38073500  1
  O  O21  1  0.33864400  0.53995900  0.53823400  1
  O  O22  1  0.33864400  0.46004100  0.03823400  1
  O  O23  1  0.10384300  0.46461600  0.48641500  1
  O  O24  1  0.05204450  0.90935050  0.61926500  1
  O  O25  1  0.16135600  0.96004100  0.46176600  1
  O  O26  1  0.28924750  0.07852450  0.71106500  1
  O  O27  1  0.21075250  0.42147550  0.28893500  1
  O  O28  1  0.39615700  0.03538400  0.51358500  1
  O  O29  1  0.28924750  0.92147550  0.21106500  1
  O  O30  1  0.10384300  0.53538400  0.98641500  1
  O  O31  1  0.44795550  0.40935050  0.88073500  1
  O  O32  1  0.66135600  0.53995900  0.96176600  1
  O  O33  1  0.89615700  0.46461600  0.01358500  1
  O  O34  1  0.71075250  0.07852450  0.78893500  1
  O  O35  1  0.55204450  0.59064950  0.11926500  1
  O  O36  1  0.94795550  0.09064950  0.38073500  1
  O  O37  1  0.83864400  0.03995900  0.53823400  1
  O  O38  1  0.83864400  0.96004100  0.03823400  1
  O  O39  1  0.60384300  0.96461600  0.48641500  1
  O  O40  1  0.55204450  0.40935050  0.61926500  1
  O  O41  1  0.66135600  0.46004100  0.46176600  1
  O  O42  1  0.78924750  0.57852450  0.71106500  1
  O  O43  1  0.71075250  0.92147550  0.28893500  1
  O  O44  1  0.89615700  0.53538400  0.51358500  1
  O  O45  1  0.78924750  0.42147550  0.21106500  1
  O  O46  1  0.60384300  0.03538400  0.98641500  1
  O  O47  1  0.94795550  0.90935050  0.88073500  1
