# generated using pymatgen
data_Yb2SmS4
_symmetry_space_group_name_H-M   'P 1'
_cell_length_a   8.51486800
_cell_length_b   8.51486800
_cell_length_c   8.27329600
_cell_angle_alpha   90.00000000
_cell_angle_beta   90.00000000
_cell_angle_gamma   90.00000000
_symmetry_Int_Tables_number   1
_chemical_formula_structural   Yb2SmS4
_chemical_formula_sum   'Yb8 Sm4 S16'
_cell_volume   599.83859008
_cell_formula_units_Z   4
loop_
 _symmetry_equiv_pos_site_id
 _symmetry_equiv_pos_as_xyz
  1  'x, y, z'
loop_
 _atom_site_type_symbol
 _atom_site_label
 _atom_site_symmetry_multiplicity
 _atom_site_fract_x
 _atom_site_fract_y
 _atom_site_fract_z
 _atom_site_occupancy
  Yb  Yb0  1  0.37508500  0.25000000  0.37500000  1
  Yb  Yb1  1  0.75000000  0.37508500  0.62500000  1
  Yb  Yb2  1  0.62491500  0.75000000  0.37500000  1
  Yb  Yb3  1  0.25000000  0.62491500  0.62500000  1
  Yb  Yb4  1  0.87508500  0.75000000  0.87500000  1
  Yb  Yb5  1  0.25000000  0.87508500  0.12500000  1
  Yb  Yb6  1  0.12491500  0.25000000  0.87500000  1
  Yb  Yb7  1  0.75000000  0.12491500  0.12500000  1
  Sm  Sm8  1  0.00000000  0.00000000  0.50000000  1
  Sm  Sm9  1  0.50000000  0.00000000  0.75000000  1
  Sm  Sm10  1  0.50000000  0.50000000  0.00000000  1
  Sm  Sm11  1  0.00000000  0.50000000  0.25000000  1
  S  S12  1  0.82470550  0.43163350  0.95390950  1
  S  S13  1  0.43163350  0.17529450  0.04609050  1
  S  S14  1  0.82470550  0.06836650  0.79609050  1
  S  S15  1  0.67529450  0.06836650  0.45390950  1
  S  S16  1  0.06836650  0.32470550  0.54609050  1
  S  S17  1  0.67529450  0.43163350  0.29609050  1
  S  S18  1  0.06836650  0.17529450  0.20390950  1
  S  S19  1  0.43163350  0.32470550  0.70390950  1
  S  S20  1  0.32470550  0.93163350  0.45390950  1
  S  S21  1  0.93163350  0.67529450  0.54609050  1
  S  S22  1  0.32470550  0.56836650  0.29609050  1
  S  S23  1  0.17529450  0.56836650  0.95390950  1
  S  S24  1  0.56836650  0.82470550  0.04609050  1
  S  S25  1  0.17529450  0.93163350  0.79609050  1
  S  S26  1  0.56836650  0.67529450  0.70390950  1
  S  S27  1  0.93163350  0.82470550  0.20390950  1
