# generated using pymatgen
data_Na3(TiS2)10
_symmetry_space_group_name_H-M   'P 1'
_cell_length_a   5.93807400
_cell_length_b   17.11265000
_cell_length_c   13.12769045
_cell_angle_alpha   90.00000000
_cell_angle_beta   98.70651163
_cell_angle_gamma   90.00000000
_symmetry_Int_Tables_number   1
_chemical_formula_structural   Na3(TiS2)10
_chemical_formula_sum   'Na6 Ti20 S40'
_cell_volume   1318.61385043
_cell_formula_units_Z   2
loop_
 _symmetry_equiv_pos_site_id
 _symmetry_equiv_pos_as_xyz
  1  'x, y, z'
loop_
 _atom_site_type_symbol
 _atom_site_label
 _atom_site_symmetry_multiplicity
 _atom_site_fract_x
 _atom_site_fract_y
 _atom_site_fract_z
 _atom_site_occupancy
  Na  Na0  1  0.27267200  0.00000000  0.00441300  1
  Na  Na1  1  0.92882400  0.80359900  0.99581100  1
  Na  Na2  1  0.42882400  0.69640100  0.99581100  1
  Na  Na3  1  0.77267200  0.50000000  0.00441300  1
  Na  Na4  1  0.42882400  0.30359900  0.99581100  1
  Na  Na5  1  0.92882400  0.19640100  0.99581100  1
  Ti  Ti6  1  0.17337300  0.59853800  0.72324600  1
  Ti  Ti7  1  0.17763500  0.00000000  0.72255400  1
  Ti  Ti8  1  0.02335200  0.00000000  0.27672100  1
  Ti  Ti9  1  0.67337300  0.90146200  0.72324600  1
  Ti  Ti10  1  0.52683350  0.90076850  0.27663000  1
  Ti  Ti11  1  0.17292350  0.79996950  0.72192500  1
  Ti  Ti12  1  0.02603400  0.79947900  0.27763200  1
  Ti  Ti13  1  0.67292350  0.70003050  0.72192500  1
  Ti  Ti14  1  0.52603400  0.70052100  0.27763200  1
  Ti  Ti15  1  0.02683350  0.59923150  0.27663000  1
  Ti  Ti16  1  0.67337300  0.09853800  0.72324600  1
  Ti  Ti17  1  0.67763500  0.50000000  0.72255400  1
  Ti  Ti18  1  0.52335200  0.50000000  0.27672100  1
  Ti  Ti19  1  0.17337300  0.40146200  0.72324600  1
  Ti  Ti20  1  0.02683350  0.40076850  0.27663000  1
  Ti  Ti21  1  0.67292350  0.29996950  0.72192500  1
  Ti  Ti22  1  0.52603400  0.29947900  0.27763200  1
  Ti  Ti23  1  0.17292350  0.20003050  0.72192500  1
  Ti  Ti24  1  0.02603400  0.20052100  0.27763200  1
  Ti  Ti25  1  0.52683350  0.09923150  0.27663000  1
  S  S26  1  0.54705350  0.59946750  0.83636000  1
  S  S27  1  0.39493850  0.60014050  0.38439500  1
  S  S28  1  0.54711200  0.00000000  0.83630700  1
  S  S29  1  0.39377500  0.00000000  0.38398900  1
  S  S30  1  0.04705350  0.90053250  0.83636000  1
  S  S31  1  0.89493850  0.89985950  0.38439500  1
  S  S32  1  0.54376900  0.80045800  0.83631600  1
  S  S33  1  0.80522200  0.00000000  0.61531800  1
  S  S34  1  0.39520050  0.80006550  0.38418000  1
  S  S35  1  0.65729900  0.00000000  0.16429800  1
  S  S36  1  0.04376900  0.69954200  0.83631600  1
  S  S37  1  0.30500050  0.90000750  0.61501600  1
  S  S38  1  0.89520050  0.69993450  0.38418000  1
  S  S39  1  0.15392100  0.89948300  0.16343700  1
  S  S40  1  0.80523900  0.80025300  0.61585200  1
  S  S41  1  0.65335600  0.80000200  0.16240000  1
  S  S42  1  0.30523900  0.69974700  0.61585200  1
  S  S43  1  0.15335600  0.69999800  0.16240000  1
  S  S44  1  0.80500050  0.59999250  0.61501600  1
  S  S45  1  0.65392100  0.60051700  0.16343700  1
  S  S46  1  0.04705350  0.09946750  0.83636000  1
  S  S47  1  0.89493850  0.10014050  0.38439500  1
  S  S48  1  0.04711200  0.50000000  0.83630700  1
  S  S49  1  0.89377500  0.50000000  0.38398900  1
  S  S50  1  0.54705350  0.40053250  0.83636000  1
  S  S51  1  0.39493850  0.39985950  0.38439500  1
  S  S52  1  0.04376900  0.30045800  0.83631600  1
  S  S53  1  0.30522200  0.50000000  0.61531800  1
  S  S54  1  0.89520050  0.30006550  0.38418000  1
  S  S55  1  0.15729900  0.50000000  0.16429800  1
  S  S56  1  0.54376900  0.19954200  0.83631600  1
  S  S57  1  0.80500050  0.40000750  0.61501600  1
  S  S58  1  0.39520050  0.19993450  0.38418000  1
  S  S59  1  0.65392100  0.39948300  0.16343700  1
  S  S60  1  0.30523900  0.30025300  0.61585200  1
  S  S61  1  0.15335600  0.30000200  0.16240000  1
  S  S62  1  0.80523900  0.19974700  0.61585200  1
  S  S63  1  0.65335600  0.19999800  0.16240000  1
  S  S64  1  0.30500050  0.09999250  0.61501600  1
  S  S65  1  0.15392100  0.10051700  0.16343700  1
