# generated using pymatgen
data_Cr3(PO4)4
_symmetry_space_group_name_H-M   'P 1'
_cell_length_a   19.12297800
_cell_length_b   6.36875600
_cell_length_c   10.76224886
_cell_angle_alpha   90.00000000
_cell_angle_beta   91.80766787
_cell_angle_gamma   90.00000000
_symmetry_Int_Tables_number   1
_chemical_formula_structural   Cr3(PO4)4
_chemical_formula_sum   'Cr12 P16 O64'
_cell_volume   1310.07748999
_cell_formula_units_Z   4
loop_
 _symmetry_equiv_pos_site_id
 _symmetry_equiv_pos_as_xyz
  1  'x, y, z'
loop_
 _atom_site_type_symbol
 _atom_site_label
 _atom_site_symmetry_multiplicity
 _atom_site_fract_x
 _atom_site_fract_y
 _atom_site_fract_z
 _atom_site_occupancy
  Cr  Cr0  1  0.84590050  0.48214750  0.74873500  1
  Cr  Cr1  1  0.65409950  0.98214750  0.75126500  1
  Cr  Cr2  1  0.65409950  0.01785250  0.25126500  1
  Cr  Cr3  1  0.84590050  0.51785250  0.24873500  1
  Cr  Cr4  1  0.75000000  0.25000000  0.00000000  1
  Cr  Cr5  1  0.75000000  0.75000000  0.50000000  1
  Cr  Cr6  1  0.34590050  0.98214750  0.74873500  1
  Cr  Cr7  1  0.15409950  0.48214750  0.75126500  1
  Cr  Cr8  1  0.15409950  0.51785250  0.25126500  1
  Cr  Cr9  1  0.34590050  0.01785250  0.24873500  1
  Cr  Cr10  1  0.25000000  0.75000000  0.00000000  1
  Cr  Cr11  1  0.25000000  0.25000000  0.50000000  1
  P  P12  1  0.91459200  0.66764800  0.50840000  1
  P  P13  1  0.79890300  0.01630700  0.25466000  1
  P  P14  1  0.58540800  0.83235200  0.49160000  1
  P  P15  1  0.70109700  0.51630700  0.24534000  1
  P  P16  1  0.58540800  0.16764800  0.99160000  1
  P  P17  1  0.79890300  0.98369300  0.75466000  1
  P  P18  1  0.91459200  0.33235200  0.00840000  1
  P  P19  1  0.70109700  0.48369300  0.74534000  1
  P  P20  1  0.41459200  0.16764800  0.50840000  1
  P  P21  1  0.29890300  0.51630700  0.25466000  1
  P  P22  1  0.08540800  0.33235200  0.49160000  1
  P  P23  1  0.20109700  0.01630700  0.24534000  1
  P  P24  1  0.08540800  0.66764800  0.99160000  1
  P  P25  1  0.29890300  0.48369300  0.75466000  1
  P  P26  1  0.41459200  0.83235200  0.00840000  1
  P  P27  1  0.20109700  0.98369300  0.74534000  1
  O  O28  1  0.65056250  0.31368450  0.99370800  1
  O  O29  1  0.91377150  0.54659850  0.38346800  1
  O  O30  1  0.74347200  0.97868500  0.36217200  1
  O  O31  1  0.98385750  0.21732850  0.03210300  1
  O  O32  1  0.84357700  0.82673000  0.22778700  1
  O  O33  1  0.59210200  0.99884900  0.38611700  1
  O  O34  1  0.84311100  0.20986200  0.27935300  1
  O  O35  1  0.65688900  0.29013800  0.72064700  1
  O  O36  1  0.91377150  0.45340150  0.88346800  1
  O  O37  1  0.84357700  0.17327000  0.72778700  1
  O  O38  1  0.65688900  0.70986200  0.22064700  1
  O  O39  1  0.74347200  0.02131500  0.86217200  1
  O  O40  1  0.98385750  0.78267150  0.53210300  1
  O  O41  1  0.75652800  0.52131500  0.63782800  1
  O  O42  1  0.84943750  0.81368450  0.50629200  1
  O  O43  1  0.90789800  0.49884900  0.11388300  1
  O  O44  1  0.75923250  0.44972250  0.85528900  1
  O  O45  1  0.74076750  0.05027750  0.14471100  1
  O  O46  1  0.65642300  0.32673000  0.27221300  1
  O  O47  1  0.75923250  0.55027750  0.35528900  1
  O  O48  1  0.59210200  0.00115100  0.88611700  1
  O  O49  1  0.51614250  0.28267150  0.96789700  1
  O  O50  1  0.58622850  0.95340150  0.61653200  1
  O  O51  1  0.74076750  0.94972250  0.64471100  1
  O  O52  1  0.90789800  0.50115100  0.61388300  1
  O  O53  1  0.65056250  0.68631550  0.49370800  1
  O  O54  1  0.65642300  0.67327000  0.77221300  1
  O  O55  1  0.84311100  0.79013800  0.77935300  1
  O  O56  1  0.51614250  0.71732850  0.46789700  1
  O  O57  1  0.75652800  0.47868500  0.13782800  1
  O  O58  1  0.84943750  0.18631550  0.00629200  1
  O  O59  1  0.58622850  0.04659850  0.11653200  1
  O  O60  1  0.15056250  0.81368450  0.99370800  1
  O  O61  1  0.41377150  0.04659850  0.38346800  1
  O  O62  1  0.24347200  0.47868500  0.36217200  1
  O  O63  1  0.48385750  0.71732850  0.03210300  1
  O  O64  1  0.34357700  0.32673000  0.22778700  1
  O  O65  1  0.09210200  0.49884900  0.38611700  1
  O  O66  1  0.34311100  0.70986200  0.27935300  1
  O  O67  1  0.15688900  0.79013800  0.72064700  1
  O  O68  1  0.41377150  0.95340150  0.88346800  1
  O  O69  1  0.34357700  0.67327000  0.72778700  1
  O  O70  1  0.15688900  0.20986200  0.22064700  1
  O  O71  1  0.24347200  0.52131500  0.86217200  1
  O  O72  1  0.48385750  0.28267150  0.53210300  1
  O  O73  1  0.25652800  0.02131500  0.63782800  1
  O  O74  1  0.34943750  0.31368450  0.50629200  1
  O  O75  1  0.40789800  0.99884900  0.11388300  1
  O  O76  1  0.25923250  0.94972250  0.85528900  1
  O  O77  1  0.24076750  0.55027750  0.14471100  1
  O  O78  1  0.15642300  0.82673000  0.27221300  1
  O  O79  1  0.25923250  0.05027750  0.35528900  1
  O  O80  1  0.09210200  0.50115100  0.88611700  1
  O  O81  1  0.01614250  0.78267150  0.96789700  1
  O  O82  1  0.08622850  0.45340150  0.61653200  1
  O  O83  1  0.24076750  0.44972250  0.64471100  1
  O  O84  1  0.40789800  0.00115100  0.61388300  1
  O  O85  1  0.15056250  0.18631550  0.49370800  1
  O  O86  1  0.15642300  0.17327000  0.77221300  1
  O  O87  1  0.34311100  0.29013800  0.77935300  1
  O  O88  1  0.01614250  0.21732850  0.46789700  1
  O  O89  1  0.25652800  0.97868500  0.13782800  1
  O  O90  1  0.34943750  0.68631550  0.00629200  1
  O  O91  1  0.08622850  0.54659850  0.11653200  1
