# generated using pymatgen
data_VZn2P2O9
_symmetry_space_group_name_H-M   'P 1'
_cell_length_a   9.04497400
_cell_length_b   9.04497400
_cell_length_c   9.21798400
_cell_angle_alpha   90.00000000
_cell_angle_beta   90.00000000
_cell_angle_gamma   90.00000000
_symmetry_Int_Tables_number   1
_chemical_formula_structural   VZn2P2O9
_chemical_formula_sum   'V4 Zn8 P8 O36'
_cell_volume   754.13760188
_cell_formula_units_Z   4
loop_
 _symmetry_equiv_pos_site_id
 _symmetry_equiv_pos_as_xyz
  1  'x, y, z'
loop_
 _atom_site_type_symbol
 _atom_site_label
 _atom_site_symmetry_multiplicity
 _atom_site_fract_x
 _atom_site_fract_y
 _atom_site_fract_z
 _atom_site_occupancy
  V  V0  1  0.00000000  0.00000000  0.39605800  1
  V  V1  1  0.00000000  0.00000000  0.89605800  1
  V  V2  1  0.50000000  0.50000000  0.89605800  1
  V  V3  1  0.50000000  0.50000000  0.39605800  1
  Zn  Zn4  1  0.88098050  0.61901950  0.23429450  1
  Zn  Zn5  1  0.38098050  0.88098050  0.23429450  1
  Zn  Zn6  1  0.61901950  0.11901950  0.23429450  1
  Zn  Zn7  1  0.11901950  0.38098050  0.23429450  1
  Zn  Zn8  1  0.38098050  0.11901950  0.73429450  1
  Zn  Zn9  1  0.88098050  0.38098050  0.73429450  1
  Zn  Zn10  1  0.11901950  0.61901950  0.73429450  1
  Zn  Zn11  1  0.61901950  0.88098050  0.73429450  1
  P  P12  1  0.69286200  0.19286200  0.87995900  1
  P  P13  1  0.30713800  0.19286200  0.37995900  1
  P  P14  1  0.19286200  0.30713800  0.87995900  1
  P  P15  1  0.80713800  0.30713800  0.37995900  1
  P  P16  1  0.19286200  0.69286200  0.37995900  1
  P  P17  1  0.80713800  0.69286200  0.87995900  1
  P  P18  1  0.69286200  0.80713800  0.37995900  1
  P  P19  1  0.30713800  0.80713800  0.87995900  1
  O  O20  1  0.00000000  0.00000000  0.07212100  1
  O  O21  1  0.89597500  0.39597500  0.26436650  1
  O  O22  1  0.32801450  0.36248250  0.34607150  1
  O  O23  1  0.13751750  0.17198550  0.34607150  1
  O  O24  1  0.32801450  0.63751750  0.84607150  1
  O  O25  1  0.00000000  0.00000000  0.57212100  1
  O  O26  1  0.36248250  0.32801450  0.84607150  1
  O  O27  1  0.34988400  0.15011600  0.53146800  1
  O  O28  1  0.60402500  0.89597500  0.26436650  1
  O  O29  1  0.67198550  0.63751750  0.34607150  1
  O  O30  1  0.84988400  0.34988400  0.53146800  1
  O  O31  1  0.36248250  0.67198550  0.34607150  1
  O  O32  1  0.17198550  0.86248250  0.34607150  1
  O  O33  1  0.10402500  0.60402500  0.26436650  1
  O  O34  1  0.63751750  0.32801450  0.34607150  1
  O  O35  1  0.39597500  0.10402500  0.26436650  1
  O  O36  1  0.15011600  0.34988400  0.03146800  1
  O  O37  1  0.65011600  0.15011600  0.03146800  1
  O  O38  1  0.50000000  0.50000000  0.57212100  1
  O  O39  1  0.39597500  0.89597500  0.76436650  1
  O  O40  1  0.82801450  0.86248250  0.84607150  1
  O  O41  1  0.63751750  0.67198550  0.84607150  1
  O  O42  1  0.82801450  0.13751750  0.34607150  1
  O  O43  1  0.50000000  0.50000000  0.07212100  1
  O  O44  1  0.86248250  0.82801450  0.34607150  1
  O  O45  1  0.84988400  0.65011600  0.03146800  1
  O  O46  1  0.10402500  0.39597500  0.76436650  1
  O  O47  1  0.17198550  0.13751750  0.84607150  1
  O  O48  1  0.34988400  0.84988400  0.03146800  1
  O  O49  1  0.86248250  0.17198550  0.84607150  1
  O  O50  1  0.67198550  0.36248250  0.84607150  1
  O  O51  1  0.60402500  0.10402500  0.76436650  1
  O  O52  1  0.13751750  0.82801450  0.84607150  1
  O  O53  1  0.89597500  0.60402500  0.76436650  1
  O  O54  1  0.65011600  0.84988400  0.53146800  1
  O  O55  1  0.15011600  0.65011600  0.53146800  1
