# generated using pymatgen
data_Ba7Ca2Mn5O20
_symmetry_space_group_name_H-M   'P 1'
_cell_length_a   5.90578986
_cell_length_b   5.90578986
_cell_length_c   52.27455834
_cell_angle_alpha   90.00000000
_cell_angle_beta   90.00000000
_cell_angle_gamma   120.00000000
_symmetry_Int_Tables_number   1
_chemical_formula_structural   Ba7Ca2Mn5O20
_chemical_formula_sum   'Ba21 Ca6 Mn15 O60'
_cell_volume   1578.98128962
_cell_formula_units_Z   3
loop_
 _symmetry_equiv_pos_site_id
 _symmetry_equiv_pos_as_xyz
  1  'x, y, z'
loop_
 _atom_site_type_symbol
 _atom_site_label
 _atom_site_symmetry_multiplicity
 _atom_site_fract_x
 _atom_site_fract_y
 _atom_site_fract_z
 _atom_site_occupancy
  Ba  Ba0  1  0.66666667  0.33333333  0.18766533  1
  Ba  Ba1  1  0.00000000  0.00000000  0.14566800  1
  Ba  Ba2  1  0.00000000  0.00000000  0.00000000  1
  Ba  Ba3  1  0.33333333  0.66666667  0.05458967  1
  Ba  Ba4  1  0.66666667  0.33333333  0.10658333  1
  Ba  Ba5  1  0.00000000  0.00000000  0.22675000  1
  Ba  Ba6  1  0.33333333  0.66666667  0.27874367  1
  Ba  Ba7  1  0.33333333  0.66666667  0.52099867  1
  Ba  Ba8  1  0.66666667  0.33333333  0.47900133  1
  Ba  Ba9  1  0.66666667  0.33333333  0.33333333  1
  Ba  Ba10  1  0.00000000  0.00000000  0.38792300  1
  Ba  Ba11  1  0.33333333  0.66666667  0.43991667  1
  Ba  Ba12  1  0.66666667  0.33333333  0.56008333  1
  Ba  Ba13  1  0.00000000  0.00000000  0.61207700  1
  Ba  Ba14  1  0.00000000  0.00000000  0.85433200  1
  Ba  Ba15  1  0.33333333  0.66666667  0.81233467  1
  Ba  Ba16  1  0.33333333  0.66666667  0.66666667  1
  Ba  Ba17  1  0.66666667  0.33333333  0.72125633  1
  Ba  Ba18  1  0.00000000  0.00000000  0.77325000  1
  Ba  Ba19  1  0.33333333  0.66666667  0.89341667  1
  Ba  Ba20  1  0.66666667  0.33333333  0.94541033  1
  Ca  Ca21  1  0.00000000  0.00000000  0.07455000  1
  Ca  Ca22  1  0.66666667  0.33333333  0.25878333  1
  Ca  Ca23  1  0.66666667  0.33333333  0.40788333  1
  Ca  Ca24  1  0.33333333  0.66666667  0.59211667  1
  Ca  Ca25  1  0.33333333  0.66666667  0.74121667  1
  Ca  Ca26  1  0.00000000  0.00000000  0.92545000  1
  Mn  Mn27  1  0.66666667  0.33333333  0.03034733  1
  Mn  Mn28  1  0.00000000  0.00000000  0.30298600  1
  Mn  Mn29  1  0.33333333  0.66666667  0.21609767  1
  Mn  Mn30  1  0.33333333  0.66666667  0.11723567  1
  Mn  Mn31  1  0.33333333  0.66666667  0.16666667  1
  Mn  Mn32  1  0.33333333  0.66666667  0.36368067  1
  Mn  Mn33  1  0.66666667  0.33333333  0.63631933  1
  Mn  Mn34  1  0.00000000  0.00000000  0.54943100  1
  Mn  Mn35  1  0.00000000  0.00000000  0.45056900  1
  Mn  Mn36  1  1.00000000  1.00000000  0.50000000  1
  Mn  Mn37  1  0.00000000  0.00000000  0.69701400  1
  Mn  Mn38  1  0.33333333  0.66666667  0.96965267  1
  Mn  Mn39  1  0.66666667  0.33333333  0.88276433  1
  Mn  Mn40  1  0.66666667  0.33333333  0.78390233  1
  Mn  Mn41  1  0.66666667  0.33333333  0.83333333  1
  O  O42  1  0.48690100  0.51309900  0.23602300  1
  O  O43  1  0.34995533  0.17497767  0.04214467  1
  O  O44  1  0.02619800  0.51309900  0.23602300  1
  O  O45  1  0.82502233  0.65004467  0.04214467  1
  O  O46  1  0.64046867  0.82023433  0.09731033  1
  O  O47  1  0.18673533  0.81326467  0.19008067  1
  O  O48  1  0.62652933  0.81326467  0.19008067  1
  O  O49  1  0.47993133  0.52006867  0.14325267  1
  O  O50  1  0.48690100  0.97380200  0.23602300  1
  O  O51  1  0.17976567  0.82023433  0.09731033  1
  O  O52  1  0.33333333  0.66666667  0.33143767  1
  O  O53  1  0.84164433  0.15835567  0.29118867  1
  O  O54  1  0.18673533  0.37347067  0.19008067  1
  O  O55  1  0.82502233  0.17497767  0.04214467  1
  O  O56  1  0.84164433  0.68328867  0.29118867  1
  O  O57  1  0.04013733  0.52006867  0.14325267  1
  O  O58  1  0.31671133  0.15835567  0.29118867  1
  O  O59  1  0.33333333  0.66666667  0.00189567  1
  O  O60  1  0.47993133  0.95986267  0.14325267  1
  O  O61  1  0.17976567  0.35953133  0.09731033  1
  O  O62  1  0.15356767  0.84643233  0.56935633  1
  O  O63  1  0.01662200  0.50831100  0.37547800  1
  O  O64  1  0.69286467  0.84643233  0.56935633  1
  O  O65  1  0.49168900  0.98337800  0.37547800  1
  O  O66  1  0.30713533  0.15356767  0.43064367  1
  O  O67  1  0.85340200  0.14659800  0.52341400  1
  O  O68  1  0.29319600  0.14659800  0.52341400  1
  O  O69  1  0.14659800  0.85340200  0.47658600  1
  O  O70  1  0.15356767  0.30713533  0.56935633  1
  O  O71  1  0.84643233  0.15356767  0.43064367  1
  O  O72  1  0.00000000  0.00000000  0.66477100  1
  O  O73  1  0.50831100  0.49168900  0.62452200  1
  O  O74  1  0.85340200  0.70680400  0.52341400  1
  O  O75  1  0.49168900  0.50831100  0.37547800  1
  O  O76  1  0.50831100  0.01662200  0.62452200  1
  O  O77  1  0.70680400  0.85340200  0.47658600  1
  O  O78  1  0.98337800  0.49168900  0.62452200  1
  O  O79  1  0.00000000  0.00000000  0.33522900  1
  O  O80  1  0.14659800  0.29319600  0.47658600  1
  O  O81  1  0.84643233  0.69286467  0.43064367  1
  O  O82  1  0.82023433  0.17976567  0.90268967  1
  O  O83  1  0.68328867  0.84164433  0.70881133  1
  O  O84  1  0.35953133  0.17976567  0.90268967  1
  O  O85  1  0.15835567  0.31671133  0.70881133  1
  O  O86  1  0.97380200  0.48690100  0.76397700  1
  O  O87  1  0.52006867  0.47993133  0.85674733  1
  O  O88  1  0.95986267  0.47993133  0.85674733  1
  O  O89  1  0.81326467  0.18673533  0.80991933  1
  O  O90  1  0.82023433  0.64046867  0.90268967  1
  O  O91  1  0.51309900  0.48690100  0.76397700  1
  O  O92  1  0.66666667  0.33333333  0.99810433  1
  O  O93  1  0.17497767  0.82502233  0.95785533  1
  O  O94  1  0.52006867  0.04013733  0.85674733  1
  O  O95  1  0.15835567  0.84164433  0.70881133  1
  O  O96  1  0.17497767  0.34995533  0.95785533  1
  O  O97  1  0.37347067  0.18673533  0.80991933  1
  O  O98  1  0.65004467  0.82502233  0.95785533  1
  O  O99  1  0.66666667  0.33333333  0.66856233  1
  O  O100  1  0.81326467  0.62652933  0.80991933  1
  O  O101  1  0.51309900  0.02619800  0.76397700  1
