# generated using pymatgen
data_In7Cu10
_symmetry_space_group_name_H-M   'P 1'
_cell_length_a   13.96744800
_cell_length_b   11.98037200
_cell_length_c   6.78188204
_cell_angle_alpha   90.00000000
_cell_angle_beta   91.03899399
_cell_angle_gamma   90.00000000
_symmetry_Int_Tables_number   1
_chemical_formula_structural   In7Cu10
_chemical_formula_sum   'In28 Cu40'
_cell_volume   1134.66115759
_cell_formula_units_Z   4
loop_
 _symmetry_equiv_pos_site_id
 _symmetry_equiv_pos_as_xyz
  1  'x, y, z'
loop_
 _atom_site_type_symbol
 _atom_site_label
 _atom_site_symmetry_multiplicity
 _atom_site_fract_x
 _atom_site_fract_y
 _atom_site_fract_z
 _atom_site_occupancy
  In  In0  1  0.65571050  0.22424250  0.61297200  1
  In  In1  1  0.46516600  0.00000000  0.71602800  1
  In  In2  1  0.43129650  0.72609550  0.80164800  1
  In  In3  1  0.34428950  0.77575750  0.38702800  1
  In  In4  1  0.76307900  0.00000000  0.93324800  1
  In  In5  1  0.56870350  0.72609550  0.19835200  1
  In  In6  1  0.83351700  0.00000000  0.50284000  1
  In  In7  1  0.56870350  0.27390450  0.19835200  1
  In  In8  1  0.34428950  0.22424250  0.38702800  1
  In  In9  1  0.16648300  0.00000000  0.49716000  1
  In  In10  1  0.43129650  0.27390450  0.80164800  1
  In  In11  1  0.53483400  0.00000000  0.28397200  1
  In  In12  1  0.23692100  0.00000000  0.06675200  1
  In  In13  1  0.65571050  0.77575750  0.61297200  1
  In  In14  1  0.15571050  0.72424250  0.61297200  1
  In  In15  1  0.96516600  0.50000000  0.71602800  1
  In  In16  1  0.93129650  0.22609550  0.80164800  1
  In  In17  1  0.84428950  0.27575750  0.38702800  1
  In  In18  1  0.26307900  0.50000000  0.93324800  1
  In  In19  1  0.06870350  0.22609550  0.19835200  1
  In  In20  1  0.33351700  0.50000000  0.50284000  1
  In  In21  1  0.06870350  0.77390450  0.19835200  1
  In  In22  1  0.84428950  0.72424250  0.38702800  1
  In  In23  1  0.66648300  0.50000000  0.49716000  1
  In  In24  1  0.93129650  0.77390450  0.80164800  1
  In  In25  1  0.03483400  0.50000000  0.28397200  1
  In  In26  1  0.73692100  0.50000000  0.06675200  1
  In  In27  1  0.15571050  0.27575750  0.61297200  1
  Cu  Cu28  1  0.39296700  0.38882800  0.15282300  1
  Cu  Cu29  1  0.40567900  0.88674600  0.06092600  1
  Cu  Cu30  1  0.50000000  0.38875800  0.50000000  1
  Cu  Cu31  1  0.29531450  0.88714950  0.72551400  1
  Cu  Cu32  1  0.60703300  0.61117200  0.84717700  1
  Cu  Cu33  1  0.40567900  0.11325400  0.06092600  1
  Cu  Cu34  1  0.70468550  0.88714950  0.27448600  1
  Cu  Cu35  1  0.50000000  0.61124200  0.50000000  1
  Cu  Cu36  1  0.59432100  0.11325400  0.93907400  1
  Cu  Cu37  1  0.60703300  0.38882800  0.84717700  1
  Cu  Cu38  1  0.70468550  0.11285050  0.27448600  1
  Cu  Cu39  1  0.04876800  0.00000000  0.16667300  1
  Cu  Cu40  1  0.75000000  0.25000000  0.00000000  1
  Cu  Cu41  1  0.35125800  0.00000000  0.39242900  1
  Cu  Cu42  1  0.29531450  0.11285050  0.72551400  1
  Cu  Cu43  1  0.39296700  0.61117200  0.15282300  1
  Cu  Cu44  1  0.59432100  0.88674600  0.93907400  1
  Cu  Cu45  1  0.95123200  0.00000000  0.83332700  1
  Cu  Cu46  1  0.75000000  0.75000000  0.00000000  1
  Cu  Cu47  1  0.64874200  0.00000000  0.60757100  1
  Cu  Cu48  1  0.89296700  0.88882800  0.15282300  1
  Cu  Cu49  1  0.90567900  0.38674600  0.06092600  1
  Cu  Cu50  1  0.00000000  0.88875800  0.50000000  1
  Cu  Cu51  1  0.79531450  0.38714950  0.72551400  1
  Cu  Cu52  1  0.10703300  0.11117200  0.84717700  1
  Cu  Cu53  1  0.90567900  0.61325400  0.06092600  1
  Cu  Cu54  1  0.20468550  0.38714950  0.27448600  1
  Cu  Cu55  1  0.00000000  0.11124200  0.50000000  1
  Cu  Cu56  1  0.09432100  0.61325400  0.93907400  1
  Cu  Cu57  1  0.10703300  0.88882800  0.84717700  1
  Cu  Cu58  1  0.20468550  0.61285050  0.27448600  1
  Cu  Cu59  1  0.54876800  0.50000000  0.16667300  1
  Cu  Cu60  1  0.25000000  0.75000000  0.00000000  1
  Cu  Cu61  1  0.85125800  0.50000000  0.39242900  1
  Cu  Cu62  1  0.79531450  0.61285050  0.72551400  1
  Cu  Cu63  1  0.89296700  0.11117200  0.15282300  1
  Cu  Cu64  1  0.09432100  0.38674600  0.93907400  1
  Cu  Cu65  1  0.45123200  0.50000000  0.83332700  1
  Cu  Cu66  1  0.25000000  0.25000000  0.00000000  1
  Cu  Cu67  1  0.14874200  0.50000000  0.60757100  1
