# generated using pymatgen
data_Mg5(Si8Pd5)2
_symmetry_space_group_name_H-M   'P 1'
_cell_length_a   12.66188200
_cell_length_b   12.66188200
_cell_length_c   12.66188200
_cell_angle_alpha   90.00000000
_cell_angle_beta   90.00000000
_cell_angle_gamma   90.00000000
_symmetry_Int_Tables_number   1
_chemical_formula_structural   Mg5(Si8Pd5)2
_chemical_formula_sum   'Mg20 Si64 Pd40'
_cell_volume   2029.99414657
_cell_formula_units_Z   4
loop_
 _symmetry_equiv_pos_site_id
 _symmetry_equiv_pos_as_xyz
  1  'x, y, z'
loop_
 _atom_site_type_symbol
 _atom_site_label
 _atom_site_symmetry_multiplicity
 _atom_site_fract_x
 _atom_site_fract_y
 _atom_site_fract_z
 _atom_site_occupancy
  Mg  Mg0  1  0.59905200  0.09905200  0.90094800  1
  Mg  Mg1  1  0.90094800  0.40094800  0.90094800  1
  Mg  Mg2  1  0.09905200  0.40094800  0.09905200  1
  Mg  Mg3  1  0.40094800  0.09905200  0.09905200  1
  Mg  Mg4  1  0.25000000  0.25000000  0.75000000  1
  Mg  Mg5  1  0.59905200  0.59905200  0.40094800  1
  Mg  Mg6  1  0.90094800  0.90094800  0.40094800  1
  Mg  Mg7  1  0.09905200  0.90094800  0.59905200  1
  Mg  Mg8  1  0.40094800  0.59905200  0.59905200  1
  Mg  Mg9  1  0.25000000  0.75000000  0.25000000  1
  Mg  Mg10  1  0.09905200  0.09905200  0.40094800  1
  Mg  Mg11  1  0.40094800  0.40094800  0.40094800  1
  Mg  Mg12  1  0.59905200  0.40094800  0.59905200  1
  Mg  Mg13  1  0.90094800  0.09905200  0.59905200  1
  Mg  Mg14  1  0.75000000  0.25000000  0.25000000  1
  Mg  Mg15  1  0.09905200  0.59905200  0.90094800  1
  Mg  Mg16  1  0.40094800  0.90094800  0.90094800  1
  Mg  Mg17  1  0.59905200  0.90094800  0.09905200  1
  Mg  Mg18  1  0.90094800  0.59905200  0.09905200  1
  Mg  Mg19  1  0.75000000  0.75000000  0.75000000  1
  Si  Si20  1  0.43390200  0.06609800  0.70465700  1
  Si  Si21  1  0.93390200  0.20465700  0.06609800  1
  Si  Si22  1  0.43390200  0.29534300  0.93390200  1
  Si  Si23  1  0.20465700  0.06609800  0.93390200  1
  Si  Si24  1  0.93390200  0.43390200  0.29534300  1
  Si  Si25  1  0.79534300  0.06609800  0.06609800  1
  Si  Si26  1  0.70465700  0.43390200  0.06609800  1
  Si  Si27  1  0.06609800  0.20465700  0.93390200  1
  Si  Si28  1  0.06609800  0.43390200  0.70465700  1
  Si  Si29  1  0.29534300  0.43390200  0.93390200  1
  Si  Si30  1  0.32251733  0.32251733  0.17748267  1
  Si  Si31  1  0.32251733  0.17748267  0.32251733  1
  Si  Si32  1  0.56609800  0.06609800  0.29534300  1
  Si  Si33  1  0.17748267  0.17748267  0.17748267  1
  Si  Si34  1  0.17748267  0.32251733  0.32251733  1
  Si  Si35  1  0.56609800  0.29534300  0.06609800  1
  Si  Si36  1  0.43390200  0.56609800  0.20465700  1
  Si  Si37  1  0.93390200  0.70465700  0.56609800  1
  Si  Si38  1  0.43390200  0.79534300  0.43390200  1
  Si  Si39  1  0.20465700  0.56609800  0.43390200  1
  Si  Si40  1  0.93390200  0.93390200  0.79534300  1
  Si  Si41  1  0.79534300  0.56609800  0.56609800  1
  Si  Si42  1  0.70465700  0.93390200  0.56609800  1
  Si  Si43  1  0.06609800  0.70465700  0.43390200  1
  Si  Si44  1  0.06609800  0.93390200  0.20465700  1
  Si  Si45  1  0.29534300  0.93390200  0.43390200  1
  Si  Si46  1  0.32251733  0.82251733  0.67748267  1
  Si  Si47  1  0.32251733  0.67748267  0.82251733  1
  Si  Si48  1  0.56609800  0.56609800  0.79534300  1
  Si  Si49  1  0.17748267  0.67748267  0.67748267  1
  Si  Si50  1  0.17748267  0.82251733  0.82251733  1
  Si  Si51  1  0.56609800  0.79534300  0.56609800  1
  Si  Si52  1  0.93390200  0.06609800  0.20465700  1
  Si  Si53  1  0.43390200  0.20465700  0.56609800  1
  Si  Si54  1  0.93390200  0.29534300  0.43390200  1
  Si  Si55  1  0.70465700  0.06609800  0.43390200  1
  Si  Si56  1  0.43390200  0.43390200  0.79534300  1
  Si  Si57  1  0.29534300  0.06609800  0.56609800  1
  Si  Si58  1  0.20465700  0.43390200  0.56609800  1
  Si  Si59  1  0.56609800  0.20465700  0.43390200  1
  Si  Si60  1  0.56609800  0.43390200  0.20465700  1
  Si  Si61  1  0.79534300  0.43390200  0.43390200  1
  Si  Si62  1  0.82251733  0.32251733  0.67748267  1
  Si  Si63  1  0.82251733  0.17748267  0.82251733  1
  Si  Si64  1  0.06609800  0.06609800  0.79534300  1
  Si  Si65  1  0.67748267  0.17748267  0.67748267  1
  Si  Si66  1  0.67748267  0.32251733  0.82251733  1
  Si  Si67  1  0.06609800  0.29534300  0.56609800  1
  Si  Si68  1  0.93390200  0.56609800  0.70465700  1
  Si  Si69  1  0.43390200  0.70465700  0.06609800  1
  Si  Si70  1  0.93390200  0.79534300  0.93390200  1
  Si  Si71  1  0.70465700  0.56609800  0.93390200  1
  Si  Si72  1  0.43390200  0.93390200  0.29534300  1
  Si  Si73  1  0.29534300  0.56609800  0.06609800  1
  Si  Si74  1  0.20465700  0.93390200  0.06609800  1
  Si  Si75  1  0.56609800  0.70465700  0.93390200  1
  Si  Si76  1  0.56609800  0.93390200  0.70465700  1
  Si  Si77  1  0.79534300  0.93390200  0.93390200  1
  Si  Si78  1  0.82251733  0.82251733  0.17748267  1
  Si  Si79  1  0.82251733  0.67748267  0.32251733  1
  Si  Si80  1  0.06609800  0.56609800  0.29534300  1
  Si  Si81  1  0.67748267  0.67748267  0.17748267  1
  Si  Si82  1  0.67748267  0.82251733  0.32251733  1
  Si  Si83  1  0.06609800  0.79534300  0.06609800  1
  Pd  Pd84  1  0.25000000  0.01302000  0.25000000  1
  Pd  Pd85  1  0.25000000  0.25000000  0.01302000  1
  Pd  Pd86  1  0.25000000  0.25000000  0.48698000  1
  Pd  Pd87  1  0.62138300  0.12138300  0.12138300  1
  Pd  Pd88  1  0.37861700  0.12138300  0.87861700  1
  Pd  Pd89  1  0.87861700  0.37861700  0.12138300  1
  Pd  Pd90  1  0.01302000  0.25000000  0.25000000  1
  Pd  Pd91  1  0.25000000  0.48698000  0.25000000  1
  Pd  Pd92  1  0.12138300  0.37861700  0.87861700  1
  Pd  Pd93  1  0.48698000  0.25000000  0.25000000  1
  Pd  Pd94  1  0.25000000  0.51302000  0.75000000  1
  Pd  Pd95  1  0.25000000  0.75000000  0.51302000  1
  Pd  Pd96  1  0.25000000  0.75000000  0.98698000  1
  Pd  Pd97  1  0.62138300  0.62138300  0.62138300  1
  Pd  Pd98  1  0.37861700  0.62138300  0.37861700  1
  Pd  Pd99  1  0.87861700  0.87861700  0.62138300  1
  Pd  Pd100  1  0.01302000  0.75000000  0.75000000  1
  Pd  Pd101  1  0.25000000  0.98698000  0.75000000  1
  Pd  Pd102  1  0.12138300  0.87861700  0.37861700  1
  Pd  Pd103  1  0.48698000  0.75000000  0.75000000  1
  Pd  Pd104  1  0.75000000  0.01302000  0.75000000  1
  Pd  Pd105  1  0.75000000  0.25000000  0.51302000  1
  Pd  Pd106  1  0.75000000  0.25000000  0.98698000  1
  Pd  Pd107  1  0.12138300  0.12138300  0.62138300  1
  Pd  Pd108  1  0.87861700  0.12138300  0.37861700  1
  Pd  Pd109  1  0.37861700  0.37861700  0.62138300  1
  Pd  Pd110  1  0.51302000  0.25000000  0.75000000  1
  Pd  Pd111  1  0.75000000  0.48698000  0.75000000  1
  Pd  Pd112  1  0.62138300  0.37861700  0.37861700  1
  Pd  Pd113  1  0.98698000  0.25000000  0.75000000  1
  Pd  Pd114  1  0.75000000  0.51302000  0.25000000  1
  Pd  Pd115  1  0.75000000  0.75000000  0.01302000  1
  Pd  Pd116  1  0.75000000  0.75000000  0.48698000  1
  Pd  Pd117  1  0.12138300  0.62138300  0.12138300  1
  Pd  Pd118  1  0.87861700  0.62138300  0.87861700  1
  Pd  Pd119  1  0.37861700  0.87861700  0.12138300  1
  Pd  Pd120  1  0.51302000  0.75000000  0.25000000  1
  Pd  Pd121  1  0.75000000  0.98698000  0.25000000  1
  Pd  Pd122  1  0.62138300  0.87861700  0.87861700  1
  Pd  Pd123  1  0.98698000  0.75000000  0.25000000  1
