# generated using pymatgen
data_Cs5Bi(MoO4)4
_symmetry_space_group_name_H-M   'P 1'
_cell_length_a   8.51353836
_cell_length_b   26.15331218
_cell_length_c   10.70632670
_cell_angle_alpha   90.00000000
_cell_angle_beta   110.14239734
_cell_angle_gamma   90.00000000
_symmetry_Int_Tables_number   1
_chemical_formula_structural   Cs5Bi(MoO4)4
_chemical_formula_sum   'Cs20 Bi4 Mo16 O64'
_cell_volume   2238.04456859
_cell_formula_units_Z   4
loop_
 _symmetry_equiv_pos_site_id
 _symmetry_equiv_pos_as_xyz
  1  'x, y, z'
loop_
 _atom_site_type_symbol
 _atom_site_label
 _atom_site_symmetry_multiplicity
 _atom_site_fract_x
 _atom_site_fract_y
 _atom_site_fract_z
 _atom_site_occupancy
  Cs  Cs0  1  0.87719766  0.31279322  0.54729454  1
  Cs  Cs1  1  0.61049056  0.44143444  0.43989668  1
  Cs  Cs2  1  0.88697083  0.06003424  0.55077080  1
  Cs  Cs3  1  0.12280234  0.31279322  0.95270546  1
  Cs  Cs4  1  0.38697083  0.43996576  0.05077080  1
  Cs  Cs5  1  0.50000000  0.06216419  0.75000000  1
  Cs  Cs6  1  0.11049056  0.05856556  0.93989668  1
  Cs  Cs7  1  0.37719766  0.18720678  0.04729454  1
  Cs  Cs8  1  0.00000000  0.43783581  0.25000000  1
  Cs  Cs9  1  0.62280234  0.18720678  0.45270546  1
  Cs  Cs10  1  0.37719766  0.81279322  0.54729454  1
  Cs  Cs11  1  0.11049056  0.94143444  0.43989668  1
  Cs  Cs12  1  0.38697083  0.56003424  0.55077080  1
  Cs  Cs13  1  0.62280234  0.81279322  0.95270546  1
  Cs  Cs14  1  0.88697083  0.93996576  0.05077080  1
  Cs  Cs15  1  0.00000000  0.56216419  0.75000000  1
  Cs  Cs16  1  0.61049056  0.55856556  0.93989668  1
  Cs  Cs17  1  0.87719766  0.68720678  0.04729454  1
  Cs  Cs18  1  0.50000000  0.93783581  0.25000000  1
  Cs  Cs19  1  0.12280234  0.68720678  0.45270546  1
  Bi  Bi20  1  0.50000000  0.30604890  0.75000000  1
  Bi  Bi21  1  0.00000000  0.19395110  0.25000000  1
  Bi  Bi22  1  0.00000000  0.80604889  0.75000000  1
  Bi  Bi23  1  0.50000000  0.69395111  0.25000000  1
  Mo  Mo24  1  0.72062124  0.07115807  0.14241806  1
  Mo  Mo25  1  0.78555975  0.18908864  0.85962389  1
  Mo  Mo26  1  0.28555975  0.31091136  0.35962389  1
  Mo  Mo27  1  0.22062124  0.42884193  0.64241806  1
  Mo  Mo28  1  0.21444025  0.18908864  0.64037611  1
  Mo  Mo29  1  0.71444025  0.31091136  0.14037611  1
  Mo  Mo30  1  0.27937876  0.07115807  0.35758194  1
  Mo  Mo31  1  0.77937876  0.42884193  0.85758194  1
  Mo  Mo32  1  0.22062124  0.57115807  0.14241806  1
  Mo  Mo33  1  0.28555975  0.68908864  0.85962389  1
  Mo  Mo34  1  0.78555975  0.81091136  0.35962389  1
  Mo  Mo35  1  0.72062124  0.92884193  0.64241806  1
  Mo  Mo36  1  0.71444025  0.68908864  0.64037611  1
  Mo  Mo37  1  0.21444025  0.81091136  0.14037611  1
  Mo  Mo38  1  0.77937876  0.57115807  0.35758194  1
  Mo  Mo39  1  0.27937876  0.92884193  0.85758194  1
  O  O40  1  0.30340468  0.44035199  0.51237225  1
  O  O41  1  0.22005550  0.01831095  0.24080924  1
  O  O42  1  0.60319989  0.17877081  0.89896019  1
  O  O43  1  0.10319989  0.32122919  0.39896019  1
  O  O44  1  0.76103423  0.24958910  0.77029620  1
  O  O45  1  0.31073733  0.36797620  0.73350418  1
  O  O46  1  0.26103423  0.25041090  0.27029620  1
  O  O47  1  0.88612033  0.32159273  0.09071142  1
  O  O48  1  0.68741706  0.36013405  0.24128100  1
  O  O49  1  0.46524845  0.30718451  0.51763063  1
  O  O50  1  0.96524845  0.19281549  0.01763063  1
  O  O51  1  0.19659532  0.05964801  0.48762775  1
  O  O52  1  0.00095218  0.42370365  0.56981126  1
  O  O53  1  0.80340468  0.05964801  0.01237225  1
  O  O54  1  0.99847668  0.42258666  0.91945948  1
  O  O55  1  0.27994450  0.48168905  0.75919076  1
  O  O56  1  0.38612033  0.17840727  0.59071142  1
  O  O57  1  0.77994450  0.01831095  0.25919076  1
  O  O58  1  0.72005550  0.48168905  0.74080924  1
  O  O59  1  0.68926267  0.36797620  0.76649582  1
  O  O60  1  0.18741706  0.13986595  0.74128100  1
  O  O61  1  0.49847668  0.07741334  0.41945948  1
  O  O62  1  0.69659532  0.44035199  0.98762775  1
  O  O63  1  0.81258294  0.13986595  0.75871900  1
  O  O64  1  0.81073733  0.13202380  0.23350418  1
  O  O65  1  0.50095218  0.07629635  0.06981126  1
  O  O66  1  0.03475155  0.19281549  0.48236937  1
  O  O67  1  0.23896577  0.24958910  0.72970380  1
  O  O68  1  0.52210994  0.30784964  0.98002286  1
  O  O69  1  0.31258294  0.36013405  0.25871900  1
  O  O70  1  0.18926267  0.13202380  0.26649582  1
  O  O71  1  0.73896577  0.25041090  0.22970380  1
  O  O72  1  0.80340468  0.94035199  0.51237225  1
  O  O73  1  0.72005550  0.51831095  0.24080924  1
  O  O74  1  0.10319989  0.67877081  0.89896019  1
  O  O75  1  0.60319989  0.82122919  0.39896019  1
  O  O76  1  0.26103423  0.74958910  0.77029620  1
  O  O77  1  0.81073733  0.86797620  0.73350418  1
  O  O78  1  0.76103423  0.75041090  0.27029620  1
  O  O79  1  0.38612033  0.82159272  0.09071142  1
  O  O80  1  0.18741706  0.86013405  0.24128100  1
  O  O81  1  0.96524845  0.80718450  0.51763063  1
  O  O82  1  0.46524845  0.69281550  0.01763063  1
  O  O83  1  0.69659532  0.55964801  0.48762775  1
  O  O84  1  0.50095218  0.92370365  0.56981126  1
  O  O85  1  0.30340468  0.55964801  0.01237225  1
  O  O86  1  0.49847668  0.92258665  0.91945948  1
  O  O87  1  0.77994450  0.98168905  0.75919076  1
  O  O88  1  0.88612033  0.67840728  0.59071142  1
  O  O89  1  0.27994450  0.51831095  0.25919076  1
  O  O90  1  0.22005550  0.98168905  0.74080924  1
  O  O91  1  0.18926267  0.86797620  0.76649582  1
  O  O92  1  0.68741706  0.63986595  0.74128100  1
  O  O93  1  0.99847668  0.57741335  0.41945948  1
  O  O94  1  0.19659532  0.94035199  0.98762775  1
  O  O95  1  0.31258294  0.63986595  0.75871900  1
  O  O96  1  0.31073733  0.63202380  0.23350418  1
  O  O97  1  0.00095218  0.57629635  0.06981126  1
  O  O98  1  0.53475155  0.69281550  0.48236937  1
  O  O99  1  0.73896577  0.74958910  0.72970380  1
  O  O100  1  0.02210994  0.80784964  0.98002286  1
  O  O101  1  0.81258294  0.86013405  0.25871900  1
  O  O102  1  0.68926267  0.63202380  0.26649582  1
  O  O103  1  0.23896577  0.75041090  0.22970380  1
