# generated using pymatgen
data_Na2UI6
_symmetry_space_group_name_H-M   'P 1'
_cell_length_a   8.33629766
_cell_length_b   9.13890751
_cell_length_c   25.50528902
_cell_angle_alpha   88.02509147
_cell_angle_beta   97.29570743
_cell_angle_gamma   116.76908942
_symmetry_Int_Tables_number   1
_chemical_formula_structural   Na2UI6
_chemical_formula_sum   'Na8 U4 I24'
_cell_volume   1720.25361401
_cell_formula_units_Z   4
loop_
 _symmetry_equiv_pos_site_id
 _symmetry_equiv_pos_as_xyz
  1  'x, y, z'
loop_
 _atom_site_type_symbol
 _atom_site_label
 _atom_site_symmetry_multiplicity
 _atom_site_fract_x
 _atom_site_fract_y
 _atom_site_fract_z
 _atom_site_occupancy
  Na  Na0  1  0.25285500  0.63195000  0.87549200  1
  Na  Na1  1  0.98220400  0.12973000  0.82867700  1
  Na  Na2  1  0.75347000  0.88224900  0.62502800  1
  Na  Na3  1  0.48212800  0.38021400  0.57831200  1
  Na  Na4  1  0.25169500  0.13320700  0.37635200  1
  Na  Na5  1  0.01249300  0.86481700  0.16963300  1
  Na  Na6  1  0.98015500  0.62688900  0.32971800  1
  Na  Na7  1  0.48754400  0.88801000  0.07858300  1
  U  U8  1  0.99681300  0.00123600  0.99954800  1
  U  U9  1  0.50032600  0.25062500  0.75140400  1
  U  U10  1  0.99988500  0.50013600  0.50114800  1
  U  U11  1  0.50528600  0.74770300  0.25113500  1
  I  I12  1  0.24532600  0.96276400  0.80849000  1
  I  I13  1  0.17804700  0.79136300  0.97661200  1
  I  I14  1  0.71687800  0.85180500  0.90161600  1
  I  I15  1  0.79142000  0.39047900  0.84667600  1
  I  I16  1  0.31249700  0.44692200  0.77572200  1
  I  I17  1  0.74459200  0.21273000  0.55850800  1
  I  I18  1  0.24352900  0.28605600  0.93906600  1
  I  I19  1  0.67742400  0.04069800  0.72674400  1
  I  I20  1  0.21910600  0.10469600  0.65218200  1
  I  I21  1  0.28941800  0.63859500  0.59626700  1
  I  I22  1  0.81142400  0.69621200  0.52612600  1
  I  I23  1  0.24478100  0.46182800  0.30824200  1
  I  I24  1  0.74089200  0.53467200  0.68949900  1
  I  I25  1  0.17788100  0.29093900  0.47666500  1
  I  I26  1  0.71921900  0.35490400  0.40274900  1
  I  I27  1  0.79008200  0.88974600  0.34718400  1
  I  I28  1  0.30787900  0.95160700  0.27525200  1
  I  I29  1  0.74730000  0.71557500  0.05939400  1
  I  I30  1  0.24192400  0.78413100  0.43936100  1
  I  I31  1  0.69031100  0.54876600  0.22499900  1
  I  I32  1  0.22297800  0.61802100  0.15328300  1
  I  I33  1  0.28269300  0.13639100  0.09667400  1
  I  I34  1  0.81649200  0.19540800  0.02446900  1
  I  I35  1  0.75055200  0.03267100  0.19043900  1
