# generated using pymatgen
data_Nd(Fe2B)6
_symmetry_space_group_name_H-M   'P 1'
_cell_length_a   9.58751281
_cell_length_b   9.58751281
_cell_length_c   7.46792402
_cell_angle_alpha   90.00000000
_cell_angle_beta   90.00000000
_cell_angle_gamma   120.00000000
_symmetry_Int_Tables_number   1
_chemical_formula_structural   Nd(Fe2B)6
_chemical_formula_sum   'Nd3 Fe36 B18'
_cell_volume   594.48710153
_cell_formula_units_Z   3
loop_
 _symmetry_equiv_pos_site_id
 _symmetry_equiv_pos_as_xyz
  1  'x, y, z'
loop_
 _atom_site_type_symbol
 _atom_site_label
 _atom_site_symmetry_multiplicity
 _atom_site_fract_x
 _atom_site_fract_y
 _atom_site_fract_z
 _atom_site_occupancy
  Nd  Nd0  1  0.00000000  0.00000000  0.00000000  1
  Nd  Nd1  1  0.66666667  0.33333333  0.33333333  1
  Nd  Nd2  1  0.33333333  0.66666667  0.66666667  1
  Fe  Fe3  1  0.63085800  0.63085800  0.50000000  1
  Fe  Fe4  1  0.82125133  0.91062567  0.36661267  1
  Fe  Fe5  1  0.08937433  0.91062567  0.36661267  1
  Fe  Fe6  1  0.08937433  0.17874867  0.36661267  1
  Fe  Fe7  1  0.00000000  0.36914200  0.50000000  1
  Fe  Fe8  1  0.36914200  0.00000000  0.50000000  1
  Fe  Fe9  1  0.91062567  0.82125133  0.63338733  1
  Fe  Fe10  1  0.36914200  0.36914200  0.50000000  1
  Fe  Fe11  1  0.00000000  0.63085800  0.50000000  1
  Fe  Fe12  1  0.63085800  0.00000000  0.50000000  1
  Fe  Fe13  1  0.91062567  0.08937433  0.63338733  1
  Fe  Fe14  1  0.17874867  0.08937433  0.63338733  1
  Fe  Fe15  1  0.29752467  0.96419133  0.83333333  1
  Fe  Fe16  1  0.48791800  0.24395900  0.69994600  1
  Fe  Fe17  1  0.75604100  0.24395900  0.69994600  1
  Fe  Fe18  1  0.75604100  0.51208200  0.69994600  1
  Fe  Fe19  1  0.66666667  0.70247533  0.83333333  1
  Fe  Fe20  1  0.03580867  0.33333333  0.83333333  1
  Fe  Fe21  1  0.57729233  0.15458467  0.96672067  1
  Fe  Fe22  1  0.03580867  0.70247533  0.83333333  1
  Fe  Fe23  1  0.66666667  0.96419133  0.83333333  1
  Fe  Fe24  1  0.29752467  0.33333333  0.83333333  1
  Fe  Fe25  1  0.57729233  0.42270767  0.96672067  1
  Fe  Fe26  1  0.84541533  0.42270767  0.96672067  1
  Fe  Fe27  1  0.96419133  0.29752467  0.16666667  1
  Fe  Fe28  1  0.15458467  0.57729233  0.03327933  1
  Fe  Fe29  1  0.42270767  0.57729233  0.03327933  1
  Fe  Fe30  1  0.42270767  0.84541533  0.03327933  1
  Fe  Fe31  1  0.33333333  0.03580867  0.16666667  1
  Fe  Fe32  1  0.70247533  0.66666667  0.16666667  1
  Fe  Fe33  1  0.24395900  0.48791800  0.30005400  1
  Fe  Fe34  1  0.70247533  0.03580867  0.16666667  1
  Fe  Fe35  1  0.33333333  0.29752467  0.16666667  1
  Fe  Fe36  1  0.96419133  0.66666667  0.16666667  1
  Fe  Fe37  1  0.24395900  0.75604100  0.30005400  1
  Fe  Fe38  1  0.51208200  0.75604100  0.30005400  1
  B  B39  1  0.84865600  0.15134400  0.38202000  1
  B  B40  1  0.15134400  0.30268800  0.61798000  1
  B  B41  1  0.69731200  0.84865600  0.61798000  1
  B  B42  1  0.84865600  0.69731200  0.38202000  1
  B  B43  1  0.15134400  0.84865600  0.61798000  1
  B  B44  1  0.30268800  0.15134400  0.38202000  1
  B  B45  1  0.51532267  0.48467733  0.71535333  1
  B  B46  1  0.81801067  0.63602133  0.95131333  1
  B  B47  1  0.36397867  0.18198933  0.95131333  1
  B  B48  1  0.51532267  0.03064533  0.71535333  1
  B  B49  1  0.81801067  0.18198933  0.95131333  1
  B  B50  1  0.96935467  0.48467733  0.71535333  1
  B  B51  1  0.18198933  0.81801067  0.04868667  1
  B  B52  1  0.48467733  0.96935467  0.28464667  1
  B  B53  1  0.03064533  0.51532267  0.28464667  1
  B  B54  1  0.18198933  0.36397867  0.04868667  1
  B  B55  1  0.48467733  0.51532267  0.28464667  1
  B  B56  1  0.63602133  0.81801067  0.04868667  1
