# generated using pymatgen
data_Mg7TiH16
_symmetry_space_group_name_H-M   'P 1'
_cell_length_a   9.41766800
_cell_length_b   9.41766800
_cell_length_c   9.41766800
_cell_angle_alpha   90.00000000
_cell_angle_beta   90.00000000
_cell_angle_gamma   90.00000000
_symmetry_Int_Tables_number   1
_chemical_formula_structural   Mg7TiH16
_chemical_formula_sum   'Mg28 Ti4 H64'
_cell_volume   835.27624182
_cell_formula_units_Z   4
loop_
 _symmetry_equiv_pos_site_id
 _symmetry_equiv_pos_as_xyz
  1  'x, y, z'
loop_
 _atom_site_type_symbol
 _atom_site_label
 _atom_site_symmetry_multiplicity
 _atom_site_fract_x
 _atom_site_fract_y
 _atom_site_fract_z
 _atom_site_occupancy
  Mg  Mg0  1  0.50000000  0.00000000  0.00000000  1
  Mg  Mg1  1  0.25000000  0.25000000  0.00000000  1
  Mg  Mg2  1  0.25000000  0.00000000  0.75000000  1
  Mg  Mg3  1  0.00000000  0.25000000  0.75000000  1
  Mg  Mg4  1  0.25000000  0.75000000  0.00000000  1
  Mg  Mg5  1  0.75000000  0.00000000  0.75000000  1
  Mg  Mg6  1  0.00000000  0.75000000  0.75000000  1
  Mg  Mg7  1  0.50000000  0.50000000  0.50000000  1
  Mg  Mg8  1  0.25000000  0.75000000  0.50000000  1
  Mg  Mg9  1  0.25000000  0.50000000  0.25000000  1
  Mg  Mg10  1  0.00000000  0.75000000  0.25000000  1
  Mg  Mg11  1  0.25000000  0.25000000  0.50000000  1
  Mg  Mg12  1  0.75000000  0.50000000  0.25000000  1
  Mg  Mg13  1  0.00000000  0.25000000  0.25000000  1
  Mg  Mg14  1  0.00000000  0.00000000  0.50000000  1
  Mg  Mg15  1  0.75000000  0.25000000  0.50000000  1
  Mg  Mg16  1  0.75000000  0.00000000  0.25000000  1
  Mg  Mg17  1  0.50000000  0.25000000  0.25000000  1
  Mg  Mg18  1  0.75000000  0.75000000  0.50000000  1
  Mg  Mg19  1  0.25000000  0.00000000  0.25000000  1
  Mg  Mg20  1  0.50000000  0.75000000  0.25000000  1
  Mg  Mg21  1  0.00000000  0.50000000  0.00000000  1
  Mg  Mg22  1  0.75000000  0.75000000  0.00000000  1
  Mg  Mg23  1  0.75000000  0.50000000  0.75000000  1
  Mg  Mg24  1  0.50000000  0.75000000  0.75000000  1
  Mg  Mg25  1  0.75000000  0.25000000  0.00000000  1
  Mg  Mg26  1  0.25000000  0.50000000  0.75000000  1
  Mg  Mg27  1  0.50000000  0.25000000  0.75000000  1
  Ti  Ti28  1  0.00000000  0.00000000  0.00000000  1
  Ti  Ti29  1  0.00000000  0.50000000  0.50000000  1
  Ti  Ti30  1  0.50000000  0.00000000  0.50000000  1
  Ti  Ti31  1  0.50000000  0.50000000  0.00000000  1
  H  H32  1  0.11944433  0.11944433  0.88055567  1
  H  H33  1  0.11944433  0.38055567  0.61944433  1
  H  H34  1  0.38055567  0.11944433  0.61944433  1
  H  H35  1  0.38055567  0.38055567  0.88055567  1
  H  H36  1  0.38055567  0.88055567  0.61944433  1
  H  H37  1  0.38055567  0.61944433  0.88055567  1
  H  H38  1  0.11944433  0.88055567  0.88055567  1
  H  H39  1  0.11944433  0.61944433  0.61944433  1
  H  H40  1  0.87217700  0.87217700  0.62782300  1
  H  H41  1  0.37217700  0.12782300  0.87217700  1
  H  H42  1  0.62782300  0.87217700  0.87217700  1
  H  H43  1  0.12782300  0.12782300  0.62782300  1
  H  H44  1  0.62782300  0.12782300  0.87217700  1
  H  H45  1  0.12782300  0.87217700  0.62782300  1
  H  H46  1  0.87217700  0.12782300  0.62782300  1
  H  H47  1  0.37217700  0.87217700  0.87217700  1
  H  H48  1  0.11944433  0.61944433  0.38055567  1
  H  H49  1  0.11944433  0.88055567  0.11944433  1
  H  H50  1  0.38055567  0.61944433  0.11944433  1
  H  H51  1  0.38055567  0.88055567  0.38055567  1
  H  H52  1  0.38055567  0.38055567  0.11944433  1
  H  H53  1  0.38055567  0.11944433  0.38055567  1
  H  H54  1  0.11944433  0.38055567  0.38055567  1
  H  H55  1  0.11944433  0.11944433  0.11944433  1
  H  H56  1  0.87217700  0.37217700  0.12782300  1
  H  H57  1  0.37217700  0.62782300  0.37217700  1
  H  H58  1  0.62782300  0.37217700  0.37217700  1
  H  H59  1  0.12782300  0.62782300  0.12782300  1
  H  H60  1  0.62782300  0.62782300  0.37217700  1
  H  H61  1  0.12782300  0.37217700  0.12782300  1
  H  H62  1  0.87217700  0.62782300  0.12782300  1
  H  H63  1  0.37217700  0.37217700  0.37217700  1
  H  H64  1  0.61944433  0.11944433  0.38055567  1
  H  H65  1  0.61944433  0.38055567  0.11944433  1
  H  H66  1  0.88055567  0.11944433  0.11944433  1
  H  H67  1  0.88055567  0.38055567  0.38055567  1
  H  H68  1  0.88055567  0.88055567  0.11944433  1
  H  H69  1  0.88055567  0.61944433  0.38055567  1
  H  H70  1  0.61944433  0.88055567  0.38055567  1
  H  H71  1  0.61944433  0.61944433  0.11944433  1
  H  H72  1  0.37217700  0.87217700  0.12782300  1
  H  H73  1  0.87217700  0.12782300  0.37217700  1
  H  H74  1  0.12782300  0.87217700  0.37217700  1
  H  H75  1  0.62782300  0.12782300  0.12782300  1
  H  H76  1  0.12782300  0.12782300  0.37217700  1
  H  H77  1  0.62782300  0.87217700  0.12782300  1
  H  H78  1  0.37217700  0.12782300  0.12782300  1
  H  H79  1  0.87217700  0.87217700  0.37217700  1
  H  H80  1  0.61944433  0.61944433  0.88055567  1
  H  H81  1  0.61944433  0.88055567  0.61944433  1
  H  H82  1  0.88055567  0.61944433  0.61944433  1
  H  H83  1  0.88055567  0.88055567  0.88055567  1
  H  H84  1  0.88055567  0.38055567  0.61944433  1
  H  H85  1  0.88055567  0.11944433  0.88055567  1
  H  H86  1  0.61944433  0.38055567  0.88055567  1
  H  H87  1  0.61944433  0.11944433  0.61944433  1
  H  H88  1  0.37217700  0.37217700  0.62782300  1
  H  H89  1  0.87217700  0.62782300  0.87217700  1
  H  H90  1  0.12782300  0.37217700  0.87217700  1
  H  H91  1  0.62782300  0.62782300  0.62782300  1
  H  H92  1  0.12782300  0.62782300  0.87217700  1
  H  H93  1  0.62782300  0.37217700  0.62782300  1
  H  H94  1  0.37217700  0.62782300  0.62782300  1
  H  H95  1  0.87217700  0.37217700  0.87217700  1
