# generated using pymatgen
data_Yb(ReO4)3
_symmetry_space_group_name_H-M   'P 1'
_cell_length_a   10.24148386
_cell_length_b   10.24148386
_cell_length_c   6.24029700
_cell_angle_alpha   90.00000000
_cell_angle_beta   90.00000000
_cell_angle_gamma   120.00000000
_symmetry_Int_Tables_number   1
_chemical_formula_structural   Yb(ReO4)3
_chemical_formula_sum   'Yb2 Re6 O24'
_cell_volume   566.84153015
_cell_formula_units_Z   2
loop_
 _symmetry_equiv_pos_site_id
 _symmetry_equiv_pos_as_xyz
  1  'x, y, z'
loop_
 _atom_site_type_symbol
 _atom_site_label
 _atom_site_symmetry_multiplicity
 _atom_site_fract_x
 _atom_site_fract_y
 _atom_site_fract_z
 _atom_site_occupancy
  Yb  Yb0  1  0.33333333  0.66666667  0.25000000  1
  Yb  Yb1  1  0.66666667  0.33333333  0.75000000  1
  Re  Re2  1  0.39216100  0.30275900  0.25000000  1
  Re  Re3  1  0.30275900  0.91059800  0.75000000  1
  Re  Re4  1  0.69724100  0.08940200  0.25000000  1
  Re  Re5  1  0.60783900  0.69724100  0.75000000  1
  Re  Re6  1  0.91059800  0.60783900  0.25000000  1
  Re  Re7  1  0.08940200  0.39216100  0.75000000  1
  O  O8  1  0.64857700  0.15657900  0.02071400  1
  O  O9  1  0.84342100  0.49199800  0.02071400  1
  O  O10  1  0.73118600  0.89003700  0.75000000  1
  O  O11  1  0.84114900  0.73118600  0.25000000  1
  O  O12  1  0.10996300  0.84114900  0.75000000  1
  O  O13  1  0.26881400  0.10996300  0.25000000  1
  O  O14  1  0.35142300  0.84342100  0.52071400  1
  O  O15  1  0.15885100  0.26881400  0.75000000  1
  O  O16  1  0.70831200  0.59958300  0.75000000  1
  O  O17  1  0.50800200  0.35142300  0.47928600  1
  O  O18  1  0.50800200  0.35142300  0.02071400  1
  O  O19  1  0.29168800  0.40041700  0.25000000  1
  O  O20  1  0.40041700  0.10872900  0.75000000  1
  O  O21  1  0.59958300  0.89127100  0.25000000  1
  O  O22  1  0.49199800  0.64857700  0.97928600  1
  O  O23  1  0.10872900  0.70831200  0.25000000  1
  O  O24  1  0.15657900  0.50800200  0.52071400  1
  O  O25  1  0.64857700  0.15657900  0.47928600  1
  O  O26  1  0.84342100  0.49199800  0.47928600  1
  O  O27  1  0.15657900  0.50800200  0.97928600  1
  O  O28  1  0.35142300  0.84342100  0.97928600  1
  O  O29  1  0.49199800  0.64857700  0.52071400  1
  O  O30  1  0.89003700  0.15885100  0.25000000  1
  O  O31  1  0.89127100  0.29168800  0.75000000  1
