# generated using pymatgen
data_Ag9(SI)4
_symmetry_space_group_name_H-M   'P 1'
_cell_length_a   7.05280000
_cell_length_b   4.29416400
_cell_length_c   27.12509033
_cell_angle_alpha   90.00000000
_cell_angle_beta   91.11654571
_cell_angle_gamma   90.00000000
_symmetry_Int_Tables_number   1
_chemical_formula_structural   Ag9(SI)4
_chemical_formula_sum   'Ag18 S8 I8'
_cell_volume   821.35124463
_cell_formula_units_Z   2
loop_
 _symmetry_equiv_pos_site_id
 _symmetry_equiv_pos_as_xyz
  1  'x, y, z'
loop_
 _atom_site_type_symbol
 _atom_site_label
 _atom_site_symmetry_multiplicity
 _atom_site_fract_x
 _atom_site_fract_y
 _atom_site_fract_z
 _atom_site_occupancy
  Ag  Ag0  1  0.71066100  0.00000000  0.02730700  1
  Ag  Ag1  1  0.08335700  0.00000000  0.17246700  1
  Ag  Ag2  1  0.43823300  0.00000000  0.31102000  1
  Ag  Ag3  1  0.79205800  0.00000000  0.44921600  1
  Ag  Ag4  1  0.15855700  0.00000000  0.59286300  1
  Ag  Ag5  1  0.51715400  0.00000000  0.68205600  1
  Ag  Ag6  1  0.70263400  0.00000000  0.78275600  1
  Ag  Ag7  1  0.09168700  0.00000000  0.84003200  1
  Ag  Ag8  1  0.35282500  0.00000000  0.93821400  1
  Ag  Ag9  1  0.21066100  0.50000000  0.02730700  1
  Ag  Ag10  1  0.58335700  0.50000000  0.17246700  1
  Ag  Ag11  1  0.93823300  0.50000000  0.31102000  1
  Ag  Ag12  1  0.29205800  0.50000000  0.44921600  1
  Ag  Ag13  1  0.65855700  0.50000000  0.59286300  1
  Ag  Ag14  1  0.01715400  0.50000000  0.68205600  1
  Ag  Ag15  1  0.20263400  0.50000000  0.78275600  1
  Ag  Ag16  1  0.59168700  0.50000000  0.84003200  1
  Ag  Ag17  1  0.85282500  0.50000000  0.93821400  1
  S  S18  1  0.81837200  0.00000000  0.63252400  1
  S  S19  1  0.05100300  0.00000000  0.98805700  1
  S  S20  1  0.23925400  0.00000000  0.73849800  1
  S  S21  1  0.63498400  0.00000000  0.88210300  1
  S  S22  1  0.31837200  0.50000000  0.63252400  1
  S  S23  1  0.55100300  0.50000000  0.98805700  1
  S  S24  1  0.73925400  0.50000000  0.73849800  1
  S  S25  1  0.13498400  0.50000000  0.88210300  1
  I  I26  1  0.41671800  0.00000000  0.10871900  1
  I  I27  1  0.76558400  0.00000000  0.24366600  1
  I  I28  1  0.11157400  0.00000000  0.37866700  1
  I  I29  1  0.45909600  0.00000000  0.51308400  1
  I  I30  1  0.91671800  0.50000000  0.10871900  1
  I  I31  1  0.26558400  0.50000000  0.24366600  1
  I  I32  1  0.61157400  0.50000000  0.37866700  1
  I  I33  1  0.95909600  0.50000000  0.51308400  1
