# generated using pymatgen
data_Cu3B7IO13
_symmetry_space_group_name_H-M   'P 1'
_cell_length_a   12.13950600
_cell_length_b   12.13950600
_cell_length_c   12.13950600
_cell_angle_alpha   90.00000000
_cell_angle_beta   90.00000000
_cell_angle_gamma   90.00000000
_symmetry_Int_Tables_number   1
_chemical_formula_structural   Cu3B7IO13
_chemical_formula_sum   'Cu24 B56 I8 O104'
_cell_volume   1788.96993632
_cell_formula_units_Z   8
loop_
 _symmetry_equiv_pos_site_id
 _symmetry_equiv_pos_as_xyz
  1  'x, y, z'
loop_
 _atom_site_type_symbol
 _atom_site_label
 _atom_site_symmetry_multiplicity
 _atom_site_fract_x
 _atom_site_fract_y
 _atom_site_fract_z
 _atom_site_occupancy
  Cu  Cu0  1  0.00000000  0.25000000  0.75000000  1
  Cu  Cu1  1  0.75000000  0.25000000  0.00000000  1
  Cu  Cu2  1  0.25000000  0.00000000  0.25000000  1
  Cu  Cu3  1  0.25000000  0.00000000  0.75000000  1
  Cu  Cu4  1  0.00000000  0.25000000  0.25000000  1
  Cu  Cu5  1  0.25000000  0.25000000  0.00000000  1
  Cu  Cu6  1  0.00000000  0.75000000  0.25000000  1
  Cu  Cu7  1  0.75000000  0.75000000  0.50000000  1
  Cu  Cu8  1  0.25000000  0.50000000  0.75000000  1
  Cu  Cu9  1  0.25000000  0.50000000  0.25000000  1
  Cu  Cu10  1  0.00000000  0.75000000  0.75000000  1
  Cu  Cu11  1  0.25000000  0.75000000  0.50000000  1
  Cu  Cu12  1  0.50000000  0.25000000  0.25000000  1
  Cu  Cu13  1  0.25000000  0.25000000  0.50000000  1
  Cu  Cu14  1  0.75000000  0.00000000  0.75000000  1
  Cu  Cu15  1  0.75000000  0.00000000  0.25000000  1
  Cu  Cu16  1  0.50000000  0.25000000  0.75000000  1
  Cu  Cu17  1  0.75000000  0.25000000  0.50000000  1
  Cu  Cu18  1  0.50000000  0.75000000  0.75000000  1
  Cu  Cu19  1  0.25000000  0.75000000  0.00000000  1
  Cu  Cu20  1  0.75000000  0.50000000  0.25000000  1
  Cu  Cu21  1  0.75000000  0.50000000  0.75000000  1
  Cu  Cu22  1  0.50000000  0.75000000  0.25000000  1
  Cu  Cu23  1  0.75000000  0.75000000  0.00000000  1
  B  B24  1  0.08049000  0.08049000  0.08049000  1
  B  B25  1  0.41951000  0.08049000  0.91951000  1
  B  B26  1  0.41951000  0.08049000  0.41951000  1
  B  B27  1  0.25000000  0.00000000  0.00000000  1
  B  B28  1  0.50000000  0.00000000  0.75000000  1
  B  B29  1  0.00000000  0.25000000  0.00000000  1
  B  B30  1  0.58049000  0.08049000  0.08049000  1
  B  B31  1  0.08049000  0.41951000  0.41951000  1
  B  B32  1  0.08049000  0.41951000  0.91951000  1
  B  B33  1  0.75000000  0.00000000  0.00000000  1
  B  B34  1  0.50000000  0.00000000  0.25000000  1
  B  B35  1  0.41951000  0.41951000  0.08049000  1
  B  B36  1  0.50000000  0.25000000  0.00000000  1
  B  B37  1  0.91951000  0.41951000  0.08049000  1
  B  B38  1  0.08049000  0.58049000  0.58049000  1
  B  B39  1  0.41951000  0.58049000  0.41951000  1
  B  B40  1  0.41951000  0.58049000  0.91951000  1
  B  B41  1  0.25000000  0.50000000  0.50000000  1
  B  B42  1  0.50000000  0.50000000  0.25000000  1
  B  B43  1  0.00000000  0.75000000  0.50000000  1
  B  B44  1  0.58049000  0.58049000  0.58049000  1
  B  B45  1  0.08049000  0.91951000  0.91951000  1
  B  B46  1  0.08049000  0.91951000  0.41951000  1
  B  B47  1  0.75000000  0.50000000  0.50000000  1
  B  B48  1  0.50000000  0.50000000  0.75000000  1
  B  B49  1  0.41951000  0.91951000  0.58049000  1
  B  B50  1  0.50000000  0.75000000  0.50000000  1
  B  B51  1  0.91951000  0.91951000  0.58049000  1
  B  B52  1  0.58049000  0.08049000  0.58049000  1
  B  B53  1  0.91951000  0.08049000  0.41951000  1
  B  B54  1  0.91951000  0.08049000  0.91951000  1
  B  B55  1  0.75000000  0.00000000  0.50000000  1
  B  B56  1  0.00000000  0.00000000  0.25000000  1
  B  B57  1  0.50000000  0.25000000  0.50000000  1
  B  B58  1  0.08049000  0.08049000  0.58049000  1
  B  B59  1  0.58049000  0.41951000  0.91951000  1
  B  B60  1  0.58049000  0.41951000  0.41951000  1
  B  B61  1  0.25000000  0.00000000  0.50000000  1
  B  B62  1  0.00000000  0.00000000  0.75000000  1
  B  B63  1  0.91951000  0.41951000  0.58049000  1
  B  B64  1  0.00000000  0.25000000  0.50000000  1
  B  B65  1  0.41951000  0.41951000  0.58049000  1
  B  B66  1  0.58049000  0.58049000  0.08049000  1
  B  B67  1  0.91951000  0.58049000  0.91951000  1
  B  B68  1  0.91951000  0.58049000  0.41951000  1
  B  B69  1  0.75000000  0.50000000  0.00000000  1
  B  B70  1  0.00000000  0.50000000  0.75000000  1
  B  B71  1  0.50000000  0.75000000  0.00000000  1
  B  B72  1  0.08049000  0.58049000  0.08049000  1
  B  B73  1  0.58049000  0.91951000  0.41951000  1
  B  B74  1  0.58049000  0.91951000  0.91951000  1
  B  B75  1  0.25000000  0.50000000  0.00000000  1
  B  B76  1  0.00000000  0.50000000  0.25000000  1
  B  B77  1  0.91951000  0.91951000  0.08049000  1
  B  B78  1  0.00000000  0.75000000  0.00000000  1
  B  B79  1  0.41951000  0.91951000  0.08049000  1
  I  I80  1  0.25000000  0.25000000  0.25000000  1
  I  I81  1  0.25000000  0.25000000  0.75000000  1
  I  I82  1  0.25000000  0.75000000  0.75000000  1
  I  I83  1  0.25000000  0.75000000  0.25000000  1
  I  I84  1  0.75000000  0.25000000  0.75000000  1
  I  I85  1  0.75000000  0.25000000  0.25000000  1
  I  I86  1  0.75000000  0.75000000  0.25000000  1
  I  I87  1  0.75000000  0.75000000  0.75000000  1
  O  O88  1  0.09716200  0.48174750  0.32020650  1
  O  O89  1  0.40283800  0.17979350  0.98174750  1
  O  O90  1  0.67979350  0.40283800  0.98174750  1
  O  O91  1  0.48174750  0.09716200  0.82020650  1
  O  O92  1  0.00000000  0.00000000  0.00000000  1
  O  O93  1  0.48174750  0.32020650  0.09716200  1
  O  O94  1  0.17979350  0.48174750  0.90283800  1
  O  O95  1  0.50000000  0.00000000  0.00000000  1
  O  O96  1  0.09716200  0.32020650  0.98174750  1
  O  O97  1  0.17979350  0.09716200  0.01825250  1
  O  O98  1  0.82020650  0.48174750  0.09716200  1
  O  O99  1  0.98174750  0.17979350  0.90283800  1
  O  O100  1  0.01825250  0.40283800  0.82020650  1
  O  O101  1  0.51825250  0.32020650  0.90283800  1
  O  O102  1  0.90283800  0.32020650  0.01825250  1
  O  O103  1  0.67979350  0.01825250  0.09716200  1
  O  O104  1  0.98174750  0.40283800  0.17979350  1
  O  O105  1  0.59716200  0.01825250  0.67979350  1
  O  O106  1  0.01825250  0.17979350  0.09716200  1
  O  O107  1  0.32020650  0.01825250  0.90283800  1
  O  O108  1  0.82020650  0.09716200  0.98174750  1
  O  O109  1  0.51825250  0.09716200  0.17979350  1
  O  O110  1  0.90283800  0.48174750  0.67979350  1
  O  O111  1  0.40283800  0.01825250  0.32020650  1
  O  O112  1  0.59716200  0.17979350  0.01825250  1
  O  O113  1  0.32020650  0.40283800  0.01825250  1
  O  O114  1  0.09716200  0.98174750  0.82020650  1
  O  O115  1  0.40283800  0.67979350  0.48174750  1
  O  O116  1  0.67979350  0.90283800  0.48174750  1
  O  O117  1  0.48174750  0.59716200  0.32020650  1
  O  O118  1  0.00000000  0.50000000  0.50000000  1
  O  O119  1  0.48174750  0.82020650  0.59716200  1
  O  O120  1  0.17979350  0.98174750  0.40283800  1
  O  O121  1  0.50000000  0.50000000  0.50000000  1
  O  O122  1  0.09716200  0.82020650  0.48174750  1
  O  O123  1  0.17979350  0.59716200  0.51825250  1
  O  O124  1  0.82020650  0.98174750  0.59716200  1
  O  O125  1  0.98174750  0.67979350  0.40283800  1
  O  O126  1  0.01825250  0.90283800  0.32020650  1
  O  O127  1  0.51825250  0.82020650  0.40283800  1
  O  O128  1  0.90283800  0.82020650  0.51825250  1
  O  O129  1  0.67979350  0.51825250  0.59716200  1
  O  O130  1  0.98174750  0.90283800  0.67979350  1
  O  O131  1  0.59716200  0.51825250  0.17979350  1
  O  O132  1  0.01825250  0.67979350  0.59716200  1
  O  O133  1  0.32020650  0.51825250  0.40283800  1
  O  O134  1  0.82020650  0.59716200  0.48174750  1
  O  O135  1  0.51825250  0.59716200  0.67979350  1
  O  O136  1  0.90283800  0.98174750  0.17979350  1
  O  O137  1  0.40283800  0.51825250  0.82020650  1
  O  O138  1  0.59716200  0.67979350  0.51825250  1
  O  O139  1  0.32020650  0.90283800  0.51825250  1
  O  O140  1  0.59716200  0.48174750  0.82020650  1
  O  O141  1  0.90283800  0.17979350  0.48174750  1
  O  O142  1  0.17979350  0.40283800  0.48174750  1
  O  O143  1  0.98174750  0.09716200  0.32020650  1
  O  O144  1  0.50000000  0.00000000  0.50000000  1
  O  O145  1  0.98174750  0.32020650  0.59716200  1
  O  O146  1  0.67979350  0.48174750  0.40283800  1
  O  O147  1  0.00000000  0.00000000  0.50000000  1
  O  O148  1  0.59716200  0.32020650  0.48174750  1
  O  O149  1  0.67979350  0.09716200  0.51825250  1
  O  O150  1  0.32020650  0.48174750  0.59716200  1
  O  O151  1  0.48174750  0.17979350  0.40283800  1
  O  O152  1  0.51825250  0.40283800  0.32020650  1
  O  O153  1  0.01825250  0.32020650  0.40283800  1
  O  O154  1  0.40283800  0.32020650  0.51825250  1
  O  O155  1  0.17979350  0.01825250  0.59716200  1
  O  O156  1  0.48174750  0.40283800  0.67979350  1
  O  O157  1  0.09716200  0.01825250  0.17979350  1
  O  O158  1  0.51825250  0.17979350  0.59716200  1
  O  O159  1  0.82020650  0.01825250  0.40283800  1
  O  O160  1  0.32020650  0.09716200  0.48174750  1
  O  O161  1  0.01825250  0.09716200  0.67979350  1
  O  O162  1  0.40283800  0.48174750  0.17979350  1
  O  O163  1  0.90283800  0.01825250  0.82020650  1
  O  O164  1  0.09716200  0.17979350  0.51825250  1
  O  O165  1  0.82020650  0.40283800  0.51825250  1
  O  O166  1  0.59716200  0.98174750  0.32020650  1
  O  O167  1  0.90283800  0.67979350  0.98174750  1
  O  O168  1  0.17979350  0.90283800  0.98174750  1
  O  O169  1  0.98174750  0.59716200  0.82020650  1
  O  O170  1  0.50000000  0.50000000  0.00000000  1
  O  O171  1  0.98174750  0.82020650  0.09716200  1
  O  O172  1  0.67979350  0.98174750  0.90283800  1
  O  O173  1  0.00000000  0.50000000  0.00000000  1
  O  O174  1  0.59716200  0.82020650  0.98174750  1
  O  O175  1  0.67979350  0.59716200  0.01825250  1
  O  O176  1  0.32020650  0.98174750  0.09716200  1
  O  O177  1  0.48174750  0.67979350  0.90283800  1
  O  O178  1  0.51825250  0.90283800  0.82020650  1
  O  O179  1  0.01825250  0.82020650  0.90283800  1
  O  O180  1  0.40283800  0.82020650  0.01825250  1
  O  O181  1  0.17979350  0.51825250  0.09716200  1
  O  O182  1  0.48174750  0.90283800  0.17979350  1
  O  O183  1  0.09716200  0.51825250  0.67979350  1
  O  O184  1  0.51825250  0.67979350  0.09716200  1
  O  O185  1  0.82020650  0.51825250  0.90283800  1
  O  O186  1  0.32020650  0.59716200  0.98174750  1
  O  O187  1  0.01825250  0.59716200  0.17979350  1
  O  O188  1  0.40283800  0.98174750  0.67979350  1
  O  O189  1  0.90283800  0.51825250  0.32020650  1
  O  O190  1  0.09716200  0.67979350  0.01825250  1
  O  O191  1  0.82020650  0.90283800  0.01825250  1
