# generated using pymatgen
data_K3V3(BiO6)2
_symmetry_space_group_name_H-M   'P 1'
_cell_length_a   14.15387200
_cell_length_b   14.11042800
_cell_length_c   7.28800327
_cell_angle_alpha   90.00000000
_cell_angle_beta   113.19296146
_cell_angle_gamma   90.00000000
_symmetry_Int_Tables_number   1
_chemical_formula_structural   K3V3(BiO6)2
_chemical_formula_sum   'K12 V12 Bi8 O48'
_cell_volume   1337.90826376
_cell_formula_units_Z   4
loop_
 _symmetry_equiv_pos_site_id
 _symmetry_equiv_pos_as_xyz
  1  'x, y, z'
loop_
 _atom_site_type_symbol
 _atom_site_label
 _atom_site_symmetry_multiplicity
 _atom_site_fract_x
 _atom_site_fract_y
 _atom_site_fract_z
 _atom_site_occupancy
  K  K0  1  0.00000000  0.98836500  0.25000000  1
  K  K1  1  0.00000000  0.01163500  0.75000000  1
  K  K2  1  0.00000000  0.27269800  0.75000000  1
  K  K3  1  0.00000000  0.50000000  0.00000000  1
  K  K4  1  0.00000000  0.72730200  0.25000000  1
  K  K5  1  0.00000000  0.50000000  0.50000000  1
  K  K6  1  0.50000000  0.48836500  0.25000000  1
  K  K7  1  0.50000000  0.51163500  0.75000000  1
  K  K8  1  0.50000000  0.77269800  0.75000000  1
  K  K9  1  0.50000000  0.00000000  0.00000000  1
  K  K10  1  0.50000000  0.22730200  0.25000000  1
  K  K11  1  0.50000000  0.00000000  0.50000000  1
  V  V12  1  0.74250400  0.39126400  0.63746600  1
  V  V13  1  0.25749600  0.60873600  0.36253400  1
  V  V14  1  0.74250400  0.60873600  0.13746600  1
  V  V15  1  0.00000000  0.75329300  0.75000000  1
  V  V16  1  0.00000000  0.24670700  0.25000000  1
  V  V17  1  0.25749600  0.39126400  0.86253400  1
  V  V18  1  0.24250400  0.89126400  0.63746600  1
  V  V19  1  0.75749600  0.10873600  0.36253400  1
  V  V20  1  0.24250400  0.10873600  0.13746600  1
  V  V21  1  0.50000000  0.25329300  0.75000000  1
  V  V22  1  0.50000000  0.74670700  0.25000000  1
  V  V23  1  0.75749600  0.89126400  0.86253400  1
  Bi  Bi24  1  0.73404350  0.35115850  0.15414900  1
  Bi  Bi25  1  0.73404350  0.64884150  0.65414900  1
  Bi  Bi26  1  0.26595650  0.35115850  0.34585100  1
  Bi  Bi27  1  0.26595650  0.64884150  0.84585100  1
  Bi  Bi28  1  0.23404350  0.85115850  0.15414900  1
  Bi  Bi29  1  0.23404350  0.14884150  0.65414900  1
  Bi  Bi30  1  0.76595650  0.85115850  0.34585100  1
  Bi  Bi31  1  0.76595650  0.14884150  0.84585100  1
  O  O32  1  0.06942150  0.82844250  0.95376200  1
  O  O33  1  0.67758200  0.66408300  0.90333800  1
  O  O34  1  0.14304250  0.43474550  0.85034800  1
  O  O35  1  0.66769300  0.48562900  0.65216500  1
  O  O36  1  0.92295950  0.31871850  0.32380600  1
  O  O37  1  0.32241800  0.66408300  0.59666200  1
  O  O38  1  0.76355150  0.68829050  0.34435800  1
  O  O39  1  0.93057850  0.17155750  0.04623800  1
  O  O40  1  0.33230700  0.51437100  0.34783500  1
  O  O41  1  0.23644850  0.68829050  0.15564200  1
  O  O42  1  0.07704050  0.68128150  0.67619400  1
  O  O43  1  0.93057850  0.82844250  0.54623800  1
  O  O44  1  0.23644850  0.31170950  0.65564200  1
  O  O45  1  0.14304250  0.56525450  0.35034800  1
  O  O46  1  0.76355150  0.31170950  0.84435800  1
  O  O47  1  0.92295950  0.68128150  0.82380600  1
  O  O48  1  0.85695750  0.56525450  0.14965200  1
  O  O49  1  0.85695750  0.43474550  0.64965200  1
  O  O50  1  0.06942150  0.17155750  0.45376200  1
  O  O51  1  0.66769300  0.51437100  0.15216500  1
  O  O52  1  0.67758200  0.33591700  0.40333800  1
  O  O53  1  0.32241800  0.33591700  0.09666200  1
  O  O54  1  0.07704050  0.31871850  0.17619400  1
  O  O55  1  0.33230700  0.48562900  0.84783500  1
  O  O56  1  0.56942150  0.32844250  0.95376200  1
  O  O57  1  0.17758200  0.16408300  0.90333800  1
  O  O58  1  0.64304250  0.93474550  0.85034800  1
  O  O59  1  0.16769300  0.98562900  0.65216500  1
  O  O60  1  0.42295950  0.81871850  0.32380600  1
  O  O61  1  0.82241800  0.16408300  0.59666200  1
  O  O62  1  0.26355150  0.18829050  0.34435800  1
  O  O63  1  0.43057850  0.67155750  0.04623800  1
  O  O64  1  0.83230700  0.01437100  0.34783500  1
  O  O65  1  0.73644850  0.18829050  0.15564200  1
  O  O66  1  0.57704050  0.18128150  0.67619400  1
  O  O67  1  0.43057850  0.32844250  0.54623800  1
  O  O68  1  0.73644850  0.81170950  0.65564200  1
  O  O69  1  0.64304250  0.06525450  0.35034800  1
  O  O70  1  0.26355150  0.81170950  0.84435800  1
  O  O71  1  0.42295950  0.18128150  0.82380600  1
  O  O72  1  0.35695750  0.06525450  0.14965200  1
  O  O73  1  0.35695750  0.93474550  0.64965200  1
  O  O74  1  0.56942150  0.67155750  0.45376200  1
  O  O75  1  0.16769300  0.01437100  0.15216500  1
  O  O76  1  0.17758200  0.83591700  0.40333800  1
  O  O77  1  0.82241800  0.83591700  0.09666200  1
  O  O78  1  0.57704050  0.81871850  0.17619400  1
  O  O79  1  0.83230700  0.98562900  0.84783500  1
