# generated using pymatgen
data_Ta2W2O11
_symmetry_space_group_name_H-M   'P 1'
_cell_length_a   12.73670600
_cell_length_b   7.31325800
_cell_length_c   13.93528022
_cell_angle_alpha   90.00000000
_cell_angle_beta   113.55751232
_cell_angle_gamma   90.00000000
_symmetry_Int_Tables_number   1
_chemical_formula_structural   Ta2W2O11
_chemical_formula_sum   'Ta8 W8 O44'
_cell_volume   1189.84859203
_cell_formula_units_Z   4
loop_
 _symmetry_equiv_pos_site_id
 _symmetry_equiv_pos_as_xyz
  1  'x, y, z'
loop_
 _atom_site_type_symbol
 _atom_site_label
 _atom_site_symmetry_multiplicity
 _atom_site_fract_x
 _atom_site_fract_y
 _atom_site_fract_z
 _atom_site_occupancy
  Ta  Ta0  1  0.24017900  0.23321000  0.45956500  1
  Ta  Ta1  1  0.73541700  0.04350500  0.77158200  1
  Ta  Ta2  1  0.75982100  0.23321000  0.54043500  1
  Ta  Ta3  1  0.26458300  0.04350500  0.22841800  1
  Ta  Ta4  1  0.74017900  0.73321000  0.45956500  1
  Ta  Ta5  1  0.23541700  0.54350500  0.77158200  1
  Ta  Ta6  1  0.25982100  0.73321000  0.54043500  1
  Ta  Ta7  1  0.76458300  0.54350500  0.22841800  1
  W  W8  1  0.00000000  0.99325600  0.00000000  1
  W  W9  1  0.25563050  0.75346750  0.01292900  1
  W  W10  1  0.74436950  0.75346750  0.98707100  1
  W  W11  1  0.50000000  0.98044300  0.50000000  1
  W  W12  1  0.50000000  0.49325600  0.00000000  1
  W  W13  1  0.75563050  0.25346750  0.01292900  1
  W  W14  1  0.24436950  0.25346750  0.98707100  1
  W  W15  1  0.00000000  0.48044300  0.50000000  1
  O  O16  1  0.59576450  0.31337950  0.97580700  1
  O  O17  1  0.60224850  0.98287450  0.65036100  1
  O  O18  1  0.59344400  0.68275400  0.97146000  1
  O  O19  1  0.59471300  0.80478700  0.47142200  1
  O  O20  1  0.70831800  0.82386200  0.84889300  1
  O  O21  1  0.71968750  0.49080850  0.50898900  1
  O  O22  1  0.10348850  0.98962950  0.14559600  1
  O  O23  1  0.78950600  0.19349500  0.68124600  1
  O  O24  1  0.77891950  0.50306150  0.97615300  1
  O  O25  1  0.70368350  0.20965550  0.85396900  1
  O  O26  1  0.40528700  0.80478700  0.52857800  1
  O  O27  1  0.59793500  0.17256100  0.48367700  1
  O  O28  1  0.29168200  0.82386200  0.15110700  1
  O  O29  1  0.22108050  0.50306150  0.02384700  1
  O  O30  1  0.28031250  0.49080850  0.49101100  1
  O  O31  1  0.89651150  0.98962950  0.85440400  1
  O  O32  1  0.29631650  0.20965550  0.14603100  1
  O  O33  1  0.40206500  0.17256100  0.51632300  1
  O  O34  1  0.21049400  0.19349500  0.31875400  1
  O  O35  1  0.40423550  0.31337950  0.02419300  1
  O  O36  1  0.39775150  0.98287450  0.34963900  1
  O  O37  1  0.40655600  0.68275400  0.02854000  1
  O  O38  1  0.09576450  0.81337950  0.97580700  1
  O  O39  1  0.10224850  0.48287450  0.65036100  1
  O  O40  1  0.09344400  0.18275400  0.97146000  1
  O  O41  1  0.09471300  0.30478700  0.47142200  1
  O  O42  1  0.20831800  0.32386200  0.84889300  1
  O  O43  1  0.21968750  0.99080850  0.50898900  1
  O  O44  1  0.60348850  0.48962950  0.14559600  1
  O  O45  1  0.28950600  0.69349500  0.68124600  1
  O  O46  1  0.27891950  0.00306150  0.97615300  1
  O  O47  1  0.20368350  0.70965550  0.85396900  1
  O  O48  1  0.90528700  0.30478700  0.52857800  1
  O  O49  1  0.09793500  0.67256100  0.48367700  1
  O  O50  1  0.79168200  0.32386200  0.15110700  1
  O  O51  1  0.72108050  0.00306150  0.02384700  1
  O  O52  1  0.78031250  0.99080850  0.49101100  1
  O  O53  1  0.39651150  0.48962950  0.85440400  1
  O  O54  1  0.79631650  0.70965550  0.14603100  1
  O  O55  1  0.90206500  0.67256100  0.51632300  1
  O  O56  1  0.71049400  0.69349500  0.31875400  1
  O  O57  1  0.90423550  0.81337950  0.02419300  1
  O  O58  1  0.89775150  0.48287450  0.34963900  1
  O  O59  1  0.90655600  0.18275400  0.02854000  1
