# generated using pymatgen
data_Ba2CoSe2(ClO3)2
_symmetry_space_group_name_H-M   'P 1'
_cell_length_a   5.44542000
_cell_length_b   6.88546600
_cell_length_c   12.93089900
_cell_angle_alpha   90.00000000
_cell_angle_beta   90.00000000
_cell_angle_gamma   90.00000000
_symmetry_Int_Tables_number   1
_chemical_formula_structural   Ba2CoSe2(ClO3)2
_chemical_formula_sum   'Ba4 Co2 Se4 Cl4 O12'
_cell_volume   484.83441499
_cell_formula_units_Z   2
loop_
 _symmetry_equiv_pos_site_id
 _symmetry_equiv_pos_as_xyz
  1  'x, y, z'
loop_
 _atom_site_type_symbol
 _atom_site_label
 _atom_site_symmetry_multiplicity
 _atom_site_fract_x
 _atom_site_fract_y
 _atom_site_fract_z
 _atom_site_occupancy
  Ba  Ba0  1  0.50000000  0.29774200  0.26867800  1
  Ba  Ba1  1  0.50000000  0.70225800  0.73132200  1
  Ba  Ba2  1  0.00000000  0.79774200  0.23132200  1
  Ba  Ba3  1  0.00000000  0.20225800  0.76867800  1
  Co  Co4  1  0.50000000  0.00000000  0.00000000  1
  Co  Co5  1  0.00000000  0.50000000  0.50000000  1
  Se  Se6  1  0.50000000  0.24596100  0.57278900  1
  Se  Se7  1  0.50000000  0.75403900  0.42721100  1
  Se  Se8  1  0.00000000  0.74596100  0.92721100  1
  Se  Se9  1  0.00000000  0.25403900  0.07278900  1
  Cl  Cl10  1  0.50000000  0.68178100  0.10265100  1
  Cl  Cl11  1  0.50000000  0.31821900  0.89734900  1
  Cl  Cl12  1  0.00000000  0.18178100  0.39734900  1
  Cl  Cl13  1  0.00000000  0.81821900  0.60265100  1
  O  O14  1  0.00000000  0.41172400  0.17442200  1
  O  O15  1  0.00000000  0.58827600  0.82557800  1
  O  O16  1  0.50000000  0.08827600  0.67442200  1
  O  O17  1  0.50000000  0.91172400  0.32557800  1
  O  O18  1  0.75813400  0.89981800  0.89171000  1
  O  O19  1  0.25813400  0.39981800  0.60829000  1
  O  O20  1  0.74186600  0.39981800  0.60829000  1
  O  O21  1  0.74186600  0.60018200  0.39171000  1
  O  O22  1  0.24186600  0.10018200  0.10829000  1
  O  O23  1  0.24186600  0.89981800  0.89171000  1
  O  O24  1  0.25813400  0.60018200  0.39171000  1
  O  O25  1  0.75813400  0.10018200  0.10829000  1
