# generated using pymatgen
data_Mg3In
_symmetry_space_group_name_H-M   'P 1'
_cell_length_a   8.34928724
_cell_length_b   8.34928724
_cell_length_c   20.48191790
_cell_angle_alpha   90.00000000
_cell_angle_beta   90.00000000
_cell_angle_gamma   120.00000000
_symmetry_Int_Tables_number   1
_chemical_formula_structural   Mg3In
_chemical_formula_sum   'Mg36 In12'
_cell_volume   1236.51690400
_cell_formula_units_Z   12
loop_
 _symmetry_equiv_pos_site_id
 _symmetry_equiv_pos_as_xyz
  1  'x, y, z'
loop_
 _atom_site_type_symbol
 _atom_site_label
 _atom_site_symmetry_multiplicity
 _atom_site_fract_x
 _atom_site_fract_y
 _atom_site_fract_z
 _atom_site_occupancy
  Mg  Mg0  1  0.59206267  0.79603133  0.22637333  1
  Mg  Mg1  1  0.07460400  0.53730200  0.10696000  1
  Mg  Mg2  1  0.41278467  0.20639233  0.26967233  1
  Mg  Mg3  1  0.20396867  0.79603133  0.22637333  1
  Mg  Mg4  1  0.20396867  0.40793733  0.22637333  1
  Mg  Mg5  1  0.79360767  0.58721533  0.26967233  1
  Mg  Mg6  1  0.87305900  0.12694100  0.06366100  1
  Mg  Mg7  1  0.46269800  0.92539600  0.10696000  1
  Mg  Mg8  1  0.46269800  0.53730200  0.10696000  1
  Mg  Mg9  1  0.79360767  0.20639233  0.26967233  1
  Mg  Mg10  1  0.87305900  0.74611800  0.06366100  1
  Mg  Mg11  1  0.25388200  0.12694100  0.06366100  1
  Mg  Mg12  1  0.25872933  0.12936467  0.55970667  1
  Mg  Mg13  1  0.74127067  0.87063533  0.44029333  1
  Mg  Mg14  1  0.07945133  0.53972567  0.60300567  1
  Mg  Mg15  1  0.87063533  0.12936467  0.55970667  1
  Mg  Mg16  1  0.87063533  0.74127067  0.55970667  1
  Mg  Mg17  1  0.46027433  0.92054867  0.60300567  1
  Mg  Mg18  1  0.53972567  0.46027433  0.39699433  1
  Mg  Mg19  1  0.12936467  0.25872933  0.44029333  1
  Mg  Mg20  1  0.12936467  0.87063533  0.44029333  1
  Mg  Mg21  1  0.46027433  0.53972567  0.60300567  1
  Mg  Mg22  1  0.53972567  0.07945133  0.39699433  1
  Mg  Mg23  1  0.92054867  0.46027433  0.39699433  1
  Mg  Mg24  1  0.92539600  0.46269800  0.89304000  1
  Mg  Mg25  1  0.40793733  0.20396867  0.77362667  1
  Mg  Mg26  1  0.74611800  0.87305900  0.93633900  1
  Mg  Mg27  1  0.53730200  0.46269800  0.89304000  1
  Mg  Mg28  1  0.53730200  0.07460400  0.89304000  1
  Mg  Mg29  1  0.12694100  0.25388200  0.93633900  1
  Mg  Mg30  1  0.20639233  0.79360767  0.73032767  1
  Mg  Mg31  1  0.79603133  0.59206267  0.77362667  1
  Mg  Mg32  1  0.79603133  0.20396867  0.77362667  1
  Mg  Mg33  1  0.12694100  0.87305900  0.93633900  1
  Mg  Mg34  1  0.20639233  0.41278467  0.73032767  1
  Mg  Mg35  1  0.58721533  0.79360767  0.73032767  1
  In  In36  1  0.66666667  0.33333333  0.14975533  1
  In  In37  1  0.00000000  0.00000000  0.32622500  1
  In  In38  1  0.66666667  0.33333333  0.00710833  1
  In  In39  1  0.00000000  0.00000000  0.18357800  1
  In  In40  1  0.33333333  0.66666667  0.48308867  1
  In  In41  1  0.66666667  0.33333333  0.65955833  1
  In  In42  1  0.33333333  0.66666667  0.34044167  1
  In  In43  1  0.66666667  0.33333333  0.51691133  1
  In  In44  1  0.00000000  0.00000000  0.81642200  1
  In  In45  1  0.33333333  0.66666667  0.99289167  1
  In  In46  1  0.00000000  0.00000000  0.67377500  1
  In  In47  1  0.33333333  0.66666667  0.85024467  1
