# generated using pymatgen
data_Y3Al19Ni5
_symmetry_space_group_name_H-M   'P 1'
_cell_length_a   4.10928800
_cell_length_b   16.06299800
_cell_length_c   27.26328900
_cell_angle_alpha   90.00000000
_cell_angle_beta   90.00000000
_cell_angle_gamma   90.00000000
_symmetry_Int_Tables_number   1
_chemical_formula_structural   Y3Al19Ni5
_chemical_formula_sum   'Y12 Al76 Ni20'
_cell_volume   1799.58113768
_cell_formula_units_Z   4
loop_
 _symmetry_equiv_pos_site_id
 _symmetry_equiv_pos_as_xyz
  1  'x, y, z'
loop_
 _atom_site_type_symbol
 _atom_site_label
 _atom_site_symmetry_multiplicity
 _atom_site_fract_x
 _atom_site_fract_y
 _atom_site_fract_z
 _atom_site_occupancy
  Y  Y0  1  0.50000000  0.38765100  0.75000000  1
  Y  Y1  1  0.50000000  0.16639700  0.63515900  1
  Y  Y2  1  0.00000000  0.11234900  0.25000000  1
  Y  Y3  1  0.00000000  0.33360300  0.36484100  1
  Y  Y4  1  0.50000000  0.16639700  0.86484100  1
  Y  Y5  1  0.00000000  0.33360300  0.13515900  1
  Y  Y6  1  0.00000000  0.88765100  0.75000000  1
  Y  Y7  1  0.00000000  0.66639700  0.63515900  1
  Y  Y8  1  0.50000000  0.61234900  0.25000000  1
  Y  Y9  1  0.50000000  0.83360300  0.36484100  1
  Y  Y10  1  0.00000000  0.66639700  0.86484100  1
  Y  Y11  1  0.50000000  0.83360300  0.13515900  1
  Al  Al12  1  0.00000000  0.09361900  0.46340800  1
  Al  Al13  1  0.00000000  0.43334700  0.03109100  1
  Al  Al14  1  0.50000000  0.06665300  0.96890900  1
  Al  Al15  1  0.50000000  0.23450400  0.97100900  1
  Al  Al16  1  0.50000000  0.46384600  0.39884100  1
  Al  Al17  1  0.00000000  0.07970500  0.70174300  1
  Al  Al18  1  0.50000000  0.40638100  0.53659200  1
  Al  Al19  1  0.50000000  0.22350600  0.19331300  1
  Al  Al20  1  0.50000000  0.03554700  0.17407500  1
  Al  Al21  1  0.50000000  0.19399900  0.75000000  1
  Al  Al22  1  0.50000000  0.22350600  0.30668700  1
  Al  Al23  1  0.50000000  0.20932700  0.08816500  1
  Al  Al24  1  0.50000000  0.37068700  0.86453800  1
  Al  Al25  1  0.00000000  0.27649400  0.69331300  1
  Al  Al26  1  0.00000000  0.03615400  0.89884100  1
  Al  Al27  1  0.00000000  0.46445300  0.67407500  1
  Al  Al28  1  0.00000000  0.29067300  0.58816500  1
  Al  Al29  1  0.50000000  0.42029500  0.29825700  1
  Al  Al30  1  0.50000000  0.23450400  0.52899100  1
  Al  Al31  1  0.50000000  0.20932700  0.41183500  1
  Al  Al32  1  0.00000000  0.26549600  0.47100900  1
  Al  Al33  1  0.00000000  0.12931300  0.13546200  1
  Al  Al34  1  0.00000000  0.26549600  0.02899100  1
  Al  Al35  1  0.00000000  0.29067300  0.91183500  1
  Al  Al36  1  0.00000000  0.46445300  0.82592500  1
  Al  Al37  1  0.00000000  0.09361900  0.03659200  1
  Al  Al38  1  0.00000000  0.27649400  0.80668700  1
  Al  Al39  1  0.50000000  0.37068700  0.63546200  1
  Al  Al40  1  0.00000000  0.30600100  0.25000000  1
  Al  Al41  1  0.50000000  0.42029500  0.20174300  1
  Al  Al42  1  0.00000000  0.07970500  0.79825700  1
  Al  Al43  1  0.00000000  0.03615400  0.60115900  1
  Al  Al44  1  0.00000000  0.12931300  0.36453800  1
  Al  Al45  1  0.50000000  0.40638100  0.96340800  1
  Al  Al46  1  0.50000000  0.03554700  0.32592500  1
  Al  Al47  1  0.50000000  0.06665300  0.53109100  1
  Al  Al48  1  0.50000000  0.46384600  0.10115900  1
  Al  Al49  1  0.00000000  0.43334700  0.46890900  1
  Al  Al50  1  0.50000000  0.59361900  0.46340800  1
  Al  Al51  1  0.50000000  0.93334700  0.03109100  1
  Al  Al52  1  0.00000000  0.56665300  0.96890900  1
  Al  Al53  1  0.00000000  0.73450400  0.97100900  1
  Al  Al54  1  0.00000000  0.96384600  0.39884100  1
  Al  Al55  1  0.50000000  0.57970500  0.70174300  1
  Al  Al56  1  0.00000000  0.90638100  0.53659200  1
  Al  Al57  1  0.00000000  0.72350600  0.19331300  1
  Al  Al58  1  0.00000000  0.53554700  0.17407500  1
  Al  Al59  1  0.00000000  0.69399900  0.75000000  1
  Al  Al60  1  0.00000000  0.72350600  0.30668700  1
  Al  Al61  1  0.00000000  0.70932700  0.08816500  1
  Al  Al62  1  0.00000000  0.87068700  0.86453800  1
  Al  Al63  1  0.50000000  0.77649400  0.69331300  1
  Al  Al64  1  0.50000000  0.53615400  0.89884100  1
  Al  Al65  1  0.50000000  0.96445300  0.67407500  1
  Al  Al66  1  0.50000000  0.79067300  0.58816500  1
  Al  Al67  1  0.00000000  0.92029500  0.29825700  1
  Al  Al68  1  0.00000000  0.73450400  0.52899100  1
  Al  Al69  1  0.00000000  0.70932700  0.41183500  1
  Al  Al70  1  0.50000000  0.76549600  0.47100900  1
  Al  Al71  1  0.50000000  0.62931300  0.13546200  1
  Al  Al72  1  0.50000000  0.76549600  0.02899100  1
  Al  Al73  1  0.50000000  0.79067300  0.91183500  1
  Al  Al74  1  0.50000000  0.96445300  0.82592500  1
  Al  Al75  1  0.50000000  0.59361900  0.03659200  1
  Al  Al76  1  0.50000000  0.77649400  0.80668700  1
  Al  Al77  1  0.00000000  0.87068700  0.63546200  1
  Al  Al78  1  0.50000000  0.80600100  0.25000000  1
  Al  Al79  1  0.00000000  0.92029500  0.20174300  1
  Al  Al80  1  0.50000000  0.57970500  0.79825700  1
  Al  Al81  1  0.50000000  0.53615400  0.60115900  1
  Al  Al82  1  0.50000000  0.62931300  0.36453800  1
  Al  Al83  1  0.00000000  0.90638100  0.96340800  1
  Al  Al84  1  0.00000000  0.53554700  0.32592500  1
  Al  Al85  1  0.00000000  0.56665300  0.53109100  1
  Al  Al86  1  0.00000000  0.96384600  0.10115900  1
  Al  Al87  1  0.50000000  0.93334700  0.46890900  1
  Ni  Ni88  1  0.50000000  0.34154900  0.45807700  1
  Ni  Ni89  1  0.50000000  0.05412200  0.41545300  1
  Ni  Ni90  1  0.00000000  0.15845100  0.54192300  1
  Ni  Ni91  1  0.00000000  0.45472000  0.25000000  1
  Ni  Ni92  1  0.50000000  0.05412200  0.08454700  1
  Ni  Ni93  1  0.00000000  0.44587800  0.91545300  1
  Ni  Ni94  1  0.00000000  0.44587800  0.58454700  1
  Ni  Ni95  1  0.50000000  0.04528000  0.75000000  1
  Ni  Ni96  1  0.00000000  0.15845100  0.95807700  1
  Ni  Ni97  1  0.50000000  0.34154900  0.04192300  1
  Ni  Ni98  1  0.00000000  0.84154900  0.45807700  1
  Ni  Ni99  1  0.00000000  0.55412200  0.41545300  1
  Ni  Ni100  1  0.50000000  0.65845100  0.54192300  1
  Ni  Ni101  1  0.50000000  0.95472000  0.25000000  1
  Ni  Ni102  1  0.00000000  0.55412200  0.08454700  1
  Ni  Ni103  1  0.50000000  0.94587800  0.91545300  1
  Ni  Ni104  1  0.50000000  0.94587800  0.58454700  1
  Ni  Ni105  1  0.00000000  0.54528000  0.75000000  1
  Ni  Ni106  1  0.50000000  0.65845100  0.95807700  1
  Ni  Ni107  1  0.00000000  0.84154900  0.04192300  1
