# generated using pymatgen
data_Co(Bi3O5)4
_symmetry_space_group_name_H-M   'P 1'
_cell_length_a   10.27830800
_cell_length_b   10.27830800
_cell_length_c   10.27830800
_cell_angle_alpha   90.00000000
_cell_angle_beta   90.00000000
_cell_angle_gamma   90.00000000
_symmetry_Int_Tables_number   1
_chemical_formula_structural   Co(Bi3O5)4
_chemical_formula_sum   'Co2 Bi24 O40'
_cell_volume   1085.83761673
_cell_formula_units_Z   2
loop_
 _symmetry_equiv_pos_site_id
 _symmetry_equiv_pos_as_xyz
  1  'x, y, z'
loop_
 _atom_site_type_symbol
 _atom_site_label
 _atom_site_symmetry_multiplicity
 _atom_site_fract_x
 _atom_site_fract_y
 _atom_site_fract_z
 _atom_site_occupancy
  Co  Co0  1  0.00000000  0.00000000  0.00000000  1
  Co  Co1  1  0.50000000  0.50000000  0.50000000  1
  Bi  Bi2  1  0.01443200  0.17839800  0.68251500  1
  Bi  Bi3  1  0.32160200  0.81748500  0.51443200  1
  Bi  Bi4  1  0.98556800  0.17839800  0.31748500  1
  Bi  Bi5  1  0.81748500  0.51443200  0.32160200  1
  Bi  Bi6  1  0.32160200  0.18251500  0.48556800  1
  Bi  Bi7  1  0.31748500  0.98556800  0.17839800  1
  Bi  Bi8  1  0.18251500  0.48556800  0.32160200  1
  Bi  Bi9  1  0.17839800  0.31748500  0.98556800  1
  Bi  Bi10  1  0.68251500  0.01443200  0.17839800  1
  Bi  Bi11  1  0.48556800  0.32160200  0.18251500  1
  Bi  Bi12  1  0.17839800  0.68251500  0.01443200  1
  Bi  Bi13  1  0.51443200  0.32160200  0.81748500  1
  Bi  Bi14  1  0.51443200  0.67839800  0.18251500  1
  Bi  Bi15  1  0.82160200  0.31748500  0.01443200  1
  Bi  Bi16  1  0.48556800  0.67839800  0.81748500  1
  Bi  Bi17  1  0.31748500  0.01443200  0.82160200  1
  Bi  Bi18  1  0.82160200  0.68251500  0.98556800  1
  Bi  Bi19  1  0.81748500  0.48556800  0.67839800  1
  Bi  Bi20  1  0.68251500  0.98556800  0.82160200  1
  Bi  Bi21  1  0.67839800  0.81748500  0.48556800  1
  Bi  Bi22  1  0.18251500  0.51443200  0.67839800  1
  Bi  Bi23  1  0.98556800  0.82160200  0.68251500  1
  Bi  Bi24  1  0.67839800  0.18251500  0.51443200  1
  Bi  Bi25  1  0.01443200  0.82160200  0.31748500  1
  O  O26  1  0.19570000  0.19570000  0.80430000  1
  O  O27  1  0.48828800  0.86953800  0.25352900  1
  O  O28  1  0.24647100  0.98828800  0.63046200  1
  O  O29  1  0.36953800  0.24647100  0.01171200  1
  O  O30  1  0.39788750  0.39788750  0.60211250  1
  O  O31  1  0.98828800  0.63046200  0.24647100  1
  O  O32  1  0.25352900  0.48828800  0.86953800  1
  O  O33  1  0.13046200  0.25352900  0.51171200  1
  O  O34  1  0.39788750  0.60211250  0.39788750  1
  O  O35  1  0.10211250  0.10211250  0.10211250  1
  O  O36  1  0.60211250  0.39788750  0.39788750  1
  O  O37  1  0.19570000  0.80430000  0.19570000  1
  O  O38  1  0.30430000  0.30430000  0.30430000  1
  O  O39  1  0.80430000  0.19570000  0.19570000  1
  O  O40  1  0.63046200  0.24647100  0.98828800  1
  O  O41  1  0.24647100  0.01171200  0.36953800  1
  O  O42  1  0.51171200  0.13046200  0.25352900  1
  O  O43  1  0.25352900  0.51171200  0.13046200  1
  O  O44  1  0.86953800  0.25352900  0.48828800  1
  O  O45  1  0.01171200  0.36953800  0.24647100  1
  O  O46  1  0.69570000  0.69570000  0.30430000  1
  O  O47  1  0.98828800  0.36953800  0.75352900  1
  O  O48  1  0.74647100  0.48828800  0.13046200  1
  O  O49  1  0.86953800  0.74647100  0.51171200  1
  O  O50  1  0.89788750  0.89788750  0.10211250  1
  O  O51  1  0.48828800  0.13046200  0.74647100  1
  O  O52  1  0.75352900  0.98828800  0.36953800  1
  O  O53  1  0.63046200  0.75352900  0.01171200  1
  O  O54  1  0.89788750  0.10211250  0.89788750  1
  O  O55  1  0.60211250  0.60211250  0.60211250  1
  O  O56  1  0.10211250  0.89788750  0.89788750  1
  O  O57  1  0.69570000  0.30430000  0.69570000  1
  O  O58  1  0.80430000  0.80430000  0.80430000  1
  O  O59  1  0.30430000  0.69570000  0.69570000  1
  O  O60  1  0.13046200  0.74647100  0.48828800  1
  O  O61  1  0.74647100  0.51171200  0.86953800  1
  O  O62  1  0.01171200  0.63046200  0.75352900  1
  O  O63  1  0.75352900  0.01171200  0.63046200  1
  O  O64  1  0.36953800  0.75352900  0.98828800  1
  O  O65  1  0.51171200  0.86953800  0.74647100  1
