# generated using pymatgen
data_Ti10Cu7S20
_symmetry_space_group_name_H-M   'P 1'
_cell_length_a   12.87962800
_cell_length_b   3.43974800
_cell_length_c   29.64860472
_cell_angle_alpha   90.00000000
_cell_angle_beta   98.41233825
_cell_angle_gamma   90.00000000
_symmetry_Int_Tables_number   1
_chemical_formula_structural   Ti10Cu7S20
_chemical_formula_sum   'Ti20 Cu14 S40'
_cell_volume   1299.38021385
_cell_formula_units_Z   2
loop_
 _symmetry_equiv_pos_site_id
 _symmetry_equiv_pos_as_xyz
  1  'x, y, z'
loop_
 _atom_site_type_symbol
 _atom_site_label
 _atom_site_symmetry_multiplicity
 _atom_site_fract_x
 _atom_site_fract_y
 _atom_site_fract_z
 _atom_site_occupancy
  Ti  Ti0  1  0.50290500  0.50000000  0.00101000  1
  Ti  Ti1  1  0.99922300  0.50000000  0.10008000  1
  Ti  Ti2  1  0.00225300  0.00000000  0.19977000  1
  Ti  Ti3  1  0.99775800  0.50000000  0.30042900  1
  Ti  Ti4  1  0.00211600  0.50000000  0.49952300  1
  Ti  Ti5  1  0.99990800  0.00000000  0.39989800  1
  Ti  Ti6  1  0.99779000  0.00000000  0.60035100  1
  Ti  Ti7  1  0.99997900  0.50000000  0.69981200  1
  Ti  Ti8  1  0.00176500  0.00000000  0.79965800  1
  Ti  Ti9  1  0.00156700  0.50000000  0.90001900  1
  Ti  Ti10  1  0.00290500  0.00000000  0.00101000  1
  Ti  Ti11  1  0.49922300  0.00000000  0.10008000  1
  Ti  Ti12  1  0.50225300  0.50000000  0.19977000  1
  Ti  Ti13  1  0.49775800  0.00000000  0.30042900  1
  Ti  Ti14  1  0.50211600  0.00000000  0.49952300  1
  Ti  Ti15  1  0.49990800  0.50000000  0.39989800  1
  Ti  Ti16  1  0.49779000  0.50000000  0.60035100  1
  Ti  Ti17  1  0.49997900  0.00000000  0.69981200  1
  Ti  Ti18  1  0.50176500  0.50000000  0.79965800  1
  Ti  Ti19  1  0.50156700  0.00000000  0.90001900  1
  Cu  Cu20  1  0.71082700  0.00000000  0.31498300  1
  Cu  Cu21  1  0.78877100  0.00000000  0.18502800  1
  Cu  Cu22  1  0.21075200  0.00000000  0.61494700  1
  Cu  Cu23  1  0.78907700  0.50000000  0.48503500  1
  Cu  Cu24  1  0.28740100  0.50000000  0.78353500  1
  Cu  Cu25  1  0.28604600  0.00000000  0.88588300  1
  Cu  Cu26  1  0.28766700  0.50000000  0.98731800  1
  Cu  Cu27  1  0.21082700  0.50000000  0.31498300  1
  Cu  Cu28  1  0.28877100  0.50000000  0.18502800  1
  Cu  Cu29  1  0.71075200  0.50000000  0.61494700  1
  Cu  Cu30  1  0.28907700  0.00000000  0.48503500  1
  Cu  Cu31  1  0.78740100  0.00000000  0.78353500  1
  Cu  Cu32  1  0.78604600  0.50000000  0.88588300  1
  Cu  Cu33  1  0.78766700  0.00000000  0.98731800  1
  S  S34  1  0.88265400  0.50000000  0.02671700  1
  S  S35  1  0.88590200  0.00000000  0.12560500  1
  S  S36  1  0.61062300  0.50000000  0.07408000  1
  S  S37  1  0.88363000  0.50000000  0.22671900  1
  S  S38  1  0.61505400  0.00000000  0.17379000  1
  S  S39  1  0.88443300  0.00000000  0.32583400  1
  S  S40  1  0.11608500  0.00000000  0.27329900  1
  S  S41  1  0.88650900  0.50000000  0.42518600  1
  S  S42  1  0.11346600  0.50000000  0.37483200  1
  S  S43  1  0.88365100  0.00000000  0.52673600  1
  S  S44  1  0.11556900  0.00000000  0.47412900  1
  S  S45  1  0.88437100  0.50000000  0.62584500  1
  S  S46  1  0.11629800  0.50000000  0.57327700  1
  S  S47  1  0.88681400  0.00000000  0.72481800  1
  S  S48  1  0.11334100  0.00000000  0.67478000  1
  S  S49  1  0.38234600  0.00000000  0.82514300  1
  S  S50  1  0.11462700  0.50000000  0.77451700  1
  S  S51  1  0.38262700  0.50000000  0.92593100  1
  S  S52  1  0.11358800  0.00000000  0.87412800  1
  S  S53  1  0.11460300  0.50000000  0.97415100  1
  S  S54  1  0.38265400  0.00000000  0.02671700  1
  S  S55  1  0.38590200  0.50000000  0.12560500  1
  S  S56  1  0.11062300  0.00000000  0.07408000  1
  S  S57  1  0.38363000  0.00000000  0.22671900  1
  S  S58  1  0.11505400  0.50000000  0.17379000  1
  S  S59  1  0.38443300  0.50000000  0.32583400  1
  S  S60  1  0.61608500  0.50000000  0.27329900  1
  S  S61  1  0.38650900  0.00000000  0.42518600  1
  S  S62  1  0.61346600  0.00000000  0.37483200  1
  S  S63  1  0.38365100  0.50000000  0.52673600  1
  S  S64  1  0.61556900  0.50000000  0.47412900  1
  S  S65  1  0.38437100  0.00000000  0.62584500  1
  S  S66  1  0.61629800  0.00000000  0.57327700  1
  S  S67  1  0.38681400  0.50000000  0.72481800  1
  S  S68  1  0.61334100  0.50000000  0.67478000  1
  S  S69  1  0.88234600  0.50000000  0.82514300  1
  S  S70  1  0.61462700  0.00000000  0.77451700  1
  S  S71  1  0.88262700  0.00000000  0.92593100  1
  S  S72  1  0.61358800  0.50000000  0.87412800  1
  S  S73  1  0.61460300  0.00000000  0.97415100  1
