# generated using pymatgen
data_Sb(PO3)4
_symmetry_space_group_name_H-M   'P 1'
_cell_length_a   11.99399000
_cell_length_b   8.54312000
_cell_length_c   10.28941823
_cell_angle_alpha   90.00000000
_cell_angle_beta   119.71555031
_cell_angle_gamma   90.00000000
_symmetry_Int_Tables_number   1
_chemical_formula_structural   Sb(PO3)4
_chemical_formula_sum   'Sb4 P16 O48'
_cell_volume   915.67074385
_cell_formula_units_Z   4
loop_
 _symmetry_equiv_pos_site_id
 _symmetry_equiv_pos_as_xyz
  1  'x, y, z'
loop_
 _atom_site_type_symbol
 _atom_site_label
 _atom_site_symmetry_multiplicity
 _atom_site_fract_x
 _atom_site_fract_y
 _atom_site_fract_z
 _atom_site_occupancy
  Sb  Sb0  1  0.50000000  0.56094100  0.25000000  1
  Sb  Sb1  1  0.00000000  0.93905900  0.75000000  1
  Sb  Sb2  1  0.00000000  0.06094100  0.25000000  1
  Sb  Sb3  1  0.50000000  0.43905900  0.75000000  1
  P  P4  1  0.98858550  0.73196750  0.01948900  1
  P  P5  1  0.29991400  0.00822200  0.80060900  1
  P  P6  1  0.48858550  0.76803250  0.51948900  1
  P  P7  1  0.29991400  0.99177800  0.30060900  1
  P  P8  1  0.51141450  0.76803250  0.98051100  1
  P  P9  1  0.01141450  0.73196750  0.48051100  1
  P  P10  1  0.20008600  0.50822200  0.69939100  1
  P  P11  1  0.20008600  0.49177800  0.19939100  1
  P  P12  1  0.48858550  0.23196750  0.01948900  1
  P  P13  1  0.79991400  0.50822200  0.80060900  1
  P  P14  1  0.98858550  0.26803250  0.51948900  1
  P  P15  1  0.79991400  0.49177800  0.30060900  1
  P  P16  1  0.01141450  0.26803250  0.98051100  1
  P  P17  1  0.51141450  0.23196750  0.48051100  1
  P  P18  1  0.70008600  0.00822200  0.69939100  1
  P  P19  1  0.70008600  0.99177800  0.19939100  1
  O  O20  1  0.46070400  0.62778700  0.58741400  1
  O  O21  1  0.26999750  0.07757950  0.65724600  1
  O  O22  1  0.30345250  0.42244550  0.67996100  1
  O  O23  1  0.96283150  0.23840550  0.09013100  1
  O  O24  1  0.35910400  0.86754600  0.43989600  1
  O  O25  1  0.53716850  0.26159450  0.90986900  1
  O  O26  1  0.03929600  0.87221300  0.41258600  1
  O  O27  1  0.14089600  0.36754600  0.06010400  1
  O  O28  1  0.08504100  0.61979000  0.14964500  1
  O  O29  1  0.58504100  0.88021000  0.64964500  1
  O  O30  1  0.76999750  0.42242050  0.15724600  1
  O  O31  1  0.23000250  0.42242050  0.34275400  1
  O  O32  1  0.41495900  0.88021000  0.85035500  1
  O  O33  1  0.30345250  0.57755450  0.17996100  1
  O  O34  1  0.96070400  0.87221300  0.08741400  1
  O  O35  1  0.19654750  0.92244550  0.82003900  1
  O  O36  1  0.91495900  0.61979000  0.35035500  1
  O  O37  1  0.35910400  0.13245400  0.93989600  1
  O  O38  1  0.73000250  0.07757950  0.84275400  1
  O  O39  1  0.19654750  0.07755450  0.32003900  1
  O  O40  1  0.53929600  0.62778700  0.91258600  1
  O  O41  1  0.53716850  0.73840550  0.40986900  1
  O  O42  1  0.14089600  0.63245400  0.56010400  1
  O  O43  1  0.96283150  0.76159450  0.59013100  1
  O  O44  1  0.96070400  0.12778700  0.58741400  1
  O  O45  1  0.76999750  0.57757950  0.65724600  1
  O  O46  1  0.80345250  0.92244550  0.67996100  1
  O  O47  1  0.46283150  0.73840550  0.09013100  1
  O  O48  1  0.85910400  0.36754600  0.43989600  1
  O  O49  1  0.03716850  0.76159450  0.90986900  1
  O  O50  1  0.53929600  0.37221300  0.41258600  1
  O  O51  1  0.64089600  0.86754600  0.06010400  1
  O  O52  1  0.58504100  0.11979000  0.14964500  1
  O  O53  1  0.08504100  0.38021000  0.64964500  1
  O  O54  1  0.26999750  0.92242050  0.15724600  1
  O  O55  1  0.73000250  0.92242050  0.34275400  1
  O  O56  1  0.91495900  0.38021000  0.85035500  1
  O  O57  1  0.80345250  0.07755450  0.17996100  1
  O  O58  1  0.46070400  0.37221300  0.08741400  1
  O  O59  1  0.69654750  0.42244550  0.82003900  1
  O  O60  1  0.41495900  0.11979000  0.35035500  1
  O  O61  1  0.85910400  0.63245400  0.93989600  1
  O  O62  1  0.23000250  0.57757950  0.84275400  1
  O  O63  1  0.69654750  0.57755450  0.32003900  1
  O  O64  1  0.03929600  0.12778700  0.91258600  1
  O  O65  1  0.03716850  0.23840550  0.40986900  1
  O  O66  1  0.64089600  0.13245400  0.56010400  1
  O  O67  1  0.46283150  0.26159450  0.59013100  1
