# generated using pymatgen
data_Nb2Co4O9
_symmetry_space_group_name_H-M   'P 1'
_cell_length_a   5.22518355
_cell_length_b   5.22518355
_cell_length_c   14.29855963
_cell_angle_alpha   90.00000000
_cell_angle_beta   90.00000000
_cell_angle_gamma   120.00000000
_symmetry_Int_Tables_number   1
_chemical_formula_structural   Nb2Co4O9
_chemical_formula_sum   'Nb4 Co8 O18'
_cell_volume   338.08509458
_cell_formula_units_Z   2
loop_
 _symmetry_equiv_pos_site_id
 _symmetry_equiv_pos_as_xyz
  1  'x, y, z'
loop_
 _atom_site_type_symbol
 _atom_site_label
 _atom_site_symmetry_multiplicity
 _atom_site_fract_x
 _atom_site_fract_y
 _atom_site_fract_z
 _atom_site_occupancy
  Nb  Nb0  1  0.00000000  0.00000000  0.64167800  1
  Nb  Nb1  1  0.00000000  0.00000000  0.85832200  1
  Nb  Nb2  1  0.00000000  0.00000000  0.35832200  1
  Nb  Nb3  1  0.00000000  0.00000000  0.14167800  1
  Co  Co4  1  0.33333333  0.66666667  0.01510100  1
  Co  Co5  1  0.33333333  0.66666667  0.51510100  1
  Co  Co6  1  0.66666667  0.33333333  0.98489900  1
  Co  Co7  1  0.33333333  0.66666667  0.30511100  1
  Co  Co8  1  0.66666667  0.33333333  0.48489900  1
  Co  Co9  1  0.66666667  0.33333333  0.69488900  1
  Co  Co10  1  0.33333333  0.66666667  0.80511100  1
  Co  Co11  1  0.66666667  0.33333333  0.19488900  1
  O  O12  1  0.71068650  0.00000000  0.25000000  1
  O  O13  1  0.00000000  0.71068650  0.25000000  1
  O  O14  1  0.28931350  0.28931350  0.25000000  1
  O  O15  1  0.28931350  0.00000000  0.75000000  1
  O  O16  1  0.00000000  0.28931350  0.75000000  1
  O  O17  1  0.71068650  0.71068650  0.75000000  1
  O  O18  1  0.34471900  0.32265500  0.58397800  1
  O  O19  1  0.67734500  0.02206400  0.58397800  1
  O  O20  1  0.97793600  0.65528100  0.58397800  1
  O  O21  1  0.32265500  0.34471900  0.91602200  1
  O  O22  1  0.02206400  0.67734500  0.91602200  1
  O  O23  1  0.65528100  0.97793600  0.91602200  1
  O  O24  1  0.65528100  0.67734500  0.41602200  1
  O  O25  1  0.32265500  0.97793600  0.41602200  1
  O  O26  1  0.02206400  0.34471900  0.41602200  1
  O  O27  1  0.67734500  0.65528100  0.08397800  1
  O  O28  1  0.97793600  0.32265500  0.08397800  1
  O  O29  1  0.34471900  0.02206400  0.08397800  1
