# generated using pymatgen
data_VO2
_symmetry_space_group_name_H-M   'P 1'
_cell_length_a   5.90044329
_cell_length_b   5.90044329
_cell_length_c   8.49770800
_cell_angle_alpha   90.00000000
_cell_angle_beta   90.00000000
_cell_angle_gamma   90.00000000
_symmetry_Int_Tables_number   1
_chemical_formula_structural   VO2
_chemical_formula_sum   'V8 O16'
_cell_volume   295.84966725
_cell_formula_units_Z   8
loop_
 _symmetry_equiv_pos_site_id
 _symmetry_equiv_pos_as_xyz
  1  'x, y, z'
loop_
 _atom_site_type_symbol
 _atom_site_label
 _atom_site_symmetry_multiplicity
 _atom_site_fract_x
 _atom_site_fract_y
 _atom_site_fract_z
 _atom_site_occupancy
  V  V0  1  0.75000000  0.00000000  0.37500000  1
  V  V1  1  0.00000000  0.25000000  0.62500000  1
  V  V2  1  0.00000000  0.75000000  0.62500000  1
  V  V3  1  0.25000000  0.00000000  0.37500000  1
  V  V4  1  0.25000000  0.50000000  0.87500000  1
  V  V5  1  0.50000000  0.75000000  0.12500000  1
  V  V6  1  0.50000000  0.25000000  0.12500000  1
  V  V7  1  0.75000000  0.50000000  0.87500000  1
  O  O8  1  0.00544350  0.78067350  0.39414250  1
  O  O9  1  0.21932650  0.00544350  0.60585750  1
  O  O10  1  0.78067350  0.99455650  0.60585750  1
  O  O11  1  0.99455650  0.21932650  0.39414250  1
  O  O12  1  0.78067350  0.49455650  0.64414250  1
  O  O13  1  0.99455650  0.71932650  0.85585750  1
  O  O14  1  0.00544350  0.28067350  0.85585750  1
  O  O15  1  0.21932650  0.50544350  0.64414250  1
  O  O16  1  0.50544350  0.28067350  0.89414250  1
  O  O17  1  0.71932650  0.50544350  0.10585750  1
  O  O18  1  0.28067350  0.49455650  0.10585750  1
  O  O19  1  0.49455650  0.71932650  0.89414250  1
  O  O20  1  0.28067350  0.99455650  0.14414250  1
  O  O21  1  0.49455650  0.21932650  0.35585750  1
  O  O22  1  0.50544350  0.78067350  0.35585750  1
  O  O23  1  0.71932650  0.00544350  0.14414250  1
