# generated using pymatgen
data_SrCu2(BO3)2
_symmetry_space_group_name_H-M   'P 1'
_cell_length_a   9.08836200
_cell_length_b   9.08836200
_cell_length_c   6.84076800
_cell_angle_alpha   90.00000000
_cell_angle_beta   90.00000000
_cell_angle_gamma   90.00000000
_symmetry_Int_Tables_number   1
_chemical_formula_structural   SrCu2(BO3)2
_chemical_formula_sum   'Sr4 Cu8 B8 O24'
_cell_volume   565.03597060
_cell_formula_units_Z   4
loop_
 _symmetry_equiv_pos_site_id
 _symmetry_equiv_pos_as_xyz
  1  'x, y, z'
loop_
 _atom_site_type_symbol
 _atom_site_label
 _atom_site_symmetry_multiplicity
 _atom_site_fract_x
 _atom_site_fract_y
 _atom_site_fract_z
 _atom_site_occupancy
  Sr  Sr0  1  0.50000000  0.00000000  0.00000000  1
  Sr  Sr1  1  0.50000000  0.00000000  0.50000000  1
  Sr  Sr2  1  0.00000000  0.50000000  0.50000000  1
  Sr  Sr3  1  0.00000000  0.50000000  0.00000000  1
  Cu  Cu4  1  0.88568500  0.88568500  0.27250400  1
  Cu  Cu5  1  0.88568500  0.11431500  0.72749600  1
  Cu  Cu6  1  0.61431500  0.38568500  0.22749600  1
  Cu  Cu7  1  0.61431500  0.61431500  0.77250400  1
  Cu  Cu8  1  0.38568500  0.38568500  0.77250400  1
  Cu  Cu9  1  0.38568500  0.61431500  0.22749600  1
  Cu  Cu10  1  0.11431500  0.88568500  0.72749600  1
  Cu  Cu11  1  0.11431500  0.11431500  0.27250400  1
  B  B12  1  0.79586900  0.20413100  0.25625200  1
  B  B13  1  0.70413100  0.70413100  0.24374800  1
  B  B14  1  0.70413100  0.29586900  0.75625200  1
  B  B15  1  0.79586900  0.79586900  0.74374800  1
  B  B16  1  0.29586900  0.70413100  0.75625200  1
  B  B17  1  0.20413100  0.20413100  0.74374800  1
  B  B18  1  0.20413100  0.79586900  0.25625200  1
  B  B19  1  0.29586900  0.29586900  0.24374800  1
  O  O20  1  0.67164900  0.85356900  0.25543800  1
  O  O21  1  0.35356900  0.82835100  0.24456200  1
  O  O22  1  0.67164900  0.14643100  0.74456200  1
  O  O23  1  0.35356900  0.17164900  0.75543800  1
  O  O24  1  0.32835100  0.85356900  0.74456200  1
  O  O25  1  0.64643100  0.82835100  0.75543800  1
  O  O26  1  0.90137150  0.90137150  0.71817850  1
  O  O27  1  0.90137150  0.09862850  0.28182150  1
  O  O28  1  0.59862850  0.40137150  0.78182150  1
  O  O29  1  0.59862850  0.59862850  0.21817850  1
  O  O30  1  0.32835100  0.14643100  0.25543800  1
  O  O31  1  0.64643100  0.17164900  0.24456200  1
  O  O32  1  0.17164900  0.35356900  0.75543800  1
  O  O33  1  0.85356900  0.32835100  0.74456200  1
  O  O34  1  0.17164900  0.64643100  0.24456200  1
  O  O35  1  0.85356900  0.67164900  0.25543800  1
  O  O36  1  0.82835100  0.35356900  0.24456200  1
  O  O37  1  0.14643100  0.32835100  0.25543800  1
  O  O38  1  0.40137150  0.40137150  0.21817850  1
  O  O39  1  0.40137150  0.59862850  0.78182150  1
  O  O40  1  0.09862850  0.90137150  0.28182150  1
  O  O41  1  0.09862850  0.09862850  0.71817850  1
  O  O42  1  0.82835100  0.64643100  0.75543800  1
  O  O43  1  0.14643100  0.67164900  0.74456200  1
