# generated using pymatgen
data_Nd5In11Ni6
_symmetry_space_group_name_H-M   'P 1'
_cell_length_a   14.64767000
_cell_length_b   14.69720600
_cell_length_c   4.41144000
_cell_angle_alpha   90.00000000
_cell_angle_beta   90.00000000
_cell_angle_gamma   90.00000000
_symmetry_Int_Tables_number   1
_chemical_formula_structural   Nd5In11Ni6
_chemical_formula_sum   'Nd10 In22 Ni12'
_cell_volume   949.69402418
_cell_formula_units_Z   2
loop_
 _symmetry_equiv_pos_site_id
 _symmetry_equiv_pos_as_xyz
  1  'x, y, z'
loop_
 _atom_site_type_symbol
 _atom_site_label
 _atom_site_symmetry_multiplicity
 _atom_site_fract_x
 _atom_site_fract_y
 _atom_site_fract_z
 _atom_site_occupancy
  Nd  Nd0  1  0.82648150  0.86333850  0.00000000  1
  Nd  Nd1  1  0.17351850  0.13666150  0.00000000  1
  Nd  Nd2  1  0.82648150  0.13666150  0.00000000  1
  Nd  Nd3  1  0.50000000  0.00000000  0.50000000  1
  Nd  Nd4  1  0.17351850  0.86333850  0.00000000  1
  Nd  Nd5  1  0.32648150  0.36333850  0.00000000  1
  Nd  Nd6  1  0.67351850  0.63666150  0.00000000  1
  Nd  Nd7  1  0.32648150  0.63666150  0.00000000  1
  Nd  Nd8  1  0.00000000  0.50000000  0.50000000  1
  Nd  Nd9  1  0.67351850  0.36333850  0.00000000  1
  In  In10  1  0.34363950  0.19274350  0.50000000  1
  In  In11  1  0.50000000  0.33952200  0.50000000  1
  In  In12  1  0.27506000  0.00000000  0.50000000  1
  In  In13  1  0.34363950  0.80725650  0.50000000  1
  In  In14  1  0.72494000  0.00000000  0.50000000  1
  In  In15  1  0.50000000  0.19604200  0.00000000  1
  In  In16  1  0.50000000  0.80395800  0.00000000  1
  In  In17  1  0.65636050  0.19274350  0.50000000  1
  In  In18  1  0.65636050  0.80725650  0.50000000  1
  In  In19  1  0.50000000  0.66047800  0.50000000  1
  In  In20  1  0.00000000  0.00000000  0.00000000  1
  In  In21  1  0.84363950  0.69274350  0.50000000  1
  In  In22  1  0.00000000  0.83952200  0.50000000  1
  In  In23  1  0.77506000  0.50000000  0.50000000  1
  In  In24  1  0.84363950  0.30725650  0.50000000  1
  In  In25  1  0.22494000  0.50000000  0.50000000  1
  In  In26  1  0.00000000  0.69604200  0.00000000  1
  In  In27  1  0.00000000  0.30395800  0.00000000  1
  In  In28  1  0.15636050  0.69274350  0.50000000  1
  In  In29  1  0.15636050  0.30725650  0.50000000  1
  In  In30  1  0.00000000  0.16047800  0.50000000  1
  In  In31  1  0.50000000  0.50000000  0.00000000  1
  Ni  Ni32  1  0.09403600  0.00000000  0.50000000  1
  Ni  Ni33  1  0.90596400  0.00000000  0.50000000  1
  Ni  Ni34  1  0.63772900  0.91698800  0.00000000  1
  Ni  Ni35  1  0.36227100  0.08301200  0.00000000  1
  Ni  Ni36  1  0.36227100  0.91698800  0.00000000  1
  Ni  Ni37  1  0.63772900  0.08301200  0.00000000  1
  Ni  Ni38  1  0.59403600  0.50000000  0.50000000  1
  Ni  Ni39  1  0.40596400  0.50000000  0.50000000  1
  Ni  Ni40  1  0.13772900  0.41698800  0.00000000  1
  Ni  Ni41  1  0.86227100  0.58301200  0.00000000  1
  Ni  Ni42  1  0.86227100  0.41698800  0.00000000  1
  Ni  Ni43  1  0.13772900  0.58301200  0.00000000  1
