# generated using pymatgen
data_Ba5Pb3
_symmetry_space_group_name_H-M   'P 1'
_cell_length_a   9.17449000
_cell_length_b   9.17449000
_cell_length_c   17.66478800
_cell_angle_alpha   90.00000000
_cell_angle_beta   90.00000000
_cell_angle_gamma   90.00000000
_symmetry_Int_Tables_number   1
_chemical_formula_structural   Ba5Pb3
_chemical_formula_sum   'Ba20 Pb12'
_cell_volume   1486.86758301
_cell_formula_units_Z   4
loop_
 _symmetry_equiv_pos_site_id
 _symmetry_equiv_pos_as_xyz
  1  'x, y, z'
loop_
 _atom_site_type_symbol
 _atom_site_label
 _atom_site_symmetry_multiplicity
 _atom_site_fract_x
 _atom_site_fract_y
 _atom_site_fract_z
 _atom_site_occupancy
  Ba  Ba0  1  0.17589200  0.67589200  0.35782450  1
  Ba  Ba1  1  0.32410800  0.17589200  0.35782450  1
  Ba  Ba2  1  0.82410800  0.67589200  0.14217550  1
  Ba  Ba3  1  0.67589200  0.17589200  0.14217550  1
  Ba  Ba4  1  0.00000000  0.00000000  0.00000000  1
  Ba  Ba5  1  0.17589200  0.32410800  0.14217550  1
  Ba  Ba6  1  0.32410800  0.82410800  0.14217550  1
  Ba  Ba7  1  0.82410800  0.32410800  0.35782450  1
  Ba  Ba8  1  0.67589200  0.82410800  0.35782450  1
  Ba  Ba9  1  0.50000000  0.50000000  0.00000000  1
  Ba  Ba10  1  0.67589200  0.17589200  0.85782450  1
  Ba  Ba11  1  0.82410800  0.67589200  0.85782450  1
  Ba  Ba12  1  0.32410800  0.17589200  0.64217550  1
  Ba  Ba13  1  0.17589200  0.67589200  0.64217550  1
  Ba  Ba14  1  0.50000000  0.50000000  0.50000000  1
  Ba  Ba15  1  0.67589200  0.82410800  0.64217550  1
  Ba  Ba16  1  0.82410800  0.32410800  0.64217550  1
  Ba  Ba17  1  0.32410800  0.82410800  0.85782450  1
  Ba  Ba18  1  0.17589200  0.32410800  0.85782450  1
  Ba  Ba19  1  0.00000000  0.00000000  0.50000000  1
  Pb  Pb20  1  0.61995850  0.88004150  0.00000000  1
  Pb  Pb21  1  0.11995850  0.61995850  0.00000000  1
  Pb  Pb22  1  0.50000000  0.50000000  0.25000000  1
  Pb  Pb23  1  0.38004150  0.11995850  0.00000000  1
  Pb  Pb24  1  0.38004150  0.88004150  0.50000000  1
  Pb  Pb25  1  0.00000000  0.00000000  0.25000000  1
  Pb  Pb26  1  0.11995850  0.38004150  0.50000000  1
  Pb  Pb27  1  0.61995850  0.11995850  0.50000000  1
  Pb  Pb28  1  0.00000000  0.00000000  0.75000000  1
  Pb  Pb29  1  0.88004150  0.61995850  0.50000000  1
  Pb  Pb30  1  0.88004150  0.38004150  0.00000000  1
  Pb  Pb31  1  0.50000000  0.50000000  0.75000000  1
