# generated using pymatgen
data_Ba8Re2(WO8)3
_symmetry_space_group_name_H-M   'P 1'
_cell_length_a   5.82726206
_cell_length_b   5.82726206
_cell_length_c   58.30645908
_cell_angle_alpha   90.00000000
_cell_angle_beta   90.00000000
_cell_angle_gamma   120.00000000
_symmetry_Int_Tables_number   1
_chemical_formula_structural   Ba8Re2(WO8)3
_chemical_formula_sum   'Ba24 Re6 W9 O72'
_cell_volume   1714.65361271
_cell_formula_units_Z   3
loop_
 _symmetry_equiv_pos_site_id
 _symmetry_equiv_pos_as_xyz
  1  'x, y, z'
loop_
 _atom_site_type_symbol
 _atom_site_label
 _atom_site_symmetry_multiplicity
 _atom_site_fract_x
 _atom_site_fract_y
 _atom_site_fract_z
 _atom_site_occupancy
  Ba  Ba0  1  0.00000000  0.00000000  0.27084400  1
  Ba  Ba1  1  0.00000000  0.00000000  0.18459900  1
  Ba  Ba2  1  0.00000000  0.00000000  0.11500300  1
  Ba  Ba3  1  0.66666667  0.33333333  0.21833033  1
  Ba  Ba4  1  0.66666667  0.33333333  0.06248933  1
  Ba  Ba5  1  0.33333333  0.66666667  0.31598867  1
  Ba  Ba6  1  0.33333333  0.66666667  0.01734467  1
  Ba  Ba7  1  0.66666667  0.33333333  0.14873433  1
  Ba  Ba8  1  0.66666667  0.33333333  0.60417733  1
  Ba  Ba9  1  0.66666667  0.33333333  0.51793233  1
  Ba  Ba10  1  0.66666667  0.33333333  0.44833633  1
  Ba  Ba11  1  0.33333333  0.66666667  0.55166367  1
  Ba  Ba12  1  0.33333333  0.66666667  0.39582267  1
  Ba  Ba13  1  0.00000000  0.00000000  0.64932200  1
  Ba  Ba14  1  0.00000000  0.00000000  0.35067800  1
  Ba  Ba15  1  0.33333333  0.66666667  0.48206767  1
  Ba  Ba16  1  0.33333333  0.66666667  0.93751067  1
  Ba  Ba17  1  0.33333333  0.66666667  0.85126567  1
  Ba  Ba18  1  0.33333333  0.66666667  0.78166967  1
  Ba  Ba19  1  0.00000000  0.00000000  0.88499700  1
  Ba  Ba20  1  0.00000000  0.00000000  0.72915600  1
  Ba  Ba21  1  0.66666667  0.33333333  0.98265533  1
  Ba  Ba22  1  0.66666667  0.33333333  0.68401133  1
  Ba  Ba23  1  0.00000000  0.00000000  0.81540100  1
  Re  Re24  1  0.00000000  0.00000000  0.03907000  1
  Re  Re25  1  0.66666667  0.33333333  0.29426333  1
  Re  Re26  1  0.66666667  0.33333333  0.37240333  1
  Re  Re27  1  0.33333333  0.66666667  0.62759667  1
  Re  Re28  1  0.33333333  0.66666667  0.70573667  1
  Re  Re29  1  0.00000000  0.00000000  0.96093000  1
  W  W30  1  0.33333333  0.66666667  0.25013067  1
  W  W31  1  0.33333333  0.66666667  0.08320267  1
  W  W32  1  0.33333333  0.66666667  0.16666667  1
  W  W33  1  0.00000000  0.00000000  0.58346400  1
  W  W34  1  0.00000000  0.00000000  0.41653600  1
  W  W35  1  1.00000000  1.00000000  0.50000000  1
  W  W36  1  0.66666667  0.33333333  0.91679733  1
  W  W37  1  0.66666667  0.33333333  0.74986933  1
  W  W38  1  0.66666667  0.33333333  0.83333333  1
  O  O39  1  0.82102067  0.64204133  0.31110133  1
  O  O40  1  0.17315900  0.82684100  0.14780600  1
  O  O41  1  0.50226600  0.49773400  0.27463600  1
  O  O42  1  0.49350767  0.98701533  0.18552733  1
  O  O43  1  0.17408367  0.34816733  0.23563733  1
  O  O44  1  0.16440067  0.32880133  0.05869733  1
  O  O45  1  0.17315900  0.34631800  0.14780600  1
  O  O46  1  0.17408367  0.82591633  0.23563733  1
  O  O47  1  0.49258300  0.50741700  0.09769600  1
  O  O48  1  0.01298467  0.50649233  0.18552733  1
  O  O49  1  0.01483400  0.50741700  0.09769600  1
  O  O50  1  0.65183267  0.82591633  0.23563733  1
  O  O51  1  0.49350767  0.50649233  0.18552733  1
  O  O52  1  0.99546800  0.49773400  0.27463600  1
  O  O53  1  0.84564600  0.69129200  0.02223200  1
  O  O54  1  0.65368200  0.82684100  0.14780600  1
  O  O55  1  0.35795867  0.17897933  0.31110133  1
  O  O56  1  0.16440067  0.83559933  0.05869733  1
  O  O57  1  0.49258300  0.98516600  0.09769600  1
  O  O58  1  0.50226600  0.00453200  0.27463600  1
  O  O59  1  0.82102067  0.17897933  0.31110133  1
  O  O60  1  0.30870800  0.15435400  0.02223200  1
  O  O61  1  0.84564600  0.15435400  0.02223200  1
  O  O62  1  0.67119867  0.83559933  0.05869733  1
  O  O63  1  0.48768733  0.97537467  0.64443467  1
  O  O64  1  0.83982567  0.16017433  0.48113933  1
  O  O65  1  0.16893267  0.83106733  0.60796933  1
  O  O66  1  0.16017433  0.32034867  0.51886067  1
  O  O67  1  0.84075033  0.68150067  0.56897067  1
  O  O68  1  0.83106733  0.66213467  0.39203067  1
  O  O69  1  0.83982567  0.67965133  0.48113933  1
  O  O70  1  0.84075033  0.15924967  0.56897067  1
  O  O71  1  0.15924967  0.84075033  0.43102933  1
  O  O72  1  0.67965133  0.83982567  0.51886067  1
  O  O73  1  0.68150067  0.84075033  0.43102933  1
  O  O74  1  0.31849933  0.15924967  0.56897067  1
  O  O75  1  0.16017433  0.83982567  0.51886067  1
  O  O76  1  0.66213467  0.83106733  0.60796933  1
  O  O77  1  0.51231267  0.02462533  0.35556533  1
  O  O78  1  0.32034867  0.16017433  0.48113933  1
  O  O79  1  0.02462533  0.51231267  0.64443467  1
  O  O80  1  0.83106733  0.16893267  0.39203067  1
  O  O81  1  0.15924967  0.31849933  0.43102933  1
  O  O82  1  0.16893267  0.33786533  0.60796933  1
  O  O83  1  0.48768733  0.51231267  0.64443467  1
  O  O84  1  0.97537467  0.48768733  0.35556533  1
  O  O85  1  0.51231267  0.48768733  0.35556533  1
  O  O86  1  0.33786533  0.16893267  0.39203067  1
  O  O87  1  0.15435400  0.30870800  0.97776800  1
  O  O88  1  0.50649233  0.49350767  0.81447267  1
  O  O89  1  0.83559933  0.16440067  0.94130267  1
  O  O90  1  0.82684100  0.65368200  0.85219400  1
  O  O91  1  0.50741700  0.01483400  0.90230400  1
  O  O92  1  0.49773400  0.99546800  0.72536400  1
  O  O93  1  0.50649233  0.01298467  0.81447267  1
  O  O94  1  0.50741700  0.49258300  0.90230400  1
  O  O95  1  0.82591633  0.17408367  0.76436267  1
  O  O96  1  0.34631800  0.17315900  0.85219400  1
  O  O97  1  0.34816733  0.17408367  0.76436267  1
  O  O98  1  0.98516600  0.49258300  0.90230400  1
  O  O99  1  0.82684100  0.17315900  0.85219400  1
  O  O100  1  0.32880133  0.16440067  0.94130267  1
  O  O101  1  0.17897933  0.35795867  0.68889867  1
  O  O102  1  0.98701533  0.49350767  0.81447267  1
  O  O103  1  0.69129200  0.84564600  0.97776800  1
  O  O104  1  0.49773400  0.50226600  0.72536400  1
  O  O105  1  0.82591633  0.65183267  0.76436267  1
  O  O106  1  0.83559933  0.67119867  0.94130267  1
  O  O107  1  0.15435400  0.84564600  0.97776800  1
  O  O108  1  0.64204133  0.82102067  0.68889867  1
  O  O109  1  0.17897933  0.82102067  0.68889867  1
  O  O110  1  0.00453200  0.50226600  0.72536400  1
