# generated using pymatgen
data_U4Ga12Co
_symmetry_space_group_name_H-M   'P 1'
_cell_length_a   8.55830000
_cell_length_b   8.55830000
_cell_length_c   8.55830000
_cell_angle_alpha   90.00000000
_cell_angle_beta   90.00000000
_cell_angle_gamma   90.00000000
_symmetry_Int_Tables_number   1
_chemical_formula_structural   U4Ga12Co
_chemical_formula_sum   'U8 Ga24 Co2'
_cell_volume   626.84839485
_cell_formula_units_Z   2
loop_
 _symmetry_equiv_pos_site_id
 _symmetry_equiv_pos_as_xyz
  1  'x, y, z'
loop_
 _atom_site_type_symbol
 _atom_site_label
 _atom_site_symmetry_multiplicity
 _atom_site_fract_x
 _atom_site_fract_y
 _atom_site_fract_z
 _atom_site_occupancy
  U  U0  1  0.25000000  0.25000000  0.25000000  1
  U  U1  1  0.25000000  0.75000000  0.25000000  1
  U  U2  1  0.25000000  0.25000000  0.75000000  1
  U  U3  1  0.75000000  0.25000000  0.25000000  1
  U  U4  1  0.75000000  0.75000000  0.75000000  1
  U  U5  1  0.75000000  0.25000000  0.75000000  1
  U  U6  1  0.75000000  0.75000000  0.25000000  1
  U  U7  1  0.25000000  0.75000000  0.75000000  1
  Ga  Ga8  1  0.00000000  0.50000000  0.25000000  1
  Ga  Ga9  1  0.28158400  0.00000000  0.00000000  1
  Ga  Ga10  1  0.00000000  0.00000000  0.28158400  1
  Ga  Ga11  1  0.00000000  0.71841600  0.00000000  1
  Ga  Ga12  1  0.25000000  0.50000000  0.00000000  1
  Ga  Ga13  1  0.00000000  0.25000000  0.50000000  1
  Ga  Ga14  1  0.50000000  0.00000000  0.25000000  1
  Ga  Ga15  1  0.50000000  0.25000000  0.00000000  1
  Ga  Ga16  1  0.00000000  0.28158400  0.00000000  1
  Ga  Ga17  1  0.25000000  0.00000000  0.50000000  1
  Ga  Ga18  1  0.00000000  0.00000000  0.71841600  1
  Ga  Ga19  1  0.71841600  0.00000000  0.00000000  1
  Ga  Ga20  1  0.50000000  0.00000000  0.75000000  1
  Ga  Ga21  1  0.78158400  0.50000000  0.50000000  1
  Ga  Ga22  1  0.50000000  0.50000000  0.78158400  1
  Ga  Ga23  1  0.50000000  0.21841600  0.50000000  1
  Ga  Ga24  1  0.75000000  0.00000000  0.50000000  1
  Ga  Ga25  1  0.50000000  0.75000000  0.00000000  1
  Ga  Ga26  1  0.00000000  0.50000000  0.75000000  1
  Ga  Ga27  1  0.00000000  0.75000000  0.50000000  1
  Ga  Ga28  1  0.50000000  0.78158400  0.50000000  1
  Ga  Ga29  1  0.75000000  0.50000000  0.00000000  1
  Ga  Ga30  1  0.50000000  0.50000000  0.21841600  1
  Ga  Ga31  1  0.21841600  0.50000000  0.50000000  1
  Co  Co32  1  0.00000000  0.00000000  0.00000000  1
  Co  Co33  1  0.50000000  0.50000000  0.50000000  1
