# generated using pymatgen
data_MnHO2
_symmetry_space_group_name_H-M   'P 1'
_cell_length_a   2.93309200
_cell_length_b   4.60726601
_cell_length_c   10.92520203
_cell_angle_alpha   90.00000000
_cell_angle_beta   90.00000000
_cell_angle_gamma   90.00000000
_symmetry_Int_Tables_number   1
_chemical_formula_structural   MnHO2
_chemical_formula_sum   'Mn4 H4 O8'
_cell_volume   147.63810087
_cell_formula_units_Z   4
loop_
 _symmetry_equiv_pos_site_id
 _symmetry_equiv_pos_as_xyz
  1  'x, y, z'
loop_
 _atom_site_type_symbol
 _atom_site_label
 _atom_site_symmetry_multiplicity
 _atom_site_fract_x
 _atom_site_fract_y
 _atom_site_fract_z
 _atom_site_occupancy
  Mn  Mn0  1  0.75000000  0.94613200  0.64038900  1
  Mn  Mn1  1  0.25000000  0.05386800  0.35961100  1
  Mn  Mn2  1  0.75000000  0.55386800  0.14038900  1
  Mn  Mn3  1  0.25000000  0.44613200  0.85961100  1
  H  H4  1  0.75000000  0.89963300  0.89167500  1
  H  H5  1  0.75000000  0.60036700  0.39167500  1
  H  H6  1  0.25000000  0.10036700  0.10832500  1
  H  H7  1  0.25000000  0.39963300  0.60832500  1
  O  O8  1  0.75000000  0.19315100  0.81554000  1
  O  O9  1  0.75000000  0.30684900  0.31554000  1
  O  O10  1  0.25000000  0.80684900  0.18446000  1
  O  O11  1  0.25000000  0.69315100  0.68446000  1
  O  O12  1  0.75000000  0.69373400  0.92756500  1
  O  O13  1  0.75000000  0.80626600  0.42756500  1
  O  O14  1  0.25000000  0.30626600  0.07243500  1
  O  O15  1  0.25000000  0.19373400  0.57243500  1
