# generated using pymatgen
data_La4B2CI5
_symmetry_space_group_name_H-M   'P 1'
_cell_length_a   23.83068200
_cell_length_b   4.31023800
_cell_length_c   19.18562215
_cell_angle_alpha   90.00000000
_cell_angle_beta   125.89979547
_cell_angle_gamma   90.00000000
_symmetry_Int_Tables_number   1
_chemical_formula_structural   La4B2CI5
_chemical_formula_sum   'La16 B8 C4 I20'
_cell_volume   1596.32779892
_cell_formula_units_Z   4
loop_
 _symmetry_equiv_pos_site_id
 _symmetry_equiv_pos_as_xyz
  1  'x, y, z'
loop_
 _atom_site_type_symbol
 _atom_site_label
 _atom_site_symmetry_multiplicity
 _atom_site_fract_x
 _atom_site_fract_y
 _atom_site_fract_z
 _atom_site_occupancy
  La  La0  1  0.98768900  0.50000000  0.12273100  1
  La  La1  1  0.37122500  0.50000000  0.89650200  1
  La  La2  1  0.15538100  0.00000000  0.60321800  1
  La  La3  1  0.62877500  0.50000000  0.10349800  1
  La  La4  1  0.01231100  0.50000000  0.87726900  1
  La  La5  1  0.84461900  0.00000000  0.39678200  1
  La  La6  1  0.00467500  0.50000000  0.59148300  1
  La  La7  1  0.99532500  0.50000000  0.40851700  1
  La  La8  1  0.48768900  0.00000000  0.12273100  1
  La  La9  1  0.87122500  0.00000000  0.89650200  1
  La  La10  1  0.65538100  0.50000000  0.60321800  1
  La  La11  1  0.12877500  0.00000000  0.10349800  1
  La  La12  1  0.51231100  0.00000000  0.87726900  1
  La  La13  1  0.34461900  0.50000000  0.39678200  1
  La  La14  1  0.50467500  0.00000000  0.59148300  1
  La  La15  1  0.49532500  0.00000000  0.40851700  1
  B  B16  1  0.99641500  0.00000000  0.04710500  1
  B  B17  1  0.00000000  0.68473700  0.00000000  1
  B  B18  1  0.00000000  0.31526300  0.00000000  1
  B  B19  1  0.00358500  0.00000000  0.95289500  1
  B  B20  1  0.49641500  0.50000000  0.04710500  1
  B  B21  1  0.50000000  0.18473700  0.00000000  1
  B  B22  1  0.50000000  0.81526300  0.00000000  1
  B  B23  1  0.50358500  0.50000000  0.95289500  1
  C  C24  1  0.96445700  0.00000000  0.47605000  1
  C  C25  1  0.03554300  0.00000000  0.52395000  1
  C  C26  1  0.46445700  0.50000000  0.47605000  1
  C  C27  1  0.53554300  0.50000000  0.52395000  1
  I  I28  1  0.98215900  0.00000000  0.25971500  1
  I  I29  1  0.33880500  0.00000000  0.74409000  1
  I  I30  1  0.16247200  0.50000000  0.48320400  1
  I  I31  1  0.01784100  0.00000000  0.74028500  1
  I  I32  1  0.83752800  0.50000000  0.51679600  1
  I  I33  1  0.82322700  0.50000000  0.25322500  1
  I  I34  1  0.31871200  0.00000000  0.97644400  1
  I  I35  1  0.17677300  0.50000000  0.74677500  1
  I  I36  1  0.66119500  0.00000000  0.25591000  1
  I  I37  1  0.68128800  0.00000000  0.02355600  1
  I  I38  1  0.48215900  0.50000000  0.25971500  1
  I  I39  1  0.83880500  0.50000000  0.74409000  1
  I  I40  1  0.66247200  0.00000000  0.48320400  1
  I  I41  1  0.51784100  0.50000000  0.74028500  1
  I  I42  1  0.33752800  0.00000000  0.51679600  1
  I  I43  1  0.32322700  0.00000000  0.25322500  1
  I  I44  1  0.81871200  0.50000000  0.97644400  1
  I  I45  1  0.67677300  0.00000000  0.74677500  1
  I  I46  1  0.16119500  0.50000000  0.25591000  1
  I  I47  1  0.18128800  0.50000000  0.02355600  1
