# generated using pymatgen
data_Eu2PBr
_symmetry_space_group_name_H-M   'P 1'
_cell_length_a   4.31606330
_cell_length_b   4.31606330
_cell_length_c   21.83409541
_cell_angle_alpha   90.00000000
_cell_angle_beta   90.00000000
_cell_angle_gamma   120.00000000
_symmetry_Int_Tables_number   1
_chemical_formula_structural   Eu2PBr
_chemical_formula_sum   'Eu6 P3 Br3'
_cell_volume   352.24225034
_cell_formula_units_Z   3
loop_
 _symmetry_equiv_pos_site_id
 _symmetry_equiv_pos_as_xyz
  1  'x, y, z'
loop_
 _atom_site_type_symbol
 _atom_site_label
 _atom_site_symmetry_multiplicity
 _atom_site_fract_x
 _atom_site_fract_y
 _atom_site_fract_z
 _atom_site_occupancy
  Eu  Eu0  1  0.66666667  0.33333333  0.09659233  1
  Eu  Eu1  1  0.00000000  0.00000000  0.23674100  1
  Eu  Eu2  1  0.33333333  0.66666667  0.42992567  1
  Eu  Eu3  1  0.66666667  0.33333333  0.57007433  1
  Eu  Eu4  1  0.00000000  0.00000000  0.76325900  1
  Eu  Eu5  1  0.33333333  0.66666667  0.90340767  1
  P  P6  1  0.33333333  0.66666667  0.16666667  1
  P  P7  1  1.00000000  1.00000000  0.50000000  1
  P  P8  1  0.66666667  0.33333333  0.83333333  1
  Br  Br9  1  0.00000000  0.00000000  0.00000000  1
  Br  Br10  1  0.66666667  0.33333333  0.33333333  1
  Br  Br11  1  0.33333333  0.66666667  0.66666667  1
