# generated using pymatgen
data_Pr7FeI12
_symmetry_space_group_name_H-M   'P 1'
_cell_length_a   16.14260669
_cell_length_b   16.14260669
_cell_length_c   11.06699753
_cell_angle_alpha   90.00000000
_cell_angle_beta   90.00000000
_cell_angle_gamma   120.00000000
_symmetry_Int_Tables_number   1
_chemical_formula_structural   Pr7FeI12
_chemical_formula_sum   'Pr21 Fe3 I36'
_cell_volume   2497.51310528
_cell_formula_units_Z   3
loop_
 _symmetry_equiv_pos_site_id
 _symmetry_equiv_pos_as_xyz
  1  'x, y, z'
loop_
 _atom_site_type_symbol
 _atom_site_label
 _atom_site_symmetry_multiplicity
 _atom_site_fract_x
 _atom_site_fract_y
 _atom_site_fract_z
 _atom_site_occupancy
  Pr  Pr0  1  0.88662333  0.84236867  0.64319067  1
  Pr  Pr1  1  0.95574533  0.11337667  0.64319067  1
  Pr  Pr2  1  0.11337667  0.15763133  0.35680933  1
  Pr  Pr3  1  0.04425467  0.88662333  0.35680933  1
  Pr  Pr4  1  0.00000000  0.00000000  0.00000000  1
  Pr  Pr5  1  0.15763133  0.04425467  0.64319067  1
  Pr  Pr6  1  0.84236867  0.95574533  0.35680933  1
  Pr  Pr7  1  0.55329000  0.17570200  0.97652400  1
  Pr  Pr8  1  0.62241200  0.44671000  0.97652400  1
  Pr  Pr9  1  0.78004333  0.49096467  0.69014267  1
  Pr  Pr10  1  0.71092133  0.21995667  0.69014267  1
  Pr  Pr11  1  0.66666667  0.33333333  0.33333333  1
  Pr  Pr12  1  0.82429800  0.37758800  0.97652400  1
  Pr  Pr13  1  0.50903533  0.28907867  0.69014267  1
  Pr  Pr14  1  0.21995667  0.50903533  0.30985733  1
  Pr  Pr15  1  0.28907867  0.78004333  0.30985733  1
  Pr  Pr16  1  0.44671000  0.82429800  0.02347600  1
  Pr  Pr17  1  0.37758800  0.55329000  0.02347600  1
  Pr  Pr18  1  0.33333333  0.66666667  0.66666667  1
  Pr  Pr19  1  0.49096467  0.71092133  0.30985733  1
  Pr  Pr20  1  0.17570200  0.62241200  0.02347600  1
  Fe  Fe21  1  0.00000000  0.00000000  0.50000000  1
  Fe  Fe22  1  0.66666667  0.33333333  0.83333333  1
  Fe  Fe23  1  0.33333333  0.66666667  0.16666667  1
  I  I24  1  0.68823233  0.76711867  0.49673467  1
  I  I25  1  0.05151033  0.86807167  0.84011067  1
  I  I26  1  0.23288133  0.92111367  0.49673467  1
  I  I27  1  0.18343867  0.05151033  0.15988933  1
  I  I28  1  0.13192833  0.18343867  0.84011067  1
  I  I29  1  0.81656133  0.94848967  0.84011067  1
  I  I30  1  0.94848967  0.13192833  0.15988933  1
  I  I31  1  0.92111367  0.68823233  0.50326533  1
  I  I32  1  0.86807167  0.81656133  0.15988933  1
  I  I33  1  0.31176767  0.23288133  0.50326533  1
  I  I34  1  0.07888633  0.31176767  0.49673467  1
  I  I35  1  0.76711867  0.07888633  0.50326533  1
  I  I36  1  0.35489900  0.10045200  0.83006800  1
  I  I37  1  0.71817700  0.20140500  0.17344400  1
  I  I38  1  0.89954800  0.25444700  0.83006800  1
  I  I39  1  0.85010533  0.38484367  0.49322267  1
  I  I40  1  0.79859500  0.51677200  0.17344400  1
  I  I41  1  0.48322800  0.28182300  0.17344400  1
  I  I42  1  0.61515633  0.46526167  0.49322267  1
  I  I43  1  0.58778033  0.02156567  0.83659867  1
  I  I44  1  0.53473833  0.14989467  0.49322267  1
  I  I45  1  0.97843433  0.56621467  0.83659867  1
  I  I46  1  0.74555300  0.64510100  0.83006800  1
  I  I47  1  0.43378533  0.41221967  0.83659867  1
  I  I48  1  0.02156567  0.43378533  0.16340133  1
  I  I49  1  0.38484367  0.53473833  0.50677733  1
  I  I50  1  0.56621467  0.58778033  0.16340133  1
  I  I51  1  0.51677200  0.71817700  0.82655600  1
  I  I52  1  0.46526167  0.85010533  0.50677733  1
  I  I53  1  0.14989467  0.61515633  0.50677733  1
  I  I54  1  0.28182300  0.79859500  0.82655600  1
  I  I55  1  0.25444700  0.35489900  0.16993200  1
  I  I56  1  0.20140500  0.48322800  0.82655600  1
  I  I57  1  0.64510100  0.89954800  0.16993200  1
  I  I58  1  0.41221967  0.97843433  0.16340133  1
  I  I59  1  0.10045200  0.74555300  0.16993200  1
