# generated using pymatgen
data_LiTiCl3
_symmetry_space_group_name_H-M   'P 1'
_cell_length_a   13.05364200
_cell_length_b   7.15624000
_cell_length_c   12.34525996
_cell_angle_alpha   90.00000000
_cell_angle_beta   111.18530901
_cell_angle_gamma   90.00000000
_symmetry_Int_Tables_number   1
_chemical_formula_structural   LiTiCl3
_chemical_formula_sum   'Li8 Ti8 Cl24'
_cell_volume   1075.29290821
_cell_formula_units_Z   8
loop_
 _symmetry_equiv_pos_site_id
 _symmetry_equiv_pos_as_xyz
  1  'x, y, z'
loop_
 _atom_site_type_symbol
 _atom_site_label
 _atom_site_symmetry_multiplicity
 _atom_site_fract_x
 _atom_site_fract_y
 _atom_site_fract_z
 _atom_site_occupancy
  Li  Li0  1  0.84201300  0.50000000  0.12728300  1
  Li  Li1  1  0.87749000  0.00000000  0.63687300  1
  Li  Li2  1  0.94713400  0.00000000  0.30238700  1
  Li  Li3  1  0.93851200  0.50000000  0.81687700  1
  Li  Li4  1  0.34201300  0.00000000  0.12728300  1
  Li  Li5  1  0.37749000  0.50000000  0.63687300  1
  Li  Li6  1  0.44713400  0.50000000  0.30238700  1
  Li  Li7  1  0.43851200  0.00000000  0.81687700  1
  Ti  Ti8  1  0.70931700  0.00000000  0.02866000  1
  Ti  Ti9  1  0.19207400  0.30542900  0.83185200  1
  Ti  Ti10  1  0.19207400  0.69457100  0.83185200  1
  Ti  Ti11  1  0.15801500  0.00000000  0.55196300  1
  Ti  Ti12  1  0.20931700  0.50000000  0.02866000  1
  Ti  Ti13  1  0.69207400  0.80542900  0.83185200  1
  Ti  Ti14  1  0.69207400  0.19457100  0.83185200  1
  Ti  Ti15  1  0.65801500  0.50000000  0.55196300  1
  Cl  Cl16  1  0.80596000  0.22296200  0.19155200  1
  Cl  Cl17  1  0.80596000  0.77703800  0.19155200  1
  Cl  Cl18  1  0.07184000  0.00000000  0.70348600  1
  Cl  Cl19  1  0.06979100  0.23698200  0.42022200  1
  Cl  Cl20  1  0.06979100  0.76301800  0.42022200  1
  Cl  Cl21  1  0.30543100  0.00000000  0.92853200  1
  Cl  Cl22  1  0.29617700  0.23870100  0.68654500  1
  Cl  Cl23  1  0.29617700  0.76129900  0.68654500  1
  Cl  Cl24  1  0.07337200  0.73565800  0.94288800  1
  Cl  Cl25  1  0.07337200  0.26434200  0.94288800  1
  Cl  Cl26  1  0.05773800  0.50000000  0.69152600  1
  Cl  Cl27  1  0.34276400  0.50000000  0.94129400  1
  Cl  Cl28  1  0.30596000  0.72296200  0.19155200  1
  Cl  Cl29  1  0.30596000  0.27703800  0.19155200  1
  Cl  Cl30  1  0.57184000  0.50000000  0.70348600  1
  Cl  Cl31  1  0.56979100  0.73698200  0.42022200  1
  Cl  Cl32  1  0.56979100  0.26301800  0.42022200  1
  Cl  Cl33  1  0.80543100  0.50000000  0.92853200  1
  Cl  Cl34  1  0.79617700  0.73870100  0.68654500  1
  Cl  Cl35  1  0.79617700  0.26129900  0.68654500  1
  Cl  Cl36  1  0.57337200  0.23565800  0.94288800  1
  Cl  Cl37  1  0.57337200  0.76434200  0.94288800  1
  Cl  Cl38  1  0.55773800  0.00000000  0.69152600  1
  Cl  Cl39  1  0.84276400  0.00000000  0.94129400  1
