# generated using pymatgen
data_Ba2In13Ir4
_symmetry_space_group_name_H-M   'P 1'
_cell_length_a   4.54374800
_cell_length_b   29.47155200
_cell_length_c   13.91858800
_cell_angle_alpha   90.00000000
_cell_angle_beta   90.00000000
_cell_angle_gamma   90.00000000
_symmetry_Int_Tables_number   1
_chemical_formula_structural   Ba2In13Ir4
_chemical_formula_sum   'Ba8 In52 Ir16'
_cell_volume   1863.85628920
_cell_formula_units_Z   4
loop_
 _symmetry_equiv_pos_site_id
 _symmetry_equiv_pos_as_xyz
  1  'x, y, z'
loop_
 _atom_site_type_symbol
 _atom_site_label
 _atom_site_symmetry_multiplicity
 _atom_site_fract_x
 _atom_site_fract_y
 _atom_site_fract_z
 _atom_site_occupancy
  Ba  Ba0  1  0.50000000  0.75178900  0.57183900  1
  Ba  Ba1  1  0.50000000  0.95989200  0.89395600  1
  Ba  Ba2  1  0.00000000  0.74821100  0.07183900  1
  Ba  Ba3  1  0.00000000  0.54010800  0.39395600  1
  Ba  Ba4  1  0.00000000  0.25178900  0.57183900  1
  Ba  Ba5  1  0.00000000  0.45989200  0.89395600  1
  Ba  Ba6  1  0.50000000  0.24821100  0.07183900  1
  Ba  Ba7  1  0.50000000  0.04010800  0.39395600  1
  In  In8  1  0.50000000  0.84450100  0.07222200  1
  In  In9  1  0.50000000  0.99746600  0.64077900  1
  In  In10  1  0.00000000  0.78466600  0.37732600  1
  In  In11  1  0.50000000  0.65087700  0.05724200  1
  In  In12  1  0.00000000  0.86301800  0.90750700  1
  In  In13  1  0.50000000  0.63952900  0.72803100  1
  In  In14  1  0.50000000  0.85280700  0.72979700  1
  In  In15  1  0.50000000  0.53678800  0.78693900  1
  In  In16  1  0.00000000  0.65549900  0.57222200  1
  In  In17  1  0.00000000  0.77482100  0.78827700  1
  In  In18  1  0.50000000  0.71533400  0.87732600  1
  In  In19  1  0.50000000  0.72517900  0.28827700  1
  In  In20  1  0.00000000  0.61470500  0.89494400  1
  In  In21  1  0.50000000  0.56797800  0.57117400  1
  In  In22  1  0.00000000  0.93202200  0.07117400  1
  In  In23  1  0.00000000  0.95498400  0.49734300  1
  In  In24  1  0.00000000  0.50253400  0.14077900  1
  In  In25  1  0.00000000  0.84912300  0.55724200  1
  In  In26  1  0.50000000  0.88529500  0.39494400  1
  In  In27  1  0.00000000  0.86047100  0.22803100  1
  In  In28  1  0.00000000  0.64719300  0.22979700  1
  In  In29  1  0.50000000  0.57159900  0.21491500  1
  In  In30  1  0.00000000  0.96321200  0.28693900  1
  In  In31  1  0.50000000  0.63698200  0.40750700  1
  In  In32  1  0.50000000  0.54501600  0.99734300  1
  In  In33  1  0.00000000  0.92840100  0.71491500  1
  In  In34  1  0.00000000  0.34450100  0.07222200  1
  In  In35  1  0.00000000  0.49746600  0.64077900  1
  In  In36  1  0.50000000  0.28466600  0.37732600  1
  In  In37  1  0.00000000  0.15087700  0.05724200  1
  In  In38  1  0.50000000  0.36301800  0.90750700  1
  In  In39  1  0.00000000  0.13952900  0.72803100  1
  In  In40  1  0.00000000  0.35280700  0.72979700  1
  In  In41  1  0.00000000  0.03678800  0.78693900  1
  In  In42  1  0.50000000  0.15549900  0.57222200  1
  In  In43  1  0.50000000  0.27482100  0.78827700  1
  In  In44  1  0.00000000  0.21533400  0.87732600  1
  In  In45  1  0.00000000  0.22517900  0.28827700  1
  In  In46  1  0.50000000  0.11470500  0.89494400  1
  In  In47  1  0.00000000  0.06797800  0.57117400  1
  In  In48  1  0.50000000  0.43202200  0.07117400  1
  In  In49  1  0.50000000  0.45498400  0.49734300  1
  In  In50  1  0.50000000  0.00253400  0.14077900  1
  In  In51  1  0.50000000  0.34912300  0.55724200  1
  In  In52  1  0.00000000  0.38529500  0.39494400  1
  In  In53  1  0.50000000  0.36047100  0.22803100  1
  In  In54  1  0.50000000  0.14719300  0.22979700  1
  In  In55  1  0.00000000  0.07159900  0.21491500  1
  In  In56  1  0.50000000  0.46321200  0.28693900  1
  In  In57  1  0.00000000  0.13698200  0.40750700  1
  In  In58  1  0.00000000  0.04501600  0.99734300  1
  In  In59  1  0.50000000  0.42840100  0.71491500  1
  Ir  Ir60  1  0.50000000  0.80866200  0.89393800  1
  Ir  Ir61  1  0.00000000  0.58191900  0.70240900  1
  Ir  Ir62  1  0.50000000  0.81509400  0.26441000  1
  Ir  Ir63  1  0.50000000  0.91150600  0.58235900  1
  Ir  Ir64  1  0.00000000  0.69133800  0.39393800  1
  Ir  Ir65  1  0.50000000  0.91808100  0.20240900  1
  Ir  Ir66  1  0.00000000  0.68490600  0.76441000  1
  Ir  Ir67  1  0.00000000  0.58849400  0.08235900  1
  Ir  Ir68  1  0.00000000  0.30866200  0.89393800  1
  Ir  Ir69  1  0.50000000  0.08191900  0.70240900  1
  Ir  Ir70  1  0.00000000  0.31509400  0.26441000  1
  Ir  Ir71  1  0.00000000  0.41150600  0.58235900  1
  Ir  Ir72  1  0.50000000  0.19133800  0.39393800  1
  Ir  Ir73  1  0.00000000  0.41808100  0.20240900  1
  Ir  Ir74  1  0.50000000  0.18490600  0.76441000  1
  Ir  Ir75  1  0.50000000  0.08849400  0.08235900  1
