# generated using pymatgen
data_NaCoPO4
_symmetry_space_group_name_H-M   'P 1'
_cell_length_a   5.29879108
_cell_length_b   10.13790900
_cell_length_c   9.14624784
_cell_angle_alpha   90.00000000
_cell_angle_beta   125.17367851
_cell_angle_gamma   90.00000000
_symmetry_Int_Tables_number   1
_chemical_formula_structural   NaCoPO4
_chemical_formula_sum   'Na4 Co4 P4 O16'
_cell_volume   401.61312429
_cell_formula_units_Z   4
loop_
 _symmetry_equiv_pos_site_id
 _symmetry_equiv_pos_as_xyz
  1  'x, y, z'
loop_
 _atom_site_type_symbol
 _atom_site_label
 _atom_site_symmetry_multiplicity
 _atom_site_fract_x
 _atom_site_fract_y
 _atom_site_fract_z
 _atom_site_occupancy
  Na  Na0  1  0.80001050  0.88106800  0.51579350  1
  Na  Na1  1  0.80001050  0.61893200  0.01579350  1
  Na  Na2  1  0.19998950  0.11893200  0.48420650  1
  Na  Na3  1  0.19998950  0.38106800  0.98420650  1
  Co  Co4  1  0.30477850  0.83065200  0.00794150  1
  Co  Co5  1  0.30477850  0.66934800  0.50794150  1
  Co  Co6  1  0.69522150  0.33065200  0.49205850  1
  Co  Co7  1  0.69522150  0.16934800  0.99205850  1
  P  P8  1  0.42000350  0.40111300  0.72010250  1
  P  P9  1  0.57999650  0.90111300  0.77989750  1
  P  P10  1  0.57999650  0.59888700  0.27989750  1
  P  P11  1  0.42000350  0.09888700  0.22010250  1
  O  O12  1  0.46493650  0.94817900  0.21421550  1
  O  O13  1  0.46493650  0.55182100  0.71421550  1
  O  O14  1  0.53506350  0.05182100  0.78578450  1
  O  O15  1  0.53506350  0.44817900  0.28578450  1
  O  O16  1  0.88406650  0.86984900  0.79784150  1
  O  O17  1  0.88406650  0.63015100  0.29784150  1
  O  O18  1  0.11593350  0.36984900  0.70215850  1
  O  O19  1  0.11593350  0.13015100  0.20215850  1
  O  O20  1  0.30548450  0.64417800  0.08790550  1
  O  O21  1  0.30548450  0.85582200  0.58790550  1
  O  O22  1  0.69451550  0.35582200  0.91209450  1
  O  O23  1  0.69451550  0.14417800  0.41209450  1
  O  O24  1  0.58109650  0.82700500  0.92823750  1
  O  O25  1  0.41890350  0.17299500  0.07176250  1
  O  O26  1  0.41890350  0.32700500  0.57176250  1
  O  O27  1  0.58109650  0.67299500  0.42823750  1
