# generated using pymatgen
data_Co5Te4(ClO6)2
_symmetry_space_group_name_H-M   'P 1'
_cell_length_a   20.18117000
_cell_length_b   5.32872800
_cell_length_c   16.55861689
_cell_angle_alpha   90.00000000
_cell_angle_beta   124.96716224
_cell_angle_gamma   90.00000000
_symmetry_Int_Tables_number   1
_chemical_formula_structural   Co5Te4(ClO6)2
_chemical_formula_sum   'Co20 Te16 Cl8 O48'
_cell_volume   1459.25990755
_cell_formula_units_Z   4
loop_
 _symmetry_equiv_pos_site_id
 _symmetry_equiv_pos_as_xyz
  1  'x, y, z'
loop_
 _atom_site_type_symbol
 _atom_site_label
 _atom_site_symmetry_multiplicity
 _atom_site_fract_x
 _atom_site_fract_y
 _atom_site_fract_z
 _atom_site_occupancy
  Co  Co0  1  0.40897250  0.28351350  0.52445500  1
  Co  Co1  1  0.40897250  0.71648650  0.02445500  1
  Co  Co2  1  0.59102750  0.28351350  0.97554500  1
  Co  Co3  1  0.49166250  0.71857050  0.88171300  1
  Co  Co4  1  0.49166250  0.28142950  0.38171300  1
  Co  Co5  1  0.50000000  0.26615800  0.75000000  1
  Co  Co6  1  0.50833750  0.28142950  0.11828700  1
  Co  Co7  1  0.50833750  0.71857050  0.61828700  1
  Co  Co8  1  0.59102750  0.71648650  0.47554500  1
  Co  Co9  1  0.50000000  0.73384200  0.25000000  1
  Co  Co10  1  0.90897250  0.78351350  0.52445500  1
  Co  Co11  1  0.90897250  0.21648650  0.02445500  1
  Co  Co12  1  0.09102750  0.78351350  0.97554500  1
  Co  Co13  1  0.99166250  0.21857050  0.88171300  1
  Co  Co14  1  0.99166250  0.78142950  0.38171300  1
  Co  Co15  1  0.00000000  0.76615800  0.75000000  1
  Co  Co16  1  0.00833750  0.78142950  0.11828700  1
  Co  Co17  1  0.00833750  0.21857050  0.61828700  1
  Co  Co18  1  0.09102750  0.21648650  0.47554500  1
  Co  Co19  1  0.00000000  0.23384200  0.25000000  1
  Te  Te20  1  0.64595100  0.20759400  0.37782100  1
  Te  Te21  1  0.37403700  0.81647700  0.36033400  1
  Te  Te22  1  0.35404900  0.20759400  0.12217900  1
  Te  Te23  1  0.12596300  0.31647700  0.13966600  1
  Te  Te24  1  0.87403700  0.68352300  0.86033400  1
  Te  Te25  1  0.64595100  0.79240600  0.87782100  1
  Te  Te26  1  0.62596300  0.18352300  0.63966600  1
  Te  Te27  1  0.35404900  0.79240600  0.62217900  1
  Te  Te28  1  0.14595100  0.70759400  0.37782100  1
  Te  Te29  1  0.87403700  0.31647700  0.36033400  1
  Te  Te30  1  0.85404900  0.70759400  0.12217900  1
  Te  Te31  1  0.62596300  0.81647700  0.13966600  1
  Te  Te32  1  0.37403700  0.18352300  0.86033400  1
  Te  Te33  1  0.14595100  0.29240600  0.87782100  1
  Te  Te34  1  0.12596300  0.68352300  0.63966600  1
  Te  Te35  1  0.85404900  0.29240600  0.62217900  1
  Cl  Cl36  1  0.73494300  0.83366400  0.59319600  1
  Cl  Cl37  1  0.23494300  0.66633600  0.09319600  1
  Cl  Cl38  1  0.26505700  0.16633600  0.40680400  1
  Cl  Cl39  1  0.76505700  0.33366400  0.90680400  1
  Cl  Cl40  1  0.23494300  0.33366400  0.59319600  1
  Cl  Cl41  1  0.73494300  0.16633600  0.09319600  1
  Cl  Cl42  1  0.76505700  0.66633600  0.40680400  1
  Cl  Cl43  1  0.26505700  0.83366400  0.90680400  1
  O  O44  1  0.61489200  0.15931300  0.24894500  1
  O  O45  1  0.42944600  0.11457600  0.43070500  1
  O  O46  1  0.43650800  0.99129600  0.13276100  1
  O  O47  1  0.09790050  0.14460750  0.02211500  1
  O  O48  1  0.54091600  0.33822100  0.64241100  1
  O  O49  1  0.43650800  0.00870400  0.63276100  1
  O  O50  1  0.57810000  0.51136700  0.85622800  1
  O  O51  1  0.45908400  0.33822100  0.85758900  1
  O  O52  1  0.92944600  0.38542400  0.93070500  1
  O  O53  1  0.61489200  0.84068700  0.74894500  1
  O  O54  1  0.40209950  0.64460750  0.47788500  1
  O  O55  1  0.07055400  0.61457600  0.06929500  1
  O  O56  1  0.54091600  0.66177900  0.14241100  1
  O  O57  1  0.38510800  0.84068700  0.75105500  1
  O  O58  1  0.38510800  0.15931300  0.25105500  1
  O  O59  1  0.42190000  0.48863300  0.14377200  1
  O  O60  1  0.56349200  0.99129600  0.36723900  1
  O  O61  1  0.59790050  0.35539250  0.52211500  1
  O  O62  1  0.45908400  0.66177900  0.35758900  1
  O  O63  1  0.57055400  0.88542400  0.56929500  1
  O  O64  1  0.56349200  0.00870400  0.86723900  1
  O  O65  1  0.90209950  0.85539250  0.97788500  1
  O  O66  1  0.57810000  0.48863300  0.35622800  1
  O  O67  1  0.42190000  0.51136700  0.64377200  1
  O  O68  1  0.11489200  0.65931300  0.24894500  1
  O  O69  1  0.92944600  0.61457600  0.43070500  1
  O  O70  1  0.93650800  0.49129600  0.13276100  1
  O  O71  1  0.59790050  0.64460750  0.02211500  1
  O  O72  1  0.04091600  0.83822100  0.64241100  1
  O  O73  1  0.93650800  0.50870400  0.63276100  1
  O  O74  1  0.07810000  0.01136700  0.85622800  1
  O  O75  1  0.95908400  0.83822100  0.85758900  1
  O  O76  1  0.42944600  0.88542400  0.93070500  1
  O  O77  1  0.11489200  0.34068700  0.74894500  1
  O  O78  1  0.90209950  0.14460750  0.47788500  1
  O  O79  1  0.57055400  0.11457600  0.06929500  1
  O  O80  1  0.04091600  0.16177900  0.14241100  1
  O  O81  1  0.88510800  0.34068700  0.75105500  1
  O  O82  1  0.88510800  0.65931300  0.25105500  1
  O  O83  1  0.92190000  0.98863300  0.14377200  1
  O  O84  1  0.06349200  0.49129600  0.36723900  1
  O  O85  1  0.09790050  0.85539250  0.52211500  1
  O  O86  1  0.95908400  0.16177900  0.35758900  1
  O  O87  1  0.07055400  0.38542400  0.56929500  1
  O  O88  1  0.06349200  0.50870400  0.86723900  1
  O  O89  1  0.40209950  0.35539250  0.97788500  1
  O  O90  1  0.07810000  0.98863300  0.35622800  1
  O  O91  1  0.92190000  0.01136700  0.64377200  1
