# generated using pymatgen
data_TaCoSn2
_symmetry_space_group_name_H-M   'P 1'
_cell_length_a   6.72400800
_cell_length_b   6.72400800
_cell_length_c   6.72400800
_cell_angle_alpha   90.00000000
_cell_angle_beta   90.00000000
_cell_angle_gamma   90.00000000
_symmetry_Int_Tables_number   1
_chemical_formula_structural   TaCoSn2
_chemical_formula_sum   'Ta4 Co4 Sn8'
_cell_volume   304.00775652
_cell_formula_units_Z   4
loop_
 _symmetry_equiv_pos_site_id
 _symmetry_equiv_pos_as_xyz
  1  'x, y, z'
loop_
 _atom_site_type_symbol
 _atom_site_label
 _atom_site_symmetry_multiplicity
 _atom_site_fract_x
 _atom_site_fract_y
 _atom_site_fract_z
 _atom_site_occupancy
  Ta  Ta0  1  0.25000000  0.25000000  0.25000000  1
  Ta  Ta1  1  0.25000000  0.75000000  0.75000000  1
  Ta  Ta2  1  0.75000000  0.25000000  0.75000000  1
  Ta  Ta3  1  0.75000000  0.75000000  0.25000000  1
  Co  Co4  1  0.50000000  0.00000000  0.00000000  1
  Co  Co5  1  0.50000000  0.50000000  0.50000000  1
  Co  Co6  1  0.00000000  0.00000000  0.50000000  1
  Co  Co7  1  0.00000000  0.50000000  0.00000000  1
  Sn  Sn8  1  0.00000000  0.00000000  0.00000000  1
  Sn  Sn9  1  0.25000000  0.25000000  0.75000000  1
  Sn  Sn10  1  0.00000000  0.50000000  0.50000000  1
  Sn  Sn11  1  0.25000000  0.75000000  0.25000000  1
  Sn  Sn12  1  0.50000000  0.00000000  0.50000000  1
  Sn  Sn13  1  0.75000000  0.25000000  0.25000000  1
  Sn  Sn14  1  0.50000000  0.50000000  0.00000000  1
  Sn  Sn15  1  0.75000000  0.75000000  0.75000000  1
