# generated using pymatgen
data_V6H4O13
_symmetry_space_group_name_H-M   'P 1'
_cell_length_a   12.41509678
_cell_length_b   3.92267000
_cell_length_c   10.42548193
_cell_angle_alpha   90.00000000
_cell_angle_beta   100.79312272
_cell_angle_gamma   90.00000000
_symmetry_Int_Tables_number   1
_chemical_formula_structural   V6H4O13
_chemical_formula_sum   'V12 H8 O26'
_cell_volume   498.74260748
_cell_formula_units_Z   2
loop_
 _symmetry_equiv_pos_site_id
 _symmetry_equiv_pos_as_xyz
  1  'x, y, z'
loop_
 _atom_site_type_symbol
 _atom_site_label
 _atom_site_symmetry_multiplicity
 _atom_site_fract_x
 _atom_site_fract_y
 _atom_site_fract_z
 _atom_site_occupancy
  V  V0  1  0.64986000  0.00000000  0.99775000  1
  V  V1  1  0.85190900  0.50000000  0.00353600  1
  V  V2  1  0.59022200  0.00000000  0.60912400  1
  V  V3  1  0.90713400  0.50000000  0.36536300  1
  V  V4  1  0.78704300  0.50000000  0.63283800  1
  V  V5  1  0.71783500  0.00000000  0.38688800  1
  V  V6  1  0.14986000  0.50000000  0.99775000  1
  V  V7  1  0.35190900  0.00000000  0.00353600  1
  V  V8  1  0.09022200  0.50000000  0.60912400  1
  V  V9  1  0.40713400  0.00000000  0.36536300  1
  V  V10  1  0.28704300  0.00000000  0.63283800  1
  V  V11  1  0.21783500  0.50000000  0.38688800  1
  H  H12  1  0.81038600  0.00000000  0.87685800  1
  H  H13  1  0.92528300  0.00000000  0.49535700  1
  H  H14  1  0.51741300  0.00000000  0.80439900  1
  H  H15  1  0.58180900  0.00000000  0.19439900  1
  H  H16  1  0.31038600  0.50000000  0.87685800  1
  H  H17  1  0.42528300  0.50000000  0.49535700  1
  H  H18  1  0.01741300  0.50000000  0.80439900  1
  H  H19  1  0.08180900  0.50000000  0.19439900  1
  O  O20  1  0.81878800  0.00000000  0.97307600  1
  O  O21  1  0.69307700  0.50000000  0.00536400  1
  O  O22  1  0.62340600  0.50000000  0.61635300  1
  O  O23  1  0.89512100  0.00000000  0.40060500  1
  O  O24  1  0.75693200  0.00000000  0.59516900  1
  O  O25  1  0.75530300  0.50000000  0.41516600  1
  O  O26  1  0.99212500  0.50000000  0.00394200  1
  O  O27  1  0.59647100  0.00000000  0.80293500  1
  O  O28  1  0.88404600  0.50000000  0.19943800  1
  O  O29  1  0.82614500  0.50000000  0.79923100  1
  O  O30  1  0.66179200  0.00000000  0.19928100  1
  O  O31  1  0.93622100  0.50000000  0.58158000  1
  O  O32  1  0.56576600  0.00000000  0.42159200  1
  O  O33  1  0.31878800  0.50000000  0.97307600  1
  O  O34  1  0.19307700  0.00000000  0.00536400  1
  O  O35  1  0.12340600  0.00000000  0.61635300  1
  O  O36  1  0.39512100  0.50000000  0.40060500  1
  O  O37  1  0.25693200  0.50000000  0.59516900  1
  O  O38  1  0.25530300  0.00000000  0.41516600  1
  O  O39  1  0.49212500  0.00000000  0.00394200  1
  O  O40  1  0.09647100  0.50000000  0.80293500  1
  O  O41  1  0.38404600  0.00000000  0.19943800  1
  O  O42  1  0.32614500  0.00000000  0.79923100  1
  O  O43  1  0.16179200  0.50000000  0.19928100  1
  O  O44  1  0.43622100  0.00000000  0.58158000  1
  O  O45  1  0.06576600  0.50000000  0.42159200  1
