# generated using pymatgen
data_Zr7Ni10
_symmetry_space_group_name_H-M   'P 1'
_cell_length_a   9.17411800
_cell_length_b   12.39975800
_cell_length_c   9.23371100
_cell_angle_alpha   90.00000000
_cell_angle_beta   90.00000000
_cell_angle_gamma   90.00000000
_symmetry_Int_Tables_number   1
_chemical_formula_structural   Zr7Ni10
_chemical_formula_sum   'Zr28 Ni40'
_cell_volume   1050.39781312
_cell_formula_units_Z   4
loop_
 _symmetry_equiv_pos_site_id
 _symmetry_equiv_pos_as_xyz
  1  'x, y, z'
loop_
 _atom_site_type_symbol
 _atom_site_label
 _atom_site_symmetry_multiplicity
 _atom_site_fract_x
 _atom_site_fract_y
 _atom_site_fract_z
 _atom_site_occupancy
  Zr  Zr0  1  0.50000000  0.69148200  0.00000000  1
  Zr  Zr1  1  0.50000000  0.19148200  0.50000000  1
  Zr  Zr2  1  0.31246400  0.00000000  0.68754700  1
  Zr  Zr3  1  0.68753600  0.00000000  0.31245300  1
  Zr  Zr4  1  0.50000000  0.30851800  0.00000000  1
  Zr  Zr5  1  0.25164900  0.75000000  0.75000000  1
  Zr  Zr6  1  0.74835100  0.25000000  0.25000000  1
  Zr  Zr7  1  0.81246400  0.00000000  0.81245300  1
  Zr  Zr8  1  0.50000000  0.00000000  0.00000000  1
  Zr  Zr9  1  0.74835100  0.75000000  0.25000000  1
  Zr  Zr10  1  0.50000000  0.80851800  0.50000000  1
  Zr  Zr11  1  0.25164900  0.25000000  0.75000000  1
  Zr  Zr12  1  0.18753600  0.00000000  0.18754700  1
  Zr  Zr13  1  0.00000000  0.00000000  0.50000000  1
  Zr  Zr14  1  0.00000000  0.19148200  0.00000000  1
  Zr  Zr15  1  0.00000000  0.69148200  0.50000000  1
  Zr  Zr16  1  0.81246400  0.50000000  0.68754700  1
  Zr  Zr17  1  0.18753600  0.50000000  0.31245300  1
  Zr  Zr18  1  0.00000000  0.80851800  0.00000000  1
  Zr  Zr19  1  0.75164900  0.25000000  0.75000000  1
  Zr  Zr20  1  0.24835100  0.75000000  0.25000000  1
  Zr  Zr21  1  0.31246400  0.50000000  0.81245300  1
  Zr  Zr22  1  0.00000000  0.50000000  0.00000000  1
  Zr  Zr23  1  0.24835100  0.25000000  0.25000000  1
  Zr  Zr24  1  0.00000000  0.30851800  0.50000000  1
  Zr  Zr25  1  0.75164900  0.75000000  0.75000000  1
  Zr  Zr26  1  0.68753600  0.50000000  0.18754700  1
  Zr  Zr27  1  0.50000000  0.50000000  0.50000000  1
  Ni  Ni28  1  0.89405700  0.00000000  0.10557600  1
  Ni  Ni29  1  0.49398950  0.14628650  0.20712600  1
  Ni  Ni30  1  0.20625250  0.85519350  0.49331500  1
  Ni  Ni31  1  0.50601050  0.14628650  0.79287400  1
  Ni  Ni32  1  0.49398950  0.35371350  0.29287400  1
  Ni  Ni33  1  0.49398950  0.64628650  0.29287400  1
  Ni  Ni34  1  0.60594300  0.00000000  0.60557600  1
  Ni  Ni35  1  0.29374750  0.14480650  0.99331500  1
  Ni  Ni36  1  0.50601050  0.85371350  0.79287400  1
  Ni  Ni37  1  0.50601050  0.64628650  0.70712600  1
  Ni  Ni38  1  0.29374750  0.85519350  0.99331500  1
  Ni  Ni39  1  0.70625250  0.85519350  0.00668500  1
  Ni  Ni40  1  0.79374750  0.14480650  0.50668500  1
  Ni  Ni41  1  0.79374750  0.85519350  0.50668500  1
  Ni  Ni42  1  0.10594300  0.00000000  0.89442400  1
  Ni  Ni43  1  0.39405700  0.00000000  0.39442400  1
  Ni  Ni44  1  0.70625250  0.14480650  0.00668500  1
  Ni  Ni45  1  0.20625250  0.14480650  0.49331500  1
  Ni  Ni46  1  0.50601050  0.35371350  0.70712600  1
  Ni  Ni47  1  0.49398950  0.85371350  0.20712600  1
  Ni  Ni48  1  0.39405700  0.50000000  0.10557600  1
  Ni  Ni49  1  0.99398950  0.64628650  0.20712600  1
  Ni  Ni50  1  0.70625250  0.35519350  0.49331500  1
  Ni  Ni51  1  0.00601050  0.64628650  0.79287400  1
  Ni  Ni52  1  0.99398950  0.85371350  0.29287400  1
  Ni  Ni53  1  0.99398950  0.14628650  0.29287400  1
  Ni  Ni54  1  0.10594300  0.50000000  0.60557600  1
  Ni  Ni55  1  0.79374750  0.64480650  0.99331500  1
  Ni  Ni56  1  0.00601050  0.35371350  0.79287400  1
  Ni  Ni57  1  0.00601050  0.14628650  0.70712600  1
  Ni  Ni58  1  0.79374750  0.35519350  0.99331500  1
  Ni  Ni59  1  0.20625250  0.35519350  0.00668500  1
  Ni  Ni60  1  0.29374750  0.64480650  0.50668500  1
  Ni  Ni61  1  0.29374750  0.35519350  0.50668500  1
  Ni  Ni62  1  0.60594300  0.50000000  0.89442400  1
  Ni  Ni63  1  0.89405700  0.50000000  0.39442400  1
  Ni  Ni64  1  0.20625250  0.64480650  0.00668500  1
  Ni  Ni65  1  0.70625250  0.64480650  0.49331500  1
  Ni  Ni66  1  0.00601050  0.85371350  0.70712600  1
  Ni  Ni67  1  0.99398950  0.35371350  0.20712600  1
