# generated using pymatgen
data_Eu(AsPd)2
_symmetry_space_group_name_H-M   'P 1'
_cell_length_a   11.06110400
_cell_length_b   4.39961000
_cell_length_c   4.44656131
_cell_angle_alpha   90.00000000
_cell_angle_beta   111.65566146
_cell_angle_gamma   90.00000000
_symmetry_Int_Tables_number   1
_chemical_formula_structural   Eu(AsPd)2
_chemical_formula_sum   'Eu2 As4 Pd4'
_cell_volume   201.11673867
_cell_formula_units_Z   2
loop_
 _symmetry_equiv_pos_site_id
 _symmetry_equiv_pos_as_xyz
  1  'x, y, z'
loop_
 _atom_site_type_symbol
 _atom_site_label
 _atom_site_symmetry_multiplicity
 _atom_site_fract_x
 _atom_site_fract_y
 _atom_site_fract_z
 _atom_site_occupancy
  Eu  Eu0  1  0.00027300  0.00000000  0.00880300  1
  Eu  Eu1  1  0.50027300  0.50000000  0.00880300  1
  As  As2  1  0.12278900  0.50000000  0.62725900  1
  As  As3  1  0.37345300  0.00000000  0.37299600  1
  As  As4  1  0.62278900  0.00000000  0.62725900  1
  As  As5  1  0.87345300  0.50000000  0.37299600  1
  Pd  Pd6  1  0.25039900  0.00000000  0.75428300  1
  Pd  Pd7  1  0.24816200  0.50000000  0.24764800  1
  Pd  Pd8  1  0.75039900  0.50000000  0.75428300  1
  Pd  Pd9  1  0.74816200  0.00000000  0.24764800  1
