# generated using pymatgen
data_Ce5Sn3
_symmetry_space_group_name_H-M   'P 1'
_cell_length_a   12.42815400
_cell_length_b   12.42815400
_cell_length_c   6.10403200
_cell_angle_alpha   90.00000000
_cell_angle_beta   90.00000000
_cell_angle_gamma   90.00000000
_symmetry_Int_Tables_number   1
_chemical_formula_structural   Ce5Sn3
_chemical_formula_sum   'Ce20 Sn12'
_cell_volume   942.82275101
_cell_formula_units_Z   4
loop_
 _symmetry_equiv_pos_site_id
 _symmetry_equiv_pos_as_xyz
  1  'x, y, z'
loop_
 _atom_site_type_symbol
 _atom_site_label
 _atom_site_symmetry_multiplicity
 _atom_site_fract_x
 _atom_site_fract_y
 _atom_site_fract_z
 _atom_site_occupancy
  Ce  Ce0  1  0.41683500  0.27850900  0.50000000  1
  Ce  Ce1  1  0.58316500  0.27850900  0.00000000  1
  Ce  Ce2  1  0.77850900  0.91683500  0.50000000  1
  Ce  Ce3  1  0.22149100  0.08316500  0.50000000  1
  Ce  Ce4  1  0.41683500  0.72149100  0.00000000  1
  Ce  Ce5  1  0.50000000  0.00000000  0.25000000  1
  Ce  Ce6  1  0.77850900  0.08316500  0.00000000  1
  Ce  Ce7  1  0.22149100  0.91683500  0.00000000  1
  Ce  Ce8  1  0.58316500  0.72149100  0.50000000  1
  Ce  Ce9  1  0.50000000  0.00000000  0.75000000  1
  Ce  Ce10  1  0.91683500  0.77850900  0.00000000  1
  Ce  Ce11  1  0.08316500  0.77850900  0.50000000  1
  Ce  Ce12  1  0.27850900  0.41683500  0.00000000  1
  Ce  Ce13  1  0.72149100  0.58316500  0.00000000  1
  Ce  Ce14  1  0.91683500  0.22149100  0.50000000  1
  Ce  Ce15  1  0.00000000  0.50000000  0.75000000  1
  Ce  Ce16  1  0.27850900  0.58316500  0.50000000  1
  Ce  Ce17  1  0.72149100  0.41683500  0.50000000  1
  Ce  Ce18  1  0.08316500  0.22149100  0.00000000  1
  Ce  Ce19  1  0.00000000  0.50000000  0.25000000  1
  Sn  Sn20  1  0.66045700  0.16045700  0.50000000  1
  Sn  Sn21  1  0.33954300  0.16045700  0.00000000  1
  Sn  Sn22  1  0.00000000  0.00000000  0.25000000  1
  Sn  Sn23  1  0.66045700  0.83954300  0.00000000  1
  Sn  Sn24  1  0.33954300  0.83954300  0.50000000  1
  Sn  Sn25  1  0.00000000  0.00000000  0.75000000  1
  Sn  Sn26  1  0.16045700  0.66045700  0.00000000  1
  Sn  Sn27  1  0.83954300  0.66045700  0.50000000  1
  Sn  Sn28  1  0.50000000  0.50000000  0.75000000  1
  Sn  Sn29  1  0.16045700  0.33954300  0.50000000  1
  Sn  Sn30  1  0.83954300  0.33954300  0.00000000  1
  Sn  Sn31  1  0.50000000  0.50000000  0.25000000  1
