# generated using pymatgen
data_CrHO2
_symmetry_space_group_name_H-M   'P 1'
_cell_length_a   4.83727278
_cell_length_b   6.11488300
_cell_length_c   5.29941608
_cell_angle_alpha   90.00000000
_cell_angle_beta   111.46181353
_cell_angle_gamma   90.00000000
_symmetry_Int_Tables_number   1
_chemical_formula_structural   CrHO2
_chemical_formula_sum   'Cr4 H4 O8'
_cell_volume   145.88430035
_cell_formula_units_Z   4
loop_
 _symmetry_equiv_pos_site_id
 _symmetry_equiv_pos_as_xyz
  1  'x, y, z'
loop_
 _atom_site_type_symbol
 _atom_site_label
 _atom_site_symmetry_multiplicity
 _atom_site_fract_x
 _atom_site_fract_y
 _atom_site_fract_z
 _atom_site_occupancy
  Cr  Cr0  1  0.00226000  0.87456600  0.25685600  1
  Cr  Cr1  1  0.00226000  0.62543400  0.75685600  1
  Cr  Cr2  1  0.99774000  0.37456600  0.24314400  1
  Cr  Cr3  1  0.99774000  0.12543400  0.74314400  1
  H  H4  1  0.53598400  0.62440600  0.26499800  1
  H  H5  1  0.46401600  0.37559400  0.73500200  1
  H  H6  1  0.46401600  0.12440600  0.23500200  1
  H  H7  1  0.53598400  0.87559400  0.76499800  1
  O  O8  1  0.21927200  0.87392500  0.65898900  1
  O  O9  1  0.77401400  0.62308200  0.34355200  1
  O  O10  1  0.21927200  0.62607500  0.15898900  1
  O  O11  1  0.78072800  0.37392500  0.84101100  1
  O  O12  1  0.22598600  0.37691800  0.65644800  1
  O  O13  1  0.78072800  0.12607500  0.34101100  1
  O  O14  1  0.22598600  0.12308200  0.15644800  1
  O  O15  1  0.77401400  0.87691800  0.84355200  1
