# generated using pymatgen
data_Hg12SbBr(ClO3)2
_symmetry_space_group_name_H-M   'P 1'
_cell_length_a   14.36482579
_cell_length_b   14.36482579
_cell_length_c   9.94116300
_cell_angle_alpha   90.00000000
_cell_angle_beta   90.00000000
_cell_angle_gamma   120.00000000
_symmetry_Int_Tables_number   1
_chemical_formula_structural   Hg12SbBr(ClO3)2
_chemical_formula_sum   'Hg36 Sb3 Br3 Cl6 O18'
_cell_volume   1776.51366977
_cell_formula_units_Z   3
loop_
 _symmetry_equiv_pos_site_id
 _symmetry_equiv_pos_as_xyz
  1  'x, y, z'
loop_
 _atom_site_type_symbol
 _atom_site_label
 _atom_site_symmetry_multiplicity
 _atom_site_fract_x
 _atom_site_fract_y
 _atom_site_fract_z
 _atom_site_occupancy
  Hg  Hg0  1  0.83893533  0.36975067  0.27380200  1
  Hg  Hg1  1  0.96421533  0.50211167  0.93972100  1
  Hg  Hg2  1  0.29213933  0.49120667  0.60753800  1
  Hg  Hg3  1  0.49788833  0.46210367  0.93972100  1
  Hg  Hg4  1  0.87567033  0.69557767  0.60041800  1
  Hg  Hg5  1  0.21321733  0.84416267  0.29228700  1
  Hg  Hg6  1  0.45823833  0.84822267  0.06565300  1
  Hg  Hg7  1  0.30442233  0.18009267  0.60041800  1
  Hg  Hg8  1  0.36715133  0.22273867  0.05592800  1
  Hg  Hg9  1  0.02884133  0.48663167  0.38808000  1
  Hg  Hg10  1  0.15177733  0.61001567  0.06565300  1
  Hg  Hg11  1  0.70582933  0.86528167  0.69844300  1
  Hg  Hg12  1  0.38998433  0.54176167  0.06565300  1
  Hg  Hg13  1  0.77726133  0.14441267  0.05592800  1
  Hg  Hg14  1  0.18500033  0.09149067  0.92456600  1
  Hg  Hg15  1  0.63094533  0.78678267  0.29228700  1
  Hg  Hg16  1  0.81990733  0.12432967  0.60041800  1
  Hg  Hg17  1  0.85558733  0.63284867  0.05592800  1
  Hg  Hg18  1  0.53081533  0.16106467  0.27380200  1
  Hg  Hg19  1  0.51336833  0.54220967  0.38808000  1
  Hg  Hg20  1  0.53789633  0.03578467  0.93972100  1
  Hg  Hg21  1  0.15583733  0.36905467  0.29228700  1
  Hg  Hg22  1  0.74723533  0.51986467  0.73851900  1
  Hg  Hg23  1  0.13471833  0.84054767  0.69844300  1
  Hg  Hg24  1  0.19906733  0.70786067  0.60753800  1
  Hg  Hg25  1  0.50879333  0.80093267  0.60753800  1
  Hg  Hg26  1  0.13687733  0.96826567  0.38470000  1
  Hg  Hg27  1  0.90649033  0.81499967  0.92456600  1
  Hg  Hg28  1  0.03173433  0.16861167  0.38470000  1
  Hg  Hg29  1  0.45779033  0.97115867  0.38808000  1
  Hg  Hg30  1  0.63024933  0.46918467  0.27380200  1
  Hg  Hg31  1  0.48013533  0.22737067  0.73851900  1
  Hg  Hg32  1  0.83138833  0.86312267  0.38470000  1
  Hg  Hg33  1  0.77262933  0.25276467  0.73851900  1
  Hg  Hg34  1  0.15945233  0.29417067  0.69844300  1
  Hg  Hg35  1  0.90850933  0.09350967  0.92456600  1
  Sb  Sb36  1  0.33333333  0.66666667  0.32649100  1
  Sb  Sb37  1  0.66666667  0.33333333  0.00535800  1
  Sb  Sb38  1  0.00000000  0.00000000  0.66015400  1
  Br  Br39  1  0.00000000  0.00000000  0.17194000  1
  Br  Br40  1  0.33333333  0.66666667  0.82266400  1
  Br  Br41  1  0.66666667  0.33333333  0.49128500  1
  Cl  Cl42  1  0.76141733  0.08980167  0.33001100  1
  Cl  Cl43  1  0.53094033  0.53960367  0.67205800  1
  Cl  Cl44  1  0.91019833  0.67161567  0.33001100  1
  Cl  Cl45  1  0.32838433  0.23858267  0.33001100  1
  Cl  Cl46  1  0.46039633  0.99133667  0.67205800  1
  Cl  Cl47  1  0.00866333  0.46905967  0.67205800  1
  O  O48  1  0.46579833  0.72353167  0.20111100  1
  O  O49  1  0.27646833  0.74226667  0.20111100  1
  O  O50  1  0.61468033  0.41006367  0.87856000  1
  O  O51  1  0.95657033  0.87125867  0.53634800  1
  O  O52  1  0.86854133  0.92260367  0.78652500  1
  O  O53  1  0.79538333  0.38531967  0.87856000  1
  O  O54  1  0.58993633  0.20461667  0.87856000  1
  O  O55  1  0.05406233  0.13145867  0.78652500  1
  O  O56  1  0.40271133  0.60384967  0.44854000  1
  O  O57  1  0.39615033  0.79886167  0.44854000  1
  O  O58  1  0.71218033  0.25050167  0.13136100  1
  O  O59  1  0.74949833  0.46167867  0.13136100  1
  O  O60  1  0.25773333  0.53420167  0.20111100  1
  O  O61  1  0.53832133  0.28781967  0.13136100  1
  O  O62  1  0.12874133  0.08531167  0.53634800  1
  O  O63  1  0.20113833  0.59728867  0.44854000  1
  O  O64  1  0.91468833  0.04342967  0.53634800  1
  O  O65  1  0.07739633  0.94593767  0.78652500  1
