# generated using pymatgen
data_LuNi2B2C
_symmetry_space_group_name_H-M   'P 1'
_cell_length_a   3.46601600
_cell_length_b   3.46601600
_cell_length_c   10.54638000
_cell_angle_alpha   90.00000000
_cell_angle_beta   90.00000000
_cell_angle_gamma   90.00000000
_symmetry_Int_Tables_number   1
_chemical_formula_structural   LuNi2B2C
_chemical_formula_sum   'Lu2 Ni4 B4 C2'
_cell_volume   126.69647790
_cell_formula_units_Z   2
loop_
 _symmetry_equiv_pos_site_id
 _symmetry_equiv_pos_as_xyz
  1  'x, y, z'
loop_
 _atom_site_type_symbol
 _atom_site_label
 _atom_site_symmetry_multiplicity
 _atom_site_fract_x
 _atom_site_fract_y
 _atom_site_fract_z
 _atom_site_occupancy
  Lu  Lu0  1  0.00000000  0.00000000  0.00000000  1
  Lu  Lu1  1  0.50000000  0.50000000  0.50000000  1
  Ni  Ni2  1  0.00000000  0.50000000  0.25000000  1
  Ni  Ni3  1  0.50000000  0.00000000  0.25000000  1
  Ni  Ni4  1  0.50000000  0.00000000  0.75000000  1
  Ni  Ni5  1  0.00000000  0.50000000  0.75000000  1
  B  B6  1  0.00000000  0.00000000  0.35901800  1
  B  B7  1  0.50000000  0.50000000  0.14098200  1
  B  B8  1  0.50000000  0.50000000  0.85901800  1
  B  B9  1  0.00000000  0.00000000  0.64098200  1
  C  C10  1  0.50000000  0.50000000  0.00000000  1
  C  C11  1  0.00000000  0.00000000  0.50000000  1
