# generated using pymatgen
data_Cr21(WC3)2
_symmetry_space_group_name_H-M   'P 1'
_cell_length_a   10.64958200
_cell_length_b   10.64958200
_cell_length_c   10.64958200
_cell_angle_alpha   90.00000000
_cell_angle_beta   90.00000000
_cell_angle_gamma   90.00000000
_symmetry_Int_Tables_number   1
_chemical_formula_structural   Cr21(WC3)2
_chemical_formula_sum   'Cr84 W8 C24'
_cell_volume   1207.80739877
_cell_formula_units_Z   4
loop_
 _symmetry_equiv_pos_site_id
 _symmetry_equiv_pos_as_xyz
  1  'x, y, z'
loop_
 _atom_site_type_symbol
 _atom_site_label
 _atom_site_symmetry_multiplicity
 _atom_site_fract_x
 _atom_site_fract_y
 _atom_site_fract_z
 _atom_site_occupancy
  Cr  Cr0  1  0.00000000  0.00000000  0.00000000  1
  Cr  Cr1  1  0.88478100  0.88478100  0.61521900  1
  Cr  Cr2  1  0.38478100  0.11521900  0.88478100  1
  Cr  Cr3  1  0.61521900  0.88478100  0.88478100  1
  Cr  Cr4  1  0.11521900  0.11521900  0.61521900  1
  Cr  Cr5  1  0.61521900  0.11521900  0.88478100  1
  Cr  Cr6  1  0.11521900  0.88478100  0.61521900  1
  Cr  Cr7  1  0.88478100  0.11521900  0.61521900  1
  Cr  Cr8  1  0.38478100  0.88478100  0.88478100  1
  Cr  Cr9  1  0.16880000  0.16880000  0.00000000  1
  Cr  Cr10  1  0.16880000  0.00000000  0.83120000  1
  Cr  Cr11  1  0.00000000  0.16880000  0.83120000  1
  Cr  Cr12  1  0.16880000  0.83120000  0.00000000  1
  Cr  Cr13  1  0.66880000  0.00000000  0.66880000  1
  Cr  Cr14  1  0.00000000  0.33120000  0.66880000  1
  Cr  Cr15  1  0.33120000  0.66880000  0.00000000  1
  Cr  Cr16  1  0.33120000  0.00000000  0.66880000  1
  Cr  Cr17  1  0.00000000  0.66880000  0.66880000  1
  Cr  Cr18  1  0.33120000  0.33120000  0.00000000  1
  Cr  Cr19  1  0.83120000  0.00000000  0.83120000  1
  Cr  Cr20  1  0.00000000  0.83120000  0.83120000  1
  Cr  Cr21  1  0.00000000  0.50000000  0.50000000  1
  Cr  Cr22  1  0.88478100  0.38478100  0.11521900  1
  Cr  Cr23  1  0.38478100  0.61521900  0.38478100  1
  Cr  Cr24  1  0.61521900  0.38478100  0.38478100  1
  Cr  Cr25  1  0.11521900  0.61521900  0.11521900  1
  Cr  Cr26  1  0.61521900  0.61521900  0.38478100  1
  Cr  Cr27  1  0.11521900  0.38478100  0.11521900  1
  Cr  Cr28  1  0.88478100  0.61521900  0.11521900  1
  Cr  Cr29  1  0.38478100  0.38478100  0.38478100  1
  Cr  Cr30  1  0.16880000  0.66880000  0.50000000  1
  Cr  Cr31  1  0.16880000  0.50000000  0.33120000  1
  Cr  Cr32  1  0.00000000  0.66880000  0.33120000  1
  Cr  Cr33  1  0.16880000  0.33120000  0.50000000  1
  Cr  Cr34  1  0.66880000  0.50000000  0.16880000  1
  Cr  Cr35  1  0.00000000  0.83120000  0.16880000  1
  Cr  Cr36  1  0.33120000  0.16880000  0.50000000  1
  Cr  Cr37  1  0.33120000  0.50000000  0.16880000  1
  Cr  Cr38  1  0.00000000  0.16880000  0.16880000  1
  Cr  Cr39  1  0.33120000  0.83120000  0.50000000  1
  Cr  Cr40  1  0.83120000  0.50000000  0.33120000  1
  Cr  Cr41  1  0.00000000  0.33120000  0.33120000  1
  Cr  Cr42  1  0.50000000  0.00000000  0.50000000  1
  Cr  Cr43  1  0.38478100  0.88478100  0.11521900  1
  Cr  Cr44  1  0.88478100  0.11521900  0.38478100  1
  Cr  Cr45  1  0.11521900  0.88478100  0.38478100  1
  Cr  Cr46  1  0.61521900  0.11521900  0.11521900  1
  Cr  Cr47  1  0.11521900  0.11521900  0.38478100  1
  Cr  Cr48  1  0.61521900  0.88478100  0.11521900  1
  Cr  Cr49  1  0.38478100  0.11521900  0.11521900  1
  Cr  Cr50  1  0.88478100  0.88478100  0.38478100  1
  Cr  Cr51  1  0.66880000  0.16880000  0.50000000  1
  Cr  Cr52  1  0.66880000  0.00000000  0.33120000  1
  Cr  Cr53  1  0.50000000  0.16880000  0.33120000  1
  Cr  Cr54  1  0.66880000  0.83120000  0.50000000  1
  Cr  Cr55  1  0.16880000  0.00000000  0.16880000  1
  Cr  Cr56  1  0.50000000  0.33120000  0.16880000  1
  Cr  Cr57  1  0.83120000  0.66880000  0.50000000  1
  Cr  Cr58  1  0.83120000  0.00000000  0.16880000  1
  Cr  Cr59  1  0.50000000  0.66880000  0.16880000  1
  Cr  Cr60  1  0.83120000  0.33120000  0.50000000  1
  Cr  Cr61  1  0.33120000  0.00000000  0.33120000  1
  Cr  Cr62  1  0.50000000  0.83120000  0.33120000  1
  Cr  Cr63  1  0.50000000  0.50000000  0.00000000  1
  Cr  Cr64  1  0.38478100  0.38478100  0.61521900  1
  Cr  Cr65  1  0.88478100  0.61521900  0.88478100  1
  Cr  Cr66  1  0.11521900  0.38478100  0.88478100  1
  Cr  Cr67  1  0.61521900  0.61521900  0.61521900  1
  Cr  Cr68  1  0.11521900  0.61521900  0.88478100  1
  Cr  Cr69  1  0.61521900  0.38478100  0.61521900  1
  Cr  Cr70  1  0.38478100  0.61521900  0.61521900  1
  Cr  Cr71  1  0.88478100  0.38478100  0.88478100  1
  Cr  Cr72  1  0.66880000  0.66880000  0.00000000  1
  Cr  Cr73  1  0.66880000  0.50000000  0.83120000  1
  Cr  Cr74  1  0.50000000  0.66880000  0.83120000  1
  Cr  Cr75  1  0.66880000  0.33120000  0.00000000  1
  Cr  Cr76  1  0.16880000  0.50000000  0.66880000  1
  Cr  Cr77  1  0.50000000  0.83120000  0.66880000  1
  Cr  Cr78  1  0.83120000  0.16880000  0.00000000  1
  Cr  Cr79  1  0.83120000  0.50000000  0.66880000  1
  Cr  Cr80  1  0.50000000  0.16880000  0.66880000  1
  Cr  Cr81  1  0.83120000  0.83120000  0.00000000  1
  Cr  Cr82  1  0.33120000  0.50000000  0.83120000  1
  Cr  Cr83  1  0.50000000  0.33120000  0.83120000  1
  W  W84  1  0.25000000  0.25000000  0.75000000  1
  W  W85  1  0.25000000  0.75000000  0.75000000  1
  W  W86  1  0.25000000  0.75000000  0.25000000  1
  W  W87  1  0.25000000  0.25000000  0.25000000  1
  W  W88  1  0.75000000  0.25000000  0.25000000  1
  W  W89  1  0.75000000  0.75000000  0.25000000  1
  W  W90  1  0.75000000  0.75000000  0.75000000  1
  W  W91  1  0.75000000  0.25000000  0.75000000  1
  C  C92  1  0.00000000  0.00000000  0.72478900  1
  C  C93  1  0.50000000  0.77521100  0.00000000  1
  C  C94  1  0.27521100  0.00000000  0.00000000  1
  C  C95  1  0.50000000  0.00000000  0.77521100  1
  C  C96  1  0.50000000  0.22478900  0.00000000  1
  C  C97  1  0.72478900  0.00000000  0.00000000  1
  C  C98  1  0.00000000  0.50000000  0.22478900  1
  C  C99  1  0.50000000  0.27521100  0.50000000  1
  C  C100  1  0.27521100  0.50000000  0.50000000  1
  C  C101  1  0.50000000  0.50000000  0.27521100  1
  C  C102  1  0.50000000  0.72478900  0.50000000  1
  C  C103  1  0.72478900  0.50000000  0.50000000  1
  C  C104  1  0.50000000  0.00000000  0.22478900  1
  C  C105  1  0.00000000  0.77521100  0.50000000  1
  C  C106  1  0.77521100  0.00000000  0.50000000  1
  C  C107  1  0.00000000  0.00000000  0.27521100  1
  C  C108  1  0.00000000  0.22478900  0.50000000  1
  C  C109  1  0.22478900  0.00000000  0.50000000  1
  C  C110  1  0.50000000  0.50000000  0.72478900  1
  C  C111  1  0.00000000  0.27521100  0.00000000  1
  C  C112  1  0.77521100  0.50000000  0.00000000  1
  C  C113  1  0.00000000  0.50000000  0.77521100  1
  C  C114  1  0.00000000  0.72478900  0.00000000  1
  C  C115  1  0.22478900  0.50000000  0.00000000  1
