# generated using pymatgen
data_La2Al3Ge4
_symmetry_space_group_name_H-M   'P 1'
_cell_length_a   6.14907400
_cell_length_b   15.28834400
_cell_length_c   8.06974600
_cell_angle_alpha   90.00000000
_cell_angle_beta   90.00000000
_cell_angle_gamma   90.00000000
_symmetry_Int_Tables_number   1
_chemical_formula_structural   La2Al3Ge4
_chemical_formula_sum   'La8 Al12 Ge16'
_cell_volume   758.63003152
_cell_formula_units_Z   4
loop_
 _symmetry_equiv_pos_site_id
 _symmetry_equiv_pos_as_xyz
  1  'x, y, z'
loop_
 _atom_site_type_symbol
 _atom_site_label
 _atom_site_symmetry_multiplicity
 _atom_site_fract_x
 _atom_site_fract_y
 _atom_site_fract_z
 _atom_site_occupancy
  La  La0  1  0.00000000  0.88603200  0.58304400  1
  La  La1  1  0.00000000  0.61396800  0.08304400  1
  La  La2  1  0.50000000  0.88603200  0.91695600  1
  La  La3  1  0.50000000  0.61396800  0.41695600  1
  La  La4  1  0.50000000  0.38603200  0.58304400  1
  La  La5  1  0.50000000  0.11396800  0.08304400  1
  La  La6  1  0.00000000  0.38603200  0.91695600  1
  La  La7  1  0.00000000  0.11396800  0.41695600  1
  Al  Al8  1  0.75000000  0.71564200  0.75000000  1
  Al  Al9  1  0.00000000  0.00000000  0.00000000  1
  Al  Al10  1  0.25000000  0.71564200  0.75000000  1
  Al  Al11  1  0.50000000  0.00000000  0.50000000  1
  Al  Al12  1  0.75000000  0.78435800  0.25000000  1
  Al  Al13  1  0.25000000  0.78435800  0.25000000  1
  Al  Al14  1  0.25000000  0.21564200  0.75000000  1
  Al  Al15  1  0.50000000  0.50000000  0.00000000  1
  Al  Al16  1  0.75000000  0.21564200  0.75000000  1
  Al  Al17  1  0.00000000  0.50000000  0.50000000  1
  Al  Al18  1  0.25000000  0.28435800  0.25000000  1
  Al  Al19  1  0.75000000  0.28435800  0.25000000  1
  Ge  Ge20  1  0.25000000  0.54884200  0.75000000  1
  Ge  Ge21  1  0.75000000  0.54884200  0.75000000  1
  Ge  Ge22  1  0.25000000  0.95115800  0.25000000  1
  Ge  Ge23  1  0.50000000  0.81312700  0.55189900  1
  Ge  Ge24  1  0.75000000  0.95115800  0.25000000  1
  Ge  Ge25  1  0.50000000  0.68687300  0.05189900  1
  Ge  Ge26  1  0.00000000  0.81312700  0.94810100  1
  Ge  Ge27  1  0.00000000  0.68687300  0.44810100  1
  Ge  Ge28  1  0.75000000  0.04884200  0.75000000  1
  Ge  Ge29  1  0.25000000  0.04884200  0.75000000  1
  Ge  Ge30  1  0.75000000  0.45115800  0.25000000  1
  Ge  Ge31  1  0.00000000  0.31312700  0.55189900  1
  Ge  Ge32  1  0.25000000  0.45115800  0.25000000  1
  Ge  Ge33  1  0.00000000  0.18687300  0.05189900  1
  Ge  Ge34  1  0.50000000  0.31312700  0.94810100  1
  Ge  Ge35  1  0.50000000  0.18687300  0.44810100  1
