# generated using pymatgen
data_Li11Mn13O32
_symmetry_space_group_name_H-M   'P 1'
_cell_length_a   11.76399200
_cell_length_b   11.66609600
_cell_length_c   10.10544729
_cell_angle_alpha   90.00000000
_cell_angle_beta   124.91785872
_cell_angle_gamma   90.00000000
_symmetry_Int_Tables_number   1
_chemical_formula_structural   Li11Mn13O32
_chemical_formula_sum   'Li22 Mn26 O64'
_cell_volume   1137.19679082
_cell_formula_units_Z   2
loop_
 _symmetry_equiv_pos_site_id
 _symmetry_equiv_pos_as_xyz
  1  'x, y, z'
loop_
 _atom_site_type_symbol
 _atom_site_label
 _atom_site_symmetry_multiplicity
 _atom_site_fract_x
 _atom_site_fract_y
 _atom_site_fract_z
 _atom_site_occupancy
  Li  Li0  1  0.92847100  0.50000000  0.11495900  1
  Li  Li1  1  0.42909000  0.50000000  0.11991100  1
  Li  Li2  1  0.92924150  0.75259150  0.62132700  1
  Li  Li3  1  0.00000000  0.24781100  0.00000000  1
  Li  Li4  1  0.07075850  0.24740850  0.37867300  1
  Li  Li5  1  0.00000000  0.00000000  0.50000000  1
  Li  Li6  1  0.92924150  0.24740850  0.62132700  1
  Li  Li7  1  0.57091000  0.50000000  0.88008900  1
  Li  Li8  1  0.00000000  0.75218900  0.00000000  1
  Li  Li9  1  0.07075850  0.75259150  0.37867300  1
  Li  Li10  1  0.07152900  0.50000000  0.88504100  1
  Li  Li11  1  0.42847100  0.00000000  0.11495900  1
  Li  Li12  1  0.92909000  0.00000000  0.11991100  1
  Li  Li13  1  0.42924150  0.25259150  0.62132700  1
  Li  Li14  1  0.50000000  0.74781100  0.00000000  1
  Li  Li15  1  0.57075850  0.74740850  0.37867300  1
  Li  Li16  1  0.50000000  0.50000000  0.50000000  1
  Li  Li17  1  0.42924150  0.74740850  0.62132700  1
  Li  Li18  1  0.07091000  0.00000000  0.88008900  1
  Li  Li19  1  0.50000000  0.25218900  0.00000000  1
  Li  Li20  1  0.57075850  0.25259150  0.37867300  1
  Li  Li21  1  0.57152900  0.00000000  0.88504100  1
  Mn  Mn22  1  0.25105300  0.50000000  0.49707100  1
  Mn  Mn23  1  0.25078800  0.62742000  0.75216500  1
  Mn  Mn24  1  0.00000000  0.50000000  0.50000000  1
  Mn  Mn25  1  0.74921200  0.62742000  0.24783500  1
  Mn  Mn26  1  0.74894700  0.50000000  0.50292900  1
  Mn  Mn27  1  0.75033800  0.62482900  0.75080400  1
  Mn  Mn28  1  0.25000000  0.75000000  0.00000000  1
  Mn  Mn29  1  0.24966200  0.62482900  0.24919600  1
  Mn  Mn30  1  0.74921200  0.37258000  0.24783500  1
  Mn  Mn31  1  0.25078800  0.37258000  0.75216500  1
  Mn  Mn32  1  0.75000000  0.75000000  0.00000000  1
  Mn  Mn33  1  0.24966200  0.37517100  0.24919600  1
  Mn  Mn34  1  0.75033800  0.37517100  0.75080400  1
  Mn  Mn35  1  0.75105300  0.00000000  0.49707100  1
  Mn  Mn36  1  0.75078800  0.12742000  0.75216500  1
  Mn  Mn37  1  0.50000000  0.00000000  0.50000000  1
  Mn  Mn38  1  0.24921200  0.12742000  0.24783500  1
  Mn  Mn39  1  0.24894700  0.00000000  0.50292900  1
  Mn  Mn40  1  0.25033800  0.12482900  0.75080400  1
  Mn  Mn41  1  0.75000000  0.25000000  0.00000000  1
  Mn  Mn42  1  0.74966200  0.12482900  0.24919600  1
  Mn  Mn43  1  0.24921200  0.87258000  0.24783500  1
  Mn  Mn44  1  0.75078800  0.87258000  0.75216500  1
  Mn  Mn45  1  0.25000000  0.25000000  0.00000000  1
  Mn  Mn46  1  0.74966200  0.87517100  0.24919600  1
  Mn  Mn47  1  0.25033800  0.87517100  0.75080400  1
  O  O48  1  0.35269100  0.50000000  0.73511300  1
  O  O49  1  0.12840750  0.61069050  0.51184200  1
  O  O50  1  0.12828900  0.50000000  0.73296600  1
  O  O51  1  0.87171100  0.50000000  0.26703400  1
  O  O52  1  0.64661700  0.63331100  0.02295100  1
  O  O53  1  0.87159250  0.61069050  0.48815800  1
  O  O54  1  0.64730900  0.50000000  0.26488700  1
  O  O55  1  0.14601850  0.24740050  0.25086500  1
  O  O56  1  0.85771100  0.50000000  0.73916000  1
  O  O57  1  0.64625600  0.61411000  0.51848600  1
  O  O58  1  0.35338300  0.63331100  0.97704900  1
  O  O59  1  0.85667600  0.36341600  0.98003800  1
  O  O60  1  0.64375500  0.50000000  0.74746000  1
  O  O61  1  0.14238650  0.75077650  0.76199400  1
  O  O62  1  0.85761350  0.24922350  0.23800600  1
  O  O63  1  0.35624500  0.50000000  0.25254000  1
  O  O64  1  0.35374400  0.38589000  0.48151400  1
  O  O65  1  0.35374400  0.61411000  0.48151400  1
  O  O66  1  0.14332400  0.63658400  0.01996200  1
  O  O67  1  0.64661700  0.36668900  0.02295100  1
  O  O68  1  0.14228900  0.50000000  0.26084000  1
  O  O69  1  0.14601850  0.75259950  0.25086500  1
  O  O70  1  0.85398150  0.75259950  0.74913500  1
  O  O71  1  0.85667600  0.63658400  0.98003800  1
  O  O72  1  0.12840750  0.38930950  0.51184200  1
  O  O73  1  0.35338300  0.36668900  0.97704900  1
  O  O74  1  0.14238650  0.24922350  0.76199400  1
  O  O75  1  0.85761350  0.75077650  0.23800600  1
  O  O76  1  0.14332400  0.36341600  0.01996200  1
  O  O77  1  0.87159250  0.38930950  0.48815800  1
  O  O78  1  0.85398150  0.24740050  0.74913500  1
  O  O79  1  0.64625600  0.38589000  0.51848600  1
  O  O80  1  0.85269100  0.00000000  0.73511300  1
  O  O81  1  0.62840750  0.11069050  0.51184200  1
  O  O82  1  0.62828900  0.00000000  0.73296600  1
  O  O83  1  0.37171100  0.00000000  0.26703400  1
  O  O84  1  0.14661700  0.13331100  0.02295100  1
  O  O85  1  0.37159250  0.11069050  0.48815800  1
  O  O86  1  0.14730900  0.00000000  0.26488700  1
  O  O87  1  0.64601850  0.74740050  0.25086500  1
  O  O88  1  0.35771100  0.00000000  0.73916000  1
  O  O89  1  0.14625600  0.11411000  0.51848600  1
  O  O90  1  0.85338300  0.13331100  0.97704900  1
  O  O91  1  0.35667600  0.86341600  0.98003800  1
  O  O92  1  0.14375500  0.00000000  0.74746000  1
  O  O93  1  0.64238650  0.25077650  0.76199400  1
  O  O94  1  0.35761350  0.74922350  0.23800600  1
  O  O95  1  0.85624500  0.00000000  0.25254000  1
  O  O96  1  0.85374400  0.88589000  0.48151400  1
  O  O97  1  0.85374400  0.11411000  0.48151400  1
  O  O98  1  0.64332400  0.13658400  0.01996200  1
  O  O99  1  0.14661700  0.86668900  0.02295100  1
  O  O100  1  0.64228900  0.00000000  0.26084000  1
  O  O101  1  0.64601850  0.25259950  0.25086500  1
  O  O102  1  0.35398150  0.25259950  0.74913500  1
  O  O103  1  0.35667600  0.13658400  0.98003800  1
  O  O104  1  0.62840750  0.88930950  0.51184200  1
  O  O105  1  0.85338300  0.86668900  0.97704900  1
  O  O106  1  0.64238650  0.74922350  0.76199400  1
  O  O107  1  0.35761350  0.25077650  0.23800600  1
  O  O108  1  0.64332400  0.86341600  0.01996200  1
  O  O109  1  0.37159250  0.88930950  0.48815800  1
  O  O110  1  0.35398150  0.74740050  0.74913500  1
  O  O111  1  0.14625600  0.88589000  0.51848600  1
