# generated using pymatgen
data_CeIn7Pt2
_symmetry_space_group_name_H-M   'P 1'
_cell_length_a   4.59261800
_cell_length_b   4.59261800
_cell_length_c   23.26720000
_cell_angle_alpha   90.00000000
_cell_angle_beta   90.00000000
_cell_angle_gamma   90.00000000
_symmetry_Int_Tables_number   1
_chemical_formula_structural   CeIn7Pt2
_chemical_formula_sum   'Ce2 In14 Pt4'
_cell_volume   490.75504199
_cell_formula_units_Z   2
loop_
 _symmetry_equiv_pos_site_id
 _symmetry_equiv_pos_as_xyz
  1  'x, y, z'
loop_
 _atom_site_type_symbol
 _atom_site_label
 _atom_site_symmetry_multiplicity
 _atom_site_fract_x
 _atom_site_fract_y
 _atom_site_fract_z
 _atom_site_occupancy
  Ce  Ce0  1  0.00000000  0.00000000  0.00000000  1
  Ce  Ce1  1  0.50000000  0.50000000  0.50000000  1
  In  In2  1  0.50000000  0.00000000  0.39362900  1
  In  In3  1  0.50000000  0.00000000  0.10637100  1
  In  In4  1  0.00000000  0.50000000  0.39362900  1
  In  In5  1  0.50000000  0.50000000  0.00000000  1
  In  In6  1  0.00000000  0.50000000  0.25000000  1
  In  In7  1  0.00000000  0.50000000  0.10637100  1
  In  In8  1  0.50000000  0.00000000  0.25000000  1
  In  In9  1  0.00000000  0.50000000  0.89362900  1
  In  In10  1  0.00000000  0.50000000  0.60637100  1
  In  In11  1  0.50000000  0.00000000  0.89362900  1
  In  In12  1  0.00000000  0.00000000  0.50000000  1
  In  In13  1  0.50000000  0.00000000  0.75000000  1
  In  In14  1  0.50000000  0.00000000  0.60637100  1
  In  In15  1  0.00000000  0.50000000  0.75000000  1
  Pt  Pt16  1  0.00000000  0.00000000  0.32041500  1
  Pt  Pt17  1  0.50000000  0.50000000  0.17958500  1
  Pt  Pt18  1  0.50000000  0.50000000  0.82041500  1
  Pt  Pt19  1  0.00000000  0.00000000  0.67958500  1
