# generated using pymatgen
data_Yb6U3O17
_symmetry_space_group_name_H-M   'P 1'
_cell_length_a   12.04662200
_cell_length_b   5.35726000
_cell_length_c   11.11634623
_cell_angle_alpha   90.00000000
_cell_angle_beta   107.83310098
_cell_angle_gamma   90.00000000
_symmetry_Int_Tables_number   1
_chemical_formula_structural   Yb6U3O17
_chemical_formula_sum   'Yb12 U6 O34'
_cell_volume   682.94449568
_cell_formula_units_Z   2
loop_
 _symmetry_equiv_pos_site_id
 _symmetry_equiv_pos_as_xyz
  1  'x, y, z'
loop_
 _atom_site_type_symbol
 _atom_site_label
 _atom_site_symmetry_multiplicity
 _atom_site_fract_x
 _atom_site_fract_y
 _atom_site_fract_z
 _atom_site_occupancy
  Yb  Yb0  1  0.82939550  0.82032450  0.10996200  1
  Yb  Yb1  1  0.82051400  0.88099500  0.44546500  1
  Yb  Yb2  1  0.50381800  0.81948200  0.67663000  1
  Yb  Yb3  1  0.67060450  0.32032450  0.89003800  1
  Yb  Yb4  1  0.99618200  0.31948200  0.32337000  1
  Yb  Yb5  1  0.67948600  0.38099500  0.55453500  1
  Yb  Yb6  1  0.32939550  0.32032450  0.10996200  1
  Yb  Yb7  1  0.32051400  0.38099500  0.44546500  1
  Yb  Yb8  1  0.00381800  0.31948200  0.67663000  1
  Yb  Yb9  1  0.17060450  0.82032450  0.89003800  1
  Yb  Yb10  1  0.49618200  0.81948200  0.32337000  1
  Yb  Yb11  1  0.17948600  0.88099500  0.55453500  1
  U  U12  1  0.83785400  0.82939000  0.77808400  1
  U  U13  1  0.00000000  0.32042500  0.00000000  1
  U  U14  1  0.66214600  0.32939000  0.22191600  1
  U  U15  1  0.33785400  0.32939000  0.77808400  1
  U  U16  1  0.50000000  0.82042500  0.00000000  1
  U  U17  1  0.16214600  0.82939000  0.22191600  1
  O  O18  1  0.83043850  0.09678250  0.62787500  1
  O  O19  1  0.50747650  0.05838150  0.85053400  1
  O  O20  1  0.83495100  0.06443600  0.93283400  1
  O  O21  1  0.84064800  0.56253900  0.93612300  1
  O  O22  1  0.66504900  0.56443600  0.06716600  1
  O  O23  1  0.99252350  0.55838150  0.14946600  1
  O  O24  1  0.81696400  0.11142900  0.26808700  1
  O  O25  1  0.82714650  0.57247250  0.29582600  1
  O  O26  1  0.66956150  0.59678250  0.37212500  1
  O  O27  1  0.00000000  0.08345900  0.50000000  1
  O  O28  1  0.85260950  0.62249850  0.62651500  1
  O  O29  1  0.68303600  0.61142900  0.73191300  1
  O  O30  1  0.67285350  0.07247250  0.70417400  1
  O  O31  1  0.50081800  0.56765400  0.84433300  1
  O  O32  1  0.65935200  0.06253900  0.06387700  1
  O  O33  1  0.99918200  0.06765400  0.15566700  1
  O  O34  1  0.64739050  0.12249850  0.37348500  1
  O  O35  1  0.33043850  0.59678250  0.62787500  1
  O  O36  1  0.00747650  0.55838150  0.85053400  1
  O  O37  1  0.33495100  0.56443600  0.93283400  1
  O  O38  1  0.34064800  0.06253900  0.93612300  1
  O  O39  1  0.16504900  0.06443600  0.06716600  1
  O  O40  1  0.49252350  0.05838150  0.14946600  1
  O  O41  1  0.31696400  0.61142900  0.26808700  1
  O  O42  1  0.32714650  0.07247250  0.29582600  1
  O  O43  1  0.16956150  0.09678250  0.37212500  1
  O  O44  1  0.50000000  0.58345900  0.50000000  1
  O  O45  1  0.35260950  0.12249850  0.62651500  1
  O  O46  1  0.18303600  0.11142900  0.73191300  1
  O  O47  1  0.17285350  0.57247250  0.70417400  1
  O  O48  1  0.00081800  0.06765400  0.84433300  1
  O  O49  1  0.15935200  0.56253900  0.06387700  1
  O  O50  1  0.49918200  0.56765400  0.15566700  1
  O  O51  1  0.14739050  0.62249850  0.37348500  1
