# generated using pymatgen
data_Ag(Mo3S4)2
_symmetry_space_group_name_H-M   'P 1'
_cell_length_a   9.40968513
_cell_length_b   9.40968513
_cell_length_c   10.90449401
_cell_angle_alpha   90.00000000
_cell_angle_beta   90.00000000
_cell_angle_gamma   120.00000000
_symmetry_Int_Tables_number   1
_chemical_formula_structural   Ag(Mo3S4)2
_chemical_formula_sum   'Ag3 Mo18 S24'
_cell_volume   836.15411763
_cell_formula_units_Z   3
loop_
 _symmetry_equiv_pos_site_id
 _symmetry_equiv_pos_as_xyz
  1  'x, y, z'
loop_
 _atom_site_type_symbol
 _atom_site_label
 _atom_site_symmetry_multiplicity
 _atom_site_fract_x
 _atom_site_fract_y
 _atom_site_fract_z
 _atom_site_occupancy
  Ag  Ag0  1  0.00000000  0.00000000  0.00000000  1
  Ag  Ag1  1  0.66666667  0.33333333  0.33333333  1
  Ag  Ag2  1  0.33333333  0.66666667  0.66666667  1
  Mo  Mo3  1  0.16117100  0.17644800  0.39212100  1
  Mo  Mo4  1  0.01527700  0.83882900  0.39212100  1
  Mo  Mo5  1  0.82355200  0.98472300  0.39212100  1
  Mo  Mo6  1  0.17644800  0.01527700  0.60787900  1
  Mo  Mo7  1  0.98472300  0.16117100  0.60787900  1
  Mo  Mo8  1  0.83882900  0.82355200  0.60787900  1
  Mo  Mo9  1  0.82783767  0.50978133  0.72545433  1
  Mo  Mo10  1  0.68194367  0.17216233  0.72545433  1
  Mo  Mo11  1  0.49021867  0.31805633  0.72545433  1
  Mo  Mo12  1  0.84311467  0.34861033  0.94121233  1
  Mo  Mo13  1  0.65138967  0.49450433  0.94121233  1
  Mo  Mo14  1  0.50549567  0.15688533  0.94121233  1
  Mo  Mo15  1  0.49450433  0.84311467  0.05878767  1
  Mo  Mo16  1  0.34861033  0.50549567  0.05878767  1
  Mo  Mo17  1  0.15688533  0.65138967  0.05878767  1
  Mo  Mo18  1  0.50978133  0.68194367  0.27454567  1
  Mo  Mo19  1  0.31805633  0.82783767  0.27454567  1
  Mo  Mo20  1  0.17216233  0.49021867  0.27454567  1
  S  S21  1  0.31403933  0.03185267  0.41518267  1
  S  S22  1  0.96814733  0.28218667  0.41518267  1
  S  S23  1  0.71781333  0.68596067  0.41518267  1
  S  S24  1  0.28218667  0.31403933  0.58481733  1
  S  S25  1  0.00000000  0.00000000  0.77623200  1
  S  S26  1  0.03185267  0.71781333  0.58481733  1
  S  S27  1  0.68596067  0.96814733  0.58481733  1
  S  S28  1  0.00000000  0.00000000  0.22376800  1
  S  S29  1  0.98070600  0.36518600  0.74851600  1
  S  S30  1  0.63481400  0.61552000  0.74851600  1
  S  S31  1  0.38448000  0.01929400  0.74851600  1
  S  S32  1  0.94885333  0.64737267  0.91815067  1
  S  S33  1  0.66666667  0.33333333  0.10956533  1
  S  S34  1  0.69851933  0.05114667  0.91815067  1
  S  S35  1  0.35262733  0.30148067  0.91815067  1
  S  S36  1  0.66666667  0.33333333  0.55710133  1
  S  S37  1  0.64737267  0.69851933  0.08184933  1
  S  S38  1  0.30148067  0.94885333  0.08184933  1
  S  S39  1  0.05114667  0.35262733  0.08184933  1
  S  S40  1  0.61552000  0.98070600  0.25148400  1
  S  S41  1  0.33333333  0.66666667  0.44289867  1
  S  S42  1  0.36518600  0.38448000  0.25148400  1
  S  S43  1  0.01929400  0.63481400  0.25148400  1
  S  S44  1  0.33333333  0.66666667  0.89043467  1
