# generated using pymatgen
data_Nd12Cu6O25
_symmetry_space_group_name_H-M   'P 1'
_cell_length_a   17.23726400
_cell_length_b   3.77375600
_cell_length_c   18.44607429
_cell_angle_alpha   90.00000000
_cell_angle_beta   110.73454281
_cell_angle_gamma   90.00000000
_symmetry_Int_Tables_number   1
_chemical_formula_structural   Nd12Cu6O25
_chemical_formula_sum   'Nd24 Cu12 O50'
_cell_volume   1122.18609642
_cell_formula_units_Z   2
loop_
 _symmetry_equiv_pos_site_id
 _symmetry_equiv_pos_as_xyz
  1  'x, y, z'
loop_
 _atom_site_type_symbol
 _atom_site_label
 _atom_site_symmetry_multiplicity
 _atom_site_fract_x
 _atom_site_fract_y
 _atom_site_fract_z
 _atom_site_occupancy
  Nd  Nd0  1  0.83072300  0.00000000  0.57830100  1
  Nd  Nd1  1  0.05241300  0.50000000  0.92907800  1
  Nd  Nd2  1  0.03157200  0.00000000  0.73558000  1
  Nd  Nd3  1  0.34841800  0.00000000  0.76660200  1
  Nd  Nd4  1  0.14310800  0.00000000  0.60286000  1
  Nd  Nd5  1  0.76102900  0.00000000  0.09772600  1
  Nd  Nd6  1  0.65158200  0.00000000  0.23339800  1
  Nd  Nd7  1  0.85689200  0.00000000  0.39714000  1
  Nd  Nd8  1  0.96842800  0.00000000  0.26442000  1
  Nd  Nd9  1  0.94758700  0.50000000  0.07092200  1
  Nd  Nd10  1  0.23897100  0.00000000  0.90227400  1
  Nd  Nd11  1  0.16927700  0.00000000  0.42169900  1
  Nd  Nd12  1  0.33072300  0.50000000  0.57830100  1
  Nd  Nd13  1  0.55241300  0.00000000  0.92907800  1
  Nd  Nd14  1  0.53157200  0.50000000  0.73558000  1
  Nd  Nd15  1  0.84841800  0.50000000  0.76660200  1
  Nd  Nd16  1  0.64310800  0.50000000  0.60286000  1
  Nd  Nd17  1  0.26102900  0.50000000  0.09772600  1
  Nd  Nd18  1  0.15158200  0.50000000  0.23339800  1
  Nd  Nd19  1  0.35689200  0.50000000  0.39714000  1
  Nd  Nd20  1  0.46842800  0.50000000  0.26442000  1
  Nd  Nd21  1  0.44758700  0.00000000  0.07092200  1
  Nd  Nd22  1  0.73897100  0.50000000  0.90227400  1
  Nd  Nd23  1  0.66927700  0.50000000  0.42169900  1
  Cu  Cu24  1  0.60394900  0.50000000  0.08084900  1
  Cu  Cu25  1  0.39605100  0.50000000  0.91915100  1
  Cu  Cu26  1  0.98376800  0.50000000  0.57399600  1
  Cu  Cu27  1  0.81053500  0.50000000  0.24804200  1
  Cu  Cu28  1  0.18946500  0.50000000  0.75195800  1
  Cu  Cu29  1  0.01623200  0.50000000  0.42600400  1
  Cu  Cu30  1  0.10394900  0.00000000  0.08084900  1
  Cu  Cu31  1  0.89605100  0.00000000  0.91915100  1
  Cu  Cu32  1  0.48376800  0.00000000  0.57399600  1
  Cu  Cu33  1  0.31053500  0.00000000  0.24804200  1
  Cu  Cu34  1  0.68946500  0.00000000  0.75195800  1
  Cu  Cu35  1  0.51623200  0.00000000  0.42600400  1
  O  O36  1  0.81204000  0.00000000  0.24736300  1
  O  O37  1  0.18796000  0.00000000  0.75263700  1
  O  O38  1  0.07062600  0.50000000  0.30980500  1
  O  O39  1  0.27758500  0.50000000  0.68629700  1
  O  O40  1  0.39645900  0.00000000  0.91797400  1
  O  O41  1  0.24986300  0.00000000  0.55710700  1
  O  O42  1  0.83079100  0.00000000  0.01095000  1
  O  O43  1  0.71061500  0.50000000  0.15745100  1
  O  O44  1  0.72241500  0.50000000  0.31370300  1
  O  O45  1  0.01824600  0.00000000  0.41080800  1
  O  O46  1  0.12308100  0.50000000  0.84123700  1
  O  O47  1  0.92937400  0.50000000  0.69019500  1
  O  O48  1  0.91414900  0.50000000  0.33646000  1
  O  O49  1  0.08585100  0.50000000  0.66354000  1
  O  O50  1  0.02814500  0.00000000  0.16588500  1
  O  O51  1  0.28938500  0.50000000  0.84254900  1
  O  O52  1  0.75013700  0.00000000  0.44289300  1
  O  O53  1  0.88550600  0.50000000  0.48634800  1
  O  O54  1  0.00000000  0.00000000  0.00000000  1
  O  O55  1  0.60354100  0.00000000  0.08202600  1
  O  O56  1  0.97185500  0.00000000  0.83411500  1
  O  O57  1  0.87691900  0.50000000  0.15876300  1
  O  O58  1  0.11449400  0.50000000  0.51365200  1
  O  O59  1  0.98175400  0.00000000  0.58919200  1
  O  O60  1  0.16920900  0.00000000  0.98905000  1
  O  O61  1  0.31204000  0.50000000  0.24736300  1
  O  O62  1  0.68796000  0.50000000  0.75263700  1
  O  O63  1  0.57062600  0.00000000  0.30980500  1
  O  O64  1  0.77758500  0.00000000  0.68629700  1
  O  O65  1  0.89645900  0.50000000  0.91797400  1
  O  O66  1  0.74986300  0.50000000  0.55710700  1
  O  O67  1  0.33079100  0.50000000  0.01095000  1
  O  O68  1  0.21061500  0.00000000  0.15745100  1
  O  O69  1  0.22241500  0.00000000  0.31370300  1
  O  O70  1  0.51824600  0.50000000  0.41080800  1
  O  O71  1  0.62308100  0.00000000  0.84123700  1
  O  O72  1  0.42937400  0.00000000  0.69019500  1
  O  O73  1  0.41414900  0.00000000  0.33646000  1
  O  O74  1  0.58585100  0.00000000  0.66354000  1
  O  O75  1  0.52814500  0.50000000  0.16588500  1
  O  O76  1  0.78938500  0.00000000  0.84254900  1
  O  O77  1  0.25013700  0.50000000  0.44289300  1
  O  O78  1  0.38550600  0.00000000  0.48634800  1
  O  O79  1  0.50000000  0.50000000  0.00000000  1
  O  O80  1  0.10354100  0.50000000  0.08202600  1
  O  O81  1  0.47185500  0.50000000  0.83411500  1
  O  O82  1  0.37691900  0.00000000  0.15876300  1
  O  O83  1  0.61449400  0.00000000  0.51365200  1
  O  O84  1  0.48175400  0.50000000  0.58919200  1
  O  O85  1  0.66920900  0.50000000  0.98905000  1
