# generated using pymatgen
data_Sr2CuCO5
_symmetry_space_group_name_H-M   'P 1'
_cell_length_a   7.86885200
_cell_length_b   7.86885200
_cell_length_c   15.29708200
_cell_angle_alpha   90.00000000
_cell_angle_beta   90.00000000
_cell_angle_gamma   90.00000000
_symmetry_Int_Tables_number   1
_chemical_formula_structural   Sr2CuCO5
_chemical_formula_sum   'Sr16 Cu8 C8 O40'
_cell_volume   947.17744736
_cell_formula_units_Z   8
loop_
 _symmetry_equiv_pos_site_id
 _symmetry_equiv_pos_as_xyz
  1  'x, y, z'
loop_
 _atom_site_type_symbol
 _atom_site_label
 _atom_site_symmetry_multiplicity
 _atom_site_fract_x
 _atom_site_fract_y
 _atom_site_fract_z
 _atom_site_occupancy
  Sr  Sr0  1  0.00000000  0.00000000  0.12750500  1
  Sr  Sr1  1  0.50000000  0.50000000  0.37249500  1
  Sr  Sr2  1  0.00000000  0.00000000  0.35018600  1
  Sr  Sr3  1  0.50000000  0.50000000  0.14981400  1
  Sr  Sr4  1  0.50000000  0.00000000  0.13423300  1
  Sr  Sr5  1  0.50000000  0.00000000  0.36576700  1
  Sr  Sr6  1  0.00000000  0.50000000  0.36576700  1
  Sr  Sr7  1  0.00000000  0.50000000  0.13423300  1
  Sr  Sr8  1  0.50000000  0.50000000  0.62750500  1
  Sr  Sr9  1  0.00000000  0.00000000  0.87249500  1
  Sr  Sr10  1  0.50000000  0.50000000  0.85018600  1
  Sr  Sr11  1  0.00000000  0.00000000  0.64981400  1
  Sr  Sr12  1  0.00000000  0.50000000  0.63423300  1
  Sr  Sr13  1  0.00000000  0.50000000  0.86576700  1
  Sr  Sr14  1  0.50000000  0.00000000  0.86576700  1
  Sr  Sr15  1  0.50000000  0.00000000  0.63423300  1
  Cu  Cu16  1  0.75000000  0.25000000  0.25000000  1
  Cu  Cu17  1  0.25000000  0.25000000  0.25000000  1
  Cu  Cu18  1  0.75000000  0.75000000  0.25000000  1
  Cu  Cu19  1  0.25000000  0.75000000  0.25000000  1
  Cu  Cu20  1  0.25000000  0.75000000  0.75000000  1
  Cu  Cu21  1  0.75000000  0.75000000  0.75000000  1
  Cu  Cu22  1  0.25000000  0.25000000  0.75000000  1
  Cu  Cu23  1  0.75000000  0.25000000  0.75000000  1
  C  C24  1  0.25034000  0.73670100  0.00000000  1
  C  C25  1  0.74966000  0.26329900  0.00000000  1
  C  C26  1  0.73670100  0.74966000  0.00000000  1
  C  C27  1  0.26329900  0.25034000  0.00000000  1
  C  C28  1  0.75034000  0.23670100  0.50000000  1
  C  C29  1  0.24966000  0.76329900  0.50000000  1
  C  C30  1  0.23670100  0.24966000  0.50000000  1
  C  C31  1  0.76329900  0.75034000  0.50000000  1
  O  O32  1  0.26723000  0.08361000  0.00000000  1
  O  O33  1  0.91639000  0.26723000  0.00000000  1
  O  O34  1  0.08361000  0.73277000  0.00000000  1
  O  O35  1  0.73277000  0.91639000  0.00000000  1
  O  O36  1  0.26244350  0.33272450  0.07143450  1
  O  O37  1  0.16727550  0.76244350  0.42856550  1
  O  O38  1  0.83272450  0.23755650  0.42856550  1
  O  O39  1  0.73755650  0.66727550  0.07143450  1
  O  O40  1  0.66727550  0.26244350  0.07143450  1
  O  O41  1  0.33272450  0.73755650  0.07143450  1
  O  O42  1  0.76244350  0.83272450  0.42856550  1
  O  O43  1  0.23755650  0.16727550  0.42856550  1
  O  O44  1  0.00065100  0.75105800  0.23719800  1
  O  O45  1  0.74894200  0.50065100  0.26280200  1
  O  O46  1  0.25105800  0.49934900  0.26280200  1
  O  O47  1  0.99934900  0.24894200  0.23719800  1
  O  O48  1  0.50065100  0.25105800  0.26280200  1
  O  O49  1  0.24894200  0.00065100  0.23719800  1
  O  O50  1  0.75105800  0.99934900  0.23719800  1
  O  O51  1  0.49934900  0.74894200  0.26280200  1
  O  O52  1  0.76723000  0.58361000  0.50000000  1
  O  O53  1  0.41639000  0.76723000  0.50000000  1
  O  O54  1  0.58361000  0.23277000  0.50000000  1
  O  O55  1  0.23277000  0.41639000  0.50000000  1
  O  O56  1  0.76244350  0.83272450  0.57143450  1
  O  O57  1  0.66727550  0.26244350  0.92856550  1
  O  O58  1  0.33272450  0.73755650  0.92856550  1
  O  O59  1  0.23755650  0.16727550  0.57143450  1
  O  O60  1  0.16727550  0.76244350  0.57143450  1
  O  O61  1  0.83272450  0.23755650  0.57143450  1
  O  O62  1  0.26244350  0.33272450  0.92856550  1
  O  O63  1  0.73755650  0.66727550  0.92856550  1
  O  O64  1  0.50065100  0.25105800  0.73719800  1
  O  O65  1  0.24894200  0.00065100  0.76280200  1
  O  O66  1  0.75105800  0.99934900  0.76280200  1
  O  O67  1  0.49934900  0.74894200  0.73719800  1
  O  O68  1  0.00065100  0.75105800  0.76280200  1
  O  O69  1  0.74894200  0.50065100  0.73719800  1
  O  O70  1  0.25105800  0.49934900  0.73719800  1
  O  O71  1  0.99934900  0.24894200  0.76280200  1
