# generated using pymatgen
data_Li5VP2O9
_symmetry_space_group_name_H-M   'P 1'
_cell_length_a   9.35357600
_cell_length_b   9.35357600
_cell_length_c   7.94995200
_cell_angle_alpha   90.00000000
_cell_angle_beta   90.00000000
_cell_angle_gamma   90.00000000
_symmetry_Int_Tables_number   1
_chemical_formula_structural   Li5VP2O9
_chemical_formula_sum   'Li20 V4 P8 O36'
_cell_volume   695.53640321
_cell_formula_units_Z   4
loop_
 _symmetry_equiv_pos_site_id
 _symmetry_equiv_pos_as_xyz
  1  'x, y, z'
loop_
 _atom_site_type_symbol
 _atom_site_label
 _atom_site_symmetry_multiplicity
 _atom_site_fract_x
 _atom_site_fract_y
 _atom_site_fract_z
 _atom_site_occupancy
  Li  Li0  1  0.50000000  0.00000000  0.25000000  1
  Li  Li1  1  0.50000000  0.27532700  0.25000000  1
  Li  Li2  1  0.22467300  0.00000000  0.75000000  1
  Li  Li3  1  0.27532700  0.50000000  0.25000000  1
  Li  Li4  1  0.50000000  0.27532700  0.75000000  1
  Li  Li5  1  0.27532700  0.50000000  0.75000000  1
  Li  Li6  1  0.00000000  0.50000000  0.25000000  1
  Li  Li7  1  0.00000000  0.22467300  0.25000000  1
  Li  Li8  1  0.00000000  0.22467300  0.75000000  1
  Li  Li9  1  0.22467300  0.00000000  0.25000000  1
  Li  Li10  1  0.00000000  0.50000000  0.75000000  1
  Li  Li11  1  0.00000000  0.77532700  0.75000000  1
  Li  Li12  1  0.72467300  0.50000000  0.25000000  1
  Li  Li13  1  0.77532700  0.00000000  0.75000000  1
  Li  Li14  1  0.00000000  0.77532700  0.25000000  1
  Li  Li15  1  0.77532700  0.00000000  0.25000000  1
  Li  Li16  1  0.50000000  0.00000000  0.75000000  1
  Li  Li17  1  0.50000000  0.72467300  0.75000000  1
  Li  Li18  1  0.50000000  0.72467300  0.25000000  1
  Li  Li19  1  0.72467300  0.50000000  0.75000000  1
  V  V20  1  0.00000000  0.00000000  0.50000000  1
  V  V21  1  0.00000000  0.00000000  0.00000000  1
  V  V22  1  0.50000000  0.50000000  0.00000000  1
  V  V23  1  0.50000000  0.50000000  0.50000000  1
  P  P24  1  0.29300150  0.79300150  0.50000000  1
  P  P25  1  0.20699850  0.70699850  0.00000000  1
  P  P26  1  0.29300150  0.20699850  0.00000000  1
  P  P27  1  0.20699850  0.29300150  0.50000000  1
  P  P28  1  0.79300150  0.29300150  0.00000000  1
  P  P29  1  0.70699850  0.20699850  0.50000000  1
  P  P30  1  0.79300150  0.70699850  0.50000000  1
  P  P31  1  0.70699850  0.79300150  0.00000000  1
  O  O32  1  0.37247000  0.31865100  0.50000000  1
  O  O33  1  0.35977950  0.14022050  0.15972450  1
  O  O34  1  0.85977950  0.35977950  0.15972450  1
  O  O35  1  0.87247000  0.18134900  0.50000000  1
  O  O36  1  0.31865100  0.37247000  0.00000000  1
  O  O37  1  0.35977950  0.85977950  0.34027550  1
  O  O38  1  0.14022050  0.35977950  0.34027550  1
  O  O39  1  0.12753000  0.18134900  0.00000000  1
  O  O40  1  0.68134900  0.37247000  0.50000000  1
  O  O41  1  0.85977950  0.64022050  0.34027550  1
  O  O42  1  0.00000000  0.00000000  0.25000000  1
  O  O43  1  0.64022050  0.14022050  0.34027550  1
  O  O44  1  0.18134900  0.12753000  0.50000000  1
  O  O45  1  0.81865100  0.12753000  0.00000000  1
  O  O46  1  0.00000000  0.00000000  0.75000000  1
  O  O47  1  0.14022050  0.64022050  0.15972450  1
  O  O48  1  0.64022050  0.85977950  0.15972450  1
  O  O49  1  0.62753000  0.31865100  0.00000000  1
  O  O50  1  0.87247000  0.81865100  0.00000000  1
  O  O51  1  0.85977950  0.64022050  0.65972450  1
  O  O52  1  0.35977950  0.85977950  0.65972450  1
  O  O53  1  0.37247000  0.68134900  0.00000000  1
  O  O54  1  0.81865100  0.87247000  0.50000000  1
  O  O55  1  0.85977950  0.35977950  0.84027550  1
  O  O56  1  0.64022050  0.85977950  0.84027550  1
  O  O57  1  0.62753000  0.68134900  0.50000000  1
  O  O58  1  0.18134900  0.87247000  0.00000000  1
  O  O59  1  0.35977950  0.14022050  0.84027550  1
  O  O60  1  0.50000000  0.50000000  0.75000000  1
  O  O61  1  0.14022050  0.64022050  0.84027550  1
  O  O62  1  0.68134900  0.62753000  0.00000000  1
  O  O63  1  0.31865100  0.62753000  0.50000000  1
  O  O64  1  0.50000000  0.50000000  0.25000000  1
  O  O65  1  0.64022050  0.14022050  0.65972450  1
  O  O66  1  0.14022050  0.35977950  0.65972450  1
  O  O67  1  0.12753000  0.81865100  0.50000000  1
