# generated using pymatgen
data_Yb3Sm3S8
_symmetry_space_group_name_H-M   'P 1'
_cell_length_a   11.94195400
_cell_length_b   8.42417600
_cell_length_c   8.38152677
_cell_angle_alpha   90.00000000
_cell_angle_beta   134.41832512
_cell_angle_gamma   90.00000000
_symmetry_Int_Tables_number   1
_chemical_formula_structural   Yb3Sm3S8
_chemical_formula_sum   'Yb6 Sm6 S16'
_cell_volume   602.24821612
_cell_formula_units_Z   2
loop_
 _symmetry_equiv_pos_site_id
 _symmetry_equiv_pos_as_xyz
  1  'x, y, z'
loop_
 _atom_site_type_symbol
 _atom_site_label
 _atom_site_symmetry_multiplicity
 _atom_site_fract_x
 _atom_site_fract_y
 _atom_site_fract_z
 _atom_site_occupancy
  Yb  Yb0  1  0.37352500  0.24889600  0.62252800  1
  Yb  Yb1  1  0.00000000  0.37525200  0.00000000  1
  Yb  Yb2  1  0.12647500  0.74889600  0.37747200  1
  Yb  Yb3  1  0.87352500  0.74889600  0.62252800  1
  Yb  Yb4  1  0.50000000  0.87525200  0.00000000  1
  Yb  Yb5  1  0.62647500  0.24889600  0.37747200  1
  Sm  Sm6  1  0.50000000  0.62405300  0.50000000  1
  Sm  Sm7  1  0.74951900  0.00162300  0.87397900  1
  Sm  Sm8  1  0.75048100  0.50162300  0.12602100  1
  Sm  Sm9  1  0.00000000  0.12405300  0.50000000  1
  Sm  Sm10  1  0.24951900  0.50162300  0.87397900  1
  Sm  Sm11  1  0.25048100  0.00162300  0.12602100  1
  S  S12  1  0.18163550  0.67717150  0.10756200  1
  S  S13  1  0.31836450  0.17717150  0.89243800  1
  S  S14  1  0.42855500  0.56860700  0.75230600  1
  S  S15  1  0.07144500  0.06860700  0.24769400  1
  S  S16  1  0.18081400  0.82731800  0.75443500  1
  S  S17  1  0.07048650  0.42673250  0.39691900  1
  S  S18  1  0.31918600  0.32731800  0.24556500  1
  S  S19  1  0.42951350  0.92673250  0.60308100  1
  S  S20  1  0.68163550  0.17717150  0.10756200  1
  S  S21  1  0.81836450  0.67717150  0.89243800  1
  S  S22  1  0.92855500  0.06860700  0.75230600  1
  S  S23  1  0.57144500  0.56860700  0.24769400  1
  S  S24  1  0.68081400  0.32731800  0.75443500  1
  S  S25  1  0.57048650  0.92673250  0.39691900  1
  S  S26  1  0.81918600  0.82731800  0.24556500  1
  S  S27  1  0.92951350  0.42673250  0.60308100  1
