# generated using pymatgen
data_Ti3Zn3C
_symmetry_space_group_name_H-M   'P 1'
_cell_length_a   11.57837400
_cell_length_b   11.57837400
_cell_length_c   11.57837400
_cell_angle_alpha   90.00000000
_cell_angle_beta   90.00000000
_cell_angle_gamma   90.00000000
_symmetry_Int_Tables_number   1
_chemical_formula_structural   Ti3Zn3C
_chemical_formula_sum   'Ti48 Zn48 C16'
_cell_volume   1552.18228160
_cell_formula_units_Z   16
loop_
 _symmetry_equiv_pos_site_id
 _symmetry_equiv_pos_as_xyz
  1  'x, y, z'
loop_
 _atom_site_type_symbol
 _atom_site_label
 _atom_site_symmetry_multiplicity
 _atom_site_fract_x
 _atom_site_fract_y
 _atom_site_fract_z
 _atom_site_occupancy
  Ti  Ti0  1  0.25000000  0.25000000  0.43294700  1
  Ti  Ti1  1  0.25000000  0.06705300  0.25000000  1
  Ti  Ti2  1  0.06705300  0.25000000  0.25000000  1
  Ti  Ti3  1  0.25000000  0.25000000  0.06705300  1
  Ti  Ti4  1  0.25000000  0.43294700  0.25000000  1
  Ti  Ti5  1  0.43294700  0.25000000  0.25000000  1
  Ti  Ti6  1  0.50000000  0.00000000  0.31705300  1
  Ti  Ti7  1  0.50000000  0.18294700  0.50000000  1
  Ti  Ti8  1  0.68294700  0.00000000  0.50000000  1
  Ti  Ti9  1  0.00000000  0.00000000  0.18294700  1
  Ti  Ti10  1  0.50000000  0.81705300  0.50000000  1
  Ti  Ti11  1  0.31705300  0.00000000  0.50000000  1
  Ti  Ti12  1  0.25000000  0.75000000  0.93294700  1
  Ti  Ti13  1  0.25000000  0.56705300  0.75000000  1
  Ti  Ti14  1  0.06705300  0.75000000  0.75000000  1
  Ti  Ti15  1  0.25000000  0.75000000  0.56705300  1
  Ti  Ti16  1  0.25000000  0.93294700  0.75000000  1
  Ti  Ti17  1  0.43294700  0.75000000  0.75000000  1
  Ti  Ti18  1  0.50000000  0.50000000  0.81705300  1
  Ti  Ti19  1  0.50000000  0.68294700  0.00000000  1
  Ti  Ti20  1  0.68294700  0.50000000  0.00000000  1
  Ti  Ti21  1  0.00000000  0.50000000  0.68294700  1
  Ti  Ti22  1  0.50000000  0.31705300  0.00000000  1
  Ti  Ti23  1  0.31705300  0.50000000  0.00000000  1
  Ti  Ti24  1  0.75000000  0.25000000  0.93294700  1
  Ti  Ti25  1  0.75000000  0.06705300  0.75000000  1
  Ti  Ti26  1  0.56705300  0.25000000  0.75000000  1
  Ti  Ti27  1  0.75000000  0.25000000  0.56705300  1
  Ti  Ti28  1  0.75000000  0.43294700  0.75000000  1
  Ti  Ti29  1  0.93294700  0.25000000  0.75000000  1
  Ti  Ti30  1  0.00000000  0.00000000  0.81705300  1
  Ti  Ti31  1  0.00000000  0.18294700  0.00000000  1
  Ti  Ti32  1  0.18294700  0.00000000  0.00000000  1
  Ti  Ti33  1  0.50000000  0.00000000  0.68294700  1
  Ti  Ti34  1  0.00000000  0.81705300  0.00000000  1
  Ti  Ti35  1  0.81705300  0.00000000  0.00000000  1
  Ti  Ti36  1  0.75000000  0.75000000  0.43294700  1
  Ti  Ti37  1  0.75000000  0.56705300  0.25000000  1
  Ti  Ti38  1  0.56705300  0.75000000  0.25000000  1
  Ti  Ti39  1  0.75000000  0.75000000  0.06705300  1
  Ti  Ti40  1  0.75000000  0.93294700  0.25000000  1
  Ti  Ti41  1  0.93294700  0.75000000  0.25000000  1
  Ti  Ti42  1  0.00000000  0.50000000  0.31705300  1
  Ti  Ti43  1  0.00000000  0.68294700  0.50000000  1
  Ti  Ti44  1  0.18294700  0.50000000  0.50000000  1
  Ti  Ti45  1  0.50000000  0.50000000  0.18294700  1
  Ti  Ti46  1  0.00000000  0.31705300  0.50000000  1
  Ti  Ti47  1  0.81705300  0.50000000  0.50000000  1
  Zn  Zn48  1  0.66502567  0.16502567  0.33497433  1
  Zn  Zn49  1  0.16502567  0.83497433  0.16502567  1
  Zn  Zn50  1  0.83497433  0.16502567  0.16502567  1
  Zn  Zn51  1  0.33497433  0.83497433  0.33497433  1
  Zn  Zn52  1  0.08497433  0.08497433  0.41502567  1
  Zn  Zn53  1  0.08497433  0.41502567  0.08497433  1
  Zn  Zn54  1  0.41502567  0.08497433  0.08497433  1
  Zn  Zn55  1  0.41502567  0.41502567  0.41502567  1
  Zn  Zn56  1  0.37500000  0.87500000  0.12500000  1
  Zn  Zn57  1  0.37500000  0.62500000  0.37500000  1
  Zn  Zn58  1  0.12500000  0.87500000  0.37500000  1
  Zn  Zn59  1  0.12500000  0.62500000  0.12500000  1
  Zn  Zn60  1  0.66502567  0.66502567  0.83497433  1
  Zn  Zn61  1  0.16502567  0.33497433  0.66502567  1
  Zn  Zn62  1  0.83497433  0.66502567  0.66502567  1
  Zn  Zn63  1  0.33497433  0.33497433  0.83497433  1
  Zn  Zn64  1  0.08497433  0.58497433  0.91502567  1
  Zn  Zn65  1  0.08497433  0.91502567  0.58497433  1
  Zn  Zn66  1  0.41502567  0.58497433  0.58497433  1
  Zn  Zn67  1  0.41502567  0.91502567  0.91502567  1
  Zn  Zn68  1  0.37500000  0.37500000  0.62500000  1
  Zn  Zn69  1  0.37500000  0.12500000  0.87500000  1
  Zn  Zn70  1  0.12500000  0.37500000  0.87500000  1
  Zn  Zn71  1  0.12500000  0.12500000  0.62500000  1
  Zn  Zn72  1  0.16502567  0.16502567  0.83497433  1
  Zn  Zn73  1  0.66502567  0.83497433  0.66502567  1
  Zn  Zn74  1  0.33497433  0.16502567  0.66502567  1
  Zn  Zn75  1  0.83497433  0.83497433  0.83497433  1
  Zn  Zn76  1  0.58497433  0.08497433  0.91502567  1
  Zn  Zn77  1  0.58497433  0.41502567  0.58497433  1
  Zn  Zn78  1  0.91502567  0.08497433  0.58497433  1
  Zn  Zn79  1  0.91502567  0.41502567  0.91502567  1
  Zn  Zn80  1  0.87500000  0.87500000  0.62500000  1
  Zn  Zn81  1  0.87500000  0.62500000  0.87500000  1
  Zn  Zn82  1  0.62500000  0.87500000  0.87500000  1
  Zn  Zn83  1  0.62500000  0.62500000  0.62500000  1
  Zn  Zn84  1  0.16502567  0.66502567  0.33497433  1
  Zn  Zn85  1  0.66502567  0.33497433  0.16502567  1
  Zn  Zn86  1  0.33497433  0.66502567  0.16502567  1
  Zn  Zn87  1  0.83497433  0.33497433  0.33497433  1
  Zn  Zn88  1  0.58497433  0.58497433  0.41502567  1
  Zn  Zn89  1  0.58497433  0.91502567  0.08497433  1
  Zn  Zn90  1  0.91502567  0.58497433  0.08497433  1
  Zn  Zn91  1  0.91502567  0.91502567  0.41502567  1
  Zn  Zn92  1  0.87500000  0.37500000  0.12500000  1
  Zn  Zn93  1  0.87500000  0.12500000  0.37500000  1
  Zn  Zn94  1  0.62500000  0.37500000  0.37500000  1
  Zn  Zn95  1  0.62500000  0.12500000  0.12500000  1
  C  C96  1  0.87500000  0.87500000  0.12500000  1
  C  C97  1  0.37500000  0.12500000  0.37500000  1
  C  C98  1  0.62500000  0.87500000  0.37500000  1
  C  C99  1  0.12500000  0.12500000  0.12500000  1
  C  C100  1  0.87500000  0.37500000  0.62500000  1
  C  C101  1  0.37500000  0.62500000  0.87500000  1
  C  C102  1  0.62500000  0.37500000  0.87500000  1
  C  C103  1  0.12500000  0.62500000  0.62500000  1
  C  C104  1  0.37500000  0.87500000  0.62500000  1
  C  C105  1  0.87500000  0.12500000  0.87500000  1
  C  C106  1  0.12500000  0.87500000  0.87500000  1
  C  C107  1  0.62500000  0.12500000  0.62500000  1
  C  C108  1  0.37500000  0.37500000  0.12500000  1
  C  C109  1  0.87500000  0.62500000  0.37500000  1
  C  C110  1  0.12500000  0.37500000  0.37500000  1
  C  C111  1  0.62500000  0.62500000  0.12500000  1
