# generated using pymatgen
data_Cr7Se8
_symmetry_space_group_name_H-M   'P 1'
_cell_length_a   12.09344200
_cell_length_b   7.52109200
_cell_length_c   8.79686363
_cell_angle_alpha   90.00000000
_cell_angle_beta   132.57676337
_cell_angle_gamma   90.00000000
_symmetry_Int_Tables_number   1
_chemical_formula_structural   Cr7Se8
_chemical_formula_sum   'Cr14 Se16'
_cell_volume   589.19042522
_cell_formula_units_Z   2
loop_
 _symmetry_equiv_pos_site_id
 _symmetry_equiv_pos_as_xyz
  1  'x, y, z'
loop_
 _atom_site_type_symbol
 _atom_site_label
 _atom_site_symmetry_multiplicity
 _atom_site_fract_x
 _atom_site_fract_y
 _atom_site_fract_z
 _atom_site_occupancy
  Cr  Cr0  1  0.00000000  0.50000000  0.00000000  1
  Cr  Cr1  1  0.25000000  0.25000000  0.50000000  1
  Cr  Cr2  1  0.25000000  0.75000000  0.50000000  1
  Cr  Cr3  1  0.00000000  0.76877100  0.50000000  1
  Cr  Cr4  1  0.50000000  0.73122900  0.50000000  1
  Cr  Cr5  1  0.26718100  0.50000000  0.01089100  1
  Cr  Cr6  1  0.23281900  0.00000000  0.98910900  1
  Cr  Cr7  1  0.50000000  0.00000000  0.00000000  1
  Cr  Cr8  1  0.75000000  0.75000000  0.50000000  1
  Cr  Cr9  1  0.75000000  0.25000000  0.50000000  1
  Cr  Cr10  1  0.50000000  0.26877100  0.50000000  1
  Cr  Cr11  1  0.00000000  0.23122900  0.50000000  1
  Cr  Cr12  1  0.76718100  0.00000000  0.01089100  1
  Cr  Cr13  1  0.73281900  0.50000000  0.98910900  1
  Se  Se14  1  0.45099900  0.50000000  0.66400600  1
  Se  Se15  1  0.04900100  0.00000000  0.33599400  1
  Se  Se16  1  0.46393100  0.00000000  0.66798900  1
  Se  Se17  1  0.03606900  0.50000000  0.33201100  1
  Se  Se18  1  0.21464950  0.25615450  0.16872500  1
  Se  Se19  1  0.28535050  0.75615450  0.83127500  1
  Se  Se20  1  0.21464950  0.74384550  0.16872500  1
  Se  Se21  1  0.28535050  0.24384550  0.83127500  1
  Se  Se22  1  0.95099900  0.00000000  0.66400600  1
  Se  Se23  1  0.54900100  0.50000000  0.33599400  1
  Se  Se24  1  0.96393100  0.50000000  0.66798900  1
  Se  Se25  1  0.53606900  0.00000000  0.33201100  1
  Se  Se26  1  0.71464950  0.75615450  0.16872500  1
  Se  Se27  1  0.78535050  0.25615450  0.83127500  1
  Se  Se28  1  0.71464950  0.24384550  0.16872500  1
  Se  Se29  1  0.78535050  0.74384550  0.83127500  1
